data_PCOD9152975
_publ_section_title
;
Structure prediction by ZEFSAII (Michael W. Deem and Ramdas Pophale) SiO2 
 PCOD9152975
Probable space group: P 2/M
;
_chemical_formula_sum "Si O2"
_cell_formula_units_Z 18
_cell_length_a 9.663572
_cell_length_b 21.614183
_cell_length_c 8.216137
_cell_angle_alpha 90.000000
_cell_angle_beta 148.215457
_cell_angle_gamma 90.000000
_cell_volume 903.918653
_symmetry_space_group_name_H-M "P 2/M"
_symmetry_group_IT_number 10
_symmetry_cell_setting 'monoclinic'
loop_
_space_group_symop_operation_xyz
x,y,z
-x,y,-z
-x,-y,-z
x,-y,z
loop_
_atom_site_type_symbol
_atom_site_label
_atom_site_fract_x
_atom_site_fract_y
_atom_site_fract_z
Si Si1 0.255481 0.395111 0.369964
Si Si2 0.745760 0.747560 0.631928
Si Si3 0.610858 0.927633 0.793265
Si Si4 0.883433 0.863222 0.563761
Si Si5 0.751206 0.500000 0.367410
O O1 0.500000 0.411782 0.500000
O O2 0.289743 0.323553 0.457676
O O3 0.242942 0.440627 0.508964
O O4 0.000000 0.399882 0.000000
O O5 0.500000 0.765026 0.500000
O O6 0.791562 0.796204 0.534945
O O7 0.000000 0.749025 0.000000
O O8 0.500000 0.919308 0.500000
O O9 0.373790 0.905867 0.672864
O O10 0.669697 0.000000 0.876923
O O11 0.876809 0.889323 0.087239
O O12 0.000000 0.861619 0.500000
O O13 0.000000 0.500000 0.500000
O O14 0.500000 0.500000 0.000000
#
# Coordination Sequence:
#
# PCOD9152975 Si02
#       5
#     4   4   4   4   2
#     4  10  21  40  64  87 116 161 208 244 285 348
#     4  10  21  39  63  86 114 157 204 245 287 347
#     4  11  24  42  63  85 114 157 203 243 289 354
#     4  12  24  38  60  90 122 153 189 246 307 355
#     4  12  24  38  60  94 130 160 192 246 306 348
#
# _framework density 19.913297
#
# number of rings (size 3 to 8) (size 9 to 14) (size 15 to 20)
#    0.000    1.111    0.000    7.333    0.000    5.333 
#    0.000    2.222    0.000    0.000    0.000    0.000 
#    0.000    0.000    0.000    0.000    0.000    0.000 
#
# Total GULP energy -100725.975270 kJ/mol
# GULP energy per Si atom -5595.887515 kJ/mol
# Density = 1.986797 g / cm^3
# Si number density = 19.913297 Si / 1000 Ang^3
#
#
#
# Elastic Constant Matrix: (Units=GPa)
#
#
# Indices 1 2 3 4 5 6 
#
# 1 147.9950 84.9781 47.2513 0.0000 21.0753 0.0000
# 2 84.9781 136.1218 31.7979 0.0000 0.0567 0.0000
# 3 47.2513 31.7979 109.1155 0.0000 26.4600 0.0000
# 4 0.0000 0.0000 0.0000 16.0781 0.0000 26.3851
# 5 21.0753 0.0567 26.4600 0.0000 39.6833 0.0000
# 6 0.0000 0.0000 0.0000 26.3851 0.0000 11.1882
#
#
#
# Elastic Compliance Matrix: (Units=1/GPa)
#
#
# Indices 1 2 3 4 5 6 
#
# 1 0.012246 -0.007187 -0.001949 0.000000 -0.005194 0.000000
# 2 -0.007187 0.012212 -0.001632 0.000000 0.004888 0.000000
# 3 -0.001949 -0.001632 0.012206 0.000000 -0.007101 0.000000
# 4 0.000000 0.000000 0.000000 -0.021671 0.000000 0.051106
# 5 -0.005194 0.004888 -0.007101 0.000000 0.032686 0.000000
# 6 0.000000 0.000000 0.000000 0.051106 0.000000 -0.031142
#
#
# Mechanical properties :
#
#
# Convention : Reuss Voigt Hill
#
# Bulk Modulus (GPa) = 66.10109 80.14298 73.12204
# Shear Modulus (GPa) = 115.96427 28.67027 72.31727
#
# Velocity S-wave (km/s) = 7.63944 3.79853 6.03282
# Velocity P-wave (km/s) = 10.53951 7.71827 9.23723
#
# Compressibility (1/GPa) = 0.01512834
#
# Stress axis : x y z
#
# Youngs Moduli (GPa) = 81.66043 81.88380 81.92605
#
# Poissons Ratio (x) = 0.58853 0.15967
# Poissons Ratio (y) = 0.58693 0.13368
# Poissons Ratio (z) = 0.15915 0.13361
#
# Static dielectric constant tensor:
#      x y z
#    x 1.664470 0.000000 0.002780 
#    y 0.000000 1.714540 0.000000 
#    z 0.002780 0.000000 1.652180 
# 
# From -- ./inp_files/20363.got.cif
#   From: 2010.05.17/outbox.cif.g08.bks.cpg/sg10_11_cif.got.tgz:20363.got - 2010.06.03 11:33:40.
