data_PCOD9152560
_publ_section_title
;
Structure prediction by ZEFSAII (Michael W. Deem and Ramdas Pophale) SiO2 
 PCOD9152560
Probable space group: P 2/M
;
_chemical_formula_sum "Si O2"
_cell_formula_units_Z 28
_cell_length_a 14.696217
_cell_length_b 13.967830
_cell_length_c 9.600278
_cell_angle_alpha 90.000000
_cell_angle_beta 131.103211
_cell_angle_gamma 90.000000
_cell_volume 1484.967214
_symmetry_space_group_name_H-M "P 2/M"
_symmetry_group_IT_number 10
_symmetry_cell_setting 'monoclinic'
loop_
_space_group_symop_operation_xyz
x,y,z
-x,y,-z
-x,-y,-z
x,-y,z
loop_
_atom_site_type_symbol
_atom_site_label
_atom_site_fract_x
_atom_site_fract_y
_atom_site_fract_z
Si Si1 0.879802 0.607980 0.322088
Si Si2 0.625295 0.205471 0.106481
Si Si3 0.246100 0.739824 0.029242
Si Si4 0.034829 0.888120 0.874375
Si Si5 0.337605 0.607243 0.686474
Si Si6 0.355996 0.389746 0.376978
Si Si7 0.123002 0.886426 0.534542
O O1 0.908114 0.500000 0.304424
O O2 0.789357 0.602584 0.360889
O O3 0.000000 0.655873 0.500000
O O4 0.821766 0.663615 0.137223
O O5 0.605575 0.301905 0.178914
O O6 0.754542 0.163554 0.289138
O O7 0.500000 0.148410 0.000000
O O8 0.646757 0.225323 0.964501
O O9 0.291808 0.686290 0.212573
O O10 0.152179 0.824566 0.963909
O O11 0.921582 0.857369 0.664432
O O12 0.059329 0.000000 0.864428
O O13 0.000000 0.881227 0.000000
O O14 0.394670 0.500000 0.761244
O O15 0.328501 0.624042 0.512716
O O16 0.500000 0.381829 0.500000
O O17 0.322044 0.500000 0.306036
O O18 0.000000 0.871611 0.500000
O O19 0.147649 0.000000 0.561686
#
# Coordination Sequence:
#
# PCOD9152560 Si02
#       7
#     4   4   4   4   4   4   4
#     4   9  19  34  53  81 117 150 187 237 291 341
#     4  11  23  36  59  92 121 152 195 242 292 345
#     4  11  22  34  60  86 114 153 195 243 288 346
#     4  10  23  41  62  88 114 150 195 240 291 352
#     4   9  20  36  55  78 115 157 194 233 279 340
#     4  10  21  38  57  80 114 155 197 237 283 344
#     4  10  21  41  66  87 115 153 194 241 292 350
#
# _framework density 18.855634999999999
#
# number of rings (size 3 to 8) (size 9 to 14) (size 15 to 20)
#    0.000    2.000    1.429    1.286    6.000    1.143 
#    0.000    0.000    0.000    4.714    0.000    0.000 
#    0.000    0.000    0.000    0.000    0.000    0.000 
#
# Total GULP energy -156115.166252 kJ/mol
# GULP energy per Si atom -5575.541652 kJ/mol
# Density = 1.881272 g / cm^3
# Si number density = 18.855635 Si / 1000 Ang^3
#
#
#
# Elastic Constant Matrix: (Units=GPa)
#
#
# Indices 1 2 3 4 5 6 
#
# 1 70.5069 46.0189 62.6218 0.0000 -1.5878 0.0000
# 2 46.0189 77.7061 40.1526 0.0000 -3.7087 0.0000
# 3 62.6218 40.1526 106.9011 0.0000 -4.1694 0.0000
# 4 0.0000 0.0000 0.0000 19.3554 0.0000 -24.6238
# 5 -1.5878 -3.7087 -4.1694 0.0000 36.1867 0.0000
# 6 0.0000 0.0000 0.0000 -24.6238 0.0000 14.1761
#
#
#
# Elastic Compliance Matrix: (Units=1/GPa)
#
#
# Indices 1 2 3 4 5 6 
#
# 1 0.038959 -0.014056 -0.017611 0.000000 -0.001760 0.000000
# 2 -0.014056 0.021072 0.000381 0.000000 0.001587 0.000000
# 3 -0.017611 0.000381 0.019587 0.000000 0.001523 0.000000
# 4 0.000000 0.000000 0.000000 -0.042706 0.000000 -0.074180
# 5 -0.001760 0.001587 0.001523 0.000000 0.027895 0.000000
# 6 0.000000 0.000000 0.000000 -0.074180 0.000000 -0.058309
#
#
# Mechanical properties :
#
#
# Convention : Reuss Voigt Hill
#
# Bulk Modulus (GPa) = 58.66447 61.41120 60.03784
# Shear Modulus (GPa) = 66.88653 21.03171 43.95912
#
# Velocity S-wave (km/s) = 5.96238 3.34339 4.83365
# Velocity P-wave (km/s) = 8.86453 6.89523 7.94116
#
# Compressibility (1/GPa) = 0.01704609
#
# Stress axis : x y z
#
# Youngs Moduli (GPa) = 25.66777 47.45590 51.05393
#
# Poissons Ratio (x) = 0.66706 0.89912
# Poissons Ratio (y) = 0.36080 -0.01946
# Poissons Ratio (z) = 0.45204 -0.01809
#
# Static dielectric constant tensor:
#      x y z
#    x 1.657260 0.000000 0.006260 
#    y 0.000000 1.706400 0.000000 
#    z 0.006260 0.000000 1.645970 
# 
# From -- ./inp_files/29598.got.cif
#   From: 2010.05.17/outbox.cif.g08.bks.cpg/sg10_15_cif.got.tgz:29598.got - 2010.06.03 11:33:40.
