data_PCOD9152334
_publ_section_title
;
Structure prediction by ZEFSAII (Michael W. Deem and Ramdas Pophale) SiO2 
 PCOD9152334
Probable space group: P 2/M
;
_chemical_formula_sum "Si O2"
_cell_formula_units_Z 32
_cell_length_a 27.846153
_cell_length_b 7.429145
_cell_length_c 27.099737
_cell_angle_alpha 90.000000
_cell_angle_beta 15.450841
_cell_angle_gamma 90.000000
_cell_volume 1493.557948
_symmetry_space_group_name_H-M "P 2/M"
_symmetry_group_IT_number 10
_symmetry_cell_setting 'monoclinic'
loop_
_space_group_symop_operation_xyz
x,y,z
-x,y,-z
-x,-y,-z
x,-y,z
loop_
_atom_site_type_symbol
_atom_site_label
_atom_site_fract_x
_atom_site_fract_y
_atom_site_fract_z
Si Si1 0.705696 0.780547 0.291893
Si Si2 0.232277 0.782405 0.039786
Si Si3 0.634935 0.780137 0.619070
Si Si4 0.992803 0.780517 0.928426
Si Si5 0.675337 0.707914 0.942326
Si Si6 0.942094 0.780207 0.246846
Si Si7 0.001044 0.208090 0.553645
Si Si8 0.731083 0.207130 0.630330
O O1 0.500000 0.718955 0.500000
O O2 0.833760 0.727301 0.210726
O O3 0.297998 0.000000 0.704607
O O4 0.813851 0.725089 0.135505
O O5 0.428028 0.724507 0.826204
O O6 0.222657 0.723931 0.106085
O O7 0.227431 0.000000 0.045838
O O8 0.081220 0.722362 0.151359
O O9 0.746396 0.726302 0.460855
O O10 0.727427 0.716531 0.578520
O O11 0.635212 0.000000 0.620472
O O12 0.008640 0.718708 0.856591
O O13 0.991443 0.000000 0.929260
O O14 0.646658 0.500000 0.959353
O O15 0.477228 0.790963 0.145796
O O16 0.804035 0.787309 0.773211
O O17 0.946519 0.000000 0.241329
O O18 0.000000 0.288744 0.500000
O O19 0.139437 0.289294 0.456600
O O20 0.059658 0.000000 0.489431
O O21 0.791332 0.000000 0.564498
#
# Coordination Sequence:
#
# PCOD9152334 Si02
#       8
#     4   4   4   4   4   4   4   4
#     4   8  13  21  30  40  65 108 149 182 220 273
#     4   9  17  30  47  66  89 119 157 195 234 284
#     4   8  14  24  40  61  81 106 142 184 229 273
#     4   8  14  21  29  47  72 102 145 188 227 273
#     4  11  22  35  53  76 104 135 165 201 246 298
#     4   9  15  23  38  60  85 110 144 197 244 275
#     4  10  21  37  58  81 102 129 168 210 249 290
#     4   9  18  35  56  74  97 130 167 204 242 291
#
# _framework density 21.425350000000002
#
# number of rings (size 3 to 8) (size 9 to 14) (size 15 to 20)
#    0.000    3.000    0.000    3.375    0.000    4.250 
#    0.000    7.500    0.000    0.000    0.000    0.000 
#    0.000    0.000    0.000    2.250    0.000   29.000 
#
# Total GULP energy -178576.256932 kJ/mol
# GULP energy per Si atom -5580.508029 kJ/mol
# Density = 2.137659 g / cm^3
# Si number density = 21.425350 Si / 1000 Ang^3
#
#
#
# Elastic Constant Matrix: (Units=GPa)
#
#
# Indices 1 2 3 4 5 6 
#
# 1 83.5809 -4.6518 66.5440 0.0000 32.1043 0.0000
# 2 -4.6518 66.7872 -9.2385 0.0000 -2.3368 0.0000
# 3 66.5440 -9.2385 125.8195 0.0000 24.1663 0.0000
# 4 0.0000 0.0000 0.0000 -54.1853 0.0000 -50.7318
# 5 32.1043 -2.3368 24.1663 0.0000 28.3854 0.0000
# 6 0.0000 0.0000 0.0000 -50.7318 0.0000 -11.0079
#
#
#
# Elastic Compliance Matrix: (Units=1/GPa)
#
#
# Indices 1 2 3 4 5 6 
#
# 1 0.030624 -0.000321 -0.011432 0.000000 -0.024930 0.000000
# 2 -0.000321 0.015133 0.001162 0.000000 0.000619 0.000000
# 3 -0.011432 0.001162 0.013841 0.000000 0.001242 0.000000
# 4 0.000000 0.000000 0.000000 0.005567 0.000000 -0.025658
# 5 -0.024930 0.000619 0.001242 0.000000 0.062420 0.000000
# 6 0.000000 0.000000 0.000000 -0.025658 0.000000 0.027404
#
#
# Mechanical properties :
#
#
# Convention : Reuss Voigt Hill
#
# Bulk Modulus (GPa) = 26.03039 42.38833 34.20936
# Shear Modulus (GPa) = 26.45835 7.54070 16.99952
#
# Velocity S-wave (km/s) = 3.51794 1.87807 2.81985
# Velocity P-wave (km/s) = 5.35508 4.95278 5.15786
#
# Compressibility (1/GPa) = 0.03841663
#
# Stress axis : x y z
#
# Youngs Moduli (GPa) = 32.65391 66.08082 72.24987
#
# Poissons Ratio (x) = 0.02119 0.82595
# Poissons Ratio (y) = 0.01047 -0.08394
# Poissons Ratio (z) = 0.37330 -0.07677
#
# Static dielectric constant tensor:
#      x y z
#    x 1.758890 0.000000 -0.006420 
#    y 0.000000 1.866880 0.000000 
#    z -0.006420 0.000000 1.752380 
# 
# From -- ./inp_files/90589.got.cif
#   From: 2010.05.17/outbox.cif.g08.bks.cpg/sg10_46_cif.got.tgz:90589.got - 2010.06.03 11:33:40.
