data_PCOD9152393
_publ_section_title
;
Structure prediction by ZEFSAII (Michael W. Deem and Ramdas Pophale) SiO2 
 PCOD9152393
Probable space group: P 2/M
;
_chemical_formula_sum "Si O2"
_cell_formula_units_Z 26
_cell_length_a 7.096748
_cell_length_b 7.702777
_cell_length_c 23.487447
_cell_angle_alpha 90.000000
_cell_angle_beta 50.090516
_cell_angle_gamma 90.000000
_cell_volume 984.852681
_symmetry_space_group_name_H-M "P 2/M"
_symmetry_group_IT_number 10
_symmetry_cell_setting 'monoclinic'
loop_
_space_group_symop_operation_xyz
x,y,z
-x,y,-z
-x,-y,-z
x,-y,z
loop_
_atom_site_type_symbol
_atom_site_label
_atom_site_fract_x
_atom_site_fract_y
_atom_site_fract_z
Si Si1 0.018545 0.706060 0.858881
Si Si2 0.556626 0.191008 0.631455
Si Si3 0.776057 0.797557 0.467753
Si Si4 0.523640 0.202807 0.822223
Si Si5 0.961522 0.701799 0.274222
Si Si6 0.182630 0.500000 0.364522
Si Si7 0.745045 0.208295 0.019113
O O1 0.039263 0.500000 0.854342
O O2 0.270935 0.777936 0.836736
O O3 0.997012 0.767156 0.798540
O O4 0.790012 0.749621 0.944608
O O5 0.740285 0.214591 0.543089
O O6 0.606799 0.347552 0.663974
O O7 0.280474 0.200523 0.659540
O O8 0.587666 0.000000 0.651189
O O9 0.500000 0.762612 0.500000
O O10 0.966045 0.654569 0.408798
O O11 0.838865 0.000000 0.442489
O O12 0.768972 0.288511 0.750470
O O13 0.579935 0.000000 0.815218
O O14 0.460442 0.277013 0.897828
O O15 0.899156 0.500000 0.287377
O O16 0.730595 0.000000 0.025318
O O17 0.000000 0.264227 0.000000
#
# Coordination Sequence:
#
# PCOD9152393 Si02
#       7
#     4   4   4   4   4   2   4
#     4  10  21  37  59  86 117 156 204 257 313 371
#     4  11  23  41  64  90 124 166 206 248 305 365
#     4  10  22  41  66  99 131 160 202 252 303 361
#     4  10  21  38  60  85 117 159 204 256 317 372
#     4  11  24  42  59  84 125 165 206 257 308 368
#     4  12  22  40  69  96 127 163 201 253 302 355
#     4   8  16  32  55  83 114 151 200 256 310 367
#
# _framework density 26.399888000000001
#
# number of rings (size 3 to 8) (size 9 to 14) (size 15 to 20)
#    0.000    1.846    0.769    4.385    0.000    7.692 
#    2.769    3.077    0.000    0.000    0.000    0.000 
#    0.000    0.000    0.000    0.000    0.000    0.000 
#
# Total GULP energy -145102.610489 kJ/mol
# GULP energy per Si atom -5580.869634 kJ/mol
# Density = 2.633980 g / cm^3
# Si number density = 26.399888 Si / 1000 Ang^3
#
#
#
# Elastic Constant Matrix: (Units=GPa)
#
#
# Indices 1 2 3 4 5 6 
#
# 1 103.3704 14.6853 33.3184 0.0000 -22.2463 0.0000
# 2 14.6853 120.0773 15.8882 0.0000 -15.4733 0.0000
# 3 33.3184 15.8882 137.2611 0.0000 -18.9498 0.0000
# 4 0.0000 0.0000 0.0000 -93.1180 0.0000 46.8964
# 5 -22.2463 -15.4733 -18.9498 0.0000 60.3454 0.0000
# 6 0.0000 0.0000 0.0000 46.8964 0.0000 -6.8519
#
#
#
# Elastic Compliance Matrix: (Units=1/GPa)
#
#
# Indices 1 2 3 4 5 6 
#
# 1 0.011174 -0.000657 -0.002186 0.000000 0.003265 0.000000
# 2 -0.000657 0.008720 -0.000601 0.000000 0.001805 0.000000
# 3 -0.002186 -0.000601 0.008104 0.000000 0.001585 0.000000
# 4 0.000000 0.000000 0.000000 0.004389 0.000000 0.030038
# 5 0.003265 0.001805 0.001585 0.000000 0.018735 0.000000
# 6 0.000000 0.000000 0.000000 0.030038 0.000000 0.059644
#
#
# Mechanical properties :
#
#
# Convention : Reuss Voigt Hill
#
# Bulk Modulus (GPa) = 47.36490 54.27697 50.82093
# Shear Modulus (GPa) = 40.09913 11.86289 25.98101
#
# Velocity S-wave (km/s) = 3.90155 2.12210 3.14049
# Velocity P-wave (km/s) = 6.18679 5.15835 5.69583
#
# Compressibility (1/GPa) = 0.02111268
#
# Stress axis : x y z
#
# Youngs Moduli (GPa) = 89.49086 114.67354 123.39106
#
# Poissons Ratio (x) = 0.07531 0.26970
# Poissons Ratio (y) = 0.05877 0.07413
# Poissons Ratio (z) = 0.19560 0.06889
#
# Static dielectric constant tensor:
#      x y z
#    x 2.155510 0.000000 0.078560 
#    y 0.000000 2.022430 0.000000 
#    z 0.078560 0.000000 2.151200 
# 
# From -- ./inp_files/94413.got.cif
#   From: 2010.05.17/outbox.cif.g08.bks.cpg/sg10_48_cif.got.tgz:94413.got - 2010.06.03 11:33:40.
