data_PCOD9152997
_publ_section_title
;
Structure prediction by ZEFSAII (Michael W. Deem and Ramdas Pophale) SiO2 
 PCOD9152997
Probable space group: P 2/M
;
_chemical_formula_sum "Si O2"
_cell_formula_units_Z 32
_cell_length_a 12.337207
_cell_length_b 8.622332
_cell_length_c 32.256792
_cell_angle_alpha 90.000000
_cell_angle_beta 152.041902
_cell_angle_gamma 90.000000
_cell_volume 1608.696769
_symmetry_space_group_name_H-M "P 2/M"
_symmetry_group_IT_number 10
_symmetry_cell_setting 'monoclinic'
loop_
_space_group_symop_operation_xyz
x,y,z
-x,y,-z
-x,-y,-z
x,-y,z
loop_
_atom_site_type_symbol
_atom_site_label
_atom_site_fract_x
_atom_site_fract_y
_atom_site_fract_z
Si Si1 0.821349 0.183434 0.492805
Si Si2 0.622620 0.313375 0.819058
Si Si3 0.687472 0.316375 0.363262
Si Si4 0.225830 0.815585 0.909583
Si Si5 0.430388 0.182699 0.838607
Si Si6 0.867334 0.315395 0.034013
Si Si7 0.029696 0.316926 0.758132
Si Si8 0.451774 0.186732 0.436515
O O1 0.675693 0.225407 0.402462
O O2 0.671932 0.223036 0.482343
O O3 0.060081 0.276300 0.569895
O O4 0.873075 0.000000 0.510206
O O5 0.606035 0.500000 0.818571
O O6 0.501720 0.272961 0.734730
O O7 0.493706 0.234021 0.813611
O O8 0.893105 0.273175 0.907578
O O9 0.671653 0.500000 0.366053
O O10 0.120914 0.727653 0.913624
O O11 0.108383 0.766609 0.827005
O O12 0.203036 0.000000 0.908016
O O13 0.500000 0.778777 0.000000
O O14 0.210522 0.269374 0.783453
O O15 0.387865 0.000000 0.826255
O O16 0.651423 0.227293 0.941240
O O17 0.832309 0.500000 0.017465
O O18 0.039311 0.500000 0.768175
O O19 0.775773 0.265099 0.658628
O O20 0.500000 0.232950 0.500000
O O21 0.418629 0.000000 0.424174
#
# Coordination Sequence:
#
# PCOD9152997 Si02
#       8
#     4   4   4   4   4   4   4   4
#     4  10  21  39  63  91 123 161 205 253 312 374
#     4  10  24  42  62  92 126 163 209 260 315 372
#     4  10  21  39  63  90 122 161 205 258 312 368
#     4  11  23  41  66  96 130 170 215 265 318 379
#     4  12  25  42  64  91 126 168 213 260 315 377
#     4  11  23  41  65  93 129 169 211 261 315 373
#     4  12  26  43  67  96 128 169 216 264 320 384
#     4  10  24  45  67  95 132 169 208 262 322 381
#
# _framework density 19.891877999999998
#
# number of rings (size 3 to 8) (size 9 to 14) (size 15 to 20)
#    0.000    1.250    1.250    4.875    3.500    5.250 
#    0.000    0.000    0.000    0.000    0.000    0.000 
#    0.000    0.000    0.000    0.000    0.000    0.000 
#
# Total GULP energy -179034.064178 kJ/mol
# GULP energy per Si atom -5594.814506 kJ/mol
# Density = 1.984660 g / cm^3
# Si number density = 19.891878 Si / 1000 Ang^3
#
#
#
# Elastic Constant Matrix: (Units=GPa)
#
#
# Indices 1 2 3 4 5 6 
#
# 1 63.1324 -8.9702 -9.6741 0.0000 -13.2247 0.0000
# 2 -8.9702 16.2637 0.5230 0.0000 -2.8430 0.0000
# 3 -9.6741 0.5230 42.7812 0.0000 -8.1089 0.0000
# 4 0.0000 0.0000 0.0000 174.0509 0.0000 16.7248
# 5 -13.2247 -2.8430 -8.1089 0.0000 16.9127 0.0000
# 6 0.0000 0.0000 0.0000 16.7248 0.0000 30.3189
#
#
#
# Elastic Compliance Matrix: (Units=1/GPa)
#
#
# Indices 1 2 3 4 5 6 
#
# 1 0.026488 0.019385 0.011326 0.000000 0.029401 0.000000
# 2 0.019385 0.077607 0.009658 0.000000 0.032834 0.000000
# 3 0.011326 0.009658 0.030583 0.000000 0.025143 0.000000
# 4 0.000000 0.000000 0.000000 0.006067 0.000000 -0.003347
# 5 0.029401 0.032834 0.025143 0.000000 0.099691 0.000000
# 6 0.000000 0.000000 0.000000 -0.003347 0.000000 0.034829
#
#
# Mechanical properties :
#
#
# Convention : Reuss Voigt Hill
#
# Bulk Modulus (GPa) = 4.64218 9.54831 7.09524
# Shear Modulus (GPa) = 18.77341 53.60977 36.19159
#
# Velocity S-wave (km/s) = 3.07542 5.19703 4.27009
# Velocity P-wave (km/s) = 3.86649 6.38926 5.28074
#
# Compressibility (1/GPa) = 0.21541619
#
# Stress axis : x y z
#
# Youngs Moduli (GPa) = 37.75256 12.88539 32.69747
#
# Poissons Ratio (x) = -0.24978 -0.37032
# Poissons Ratio (y) = -0.73183 -0.31580
# Poissons Ratio (z) = -0.42757 -0.12445
#
# Static dielectric constant tensor:
#      x y z
#    x 1.682170 0.000000 -0.006460 
#    y 0.000000 1.666840 0.000000 
#    z -0.006460 0.000000 1.682290 
# 
# From -- ./inp_files/95056.got.cif
#   From: 2010.05.17/outbox.cif.g08.bks.cpg/sg10_48_cif.got.tgz:95056.got - 2010.06.03 11:33:40.
