data_PCOD9152206
_publ_section_title
;
Structure prediction by ZEFSAII (Michael W. Deem and Ramdas Pophale) SiO2 
 PCOD9152206
Probable space group: P 2/M
;
_chemical_formula_sum "Si O2"
_cell_formula_units_Z 28
_cell_length_a 18.534107
_cell_length_b 7.414548
_cell_length_c 22.283360
_cell_angle_alpha 90.000000
_cell_angle_beta 153.359980
_cell_angle_gamma 90.000000
_cell_volume 1373.051015
_symmetry_space_group_name_H-M "P 2/M"
_symmetry_group_IT_number 10
_symmetry_cell_setting 'monoclinic'
loop_
_space_group_symop_operation_xyz
x,y,z
-x,y,-z
-x,-y,-z
x,-y,z
loop_
_atom_site_type_symbol
_atom_site_label
_atom_site_fract_x
_atom_site_fract_y
_atom_site_fract_z
Si Si1 0.867366 0.709479 0.446339
Si Si2 0.257280 0.219474 0.206738
Si Si3 0.934223 0.218188 0.633863
Si Si4 0.511646 0.208579 0.209168
Si Si5 0.180502 0.779503 0.913791
Si Si6 0.419003 0.220563 0.604940
Si Si7 0.972566 0.780827 0.074919
O O1 0.848843 0.500000 0.417471
O O2 0.926496 0.725603 0.558892
O O3 0.686962 0.785480 0.309866
O O4 0.000000 0.788113 0.500000
O O5 0.441431 0.278611 0.336758
O O6 0.146731 0.278533 0.180096
O O7 0.258593 0.000000 0.209066
O O8 0.158819 0.270410 0.073238
O O9 0.766129 0.275260 0.540255
O O10 0.086839 0.281712 0.785082
O O11 0.934134 0.000000 0.633145
O O12 0.530525 0.283577 0.290522
O O13 0.469434 0.000000 0.188143
O O14 0.363781 0.281877 0.060662
O O15 0.081940 0.724201 0.899948
O O16 0.178644 0.000000 0.909759
O O17 0.418585 0.000000 0.604473
O O18 0.973622 0.000000 0.076300
#
# Coordination Sequence:
#
# PCOD9152206 Si02
#       7
#     4   4   4   4   4   4   4
#     4  10  21  37  54  71  91 115 147 188 231 277
#     4   8  11  16  29  53  86 127 164 189 222 263
#     4   9  18  30  48  71  97 126 153 186 229 276
#     4   9  16  28  50  73  94 122 154 189 225 268
#     4   9  15  26  42  67  99 128 156 187 228 273
#     4   8  12  21  36  58  87 122 161 192 219 258
#     4   8  12  17  30  54  89 129 159 187 225 266
#
# _framework density 20.392541000000001
#
# number of rings (size 3 to 8) (size 9 to 14) (size 15 to 20)
#    0.000    3.286    1.429    2.143    0.000    1.143 
#    0.000    2.143    0.000    8.571    0.000    0.000 
#    0.000   18.286    0.000    0.000    0.000    0.000 
#
# Total GULP energy -156043.971233 kJ/mol
# GULP energy per Si atom -5572.998973 kJ/mol
# Density = 2.034613 g / cm^3
# Si number density = 20.392541 Si / 1000 Ang^3
#
#
#
# Elastic Constant Matrix: (Units=GPa)
#
#
# Indices 1 2 3 4 5 6 
#
# 1 103.1647 -12.3254 52.6846 0.0000 22.4032 0.0000
# 2 -12.3254 60.3814 -3.7996 0.0000 -0.8649 0.0000
# 3 52.6846 -3.7996 135.4001 0.0000 13.1500 0.0000
# 4 0.0000 0.0000 0.0000 -34.1850 0.0000 -3.0950
# 5 22.4032 -0.8649 13.1500 0.0000 21.9714 0.0000
# 6 0.0000 0.0000 0.0000 -3.0950 0.0000 30.2911
#
#
#
# Elastic Compliance Matrix: (Units=1/GPa)
#
#
# Indices 1 2 3 4 5 6 
#
# 1 0.015056 0.002607 -0.004570 0.000000 -0.012514 0.000000
# 2 0.002607 0.017045 -0.000364 0.000000 -0.001769 0.000000
# 3 -0.004570 -0.000364 0.009239 0.000000 -0.000885 0.000000
# 4 0.000000 0.000000 0.000000 -0.028984 0.000000 -0.002962
# 5 -0.012514 -0.001769 -0.000885 0.000000 0.058733 0.000000
# 6 0.000000 0.000000 0.000000 -0.002962 0.000000 0.032710
#
#
# Mechanical properties :
#
#
# Convention : Reuss Voigt Hill
#
# Bulk Modulus (GPa) = 27.25857 41.34060 34.29958
# Shear Modulus (GPa) = 41.43079 21.10794 31.26936
#
# Velocity S-wave (km/s) = 4.51229 3.22076 3.92008
# Velocity P-wave (km/s) = 6.36739 5.84358 6.11110
#
# Compressibility (1/GPa) = 0.03668572
#
# Stress axis : x y z
#
# Youngs Moduli (GPa) = 66.41897 58.66752 108.23294
#
# Poissons Ratio (x) = -0.15292 0.49460
# Poissons Ratio (y) = -0.17312 0.03941
# Poissons Ratio (z) = 0.30352 0.02136
#
# Static dielectric constant tensor:
#      x y z
#    x 1.713170 0.000000 0.032020 
#    y 0.000000 1.793700 0.000000 
#    z 0.032020 0.000000 1.723850 
# 
# From -- ./inp_files/85643.got.cif
#   From: 2010.05.17/outbox.cif.g08.bks.cpg/sg10_43_cif.got.tgz:85643.got - 2010.06.03 11:33:40.
