data_PCOD9152011
_publ_section_title
;
Structure prediction by ZEFSAII (Michael W. Deem and Ramdas Pophale) SiO2 
 PCOD9152011
Probable space group: P 2/M
;
_chemical_formula_sum "Si O2"
_cell_formula_units_Z 32
_cell_length_a 28.080946
_cell_length_b 8.564855
_cell_length_c 27.046807
_cell_angle_alpha 90.000000
_cell_angle_beta 15.665255
_cell_angle_gamma 90.000000
_cell_volume 1756.459843
_symmetry_space_group_name_H-M "P 2/M"
_symmetry_group_IT_number 10
_symmetry_cell_setting 'monoclinic'
loop_
_space_group_symop_operation_xyz
x,y,z
-x,y,-z
-x,-y,-z
x,-y,z
loop_
_atom_site_type_symbol
_atom_site_label
_atom_site_fract_x
_atom_site_fract_y
_atom_site_fract_z
Si Si1 0.704109 0.809774 0.295839
Si Si2 0.311673 0.688323 0.948404
Si Si3 0.704146 0.813344 0.555642
Si Si4 0.999714 0.188415 0.922653
Si Si5 0.686868 0.688298 0.940782
Si Si6 0.999717 0.686645 0.188617
Si Si7 0.998659 0.311463 0.557886
Si Si8 0.705295 0.186508 0.666526
O O1 0.500000 0.756009 0.500000
O O2 0.824805 0.762752 0.222207
O O3 0.698861 0.000000 0.301081
O O4 0.824272 0.762706 0.128588
O O5 0.327402 0.500000 0.930285
O O6 0.502685 0.762011 0.749114
O O7 0.254808 0.728238 0.061458
O O8 0.169596 0.740679 0.050310
O O9 0.830208 0.740263 0.388915
O O10 0.753630 0.761675 0.562149
O O11 0.716691 0.000000 0.540980
O O12 0.999975 0.248956 0.866959
O O13 0.999941 0.000000 0.922052
O O14 0.671910 0.500000 0.953189
O O15 0.827340 0.741266 0.759857
O O16 0.495214 0.760733 0.124531
O O17 0.003473 0.500000 0.183079
O O18 0.996200 0.500000 0.559620
O O19 0.167278 0.258042 0.420209
O O20 0.000000 0.255967 0.500000
O O21 0.716308 0.000000 0.657039
#
# Coordination Sequence:
#
# PCOD9152011 Si02
#       8
#     4   4   4   4   4   4   4   4
#     4   8  15  31  54  75  98 133 176 220 261 302
#     4   9  19  35  54  76 103 139 178 213 257 312
#     4  10  21  36  55  79 105 137 178 219 261 313
#     4   9  18  32  51  77 104 133 176 220 258 306
#     4   9  18  35  57  76  99 136 179 218 255 305
#     4  11  22  35  53  79 114 147 174 214 265 315
#     4  10  21  36  55  79 105 137 178 218 258 311
#     4  10  21  36  55  79 106 136 171 217 270 317
#
# _framework density 18.218463
#
# number of rings (size 3 to 8) (size 9 to 14) (size 15 to 20)
#    0.000    2.500    0.000    2.625    0.000    5.750 
#    0.000    7.500    0.000    0.750    0.000    0.000 
#    0.000    0.000    0.000    0.000    0.000    0.000 
#
# Total GULP energy -178547.293814 kJ/mol
# GULP energy per Si atom -5579.602932 kJ/mol
# Density = 1.817700 g / cm^3
# Si number density = 18.218463 Si / 1000 Ang^3
#
#
#
# Elastic Constant Matrix: (Units=GPa)
#
#
# Indices 1 2 3 4 5 6 
#
# 1 809.5130 99.7844 -227.9447 0.0000 -837.9638 0.0000
# 2 99.7844 14.8016 -17.8435 0.0000 -90.4554 0.0000
# 3 -227.9447 -17.8435 329.8012 0.0000 475.7042 0.0000
# 4 0.0000 0.0000 0.0000 104.8776 0.0000 84.9237
# 5 -837.9638 -90.4554 475.7042 0.0000 1180.6516 0.0000
# 6 0.0000 0.0000 0.0000 84.9237 0.0000 76.0848
#
#
#
# Elastic Compliance Matrix: (Units=1/GPa)
#
#
# Indices 1 2 3 4 5 6 
#
# 1 0.021297 -0.082601 -0.005787 0.000000 0.011119 0.000000
# 2 -0.082601 0.506717 -0.002651 0.000000 -0.018735 0.000000
# 3 -0.005787 -0.002651 0.012192 0.000000 -0.009223 0.000000
# 4 0.000000 0.000000 0.000000 0.099125 0.000000 -0.110640
# 5 0.011119 -0.018735 -0.009223 0.000000 0.011019 0.000000
# 6 0.000000 0.000000 0.000000 -0.110640 0.000000 0.136636
#
#
# Mechanical properties :
#
#
# Convention : Reuss Voigt Hill
#
# Bulk Modulus (GPa) = 2.79229 95.78979 49.29104
# Shear Modulus (GPa) = 4.59373 358.99745 181.79559
#
# Velocity S-wave (km/s) = 1.58964 14.05273 10.00015
# Velocity P-wave (km/s) = 2.21478 17.77634 12.66695
#
# Compressibility (1/GPa) = 0.35812852
#
# Stress axis : x y z
#
# Youngs Moduli (GPa) = 46.95443 1.97349 82.02181
#
# Poissons Ratio (x) = 0.16301 0.47468
# Poissons Ratio (y) = 3.87846 0.21742
# Poissons Ratio (z) = 0.27174 0.00523
#
# Static dielectric constant tensor:
#      x y z
#    x 1.614910 0.000000 0.002810 
#    y 0.000000 1.621560 0.000000 
#    z 0.002810 0.000000 1.605760 
# 
# From -- ./inp_files/90591.got.cif
#   From: 2010.05.17/outbox.cif.g08.bks.cpg/sg10_46_cif.got.tgz:90591.got - 2010.06.03 11:33:40.
