data_PCOD9152184
_publ_section_title
;
Structure prediction by ZEFSAII (Michael W. Deem and Ramdas Pophale) SiO2 
 PCOD9152184
Probable space group: P 2/M
;
_chemical_formula_sum "Si O2"
_cell_formula_units_Z 22
_cell_length_a 9.563982
_cell_length_b 7.407391
_cell_length_c 28.321993
_cell_angle_alpha 90.000000
_cell_angle_beta 30.187811
_cell_angle_gamma 90.000000
_cell_volume 1008.914248
_symmetry_space_group_name_H-M "P 2/M"
_symmetry_group_IT_number 10
_symmetry_cell_setting 'monoclinic'
loop_
_space_group_symop_operation_xyz
x,y,z
-x,y,-z
-x,-y,-z
x,-y,z
loop_
_atom_site_type_symbol
_atom_site_label
_atom_site_fract_x
_atom_site_fract_y
_atom_site_fract_z
Si Si1 0.821778 0.718619 0.408484
Si Si2 0.985414 0.500000 0.187060
Si Si3 0.135229 0.207570 0.220702
Si Si4 0.857621 0.719019 0.590321
Si Si5 0.305995 0.781289 0.896639
Si Si6 0.265746 0.793831 0.801410
O O1 0.500000 0.772650 0.500000
O O2 0.832670 0.500000 0.403961
O O3 0.982245 0.787925 0.315881
O O4 0.966343 0.775489 0.415203
O O5 0.995896 0.341927 0.224919
O O6 0.955082 0.657760 0.155196
O O7 0.448242 0.275172 0.140472
O O8 0.139164 0.000000 0.202636
O O9 0.845856 0.500000 0.593138
O O10 0.541976 0.782539 0.688597
O O11 0.000000 0.776829 0.500000
O O12 0.359355 0.734055 0.826582
O O13 0.309323 0.000000 0.897843
O O14 0.000000 0.719085 0.000000
O O15 0.166890 0.000000 0.833193
#
# Coordination Sequence:
#
# PCOD9152184 Si02
#       6
#     4   2   4   4   4   4
#     4  10  21  36  61  93 134 175 214 269 332 384
#     4  12  26  42  63  92 138 172 208 270 323 394
#     4  11  23  42  68  96 130 176 221 269 329 388
#     4  10  21  36  61  93 134 175 214 269 332 384
#     4   9  20  43  74 103 130 168 222 279 332 389
#     4  11  23  42  68  96 130 176 221 269 329 388
#
# _framework density 21.805619
#
# number of rings (size 3 to 8) (size 9 to 14) (size 15 to 20)
#    0.000    1.636    3.636    0.545    2.545    1.455 
#    0.000    3.636    0.000    4.364    0.000    0.000 
#    0.000    0.000    0.000    0.000    0.000    0.000 
#
# Total GULP energy -122491.689246 kJ/mol
# GULP energy per Si atom -5567.804057 kJ/mol
# Density = 2.175599 g / cm^3
# Si number density = 21.805619 Si / 1000 Ang^3
#
#
#
# Elastic Constant Matrix: (Units=GPa)
#
#
# Indices 1 2 3 4 5 6 
#
# 1 67.3394 37.0557 -26.1447 0.0000 2.6747 0.0000
# 2 37.0557 129.5943 -8.3804 0.0000 -3.0893 0.0000
# 3 -26.1447 -8.3804 55.5456 0.0000 -7.1993 0.0000
# 4 0.0000 0.0000 0.0000 39.5363 0.0000 -15.2956
# 5 2.6747 -3.0893 -7.1993 0.0000 17.5060 0.0000
# 6 0.0000 0.0000 0.0000 -15.2956 0.0000 15.5893
#
#
#
# Elastic Compliance Matrix: (Units=1/GPa)
#
#
# Indices 1 2 3 4 5 6 
#
# 1 0.021514 -0.005566 0.009225 0.000000 -0.000476 0.000000
# 2 -0.005566 0.009297 -0.000945 0.000000 0.002103 0.000000
# 3 0.009225 -0.000945 0.023237 0.000000 0.007980 0.000000
# 4 0.000000 0.000000 0.000000 0.040768 0.000000 0.040000
# 5 -0.000476 0.002103 0.007980 0.000000 0.060849 0.000000
# 6 0.000000 0.000000 0.000000 0.040000 0.000000 0.103393
#
#
# Mechanical properties :
#
#
# Convention : Reuss Voigt Hill
#
# Bulk Modulus (GPa) = 16.81385 28.61563 22.71474
# Shear Modulus (GPa) = 18.28453 31.18957 24.73705
#
# Velocity S-wave (km/s) = 2.89887 3.78609 3.37179
# Velocity P-wave (km/s) = 4.35111 5.68016 5.05946
#
# Compressibility (1/GPa) = 0.05947479
#
# Stress axis : x y z
#
# Youngs Moduli (GPa) = 46.48218 107.56127 43.03494
#
# Poissons Ratio (x) = 0.59872 -0.39699
# Poissons Ratio (y) = 0.25874 0.04066
# Poissons Ratio (z) = -0.42879 0.10162
#
# Static dielectric constant tensor:
#      x y z
#    x 1.768060 0.000000 -0.036200 
#    y 0.000000 1.838350 0.000000 
#    z -0.036200 0.000000 1.797800 
# 
# From -- ./inp_files/94482.got.cif
#   From: 2010.05.17/outbox.cif.g08.bks.cpg/sg10_48_cif.got.tgz:94482.got - 2010.06.03 11:33:40.
