data_PCOD9152288
_publ_section_title
;
Structure prediction by ZEFSAII (Michael W. Deem and Ramdas Pophale) SiO2 
 PCOD9152288
Probable space group: P 2/M
;
_chemical_formula_sum "Si O2"
_cell_formula_units_Z 32
_cell_length_a 21.423006
_cell_length_b 9.572939
_cell_length_c 25.099064
_cell_angle_alpha 90.000000
_cell_angle_beta 16.442540
_cell_angle_gamma 90.000000
_cell_volume 1456.974538
_symmetry_space_group_name_H-M "P 2/M"
_symmetry_group_IT_number 10
_symmetry_cell_setting 'monoclinic'
loop_
_space_group_symop_operation_xyz
x,y,z
-x,y,-z
-x,-y,-z
x,-y,z
loop_
_atom_site_type_symbol
_atom_site_label
_atom_site_fract_x
_atom_site_fract_y
_atom_site_fract_z
Si Si1 0.765880 0.658835 0.523895
Si Si2 0.055108 0.659269 0.179521
Si Si3 0.404911 0.841042 0.945614
Si Si4 0.132949 0.658841 0.775814
Si Si5 0.257196 0.841156 0.769864
Si Si6 0.624298 0.659556 0.230347
Si Si7 0.884544 0.158592 0.709273
Si Si8 0.747110 0.341317 0.725354
O O1 0.755535 0.500000 0.554490
O O2 0.531453 0.701317 0.691226
O O3 0.921597 0.654284 0.343952
O O4 0.884767 0.766213 0.465652
O O5 0.132642 0.500000 0.104509
O O6 0.254625 0.765658 0.024609
O O7 0.892574 0.700480 0.264735
O O8 0.254794 0.847139 0.122119
O O9 0.466904 0.000000 0.881175
O O10 0.604156 0.741623 0.799388
O O11 0.217493 0.500000 0.710426
O O12 0.257180 0.760406 0.714057
O O13 0.877987 0.657595 0.004420
O O14 0.386932 0.757667 0.709217
O O15 0.331844 0.000000 0.703950
O O16 0.000000 0.842647 0.000000
O O17 0.560560 0.500000 0.296709
O O18 0.755036 0.252881 0.773099
O O19 0.912628 0.000000 0.666492
O O20 0.664752 0.500000 0.800022
O O21 0.000000 0.347543 0.500000
#
# Coordination Sequence:
#
# PCOD9152288 Si02
#       8
#     4   4   4   4   4   4   4   4
#     4   9  18  33  52  74 101 133 168 206 249 298
#     4   9  18  33  52  74 101 133 168 206 249 298
#     4  10  21  37  57  80 106 138 174 210 253 308
#     4   9  17  30  49  71  95 126 165 207 248 293
#     4   9  17  29  46  69  96 126 162 203 248 300
#     4   9  17  30  49  71  95 126 165 207 248 293
#     4  10  21  37  57  80 106 138 174 210 253 308
#     4  11  24  39  56  80 108 137 172 215 258 300
#
# _framework density 21.963321000000001
#
# number of rings (size 3 to 8) (size 9 to 14) (size 15 to 20)
#    0.000    2.500    0.000    1.875    0.000    7.500 
#    0.000    3.125    0.000    3.750    0.000    0.000 
#    0.000    0.000    0.000    0.000    0.000    0.000 
#
# Total GULP energy -178889.313642 kJ/mol
# GULP energy per Si atom -5590.291051 kJ/mol
# Density = 2.191333 g / cm^3
# Si number density = 21.963321 Si / 1000 Ang^3
#
#
#
# Elastic Constant Matrix: (Units=GPa)
#
#
# Indices 1 2 3 4 5 6 
#
# 1 60.5499 43.5045 25.9789 0.0000 20.0418 0.0000
# 2 43.5045 119.2914 49.8417 0.0000 8.9738 0.0000
# 3 25.9789 49.8417 64.4691 0.0000 -27.6680 0.0000
# 4 0.0000 0.0000 0.0000 -19.2077 0.0000 33.4037
# 5 20.0418 8.9738 -27.6680 0.0000 -4.9132 0.0000
# 6 0.0000 0.0000 0.0000 33.4037 0.0000 -19.4355
#
#
#
# Elastic Compliance Matrix: (Units=1/GPa)
#
#
# Indices 1 2 3 4 5 6 
#
# 1 0.016378 -0.009637 0.006430 0.000000 0.012999 0.000000
# 2 -0.009637 0.013041 -0.003760 0.000000 0.005682 0.000000
# 3 0.006430 -0.003760 0.007064 0.000000 -0.020420 0.000000
# 4 0.000000 0.000000 0.000000 0.026176 0.000000 0.044988
# 5 0.012999 0.005682 -0.020420 0.000000 -0.025138 0.000000
# 6 0.000000 0.000000 0.000000 0.044988 0.000000 0.025869
#
#
# Mechanical properties :
#
#
# Convention : Reuss Voigt Hill
#
# Bulk Modulus (GPa) = 44.35044 53.66232 49.00638
# Shear Modulus (GPa) = 58.93358 -0.37894 29.27732
#
# Velocity S-wave (km/s) = 5.18565 -0.41582 3.65500
# Velocity P-wave (km/s) = 7.48942 4.92496 6.33824
#
# Compressibility (1/GPa) = 0.02254769
#
# Stress axis : x y z
#
# Youngs Moduli (GPa) = 61.05667 76.68058 141.56319
#
# Poissons Ratio (x) = 0.73899 -0.91021
# Poissons Ratio (y) = 0.58842 0.53231
# Poissons Ratio (z) = -0.39258 0.28833
#
# Static dielectric constant tensor:
#      x y z
#    x 1.793260 0.000000 0.040050 
#    y 0.000000 1.770440 0.000000 
#    z 0.040050 0.000000 1.848350 
# 
# From -- ./inp_files/93692.got.cif
#   From: 2010.05.17/outbox.cif.g08.bks.cpg/sg10_47_cif.got.tgz:93692.got - 2010.06.03 11:33:40.
