data_PCOD9152160
_publ_section_title
;
Structure prediction by ZEFSAII (Michael W. Deem and Ramdas Pophale) SiO2 
 PCOD9152160
Probable space group: P 2/M
;
_chemical_formula_sum "Si O2"
_cell_formula_units_Z 32
_cell_length_a 18.976128
_cell_length_b 13.087179
_cell_length_c 19.413104
_cell_angle_alpha 90.000000
_cell_angle_beta 160.658990
_cell_angle_gamma 90.000000
_cell_volume 1596.708486
_symmetry_space_group_name_H-M "P 2/M"
_symmetry_group_IT_number 10
_symmetry_cell_setting 'monoclinic'
loop_
_space_group_symop_operation_xyz
x,y,z
-x,y,-z
-x,-y,-z
x,-y,z
loop_
_atom_site_type_symbol
_atom_site_label
_atom_site_fract_x
_atom_site_fract_y
_atom_site_fract_z
Si Si1 0.759868 0.109805 0.006683
Si Si2 0.883568 0.620521 0.671750
Si Si3 0.517558 0.241289 0.674646
Si Si4 0.710412 0.118364 0.645767
Si Si5 0.998928 0.224171 0.668922
Si Si6 0.637832 0.114184 0.262506
Si Si7 0.952355 0.697779 0.028553
Si Si8 0.782901 0.881729 0.252662
O O1 0.667298 0.192957 0.870612
O O2 0.582165 0.105792 0.901646
O O3 0.782528 0.000000 0.993391
O O4 0.968936 0.142237 0.239978
O O5 0.870476 0.500000 0.651500
O O6 0.651290 0.674193 0.457973
O O7 0.005279 0.671741 0.718486
O O8 0.985077 0.645575 0.840824
O O9 0.380852 0.152544 0.512503
O O10 0.698935 0.285261 0.792330
O O11 0.500000 0.128967 0.500000
O O12 0.903027 0.197546 0.838939
O O13 0.778296 0.000000 0.711118
O O14 0.775853 0.199409 0.427571
O O15 0.164941 0.197812 0.760526
O O16 0.617875 0.136858 0.163335
O O17 0.738697 0.000000 0.361650
O O18 0.000000 0.642774 0.000000
O O19 0.000000 0.879459 0.500000
O O20 0.759090 0.000000 0.205949
#
# Coordination Sequence:
#
# PCOD9152160 Si02
#       8
#     4   4   4   4   4   4   4   4
#     4  11  21  32  55  90 122 158 194 229 286 360
#     4  11  26  44  64  86 111 152 207 262 316 354
#     4  11  22  42  57  86 120 157 199 248 298 354
#     4  10  21  36  59  90 127 165 192 222 277 359
#     4  11  19  36  56  83 118 152 197 240 291 346
#     4   9  18  33  53  85 129 164 193 232 284 353
#     4  11  23  43  66  89 120 150 197 250 304 360
#     4   8  15  29  53  84 122 164 193 227 286 351
#
# _framework density 20.041229000000001
#
# number of rings (size 3 to 8) (size 9 to 14) (size 15 to 20)
#    0.000    1.750    3.750    2.250    0.000    2.500 
#    0.000    2.500    0.000    3.375    0.000    0.875 
#    0.000    0.000    0.000    0.000    0.000    0.000 
#
# Total GULP energy -178351.950172 kJ/mol
# GULP energy per Si atom -5573.498443 kJ/mol
# Density = 1.999561 g / cm^3
# Si number density = 20.041229 Si / 1000 Ang^3
#
#
#
# Elastic Constant Matrix: (Units=GPa)
#
#
# Indices 1 2 3 4 5 6 
#
# 1 120.5552 47.5036 12.8292 0.0000 -3.6352 0.0000
# 2 47.5036 113.4031 8.7458 0.0000 -7.6070 0.0000
# 3 12.8292 8.7458 31.8913 0.0000 -13.3221 0.0000
# 4 0.0000 0.0000 0.0000 11.9330 0.0000 2.2343
# 5 -3.6352 -7.6070 -13.3221 0.0000 44.7690 0.0000
# 6 0.0000 0.0000 0.0000 2.2343 0.0000 17.8725
#
#
#
# Elastic Compliance Matrix: (Units=1/GPa)
#
#
# Indices 1 2 3 4 5 6 
#
# 1 0.010237 -0.004087 -0.003357 0.000000 -0.000862 0.000000
# 2 -0.004087 0.010673 -0.000758 0.000000 0.001256 0.000000
# 3 -0.003357 -0.000758 0.037396 0.000000 0.010727 0.000000
# 4 0.000000 0.000000 0.000000 0.085809 0.000000 -0.010727
# 5 -0.000862 0.001256 0.010727 0.000000 0.025672 0.000000
# 6 0.000000 0.000000 0.000000 -0.010727 0.000000 0.057293
#
#
# Mechanical properties :
#
#
# Convention : Reuss Voigt Hill
#
# Bulk Modulus (GPa) = 23.86610 44.88966 34.37788
# Shear Modulus (GPa) = 19.42110 28.03296 23.72703
#
# Velocity S-wave (km/s) = 3.11635 3.74406 3.44453
# Velocity P-wave (km/s) = 4.98830 6.41389 5.74548
#
# Compressibility (1/GPa) = 0.04190044
#
# Stress axis : x y z
#
# Youngs Moduli (GPa) = 97.68797 93.69598 26.74087
#
# Poissons Ratio (x) = 0.38293 0.08978
# Poissons Ratio (y) = 0.39925 0.02027
# Poissons Ratio (z) = 0.32798 0.07103
#
# Static dielectric constant tensor:
#      x y z
#    x 1.798320 0.000000 0.027000 
#    y 0.000000 1.694740 0.000000 
#    z 0.027000 0.000000 1.786840 
# 
# From -- ./inp_files/86286.got.cif
#   From: 2010.05.17/outbox.cif.g08.bks.cpg/sg10_44_cif.got.tgz:86286.got - 2010.06.03 11:33:40.
