data_PCOD9152767
_publ_section_title
;
Structure prediction by ZEFSAII (Michael W. Deem and Ramdas Pophale) SiO2 
 PCOD9152767
Probable space group: P 2/M
;
_chemical_formula_sum "Si O2"
_cell_formula_units_Z 28
_cell_length_a 20.948281
_cell_length_b 9.005042
_cell_length_c 14.562908
_cell_angle_alpha 90.000000
_cell_angle_beta 30.843542
_cell_angle_gamma 90.000000
_cell_volume 1408.450966
_symmetry_space_group_name_H-M "P 2/M"
_symmetry_group_IT_number 10
_symmetry_cell_setting 'monoclinic'
loop_
_space_group_symop_operation_xyz
x,y,z
-x,y,-z
-x,-y,-z
x,-y,z
loop_
_atom_site_type_symbol
_atom_site_label
_atom_site_fract_x
_atom_site_fract_y
_atom_site_fract_z
Si Si1 0.644286 0.822658 0.313601
Si Si2 0.175363 0.174794 0.068866
Si Si3 0.718048 0.676495 0.895425
Si Si4 0.549373 0.176463 0.751166
Si Si5 0.720951 0.672023 0.679980
Si Si6 0.947806 0.327652 0.256729
Si Si7 0.258693 0.677966 0.628040
O O1 0.500000 0.779158 0.500000
O O2 0.723769 0.737066 0.291544
O O3 0.652847 0.000000 0.320160
O O4 0.700427 0.794403 0.144036
O O5 0.182218 0.263157 0.155305
O O6 0.061476 0.226824 0.146430
O O7 0.168454 0.000000 0.095323
O O8 0.705182 0.500000 0.921650
O O9 0.748092 0.708040 0.751900
O O10 0.587716 0.755762 0.078541
O O11 0.618033 0.224004 0.760676
O O12 0.633487 0.247856 0.567031
O O13 0.545231 0.000000 0.745600
O O14 0.676387 0.500000 0.730300
O O15 0.843572 0.680894 0.465671
O O16 0.987696 0.500000 0.199305
O O17 0.873157 0.284409 0.256859
O O18 0.271143 0.500000 0.607966
#
# Coordination Sequence:
#
# PCOD9152767 Si02
#       7
#     4   4   4   4   4   4   4
#     4  10  22  40  60  84 116 150 183 229 289 345
#     4  11  24  39  57  84 116 149 189 237 288 341
#     4  11  22  37  58  82 113 153 195 239 284 333
#     4  11  21  34  56  87 121 151 184 232 289 344
#     4   9  20  38  59  83 112 151 196 237 280 334
#     4   9  20  40  60  81 112 149 191 234 281 337
#     4  10  21  38  62  87 112 149 194 236 279 334
#
# _framework density 19.879996999999999
#
# number of rings (size 3 to 8) (size 9 to 14) (size 15 to 20)
#    0.000    1.857    0.000    4.714    0.000    9.429 
#    0.000    5.714    0.000    0.000    0.000    0.000 
#    0.000    0.000    0.000    0.000    0.000    0.000 
#
# Total GULP energy -156513.558172 kJ/mol
# GULP energy per Si atom -5589.769935 kJ/mol
# Density = 1.983475 g / cm^3
# Si number density = 19.879997 Si / 1000 Ang^3
#
#
#
# Elastic Constant Matrix: (Units=GPa)
#
#
# Indices 1 2 3 4 5 6 
#
# 1 111.8452 44.1602 13.1344 0.0000 9.3225 0.0000
# 2 44.1602 58.6490 13.6486 0.0000 5.1979 0.0000
# 3 13.1344 13.6486 16.3973 0.0000 -5.1029 0.0000
# 4 0.0000 0.0000 0.0000 22.5250 0.0000 -9.5557
# 5 9.3225 5.1979 -5.1029 0.0000 24.4810 0.0000
# 6 0.0000 0.0000 0.0000 -9.5557 0.0000 -25.0742
#
#
#
# Elastic Compliance Matrix: (Units=1/GPa)
#
#
# Indices 1 2 3 4 5 6 
#
# 1 0.013194 -0.008421 -0.004883 0.000000 -0.004254 0.000000
# 2 -0.008421 0.028421 -0.019025 0.000000 -0.006793 0.000000
# 3 -0.004883 -0.019025 0.088297 0.000000 0.024304 0.000000
# 4 0.000000 0.000000 0.000000 0.038217 0.000000 -0.014564
# 5 -0.004254 -0.006793 0.024304 0.000000 0.048976 0.000000
# 6 0.000000 0.000000 0.000000 -0.014564 0.000000 -0.034331
#
#
# Mechanical properties :
#
#
# Convention : Reuss Voigt Hill
#
# Bulk Modulus (GPa) = 15.32506 36.53086 25.92796
# Shear Modulus (GPa) = 18.57473 12.11625 15.34549
#
# Velocity S-wave (km/s) = 3.06002 2.47142 2.78133
# Velocity P-wave (km/s) = 4.49561 5.15359 4.83580
#
# Compressibility (1/GPa) = 0.06525262
#
# Stress axis : x y z
#
# Youngs Moduli (GPa) = 75.79294 35.18536 11.32545
#
# Poissons Ratio (x) = 0.29630 0.05530
# Poissons Ratio (y) = 0.63826 0.21547
# Poissons Ratio (z) = 0.37009 0.66942
#
# Static dielectric constant tensor:
#      x y z
#    x 1.701360 0.000000 0.005660 
#    y 0.000000 1.660880 0.000000 
#    z 0.005660 0.000000 1.696120 
# 
# From -- ./inp_files/68588.got.cif
#   From: 2010.05.17/outbox.cif.g08.bks.cpg/sg10_35_cif.got.tgz:68588.got - 2010.06.03 11:33:40.
