data_PCOD9152304
_publ_section_title
;
Structure prediction by ZEFSAII (Michael W. Deem and Ramdas Pophale) SiO2 
 PCOD9152304
Probable space group: P 2/M
;
_chemical_formula_sum "Si O2"
_cell_formula_units_Z 28
_cell_length_a 8.807275
_cell_length_b 9.210003
_cell_length_c 28.768290
_cell_angle_alpha 90.000000
_cell_angle_beta 139.939271
_cell_angle_gamma 90.000000
_cell_volume 1501.864905
_symmetry_space_group_name_H-M "P 2/M"
_symmetry_group_IT_number 10
_symmetry_cell_setting 'monoclinic'
loop_
_space_group_symop_operation_xyz
x,y,z
-x,y,-z
-x,-y,-z
x,-y,z
loop_
_atom_site_type_symbol
_atom_site_label
_atom_site_fract_x
_atom_site_fract_y
_atom_site_fract_z
Si Si1 0.377469 0.669857 0.777628
Si Si2 0.741769 0.830862 0.923658
Si Si3 0.989327 0.330143 0.222372
Si Si4 0.834047 0.829840 0.360842
Si Si5 0.529836 0.170160 0.639158
Si Si6 0.376519 0.169138 0.923658
Si Si7 0.317870 0.670353 0.500000
O O1 0.405676 0.500000 0.773387
O O2 0.616548 0.737319 0.854615
O O3 0.180473 0.682747 0.772189
O O4 0.287865 0.757259 0.712218
O O5 0.570477 0.825382 0.928191
O O6 0.759740 0.000000 0.913082
O O7 0.000000 0.781136 0.000000
O O8 0.038740 0.500000 0.226613
O O9 0.843475 0.262681 0.145385
O O10 0.226774 0.242741 0.287782
O O11 0.659688 0.818587 0.363875
O O12 0.075512 0.747714 0.429159
O O13 0.880328 0.000000 0.362824
O O14 0.429717 0.252286 0.570841
O O15 0.566209 0.000000 0.637176
O O16 0.305672 0.000000 0.913082
O O17 0.500000 0.218864 0.000000
O O18 0.500000 0.681242 0.500000
O O19 0.276990 0.500000 0.500000
#
# Coordination Sequence:
#
# PCOD9152304 Si02
#       7
#     4   4   4   4   4   4   4
#     4  10  21  37  57  82 112 147 188 231 277 332
#     4   9  18  33  53  77 107 144 185 229 276 327
#     4  10  21  37  57  82 112 147 188 231 277 332
#     4  11  24  40  59  85 115 147 186 230 275 326
#     4  11  24  40  59  85 115 147 186 230 275 326
#     4   9  18  33  53  77 107 144 185 229 276 327
#     4  11  24  41  62  88 116 147 184 225 272 328
#
# _framework density 18.643487
#
# number of rings (size 3 to 8) (size 9 to 14) (size 15 to 20)
#    0.000    1.857    0.000    3.429    0.000   12.000 
#    0.000    2.857    0.000    0.000    0.000    0.000 
#    0.000    0.000    0.000    0.000    0.000    0.000 
#
# Total GULP energy -156481.598214 kJ/mol
# GULP energy per Si atom -5588.628508 kJ/mol
# Density = 1.860105 g / cm^3
# Si number density = 18.643487 Si / 1000 Ang^3
#
#
#
# Elastic Constant Matrix: (Units=GPa)
#
#
# Indices 1 2 3 4 5 6 
#
# 1 31.0635 63.9296 57.4542 0.0000 5.3029 0.0000
# 2 63.9296 175.7543 130.1335 0.0000 3.3241 0.0000
# 3 57.4542 130.1335 214.9403 0.0000 3.9296 0.0000
# 4 0.0000 0.0000 0.0000 106.5815 0.0000 4.0493
# 5 5.3029 3.3241 3.9296 0.0000 39.5424 0.0000
# 6 0.0000 0.0000 0.0000 4.0493 0.0000 25.9286
#
#
#
# Elastic Compliance Matrix: (Units=1/GPa)
#
#
# Indices 1 2 3 4 5 6 
#
# 1 0.152742 -0.045759 -0.012843 0.000000 -0.015361 0.000000
# 2 -0.045759 0.024024 -0.002393 0.000000 0.004355 0.000000
# 3 -0.012843 -0.002393 0.009517 0.000000 0.000978 0.000000
# 4 0.000000 0.000000 0.000000 0.009438 0.000000 -0.001474
# 5 -0.015361 0.004355 0.000978 0.000000 0.026886 0.000000
# 6 0.000000 0.000000 0.000000 -0.001474 0.000000 0.038798
#
#
# Mechanical properties :
#
#
# Convention : Reuss Voigt Hill
#
# Bulk Modulus (GPa) = 15.55409 102.75474 59.15442
# Shear Modulus (GPa) = 12.35097 45.75990 29.05544
#
# Velocity S-wave (km/s) = 2.57666 4.95964 3.95204
# Velocity P-wave (km/s) = 4.14889 9.38257 7.25417
#
# Compressibility (1/GPa) = 0.06429177
#
# Stress axis : x y z
#
# Youngs Moduli (GPa) = 6.54698 41.62509 105.08056
#
# Poissons Ratio (x) = 1.90473 1.34957
# Poissons Ratio (y) = 0.29958 0.25147
# Poissons Ratio (z) = 0.08408 0.09961
#
# Static dielectric constant tensor:
#      x y z
#    x 1.629530 0.000000 -0.001280 
#    y 0.000000 1.628240 0.000000 
#    z -0.001280 0.000000 1.604100 
# 
# From -- ./inp_files/36777.got.cif
#   From: 2010.05.17/outbox.cif.g08.bks.cpg/sg10_19_cif.got.tgz:36777.got - 2010.06.03 11:33:40.
