data_PCOD9152033
_publ_section_title
;
Structure prediction by ZEFSAII (Michael W. Deem and Ramdas Pophale) SiO2 
 PCOD9152033
Probable space group: P 2/M
;
_chemical_formula_sum "Si O2"
_cell_formula_units_Z 22
_cell_length_a 8.043124
_cell_length_b 27.028535
_cell_length_c 8.043351
_cell_angle_alpha 90.000000
_cell_angle_beta 142.566963
_cell_angle_gamma 90.000000
_cell_volume 1062.843056
_symmetry_space_group_name_H-M "P 2/M"
_symmetry_group_IT_number 10
_symmetry_cell_setting 'monoclinic'
loop_
_space_group_symop_operation_xyz
x,y,z
-x,y,-z
-x,-y,-z
x,-y,z
loop_
_atom_site_type_symbol
_atom_site_label
_atom_site_fract_x
_atom_site_fract_y
_atom_site_fract_z
Si Si1 0.893583 0.279990 0.606371
Si Si2 0.895245 0.932975 0.604756
Si Si3 0.605178 0.339879 0.894868
Si Si4 0.687996 0.554029 0.811987
Si Si5 0.188765 0.828145 0.311218
Si Si6 0.648550 0.000000 0.851454
O O1 0.613703 0.310518 0.387958
O O2 0.860288 0.224194 0.639747
O O3 0.000000 0.279013 0.500000
O O4 0.111939 0.310533 0.886192
O O5 0.875464 0.875109 0.624550
O O6 0.593527 0.957791 0.379109
O O7 0.000000 0.942527 0.500000
O O8 0.120891 0.957791 0.906465
O O9 0.629899 0.397182 0.870065
O O10 0.500000 0.336885 0.000000
O O11 0.500000 0.555841 0.500000
O O12 0.642183 0.500000 0.857795
O O13 0.000000 0.555842 0.000000
O O14 0.500000 0.831185 0.500000
O O15 0.000000 0.831187 0.000000
#
# Coordination Sequence:
#
# PCOD9152033 Si02
#       6
#     4   4   4   4   4   2
#     4  10  22  41  61  84 113 150 192 236 286 339
#     4  11  21  40  64  87 115 150 190 234 278 331
#     4  10  21  37  60  86 112 145 192 242 287 334
#     4  10  21  36  55  82 117 155 192 230 280 342
#     4  12  26  41  58  87 120 151 189 232 284 341
#     4  10  21  38  66  92 110 146 199 234 269 334
#
# _framework density 20.699200999999999
#
# number of rings (size 3 to 8) (size 9 to 14) (size 15 to 20)
#    0.000    1.455    0.000    6.000    0.000    4.727 
#    0.000   14.545    0.000    6.545    0.000    0.000 
#    0.000    0.000    0.000    0.000    0.000    0.000 
#
# Total GULP energy -122503.654535 kJ/mol
# GULP energy per Si atom -5568.347933 kJ/mol
# Density = 2.065209 g / cm^3
# Si number density = 20.699201 Si / 1000 Ang^3
#
#
#
# Elastic Constant Matrix: (Units=GPa)
#
#
# Indices 1 2 3 4 5 6 
#
# 1 38.3838 36.5083 46.2845 0.0000 -13.5643 0.0000
# 2 36.5083 239.1439 73.8146 0.0000 10.6186 0.0000
# 3 46.2845 73.8146 193.4164 0.0000 58.1305 0.0000
# 4 0.0000 0.0000 0.0000 38.8105 0.0000 -13.7720
# 5 -13.5643 10.6186 58.1305 0.0000 -6.6862 0.0000
# 6 0.0000 0.0000 0.0000 -13.7720 0.0000 86.4924
#
#
#
# Elastic Compliance Matrix: (Units=1/GPa)
#
#
# Indices 1 2 3 4 5 6 
#
# 1 0.018578 -0.002746 0.002557 0.000000 -0.019815 0.000000
# 2 -0.002746 0.005024 -0.001476 0.000000 0.000717 0.000000
# 3 0.002557 -0.001476 0.002044 0.000000 0.010239 0.000000
# 4 0.000000 0.000000 0.000000 0.027309 0.000000 0.004348
# 5 -0.019815 0.000717 0.010239 0.000000 -0.019203 0.000000
# 6 0.000000 0.000000 0.000000 0.004348 0.000000 0.012254
#
#
# Mechanical properties :
#
#
# Convention : Reuss Voigt Hill
#
# Bulk Modulus (GPa) = 44.80671 87.12877 65.96774
# Shear Modulus (GPa) = 88.06650 44.67912 66.37281
#
# Velocity S-wave (km/s) = 6.52979 4.65100 5.66877
# Velocity P-wave (km/s) = 8.86254 8.42773 8.64786
#
# Compressibility (1/GPa) = 0.02231809
#
# Stress axis : x y z
#
# Youngs Moduli (GPa) = 53.82700 199.02485 489.20941
#
# Poissons Ratio (x) = 0.54647 -1.25113
# Poissons Ratio (y) = 0.14779 0.72208
# Poissons Ratio (z) = -0.13766 0.29376
#
# Static dielectric constant tensor:
#      x y z
#    x 1.765800 0.000000 -0.017760 
#    y 0.000000 1.716980 0.000000 
#    z -0.017760 0.000000 1.704280 
# 
# From -- ./inp_files/20811.got.cif
#   From: 2010.05.17/outbox.cif.g08.bks.cpg/sg10_11_cif.got.tgz:20811.got - 2010.06.03 11:33:40.
