data_PCOD9152700
_publ_section_title
;
Structure prediction by ZEFSAII (Michael W. Deem and Ramdas Pophale) SiO2 
 PCOD9152700
Probable space group: P 2/M
;
_chemical_formula_sum "Si O2"
_cell_formula_units_Z 32
_cell_length_a 15.125300
_cell_length_b 21.222019
_cell_length_c 8.776876
_cell_angle_alpha 90.000000
_cell_angle_beta 31.947474
_cell_angle_gamma 90.000000
_cell_volume 1490.742245
_symmetry_space_group_name_H-M "P 2/M"
_symmetry_group_IT_number 10
_symmetry_cell_setting 'monoclinic'
loop_
_space_group_symop_operation_xyz
x,y,z
-x,y,-z
-x,-y,-z
x,-y,z
loop_
_atom_site_type_symbol
_atom_site_label
_atom_site_fract_x
_atom_site_fract_y
_atom_site_fract_z
Si Si1 0.507753 0.739385 0.813769
Si Si2 0.822102 0.801011 0.695142
Si Si3 0.309982 0.927680 0.969513
Si Si4 0.021611 0.424046 0.648483
Si Si5 0.323316 0.428576 0.707975
Si Si6 0.639619 0.399014 0.687419
Si Si7 0.709920 0.928472 0.362576
Si Si8 0.831900 0.195621 0.319371
O O1 0.555712 0.666960 0.760662
O O2 0.662508 0.772304 0.505631
O O3 0.500000 0.764900 0.000000
O O4 0.325921 0.757374 0.021159
O O5 0.836619 0.795135 0.492564
O O6 0.000000 0.783233 0.500000
O O7 0.775840 0.872817 0.808702
O O8 0.511467 0.921887 0.687384
O O9 0.268976 0.918942 0.850101
O O10 0.265712 0.000000 0.076315
O O11 0.041428 0.500000 0.647768
O O12 0.000000 0.415031 0.500000
O O13 0.188362 0.392224 0.471032
O O14 0.851065 0.400984 0.978062
O O15 0.500000 0.398589 0.500000
O O16 0.325516 0.500000 0.770366
O O17 0.321230 0.431580 0.529076
O O18 0.500000 0.429727 0.000000
O O19 0.810840 0.877343 0.308310
O O20 0.757764 0.000000 0.329038
O O21 0.000000 0.221424 0.000000
#
# Coordination Sequence:
#
# PCOD9152700 Si02
#       8
#     4   4   4   4   4   4   4   4
#     4   9  22  43  60  82 118 155 203 256 301 355
#     4  11  22  40  63  86 116 156 199 251 306 363
#     4   9  18  34  59  90 120 152 190 241 306 373
#     4  10  21  38  64  98 133 167 206 252 307 371
#     4  10  21  38  60  92 132 168 205 248 299 363
#     4  11  22  39  62  89 123 168 208 258 310 359
#     4   9  18  34  57  87 121 152 188 239 300 367
#     4  11  22  38  59  85 114 154 199 246 299 358
#
# _framework density 21.465816
#
# number of rings (size 3 to 8) (size 9 to 14) (size 15 to 20)
#    0.000    2.000    1.250    3.000    0.000    5.000 
#    0.000   13.125    0.000    0.000    0.000    0.000 
#    0.000    0.000    0.000    0.000    0.000    0.000 
#
# Total GULP energy -178676.784653 kJ/mol
# GULP energy per Si atom -5583.649520 kJ/mol
# Density = 2.141696 g / cm^3
# Si number density = 21.465816 Si / 1000 Ang^3
#
#
#
# Elastic Constant Matrix: (Units=GPa)
#
#
# Indices 1 2 3 4 5 6 
#
# 1 84.9928 18.9021 56.3004 0.0000 -19.9828 0.0000
# 2 18.9021 68.5694 41.1628 0.0000 -16.2921 0.0000
# 3 56.3004 41.1628 173.1020 0.0000 -19.6244 0.0000
# 4 0.0000 0.0000 0.0000 16.9927 0.0000 -1.7588
# 5 -19.9828 -16.2921 -19.6244 0.0000 35.4403 0.0000
# 6 0.0000 0.0000 0.0000 -1.7588 0.0000 4.5528
#
#
#
# Elastic Compliance Matrix: (Units=1/GPa)
#
#
# Indices 1 2 3 4 5 6 
#
# 1 0.016366 -0.000226 -0.004519 0.000000 0.006622 0.000000
# 2 -0.000226 0.018281 -0.003559 0.000000 0.006306 0.000000
# 3 -0.004519 -0.003559 0.008129 0.000000 0.000317 0.000000
# 4 0.000000 0.000000 0.000000 0.061300 0.000000 0.023681
# 5 0.006622 0.006306 0.000317 0.000000 0.035025 0.000000
# 6 0.000000 0.000000 0.000000 0.023681 0.000000 0.228794
#
#
# Mechanical properties :
#
#
# Convention : Reuss Voigt Hill
#
# Bulk Modulus (GPa) = 38.21231 62.15500 50.18366
# Shear Modulus (GPa) = 12.71542 25.41710 19.06626
#
# Velocity S-wave (km/s) = 2.43648 3.44477 2.98353
# Velocity P-wave (km/s) = 5.07497 6.69628 5.94119
#
# Compressibility (1/GPa) = 0.02616958
#
# Stress axis : x y z
#
# Youngs Moduli (GPa) = 61.10249 54.70283 123.01911
#
# Poissons Ratio (x) = 0.01234 0.55587
# Poissons Ratio (y) = 0.01378 0.43780
# Poissons Ratio (z) = 0.27609 0.19468
#
# Static dielectric constant tensor:
#      x y z
#    x 1.766150 0.000000 -0.020390 
#    y 0.000000 1.821920 0.000000 
#    z -0.020390 0.000000 1.801410 
# 
# From -- ./inp_files/30588.got.cif
#   From: 2010.05.17/outbox.cif.g08.bks.cpg/sg10_16_cif.got.tgz:30588.got - 2010.06.03 11:33:40.
