data_PCOD9152366
_publ_section_title
;
Structure prediction by ZEFSAII (Michael W. Deem and Ramdas Pophale) SiO2 
 PCOD9152366
Probable space group: P 2/M
;
_chemical_formula_sum "Si O2"
_cell_formula_units_Z 28
_cell_length_a 28.831563
_cell_length_b 7.486274
_cell_length_c 9.497803
_cell_angle_alpha 90.000000
_cell_angle_beta 137.563923
_cell_angle_gamma 90.000000
_cell_volume 1383.283021
_symmetry_space_group_name_H-M "P 2/M"
_symmetry_group_IT_number 10
_symmetry_cell_setting 'monoclinic'
loop_
_space_group_symop_operation_xyz
x,y,z
-x,y,-z
-x,-y,-z
x,-y,z
loop_
_atom_site_type_symbol
_atom_site_label
_atom_site_fract_x
_atom_site_fract_y
_atom_site_fract_z
Si Si1 0.439422 0.500000 0.474915
Si Si2 0.059619 0.291634 0.535736
Si Si3 0.204679 0.787802 0.361288
Si Si4 0.338631 0.785255 0.835862
Si Si5 0.456065 0.500000 0.041056
Si Si6 0.670371 0.788057 0.852158
Si Si7 0.068053 0.715266 0.234968
Si Si8 0.806717 0.784162 0.985198
O O1 0.500000 0.500000 0.500000
O O2 0.392031 0.671952 0.345316
O O3 0.482159 0.500000 0.710941
O O4 0.041411 0.500000 0.473792
O O5 0.068209 0.217839 0.396914
O O6 0.128869 0.280944 0.780610
O O7 0.000000 0.210747 0.500000
O O8 0.273633 0.725752 0.595379
O O9 0.137296 0.758990 0.305229
O O10 0.213595 0.000000 0.367563
O O11 0.194919 0.718492 0.180062
O O12 0.405663 0.670469 0.947340
O O13 0.349118 0.000000 0.842224
O O14 0.321729 0.753600 0.963084
O O15 0.500000 0.500000 0.000000
O O16 0.658753 0.000000 0.808600
O O17 0.737876 0.737328 0.915579
O O18 0.065122 0.500000 0.231799
O O19 0.000000 0.778602 0.000000
O O20 0.811202 0.000000 0.992495
#
# Coordination Sequence:
#
# PCOD9152366 Si02
#       8
#     2   4   4   4   2   4   4   4
#     4  12  24  44  66  98 127 158 209 254 300 382
#     4  10  21  37  58  86 120 158 204 254 303 355
#     4  10  22  39  60  87 120 159 203 247 302 364
#     4  10  22  43  66  91 126 166 205 255 310 367
#     4  12  28  44  64  98 129 160 211 248 308 378
#     4  10  22  41  67  93 125 164 205 256 312 364
#     4  10  21  37  58  86 120 160 203 250 305 359
#     4  10  22  39  60  89 119 157 204 249 302 361
#
# _framework density 20.241699000000001
#
# number of rings (size 3 to 8) (size 9 to 14) (size 15 to 20)
#    0.000    1.714    1.429    1.714    4.000    5.143 
#    0.000    0.000    0.000    0.000    0.000    0.000 
#    0.000    0.000    0.000    0.000    0.000    0.000 
#
# Total GULP energy -156402.948283 kJ/mol
# GULP energy per Si atom -5585.819582 kJ/mol
# Density = 2.019563 g / cm^3
# Si number density = 20.241699 Si / 1000 Ang^3
#
#
#
# Elastic Constant Matrix: (Units=GPa)
#
#
# Indices 1 2 3 4 5 6 
#
# 1 193.4941 30.2350 94.3345 0.0000 -18.4906 0.0000
# 2 30.2350 60.2110 27.1172 0.0000 -2.2055 0.0000
# 3 94.3345 27.1172 185.0090 0.0000 -17.8874 0.0000
# 4 0.0000 0.0000 0.0000 34.7842 0.0000 13.3870
# 5 -18.4906 -2.2055 -17.8874 0.0000 40.4933 0.0000
# 6 0.0000 0.0000 0.0000 13.3870 0.0000 23.0690
#
#
#
# Elastic Compliance Matrix: (Units=1/GPa)
#
#
# Indices 1 2 3 4 5 6 
#
# 1 0.007232 -0.002123 -0.003205 0.000000 0.001771 0.000000
# 2 -0.002123 0.018407 -0.001684 0.000000 -0.000711 0.000000
# 3 -0.003205 -0.001684 0.007454 0.000000 0.001738 0.000000
# 4 0.000000 0.000000 0.000000 0.037016 0.000000 -0.021480
# 5 0.001771 -0.000711 0.001738 0.000000 0.026233 0.000000
# 6 0.000000 0.000000 0.000000 -0.021480 0.000000 0.055813
#
#
# Mechanical properties :
#
#
# Convention : Reuss Voigt Hill
#
# Bulk Modulus (GPa) = 52.44309 82.45415 67.44862
# Shear Modulus (GPa) = 28.97968 38.80446 33.89207
#
# Velocity S-wave (km/s) = 3.78786 4.38317 4.09634
# Velocity P-wave (km/s) = 6.71530 8.15104 7.46775
#
# Compressibility (1/GPa) = 0.01906829
#
# Stress axis : x y z
#
# Youngs Moduli (GPa) = 138.28210 54.32773 134.15352
#
# Poissons Ratio (x) = 0.11534 0.42995
# Poissons Ratio (y) = 0.29358 0.22593
# Poissons Ratio (z) = 0.44318 0.09149
#
# Static dielectric constant tensor:
#      x y z
#    x 1.668310 0.000000 -0.023790 
#    y 0.000000 1.748970 0.000000 
#    z -0.023790 0.000000 1.670790 
# 
# From -- ./inp_files/37366.got.cif
#   From: 2010.05.17/outbox.cif.g08.bks.cpg/sg10_19_cif.got.tgz:37366.got - 2010.06.03 11:33:40.
