data_PCOD9152131
_publ_section_title
;
Structure prediction by ZEFSAII (Michael W. Deem and Ramdas Pophale) SiO2 
 PCOD9152131
Probable space group: P 2/M
;
_chemical_formula_sum "Si O2"
_cell_formula_units_Z 24
_cell_length_a 16.961141
_cell_length_b 11.772523
_cell_length_c 10.783351
_cell_angle_alpha 90.000000
_cell_angle_beta 38.543936
_cell_angle_gamma 90.000000
_cell_volume 1341.671723
_symmetry_space_group_name_H-M "P 2/M"
_symmetry_group_IT_number 10
_symmetry_cell_setting 'monoclinic'
loop_
_space_group_symop_operation_xyz
x,y,z
-x,y,-z
-x,-y,-z
x,-y,z
loop_
_atom_site_type_symbol
_atom_site_label
_atom_site_fract_x
_atom_site_fract_y
_atom_site_fract_z
Si Si1 0.385871 0.000000 0.492608
Si Si2 0.686869 0.635667 0.130502
Si Si3 0.384963 0.633946 0.058577
Si Si4 0.906980 0.197327 0.808881
Si Si5 0.886366 0.000000 0.038082
Si Si6 0.638047 0.000000 0.769704
Si Si7 0.819786 0.804537 0.640850
Si Si8 0.500000 0.203957 0.500000
O O1 0.374511 0.000000 0.361080
O O2 0.458418 0.114442 0.445427
O O3 0.248580 0.000000 0.726931
O O4 0.689537 0.500000 0.152603
O O5 0.610493 0.654108 0.094797
O O6 0.613672 0.713168 0.319734
O O7 0.826580 0.689698 0.940356
O O8 0.382354 0.500000 0.079473
O O9 0.500000 0.680917 0.000000
O O10 0.253158 0.686348 0.262674
O O11 0.851475 0.158175 0.743308
O O12 0.054673 0.208748 0.594874
O O13 0.892786 0.107958 0.937582
O O14 0.000000 0.000000 0.000000
O O15 0.721251 0.106994 0.707809
O O16 0.500000 0.000000 0.000000
#
# Coordination Sequence:
#
# PCOD9152131 Si02
#       8
#     2   4   4   4   2   2   4   2
#     4  11  26  39  58  90 114 156 193 242 293 355
#     4  10  21  38  63  87 115 158 201 246 294 347
#     4   9  19  35  57  87 119 155 195 242 298 345
#     4  10  21  38  60  86 118 157 199 243 287 352
#     4  12  22  40  61  81 118 158 194 238 294 353
#     4  12  26  37  59  93 121 148 193 240 305 366
#     4  10  21  36  58  87 120 155 194 244 297 345
#     4  11  23  40  60  84 121 153 202 240 290 353
#
# _framework density 17.888131000000001
#
# number of rings (size 3 to 8) (size 9 to 14) (size 15 to 20)
#    0.000    1.667    1.667    2.750    7.000    2.000 
#    0.000    3.333    0.000    0.500    0.000    0.000 
#    0.000    0.000    0.000    0.000    0.000    0.000 
#
# Total GULP energy -133840.924190 kJ/mol
# GULP energy per Si atom -5576.705175 kJ/mol
# Density = 1.784742 g / cm^3
# Si number density = 17.888131 Si / 1000 Ang^3
#
#
#
# Elastic Constant Matrix: (Units=GPa)
#
#
# Indices 1 2 3 4 5 6 
#
# 1 80.5659 28.7982 35.2271 0.0000 -4.1461 0.0000
# 2 28.7982 82.9701 38.6186 0.0000 2.6009 0.0000
# 3 35.2271 38.6186 114.6844 0.0000 0.4153 0.0000
# 4 0.0000 0.0000 0.0000 22.9226 0.0000 -6.4240
# 5 -4.1461 2.6009 0.4153 0.0000 25.8885 0.0000
# 6 0.0000 0.0000 0.0000 -6.4240 0.0000 22.7916
#
#
#
# Elastic Compliance Matrix: (Units=1/GPa)
#
#
# Indices 1 2 3 4 5 6 
#
# 1 0.015450 -0.003842 -0.003462 0.000000 0.002916 0.000000
# 2 -0.003842 0.015296 -0.003963 0.000000 -0.002089 0.000000
# 3 -0.003462 -0.003963 0.011119 0.000000 -0.000335 0.000000
# 4 0.000000 0.000000 0.000000 0.047367 0.000000 0.013351
# 5 0.002916 -0.002089 -0.000335 0.000000 0.039309 0.000000
# 6 0.000000 0.000000 0.000000 0.013351 0.000000 0.047639
#
#
# Mechanical properties :
#
#
# Convention : Reuss Voigt Hill
#
# Bulk Modulus (GPa) = 51.73478 53.72312 52.72895
# Shear Modulus (GPa) = 24.37147 26.02563 25.19855
#
# Velocity S-wave (km/s) = 3.69513 3.81847 3.75730
# Velocity P-wave (km/s) = 6.86945 7.03839 6.95443
#
# Compressibility (1/GPa) = 0.01932936
#
# Stress axis : x y z
#
# Youngs Moduli (GPa) = 64.72682 65.37551 89.93778
#
# Poissons Ratio (x) = 0.25119 0.31139
# Poissons Ratio (y) = 0.24870 0.35643
# Poissons Ratio (z) = 0.22410 0.25909
#
# Static dielectric constant tensor:
#      x y z
#    x 1.648870 0.000000 -0.022770 
#    y 0.000000 1.613600 0.000000 
#    z -0.022770 0.000000 1.619180 
# 
# From -- ./inp_files/53630.got.cif
#   From: 2010.05.17/outbox.cif.g08.bks.cpg/sg10_27_cif.got.tgz:53630.got - 2010.06.03 11:33:40.
