data_PCOD9152354
_publ_section_title
;
Structure prediction by ZEFSAII (Michael W. Deem and Ramdas Pophale) SiO2 
 PCOD9152354
Probable space group: P 2/M
;
_chemical_formula_sum "Si O2"
_cell_formula_units_Z 32
_cell_length_a 26.443057
_cell_length_b 7.693898
_cell_length_c 15.986107
_cell_angle_alpha 90.000000
_cell_angle_beta 27.400105
_cell_angle_gamma 90.000000
_cell_volume 1496.748211
_symmetry_space_group_name_H-M "P 2/M"
_symmetry_group_IT_number 10
_symmetry_cell_setting 'monoclinic'
loop_
_space_group_symop_operation_xyz
x,y,z
-x,y,-z
-x,-y,-z
x,-y,z
loop_
_atom_site_type_symbol
_atom_site_label
_atom_site_fract_x
_atom_site_fract_y
_atom_site_fract_z
Si Si1 0.255535 0.287035 0.948473
Si Si2 0.119730 0.704013 0.305040
Si Si3 0.730404 0.287551 0.255939
Si Si4 0.266904 0.206648 0.431482
Si Si5 0.876104 0.709959 0.197860
Si Si6 0.260422 0.799756 0.257217
Si Si7 0.506640 0.712100 0.338711
Si Si8 0.506869 0.295754 0.145643
O O1 0.255276 0.500000 0.950504
O O2 0.224696 0.233167 0.900159
O O3 0.380366 0.233037 0.784921
O O4 0.178765 0.222769 0.136050
O O5 0.103304 0.500000 0.310949
O O6 0.199538 0.715863 0.267801
O O7 0.000000 0.780108 0.500000
O O8 0.731397 0.500000 0.255861
O O9 0.799489 0.228238 0.234238
O O10 0.604165 0.232520 0.452704
O O11 0.178916 0.243402 0.633103
O O12 0.235185 0.275471 0.386092
O O13 0.386813 0.274134 0.282541
O O14 0.278416 0.000000 0.406541
O O15 0.877595 0.500000 0.192618
O O16 0.000000 0.771656 0.000000
O O17 0.225483 0.000000 0.306857
O O18 0.391927 0.790113 0.051097
O O19 0.505765 0.500000 0.340090
O O20 0.503648 0.767652 0.246264
O O21 0.533173 0.500000 0.108896
#
# Coordination Sequence:
#
# PCOD9152354 Si02
#       8
#     4   4   4   4   4   4   4   4
#     4   9  16  28  49  79 111 140 175 225 283 337
#     4  10  21  37  58  85 114 147 193 243 285 332
#     4   9  16  28  49  79 111 140 175 225 283 337
#     4  11  24  40  58  83 117 157 196 234 287 354
#     4  10  21  37  58  85 114 147 193 243 285 332
#     4  11  24  40  58  83 117 157 196 234 287 354
#     4   9  15  26  49  79 107 136 171 219 280 338
#     4  11  20  35  61  89 115 146 189 242 297 348
#
# _framework density 21.379681999999999
#
# number of rings (size 3 to 8) (size 9 to 14) (size 15 to 20)
#    0.000    2.000    2.500    1.875    0.000    6.500 
#    0.000    2.500    0.000    0.750    0.000    1.750 
#    0.000    0.000    0.000    0.000    0.000    0.000 
#
# Total GULP energy -178762.444232 kJ/mol
# GULP energy per Si atom -5586.326382 kJ/mol
# Density = 2.133102 g / cm^3
# Si number density = 21.379682 Si / 1000 Ang^3
#
#
#
# Elastic Constant Matrix: (Units=GPa)
#
#
# Indices 1 2 3 4 5 6 
#
# 1 85.4591 -0.4245 82.2543 0.0000 50.0446 0.0000
# 2 -0.4245 35.0399 -4.5849 0.0000 -0.1483 0.0000
# 3 82.2543 -4.5849 165.0876 0.0000 18.4442 0.0000
# 4 0.0000 0.0000 0.0000 13.3495 0.0000 -2.1059
# 5 50.0446 -0.1483 18.4442 0.0000 34.3884 0.0000
# 6 0.0000 0.0000 0.0000 -2.1059 0.0000 -248.3663
#
#
#
# Elastic Compliance Matrix: (Units=1/GPa)
#
#
# Indices 1 2 3 4 5 6 
#
# 1 -0.138676 0.005562 0.049676 0.000000 0.175192 0.000000
# 2 0.005562 0.028423 -0.001161 0.000000 -0.007348 0.000000
# 3 0.049676 -0.001161 -0.011327 0.000000 -0.066222 0.000000
# 4 0.000000 0.000000 0.000000 0.074809 0.000000 -0.000634
# 5 0.175192 -0.007348 -0.066222 0.000000 -0.190386 0.000000
# 6 0.000000 0.000000 0.000000 -0.000634 0.000000 -0.004021
#
#
# Mechanical properties :
#
#
# Convention : Reuss Voigt Hill
#
# Bulk Modulus (GPa) = -74.48237 48.89738 -12.79249
# Shear Modulus (GPa) = -14.13198 -26.23623 -20.18411
#
# Velocity S-wave (km/s) = -2.57378 -3.50688 -3.07592
# Velocity P-wave (km/s) = 6.61408 2.55401 4.31411
#
# Compressibility (1/GPa) = -0.01342600
#
# Stress axis : x y z
#
# Youngs Moduli (GPa) = -7.21105 35.18245 -88.28316
#
# Poissons Ratio (x) = -0.19567 4.38557
# Poissons Ratio (y) = 0.04010 -0.10246
# Poissons Ratio (z) = 0.35822 0.04083
#
# Static dielectric constant tensor:
#      x y z
#    x 1.755860 0.000000 0.021820 
#    y 0.000000 1.797490 0.000000 
#    z 0.021820 0.000000 1.753840 
# 
# From -- ./inp_files/71437.got.cif
#   From: 2010.05.17/outbox.cif.g08.bks.cpg/sg10_36_cif.got.tgz:71437.got - 2010.06.03 11:33:40.
