data_PCOD9152239
_publ_section_title
;
Structure prediction by ZEFSAII (Michael W. Deem and Ramdas Pophale) SiO2 
 PCOD9152239
Probable space group: P 2/M
;
_chemical_formula_sum "Si O2"
_cell_formula_units_Z 32
_cell_length_a 15.337104
_cell_length_b 8.354534
_cell_length_c 16.997883
_cell_angle_alpha 90.000000
_cell_angle_beta 67.938004
_cell_angle_gamma 90.000000
_cell_volume 2018.534297
_symmetry_space_group_name_H-M "P 2/M"
_symmetry_group_IT_number 10
_symmetry_cell_setting 'monoclinic'
loop_
_space_group_symop_operation_xyz
x,y,z
-x,y,-z
-x,-y,-z
x,-y,z
loop_
_atom_site_type_symbol
_atom_site_label
_atom_site_fract_x
_atom_site_fract_y
_atom_site_fract_z
Si Si1 0.401063 0.190325 0.576772
Si Si2 0.413617 0.679398 0.747327
Si Si3 0.566590 0.192294 0.092059
Si Si4 0.234324 0.311218 0.270797
Si Si5 0.396367 0.178225 0.321138
Si Si6 0.892029 0.192149 0.555184
Si Si7 0.641074 0.193690 0.898156
Si Si8 0.723208 0.312355 0.507268
O O1 0.500000 0.244515 0.500000
O O2 0.398840 0.226814 0.670798
O O3 0.309896 0.276123 0.569628
O O4 0.395544 0.000000 0.567670
O O5 0.378379 0.500000 0.750638
O O6 0.388416 0.749035 0.841593
O O7 0.526602 0.687688 0.715523
O O8 0.456478 0.239766 0.114594
O O9 0.565481 0.000000 0.093444
O O10 0.622651 0.241828 0.994712
O O11 0.246851 0.500000 0.278999
O O12 0.311391 0.207435 0.291482
O O13 0.139896 0.260037 0.348639
O O14 0.265420 0.268918 0.171768
O O15 0.350800 0.201664 0.421051
O O16 0.436430 0.000000 0.297578
O O17 0.823325 0.263405 0.510710
O O18 0.000000 0.229849 0.500000
O O19 0.879979 0.000000 0.559892
O O20 0.647539 0.000000 0.892184
O O21 0.709165 0.500000 0.529117
#
# Coordination Sequence:
#
# PCOD9152239 Si02
#       8
#     4   4   4   4   4   4   4   4
#     4  11  22  34  49  66  91 131 170 204 238 286
#     4  12  22  30  43  64  91 121 160 206 245 280
#     4   9  18  31  46  63  88 127 166 203 242 285
#     4  11  20  29  46  71  96 123 157 200 248 289
#     4  11  19  29  43  60  87 124 162 195 230 281
#     4  10  21  37  56  75  98 131 167 201 242 297
#     4   9  17  30  47  65  89 124 166 202 239 290
#     4  11  21  33  50  71  96 123 157 205 249 287
#
# _framework density 15.853087
#
# number of rings (size 3 to 8) (size 9 to 14) (size 15 to 20)
#    0.000    1.500    2.500    7.500    0.000    2.000 
#    0.000    1.250    0.000    0.000    0.000    0.000 
#    0.000    1.000    0.000   10.500    0.000    5.000 
#
# Total GULP energy -178176.509818 kJ/mol
# GULP energy per Si atom -5568.015932 kJ/mol
# Density = 1.581700 g / cm^3
# Si number density = 15.853087 Si / 1000 Ang^3
#
#
#
# Elastic Constant Matrix: (Units=GPa)
#
#
# Indices 1 2 3 4 5 6 
#
# 1 47.4101 17.3168 42.3721 0.0000 -1.8867 0.0000
# 2 17.3168 66.9159 28.6960 0.0000 -0.1171 0.0000
# 3 42.3721 28.6960 124.4174 0.0000 1.9829 0.0000
# 4 0.0000 0.0000 0.0000 -10.5484 0.0000 -0.6911
# 5 -1.8867 -0.1171 1.9829 0.0000 24.2810 0.0000
# 6 0.0000 0.0000 0.0000 -0.6911 0.0000 14.0795
#
#
#
# Elastic Compliance Matrix: (Units=1/GPa)
#
#
# Indices 1 2 3 4 5 6 
#
# 1 0.031466 -0.003906 -0.009867 0.000000 0.003232 0.000000
# 2 -0.003906 0.017073 -0.002607 0.000000 -0.000008 0.000000
# 3 -0.009867 -0.002607 0.012027 0.000000 -0.001761 0.000000
# 4 0.000000 0.000000 0.000000 -0.094497 0.000000 -0.004639
# 5 0.003232 -0.000008 -0.001761 0.000000 0.041579 0.000000
# 6 0.000000 0.000000 0.000000 -0.004639 0.000000 0.070797
#
#
# Mechanical properties :
#
#
# Convention : Reuss Voigt Hill
#
# Bulk Modulus (GPa) = 35.96359 46.16815 41.06587
# Shear Modulus (GPa) = 41.50218 15.58632 28.54425
#
# Velocity S-wave (km/s) = 5.12212 3.13896 4.24789
# Velocity P-wave (km/s) = 7.59712 6.50562 7.07246
#
# Compressibility (1/GPa) = 0.02780590
#
# Stress axis : x y z
#
# Youngs Moduli (GPa) = 31.78002 58.57172 83.14469
#
# Poissons Ratio (x) = 0.22879 0.82038
# Poissons Ratio (y) = 0.12413 0.21679
# Poissons Ratio (z) = 0.31357 0.15272
#
# Static dielectric constant tensor:
#      x y z
#    x 1.526680 0.000000 0.029840 
#    y 0.000000 1.533020 0.000000 
#    z 0.029840 0.000000 1.638220 
# 
# From -- ./inp_files/77379.got.cif
#   From: 2010.05.17/outbox.cif.g08.bks.cpg/sg10_39_cif.got.tgz:77379.got - 2010.06.03 11:33:40.
