data_PCOD9152966
_publ_section_title
;
Structure prediction by ZEFSAII (Michael W. Deem and Ramdas Pophale) SiO2 
 PCOD9152966
Probable space group: P 2/M
;
_chemical_formula_sum "Si O2"
_cell_formula_units_Z 24
_cell_length_a 27.045622
_cell_length_b 8.667431
_cell_length_c 11.740873
_cell_angle_alpha 90.000000
_cell_angle_beta 152.009144
_cell_angle_gamma 90.000000
_cell_volume 1291.714900
_symmetry_space_group_name_H-M "P 2/M"
_symmetry_group_IT_number 10
_symmetry_cell_setting 'monoclinic'
loop_
_space_group_symop_operation_xyz
x,y,z
-x,y,-z
-x,-y,-z
x,-y,z
loop_
_atom_site_type_symbol
_atom_site_label
_atom_site_fract_x
_atom_site_fract_y
_atom_site_fract_z
Si Si1 0.662391 0.684607 0.566717
Si Si2 0.085711 0.816672 0.522418
Si Si3 0.276238 0.316841 0.780282
Si Si4 0.864746 0.315949 0.132206
Si Si5 0.465282 0.183636 0.300736
Si Si6 0.375485 0.814945 0.751292
O O1 0.647291 0.500000 0.535369
O O2 0.559495 0.765065 0.409779
O O3 0.676320 0.745301 0.467284
O O4 0.762337 0.720772 0.849510
O O5 0.165247 0.757891 0.588315
O O6 0.133865 0.767888 0.743046
O O7 0.971450 0.737126 0.286630
O O8 0.074021 0.000000 0.494675
O O9 0.266531 0.500000 0.754900
O O10 0.323012 0.251751 0.757948
O O11 0.360284 0.270105 0.048506
O O12 0.868234 0.500000 0.158684
O O13 0.500000 0.219617 0.500000
O O14 0.448013 0.000000 0.255748
O O15 0.367263 0.000000 0.734809
O O16 0.500000 0.774691 0.000000
#
# Coordination Sequence:
#
# PCOD9152966 Si02
#       6
#     4   4   4   4   4   4
#     4  11  23  38  60  88 118 155 197 242 293 351
#     4  11  22  38  62  90 121 158 200 242 296 353
#     4  12  24  39  61  86 118 155 198 246 295 351
#     4  10  21  39  62  90 123 157 198 243 295 351
#     4  11  23  37  56  85 120 154 192 241 294 351
#     4  11  23  40  62  86 117 157 199 244 295 351
#
# _framework density 18.579951000000001
#
# number of rings (size 3 to 8) (size 9 to 14) (size 15 to 20)
#    0.000    1.000    1.667    7.000    0.000    7.333 
#    0.000    0.833    0.000    5.000    0.000    0.000 
#    0.000    0.000    0.000    0.000    0.000    0.000 
#
# Total GULP energy -134266.017224 kJ/mol
# GULP energy per Si atom -5594.417384 kJ/mol
# Density = 1.853766 g / cm^3
# Si number density = 18.579951 Si / 1000 Ang^3
#
#
#
# Elastic Constant Matrix: (Units=GPa)
#
#
# Indices 1 2 3 4 5 6 
#
# 1 78.1113 -1.5797 -12.0099 0.0000 15.9849 0.0000
# 2 -1.5797 44.1312 -7.7277 0.0000 -1.1285 0.0000
# 3 -12.0099 -7.7277 24.8946 0.0000 6.2873 0.0000
# 4 0.0000 0.0000 0.0000 5.0767 0.0000 -14.3541
# 5 15.9849 -1.1285 6.2873 0.0000 26.6924 0.0000
# 6 0.0000 0.0000 0.0000 -14.3541 0.0000 30.2731
#
#
#
# Elastic Compliance Matrix: (Units=1/GPa)
#
#
# Indices 1 2 3 4 5 6 
#
# 1 0.017523 0.002492 0.012601 0.000000 -0.013357 0.000000
# 2 0.002492 0.024332 0.009434 0.000000 -0.002686 0.000000
# 3 0.012601 0.009434 0.054206 0.000000 -0.019915 0.000000
# 4 0.000000 0.000000 0.000000 -0.578247 0.000000 -0.274179
# 5 -0.013357 -0.002686 -0.019915 0.000000 0.050040 0.000000
# 6 0.000000 0.000000 0.000000 -0.274179 0.000000 -0.096971
#
#
# Mechanical properties :
#
#
# Convention : Reuss Voigt Hill
#
# Bulk Modulus (GPa) = 6.89109 11.61139 9.25124
# Shear Modulus (GPa) = -9.43757 23.63873 7.10058
#
# Velocity S-wave (km/s) = -2.25621 3.57076 1.95702
# Velocity P-wave (km/s) = 1.75224 4.82322 3.17751
#
# Compressibility (1/GPa) = 0.14511493
#
# Stress axis : x y z
#
# Youngs Moduli (GPa) = 57.06659 41.09786 18.44805
#
# Poissons Ratio (x) = -0.10242 -0.23246
# Poissons Ratio (y) = -0.14222 -0.17403
# Poissons Ratio (z) = -0.71908 -0.38770
#
# Static dielectric constant tensor:
#      x y z
#    x 1.630200 0.000000 -0.000910 
#    y 0.000000 1.617970 0.000000 
#    z -0.000910 0.000000 1.625890 
# 
# From -- ./inp_files/57318.got.cif
#   From: 2010.05.17/outbox.cif.g08.bks.cpg/sg10_29_cif.got.tgz:57318.got - 2010.06.03 11:33:40.
