data_PCOD9152716
_publ_section_title
;
Structure prediction by ZEFSAII (Michael W. Deem and Ramdas Pophale) SiO2 
 PCOD9152716
Probable space group: P 2/M
;
_chemical_formula_sum "Si O2"
_cell_formula_units_Z 28
_cell_length_a 31.924531
_cell_length_b 7.608898
_cell_length_c 31.924547
_cell_angle_alpha 90.000000
_cell_angle_beta 9.637325
_cell_angle_gamma 90.000000
_cell_volume 1298.240361
_symmetry_space_group_name_H-M "P 2/M"
_symmetry_group_IT_number 10
_symmetry_cell_setting 'monoclinic'
loop_
_space_group_symop_operation_xyz
x,y,z
-x,y,-z
-x,-y,-z
x,-y,z
loop_
_atom_site_type_symbol
_atom_site_label
_atom_site_fract_x
_atom_site_fract_y
_atom_site_fract_z
Si Si1 0.741284 0.200449 0.241285
Si Si2 0.975910 0.785113 0.475575
Si Si3 0.694518 0.700915 0.194535
Si Si4 0.169144 0.210377 0.669160
Si Si5 0.879021 0.784927 0.379172
Si Si6 0.403116 0.785242 0.903266
Si Si7 0.548140 0.785107 0.048472
O O1 0.500000 0.285650 0.500000
O O2 0.716214 0.194127 0.216222
O O3 0.749952 0.000000 0.249953
O O4 0.000000 0.285649 0.000000
O O5 0.713937 0.729075 0.713483
O O6 0.000000 0.729405 0.500000
O O7 0.975864 0.000000 0.475511
O O8 0.213955 0.729074 0.213501
O O9 0.701262 0.500000 0.201187
O O10 0.432460 0.734752 0.429690
O O11 0.929626 0.734790 0.932516
O O12 0.145084 0.273961 0.645057
O O13 0.168607 0.000000 0.668548
O O14 0.641055 0.729275 0.641254
O O15 0.878966 0.000000 0.379115
O O16 0.141055 0.729273 0.141270
O O17 0.427455 0.729252 0.927427
O O18 0.403091 0.000000 0.903250
O O19 0.548081 0.000000 0.048423
#
# Coordination Sequence:
#
# PCOD9152716 Si02
#       7
#     4   4   4   4   4   4   4
#     4  10  21  38  61  87 115 150 191 231 273 326
#     4   9  15  21  27  37  56  88 133 179 229 295
#     4  12  25  40  60  89 122 152 186 233 284 328
#     4  11  22  39  61  83 111 150 192 229 276 338
#     4   9  17  28  45  67  89 117 156 204 254 311
#     4   9  15  24  37  57  82 105 140 194 259 315
#     4   9  15  21  30  43  63  93 127 177 245 302
#
# _framework density 21.567653
#
# number of rings (size 3 to 8) (size 9 to 14) (size 15 to 20)
#    0.000    2.143    0.000    4.714    0.000    9.143 
#    0.000    0.000    0.000    0.000    0.000    0.000 
#    0.000    0.000    0.000    0.000    0.000    0.000 
#
# Total GULP energy -156511.797002 kJ/mol
# GULP energy per Si atom -5589.707036 kJ/mol
# Density = 2.151856 g / cm^3
# Si number density = 21.567653 Si / 1000 Ang^3
#
#
#
# Elastic Constant Matrix: (Units=GPa)
#
#
# Indices 1 2 3 4 5 6 
#
# 1 201.0537 -10.3035 133.4584 0.0000 -3.1052 0.0000
# 2 -10.3035 55.0812 -0.3787 0.0000 -0.8804 0.0000
# 3 133.4584 -0.3787 262.9948 0.0000 -2.2796 0.0000
# 4 0.0000 0.0000 0.0000 4.5487 0.0000 -13.0259
# 5 -3.1052 -0.8804 -2.2796 0.0000 51.5780 0.0000
# 6 0.0000 0.0000 0.0000 -13.0259 0.0000 -142.9174
#
#
#
# Elastic Compliance Matrix: (Units=1/GPa)
#
#
# Indices 1 2 3 4 5 6 
#
# 1 0.007611 0.001402 -0.003858 0.000000 0.000312 0.000000
# 2 0.001402 0.018419 -0.000682 0.000000 0.000369 0.000000
# 3 -0.003858 -0.000682 0.005759 0.000000 0.000011 0.000000
# 4 0.000000 0.000000 0.000000 0.174341 0.000000 -0.015890
# 5 0.000312 0.000369 0.000011 0.000000 0.019414 0.000000
# 6 0.000000 0.000000 0.000000 -0.015890 0.000000 -0.005549
#
#
# Mechanical properties :
#
#
# Convention : Reuss Voigt Hill
#
# Bulk Modulus (GPa) = 39.19385 84.96468 62.07926
# Shear Modulus (GPa) = 21.29710 9.06541 15.18126
#
# Velocity S-wave (km/s) = 3.14579 2.05241 2.65597
# Velocity P-wave (km/s) = 5.60416 6.71539 6.18479
#
# Compressibility (1/GPa) = 0.02551421
#
# Stress axis : x y z
#
# Youngs Moduli (GPa) = 131.38675 54.29317 173.64049
#
# Poissons Ratio (x) = -0.07613 0.66983
# Poissons Ratio (y) = -0.18423 0.11839
# Poissons Ratio (z) = 0.50684 0.03702
#
# Static dielectric constant tensor:
#      x y z
#    x 1.725760 0.000000 0.013250 
#    y 0.000000 1.799780 0.000000 
#    z 0.013250 0.000000 1.574830 
# 
# From -- ./inp_files/95988.got.cif
#   From: 2010.05.17/outbox.cif.g08.bks.cpg/sg10_48_cif.got.tgz:95988.got - 2010.06.03 11:33:40.
