data_PCOD9152201
_publ_section_title
;
Structure prediction by ZEFSAII (Michael W. Deem and Ramdas Pophale) SiO2 
 PCOD9152201
Probable space group: P 2/M
;
_chemical_formula_sum "Si O2"
_cell_formula_units_Z 30
_cell_length_a 23.033425
_cell_length_b 16.871592
_cell_length_c 8.197031
_cell_angle_alpha 90.000000
_cell_angle_beta 33.460039
_cell_angle_gamma 90.000000
_cell_volume 1756.316100
_symmetry_space_group_name_H-M "P 2/M"
_symmetry_group_IT_number 10
_symmetry_cell_setting 'monoclinic'
loop_
_space_group_symop_operation_xyz
x,y,z
-x,y,-z
-x,-y,-z
x,-y,z
loop_
_atom_site_type_symbol
_atom_site_label
_atom_site_fract_x
_atom_site_fract_y
_atom_site_fract_z
Si Si1 0.128223 0.904961 0.017473
Si Si2 0.716572 0.589340 0.379348
Si Si3 0.000000 0.694333 0.000000
Si Si4 0.402812 0.716966 0.121304
Si Si5 0.964315 0.406139 0.763421
Si Si6 0.479564 0.586292 0.359051
Si Si7 0.800365 0.812754 0.466153
Si Si8 0.877330 0.905019 0.600523
O O1 0.157389 0.880278 0.134716
O O2 0.002890 0.889110 0.293535
O O3 0.142028 0.000000 0.973911
O O4 0.186385 0.862373 0.732590
O O5 0.705840 0.500000 0.473607
O O6 0.666174 0.656173 0.609151
O O7 0.644334 0.592243 0.388156
O O8 0.838425 0.602428 0.063193
O O9 0.006940 0.641489 0.819425
O O10 0.105743 0.747470 0.760441
O O11 0.316870 0.777000 0.253934
O O12 0.500000 0.751677 0.000000
O O13 0.459554 0.659437 0.860350
O O14 0.990839 0.500000 0.716105
O O15 0.000000 0.378660 0.500000
O O16 0.500000 0.585088 0.500000
O O17 0.512975 0.500000 0.209901
O O18 0.822135 0.863585 0.577777
O O19 0.864338 0.000000 0.620731
#
# Coordination Sequence:
#
# PCOD9152201 Si02
#       8
#     4   4   2   4   4   4   4   4
#     4   9  18  34  57  84 115 148 181 220 263 321
#     4   9  17  34  55  72  99 141 183 231 279 322
#     4  12  23  34  51  84 114 144 184 222 285 334
#     4  10  21  37  52  76 108 143 184 227 283 327
#     4  10  22  39  54  73 109 156 196 225 267 336
#     4   9  18  34  57  80  98 130 192 248 283 319
#     4  12  21  34  54  84 116 147 174 221 281 338
#     4   9  18  34  57  85 114 145 184 222 261 319
#
# _framework density 17.081208
#
# number of rings (size 3 to 8) (size 9 to 14) (size 15 to 20)
#    0.000    2.133    2.667    1.800    0.000    4.800 
#    4.800    1.333    0.000    1.600    0.000    1.867 
#    0.000    0.000    0.000    0.000    0.000    0.000 
#
# Total GULP energy -167172.124034 kJ/mol
# GULP energy per Si atom -5572.404134 kJ/mol
# Density = 1.704233 g / cm^3
# Si number density = 17.081208 Si / 1000 Ang^3
#
#
#
# Elastic Constant Matrix: (Units=GPa)
#
#
# Indices 1 2 3 4 5 6 
#
# 1 117.6026 54.4544 44.9160 0.0000 13.5646 0.0000
# 2 54.4544 49.4298 30.2809 0.0000 1.8775 0.0000
# 3 44.9160 30.2809 57.7352 0.0000 -1.6205 0.0000
# 4 0.0000 0.0000 0.0000 21.3361 0.0000 -6.8318
# 5 13.5646 1.8775 -1.6205 0.0000 25.5484 0.0000
# 6 0.0000 0.0000 0.0000 -6.8318 0.0000 23.1652
#
#
#
# Elastic Compliance Matrix: (Units=1/GPa)
#
#
# Indices 1 2 3 4 5 6 
#
# 1 0.020744 -0.018283 -0.006832 0.000000 -0.010103 0.000000
# 2 -0.018283 0.046184 -0.009839 0.000000 0.005689 0.000000
# 3 -0.006832 -0.009839 0.027968 0.000000 0.006125 0.000000
# 4 0.000000 0.000000 0.000000 0.051756 0.000000 0.015264
# 5 -0.010103 0.005689 0.006125 0.000000 0.044476 0.000000
# 6 0.000000 0.000000 0.000000 0.015264 0.000000 0.047670
#
#
# Mechanical properties :
#
#
# Convention : Reuss Voigt Hill
#
# Bulk Modulus (GPa) = 40.02175 53.78558 46.90367
# Shear Modulus (GPa) = 15.77105 20.35101 18.06103
#
# Velocity S-wave (km/s) = 3.04188 3.45545 3.25524
# Velocity P-wave (km/s) = 5.98486 6.89033 6.45350
#
# Compressibility (1/GPa) = 0.02498641
#
# Stress axis : x y z
#
# Youngs Moduli (GPa) = 48.20688 21.65257 35.75494
#
# Poissons Ratio (x) = 0.39588 0.24429
# Poissons Ratio (y) = 0.88138 0.35180
# Poissons Ratio (z) = 0.32937 0.21304
#
# Static dielectric constant tensor:
#      x y z
#    x 1.584910 0.000000 0.006310 
#    y 0.000000 1.603710 0.000000 
#    z 0.006310 0.000000 1.553720 
# 
# From -- ./inp_files/36300.got.cif
#   From: 2010.05.17/outbox.cif.g08.bks.cpg/sg10_19_cif.got.tgz:36300.got - 2010.06.03 11:33:40.
