data_PCOD9152176
_publ_section_title
;
Structure prediction by ZEFSAII (Michael W. Deem and Ramdas Pophale) SiO2 
 PCOD9152176
Probable space group: P 2/M
;
_chemical_formula_sum "Si O2"
_cell_formula_units_Z 22
_cell_length_a 13.455364
_cell_length_b 7.653567
_cell_length_c 9.563757
_cell_angle_alpha 90.000000
_cell_angle_beta 120.390326
_cell_angle_gamma 90.000000
_cell_volume 849.565507
_symmetry_space_group_name_H-M "P 2/M"
_symmetry_group_IT_number 10
_symmetry_cell_setting 'monoclinic'
loop_
_space_group_symop_operation_xyz
x,y,z
-x,y,-z
-x,-y,-z
x,-y,z
loop_
_atom_site_type_symbol
_atom_site_label
_atom_site_fract_x
_atom_site_fract_y
_atom_site_fract_z
Si Si1 0.644420 0.709887 0.715450
Si Si2 0.306318 0.500000 0.791881
Si Si3 0.711194 0.797042 0.460102
Si Si4 0.890968 0.297636 0.999358
Si Si5 0.019572 0.207427 0.357025
Si Si6 0.391004 0.189469 0.024729
O O1 0.633691 0.500000 0.707272
O O2 0.640643 0.770557 0.553425
O O3 0.769215 0.773432 0.863575
O O4 0.566655 0.782853 0.785756
O O5 0.311675 0.654815 0.675171
O O6 0.314589 0.349430 0.921023
O O7 0.847892 0.764403 0.591987
O O8 0.701668 0.000000 0.406969
O O9 0.885144 0.500000 0.951199
O O10 0.929386 0.288981 0.186845
O O11 0.000000 0.211939 0.000000
O O12 0.000000 0.275883 0.500000
O O13 0.998986 0.000000 0.343819
O O14 0.335643 0.000000 0.970560
O O15 0.500000 0.197073 0.000000
#
# Coordination Sequence:
#
# PCOD9152176 Si02
#       6
#     4   2   4   4   4   4
#     4  11  22  42  70  99 136 184 230 281 336 398
#     4  12  25  44  72 101 137 172 215 275 342 408
#     4  11  24  42  65  99 140 183 226 274 333 402
#     4  10  21  36  60  90 126 173 228 269 316 384
#     4  10  23  38  55  86 132 178 224 275 327 385
#     4  11  26  49  76 104 132 169 223 283 344 410
#
# _framework density 25.895589999999999
#
# number of rings (size 3 to 8) (size 9 to 14) (size 15 to 20)
#    0.000    1.273    3.636    1.364    3.818    2.182 
#    0.000    1.818    0.000    3.273    0.000    0.000 
#    0.000    0.000    0.000    0.000    0.000    0.000 
#
# Total GULP energy -122722.763815 kJ/mol
# GULP energy per Si atom -5578.307446 kJ/mol
# Density = 2.583665 g / cm^3
# Si number density = 25.895590 Si / 1000 Ang^3
#
#
#
# Elastic Constant Matrix: (Units=GPa)
#
#
# Indices 1 2 3 4 5 6 
#
# 1 72.9260 25.6093 29.0183 0.0000 -15.7780 0.0000
# 2 25.6093 189.8751 46.3404 0.0000 2.2671 0.0000
# 3 29.0183 46.3404 179.5802 0.0000 -18.5959 0.0000
# 4 0.0000 0.0000 0.0000 40.6949 0.0000 -18.9541
# 5 -15.7780 2.2671 -18.5959 0.0000 36.3194 0.0000
# 6 0.0000 0.0000 0.0000 -18.9541 0.0000 3.2214
#
#
#
# Elastic Compliance Matrix: (Units=1/GPa)
#
#
# Indices 1 2 3 4 5 6 
#
# 1 0.016379 -0.001925 -0.001479 0.000000 0.006478 0.000000
# 2 -0.001925 0.005893 -0.001409 0.000000 -0.001926 0.000000
# 3 -0.001479 -0.001409 0.006456 0.000000 0.002751 0.000000
# 4 0.000000 0.000000 0.000000 -0.014119 0.000000 -0.083072
# 5 0.006478 -0.001926 0.002751 0.000000 0.031877 0.000000
# 6 0.000000 0.000000 0.000000 -0.083072 0.000000 -0.178358
#
#
# Mechanical properties :
#
#
# Convention : Reuss Voigt Hill
#
# Bulk Modulus (GPa) = 52.35295 71.59081 61.97188
# Shear Modulus (GPa) = -43.14886 38.80802 -2.17042
#
# Velocity S-wave (km/s) = -4.08642 3.87542 -0.91649
# Velocity P-wave (km/s) = 1.41571 6.90877 4.78157
#
# Compressibility (1/GPa) = 0.01910112
#
# Stress axis : x y z
#
# Youngs Moduli (GPa) = 61.05458 169.68738 154.89494
#
# Poissons Ratio (x) = 0.32673 0.22908
# Poissons Ratio (y) = 0.11756 0.21825
# Poissons Ratio (z) = 0.09030 0.23909
#
# Static dielectric constant tensor:
#      x y z
#    x 2.177620 0.000000 -0.016590 
#    y 0.000000 1.951080 0.000000 
#    z -0.016590 0.000000 2.013800 
# 
# From -- ./inp_files/27339.got.cif
#   From: 2010.05.17/outbox.cif.g08.bks.cpg/sg10_14_cif.got.tgz:27339.got - 2010.06.03 11:33:40.
