data_PCOD9152413
_publ_section_title
;
Structure prediction by ZEFSAII (Michael W. Deem and Ramdas Pophale) SiO2 
 PCOD9152413
Probable space group: P 2/M
;
_chemical_formula_sum "Si O2"
_cell_formula_units_Z 18
_cell_length_a 9.621655
_cell_length_b 7.068745
_cell_length_c 10.515222
_cell_angle_alpha 90.000000
_cell_angle_beta 82.600346
_cell_angle_gamma 90.000000
_cell_volume 709.216068
_symmetry_space_group_name_H-M "P 2/M"
_symmetry_group_IT_number 10
_symmetry_cell_setting 'monoclinic'
loop_
_space_group_symop_operation_xyz
x,y,z
-x,y,-z
-x,-y,-z
x,-y,z
loop_
_atom_site_type_symbol
_atom_site_label
_atom_site_fract_x
_atom_site_fract_y
_atom_site_fract_z
Si Si1 0.406357 0.727164 0.392470
Si Si2 0.147426 0.000000 0.645505
Si Si3 0.113192 0.271927 0.340140
Si Si4 0.148164 0.272973 0.042371
Si Si5 0.339907 0.727539 0.792519
O O1 0.500000 0.790857 0.500000
O O2 0.396081 0.500000 0.402197
O O3 0.247356 0.795467 0.406252
O O4 0.497903 0.769844 0.256560
O O5 0.248110 0.163874 0.700120
O O6 0.030076 0.164287 0.624413
O O7 0.097083 0.500000 0.353779
O O8 0.155436 0.225302 0.188848
O O9 0.143642 0.500000 0.039000
O O10 0.276225 0.218360 0.936504
O O11 0.000000 0.206762 0.000000
O O12 0.323193 0.500000 0.779014
#
# Coordination Sequence:
#
# PCOD9152413 Si02
#       5
#     4   2   4   4   4
#     4   9  20  42  66  83 113 159 199 246 295 337
#     4  12  22  35  61  90 118 160 191 237 298 342
#     4  10  21  37  59  89 120 153 197 237 288 353
#     4   9  16  31  57  86 122 155 180 235 296 342
#     4  10  21  37  59  89 120 153 197 237 288 353
#
# _framework density 25.380133000000001
#
# number of rings (size 3 to 8) (size 9 to 14) (size 15 to 20)
#    0.000    2.222    2.222    0.667    0.000    3.556 
#    0.000    8.889    0.000    8.000    0.000    0.000 
#    0.000    0.000    0.000    0.000    0.000    0.000 
#
# Total GULP energy -100270.018539 kJ/mol
# GULP energy per Si atom -5570.556585 kJ/mol
# Density = 2.532237 g / cm^3
# Si number density = 25.380133 Si / 1000 Ang^3
#
#
#
# Elastic Constant Matrix: (Units=GPa)
#
#
# Indices 1 2 3 4 5 6 
#
# 1 172.5100 18.2332 47.0337 0.0000 -12.4604 0.0000
# 2 18.2332 181.3634 -17.4025 0.0000 3.1216 0.0000
# 3 47.0337 -17.4025 105.2909 0.0000 -19.4279 0.0000
# 4 0.0000 0.0000 0.0000 -49.0362 0.0000 31.2050
# 5 -12.4604 3.1216 -19.4279 0.0000 48.6631 0.0000
# 6 0.0000 0.0000 0.0000 31.2050 0.0000 5.4792
#
#
#
# Elastic Compliance Matrix: (Units=1/GPa)
#
#
# Indices 1 2 3 4 5 6 
#
# 1 0.006784 -0.000988 -0.003089 0.000000 0.000567 0.000000
# 2 -0.000988 0.005747 0.001378 0.000000 -0.000072 0.000000
# 3 -0.003089 0.001378 0.011813 0.000000 0.003837 0.000000
# 4 0.000000 0.000000 0.000000 -0.004410 0.000000 0.025116
# 5 0.000567 -0.000072 0.003837 0.000000 0.022231 0.000000
# 6 0.000000 0.000000 0.000000 0.025116 0.000000 0.039468
#
#
# Mechanical properties :
#
#
# Convention : Reuss Voigt Hill
#
# Bulk Modulus (GPa) = 52.78361 61.65478 57.21920
# Shear Modulus (GPa) = 53.56331 28.44120 41.00226
#
# Velocity S-wave (km/s) = 4.59894 3.35118 4.02372
# Velocity P-wave (km/s) = 7.00305 6.27050 6.64687
#
# Compressibility (1/GPa) = 0.01894527
#
# Stress axis : x y z
#
# Youngs Moduli (GPa) = 147.39540 174.01565 84.65092
#
# Poissons Ratio (x) = 0.17197 0.26151
# Poissons Ratio (y) = 0.14567 -0.11665
# Poissons Ratio (z) = 0.45535 -0.23981
#
# Static dielectric constant tensor:
#      x y z
#    x 1.919130 0.000000 -0.065520 
#    y 0.000000 1.884660 0.000000 
#    z -0.065520 0.000000 2.077220 
# 
# From -- ./inp_files/40815.got.cif
#   From: 2010.05.17/outbox.cif.g08.bks.cpg/sg10_21_cif.got.tgz:40815.got - 2010.06.03 11:33:40.
