data_PCOD9152949
_publ_section_title
;
Structure prediction by ZEFSAII (Michael W. Deem and Ramdas Pophale) SiO2 
 PCOD9152949
Probable space group: P 2/M
;
_chemical_formula_sum "Si O2"
_cell_formula_units_Z 18
_cell_length_a 9.620411
_cell_length_b 7.502923
_cell_length_c 25.540251
_cell_angle_alpha 90.000000
_cell_angle_beta 30.672180
_cell_angle_gamma 90.000000
_cell_volume 940.429378
_symmetry_space_group_name_H-M "P 2/M"
_symmetry_group_IT_number 10
_symmetry_cell_setting 'monoclinic'
loop_
_space_group_symop_operation_xyz
x,y,z
-x,y,-z
-x,-y,-z
x,-y,z
loop_
_atom_site_type_symbol
_atom_site_label
_atom_site_fract_x
_atom_site_fract_y
_atom_site_fract_z
Si Si1 0.185671 0.000000 0.117281
Si Si2 0.258166 0.710614 0.453178
Si Si3 0.765149 0.000000 0.450172
Si Si4 0.690084 0.288943 0.118187
Si Si5 0.772201 0.711206 0.212508
Si Si6 0.285321 0.000000 0.206581
O O1 0.029477 0.170432 0.144406
O O2 0.173511 0.000000 0.184017
O O3 0.500000 0.000000 0.000000
O O4 0.253302 0.500000 0.466931
O O5 0.242352 0.829034 0.509634
O O6 0.530119 0.748882 0.331778
O O7 0.000000 0.749951 0.500000
O O8 0.500000 0.000000 0.500000
O O9 0.035123 0.000000 0.327749
O O10 0.640423 0.500000 0.126875
O O11 0.674335 0.247824 0.185223
O O12 0.477179 0.170250 0.155631
O O13 0.000000 0.251371 0.000000
O O14 0.833737 0.500000 0.194028
#
# Coordination Sequence:
#
# PCOD9152949 Si02
#       6
#     2   4   2   4   4   2
#     4  12  25  40  59  84 119 158 193 232 282 344
#     4  10  21  39  63  88 114 149 194 240 286 339
#     4  12  25  39  56  84 122 157 191 234 286 340
#     4  10  21  39  63  89 116 147 189 242 293 340
#     4  10  21  39  62  86 115 152 194 238 284 340
#     4  12  24  37  59  88 119 153 190 236 286 342
#
# _framework density 19.140194000000001
#
# number of rings (size 3 to 8) (size 9 to 14) (size 15 to 20)
#    0.000    1.333    0.000    6.000    0.000    4.444 
#    0.000    0.000    0.000    0.000    0.000    0.000 
#    0.000    0.000    0.000    0.000    0.000    0.000 
#
# Total GULP energy -100711.729506 kJ/mol
# GULP energy per Si atom -5595.096084 kJ/mol
# Density = 1.909663 g / cm^3
# Si number density = 19.140194 Si / 1000 Ang^3
#
#
#
# Elastic Constant Matrix: (Units=GPa)
#
#
# Indices 1 2 3 4 5 6 
#
# 1 62.4437 27.0730 -16.3370 0.0000 -4.1103 0.0000
# 2 27.0730 55.9985 13.8651 0.0000 -10.1583 0.0000
# 3 -16.3370 13.8651 54.9945 0.0000 -6.1022 0.0000
# 4 0.0000 0.0000 0.0000 20.8190 0.0000 4.8847
# 5 -4.1103 -10.1583 -6.1022 0.0000 41.0845 0.0000
# 6 0.0000 0.0000 0.0000 4.8847 0.0000 14.3083
#
#
#
# Elastic Compliance Matrix: (Units=1/GPa)
#
#
# Indices 1 2 3 4 5 6 
#
# 1 0.025613 -0.015130 0.011482 0.000000 0.000527 0.000000
# 2 -0.015130 0.028675 -0.011292 0.000000 0.003899 0.000000
# 3 0.011482 -0.011292 0.024665 0.000000 0.002020 0.000000
# 4 0.000000 0.000000 0.000000 0.052215 0.000000 -0.017826
# 5 0.000527 0.003899 0.002020 0.000000 0.025657 0.000000
# 6 0.000000 0.000000 0.000000 -0.017826 0.000000 0.075975
#
#
# Mechanical properties :
#
#
# Convention : Reuss Voigt Hill
#
# Bulk Modulus (GPa) = 20.37743 24.73768 22.55756
# Shear Modulus (GPa) = 17.91863 25.16473 21.54168
#
# Velocity S-wave (km/s) = 3.06302 3.62989 3.35844
# Velocity P-wave (km/s) = 4.81446 5.52455 5.18168
#
# Compressibility (1/GPa) = 0.04907389
#
# Stress axis : x y z
#
# Youngs Moduli (GPa) = 39.04302 34.87298 40.54261
#
# Poissons Ratio (x) = 0.52763 -0.46550
# Poissons Ratio (y) = 0.59072 0.45779
# Poissons Ratio (z) = -0.44828 0.39377
#
# Static dielectric constant tensor:
#      x y z
#    x 1.613010 0.000000 0.015100 
#    y 0.000000 1.667970 0.000000 
#    z 0.015100 0.000000 1.647540 
# 
# From -- ./inp_files/87673.got.cif
#   From: 2010.05.17/outbox.cif.g08.bks.cpg/sg10_44_cif.got.tgz:87673.got - 2010.06.03 11:33:40.
