data_PCOD9152222
_publ_section_title
;
Structure prediction by ZEFSAII (Michael W. Deem and Ramdas Pophale) SiO2 
 PCOD9152222
Probable space group: P 2/M
;
_chemical_formula_sum "Si O2"
_cell_formula_units_Z 32
_cell_length_a 30.228556
_cell_length_b 9.088007
_cell_length_c 11.139977
_cell_angle_alpha 90.000000
_cell_angle_beta 144.814253
_cell_angle_gamma 90.000000
_cell_volume 1763.459452
_symmetry_space_group_name_H-M "P 2/M"
_symmetry_group_IT_number 10
_symmetry_cell_setting 'monoclinic'
loop_
_space_group_symop_operation_xyz
x,y,z
-x,y,-z
-x,-y,-z
x,-y,z
loop_
_atom_site_type_symbol
_atom_site_label
_atom_site_fract_x
_atom_site_fract_y
_atom_site_fract_z
Si Si1 0.271859 0.824590 0.279461
Si Si2 0.406674 0.822416 0.161955
Si Si3 0.119613 0.830450 0.800385
Si Si4 0.813388 0.324131 0.689032
Si Si5 0.258023 0.323938 0.727642
Si Si6 0.105339 0.325181 0.524319
Si Si7 0.579416 0.178644 0.529343
Si Si8 0.959208 0.172987 0.113795
O O1 0.239945 0.738163 0.322764
O O2 0.354293 0.773478 0.414347
O O3 0.273927 0.000000 0.311710
O O4 0.208502 0.807852 0.033753
O O5 0.401734 0.778655 0.291648
O O6 0.491983 0.776868 0.308095
O O7 0.419485 0.000000 0.469311
O O8 0.337140 0.754318 0.934681
O O9 0.095250 0.726137 0.638894
O O10 0.074069 0.810394 0.823833
O O11 0.108451 0.000000 0.736704
O O12 0.821051 0.500000 0.716058
O O13 0.774706 0.288234 0.476394
O O14 0.896730 0.250592 0.891024
O O15 0.268749 0.500000 0.757767
O O16 0.190741 0.282842 0.671610
O O17 0.097014 0.500000 0.495010
O O18 0.041971 0.247542 0.301050
O O19 0.597276 0.000000 0.851908
O O20 0.963590 0.000000 0.097219
#
# Coordination Sequence:
#
# PCOD9152222 Si02
#       8
#     4   4   4   4   4   4   4   4
#     4   9  17  32  54  78 105 134 167 210 256 298
#     4   9  17  32  56  81 105 136 170 202 245 305
#     4   9  18  32  51  77 107 134 160 201 255 303
#     4  10  21  38  55  70  97 137 176 212 251 298
#     4  10  23  39  51  70 104 139 170 211 258 296
#     4  11  22  34  51  75 102 134 170 207 252 307
#     4   8  15  30  54  84 111 132 161 206 255 299
#     4  10  21  37  55  76 102 130 165 211 258 301
#
# _framework density 18.146149999999999
#
# number of rings (size 3 to 8) (size 9 to 14) (size 15 to 20)
#    0.000    2.500    0.000    3.750    0.000    7.500 
#    0.000    5.625    0.000    3.750    0.000    0.000 
#    0.000    0.000    0.000    0.000    0.000    0.000 
#
# Total GULP energy -178585.675730 kJ/mol
# GULP energy per Si atom -5580.802367 kJ/mol
# Density = 1.810485 g / cm^3
# Si number density = 18.146150 Si / 1000 Ang^3
#
#
#
# Elastic Constant Matrix: (Units=GPa)
#
#
# Indices 1 2 3 4 5 6 
#
# 1 13.3430 17.1798 21.5427 0.0000 0.2878 0.0000
# 2 17.1798 46.8691 51.6404 0.0000 -3.7108 0.0000
# 3 21.5427 51.6404 125.2277 0.0000 3.0904 0.0000
# 4 0.0000 0.0000 0.0000 30.6862 0.0000 1.9815
# 5 0.2878 -3.7108 3.0904 0.0000 24.2720 0.0000
# 6 0.0000 0.0000 0.0000 1.9815 0.0000 23.8671
#
#
#
# Elastic Compliance Matrix: (Units=1/GPa)
#
#
# Indices 1 2 3 4 5 6 
#
# 1 0.145676 -0.048937 -0.004668 0.000000 -0.008615 0.000000
# 2 -0.048937 0.057178 -0.015439 0.000000 0.011288 0.000000
# 3 -0.004668 -0.015439 0.015260 0.000000 -0.004248 0.000000
# 4 0.000000 0.000000 0.000000 0.032764 0.000000 -0.002720
# 5 -0.008615 0.011288 -0.004248 0.000000 0.043568 0.000000
# 6 0.000000 0.000000 0.000000 -0.002720 0.000000 0.042125
#
#
# Mechanical properties :
#
#
# Convention : Reuss Voigt Hill
#
# Bulk Modulus (GPa) = 12.49568 40.68509 26.59038
# Shear Modulus (GPa) = 9.97342 22.10351 16.03847
#
# Velocity S-wave (km/s) = 2.34693 3.49389 2.97619
# Velocity P-wave (km/s) = 3.77428 6.22461 5.14738
#
# Compressibility (1/GPa) = 0.08002766
#
# Stress axis : x y z
#
# Youngs Moduli (GPa) = 6.86453 17.48933 65.53216
#
# Poissons Ratio (x) = 0.85587 0.30589
# Poissons Ratio (y) = 0.33593 1.01172
# Poissons Ratio (z) = 0.03204 0.27001
#
# Static dielectric constant tensor:
#      x y z
#    x 1.625770 0.000000 0.016710 
#    y 0.000000 1.605290 0.000000 
#    z 0.016710 0.000000 1.613760 
# 
# From -- ./inp_files/58355.got.cif
#   From: 2010.05.17/outbox.cif.g08.bks.cpg/sg10_30_cif.got.tgz:58355.got - 2010.06.03 11:33:40.
