data_PCOD9152748
_publ_section_title
;
Structure prediction by ZEFSAII (Michael W. Deem and Ramdas Pophale) SiO2 
 PCOD9152748
Probable space group: P 2/M
;
_chemical_formula_sum "Si O2"
_cell_formula_units_Z 22
_cell_length_a 5.463975
_cell_length_b 25.052210
_cell_length_c 7.150335
_cell_angle_alpha 90.000000
_cell_angle_beta 76.788791
_cell_angle_gamma 90.000000
_cell_volume 952.867148
_symmetry_space_group_name_H-M "P 2/M"
_symmetry_group_IT_number 10
_symmetry_cell_setting 'monoclinic'
loop_
_space_group_symop_operation_xyz
x,y,z
-x,y,-z
-x,-y,-z
x,-y,z
loop_
_atom_site_type_symbol
_atom_site_label
_atom_site_fract_x
_atom_site_fract_y
_atom_site_fract_z
Si Si1 0.939815 0.727739 0.234559
Si Si2 0.500000 0.876924 0.000000
Si Si3 0.563539 0.673336 0.774996
Si Si4 0.265791 0.159812 0.677874
Si Si5 0.287571 0.558694 0.375874
Si Si6 0.058963 0.060210 0.212504
O O1 0.680352 0.693515 0.296672
O O2 0.902898 0.788174 0.306986
O O3 0.176225 0.703830 0.302801
O O4 0.000000 0.727384 0.000000
O O5 0.344461 0.841727 0.883249
O O6 0.664159 0.914843 0.837226
O O7 0.628501 0.610845 0.749859
O O8 0.500000 0.685349 0.000000
O O9 0.500000 0.164924 0.500000
O O10 0.126027 0.103722 0.668471
O O11 0.500000 0.556429 0.500000
O O12 0.291682 0.500000 0.280210
O O13 0.000000 0.565706 0.500000
O O14 0.043258 0.000000 0.285348
O O15 0.000000 0.058441 0.000000
#
# Coordination Sequence:
#
# PCOD9152748 Si02
#       6
#     4   2   4   4   4   4
#     4  10  22  40  63  88 125 167 207 264 324 380
#     4  10  21  40  66  84 124 162 201 268 322 388
#     4  10  22  39  64  90 123 163 210 261 315 370
#     4  11  25  40  61  92 123 163 213 261 325 393
#     4  10  21  38  61  90 128 168 208 257 314 374
#     4   9  19  38  63  90 120 160 208 259 323 388
#
# _framework density 23.088213
#
# number of rings (size 3 to 8) (size 9 to 14) (size 15 to 20)
#    0.000    2.000    0.000    3.000    6.364    4.364 
#    0.000    0.909    0.000    6.545    0.000    0.000 
#    0.000    0.000    0.000    0.000    0.000    0.000 
#
# Total GULP energy -123015.720201 kJ/mol
# GULP energy per Si atom -5591.623645 kJ/mol
# Density = 2.303566 g / cm^3
# Si number density = 23.088213 Si / 1000 Ang^3
#
#
#
# Elastic Constant Matrix: (Units=GPa)
#
#
# Indices 1 2 3 4 5 6 
#
# 1 151.3917 65.1041 38.7333 0.0000 -14.2310 0.0000
# 2 65.1041 163.5592 25.7279 0.0000 -18.5533 0.0000
# 3 38.7333 25.7279 73.4956 0.0000 -11.8477 0.0000
# 4 0.0000 0.0000 0.0000 53.4805 0.0000 8.7991
# 5 -14.2310 -18.5533 -11.8477 0.0000 40.6529 0.0000
# 6 0.0000 0.0000 0.0000 8.7991 0.0000 13.8714
#
#
#
# Elastic Compliance Matrix: (Units=1/GPa)
#
#
# Indices 1 2 3 4 5 6 
#
# 1 0.008809 -0.002868 -0.003518 0.000000 0.000750 0.000000
# 2 -0.002868 0.007636 -0.000799 0.000000 0.002248 0.000000
# 3 -0.003518 -0.000799 0.016246 0.000000 0.003138 0.000000
# 4 0.000000 0.000000 0.000000 0.020877 0.000000 -0.013243
# 5 0.000750 0.002248 0.003138 0.000000 0.026802 0.000000
# 6 0.000000 0.000000 0.000000 -0.013243 0.000000 0.080491
#
#
# Mechanical properties :
#
#
# Convention : Reuss Voigt Hill
#
# Bulk Modulus (GPa) = 54.58134 71.95300 63.26717
# Shear Modulus (GPa) = 27.57268 38.85971 33.21620
#
# Velocity S-wave (km/s) = 3.45952 4.10701 3.79709
# Velocity P-wave (km/s) = 6.29677 7.32953 6.83269
#
# Compressibility (1/GPa) = 0.01832128
#
# Stress axis : x y z
#
# Youngs Moduli (GPa) = 113.51702 130.95213 61.55409
#
# Poissons Ratio (x) = 0.37559 0.21653
# Poissons Ratio (y) = 0.32558 0.04920
# Poissons Ratio (z) = 0.39932 0.10466
#
# Static dielectric constant tensor:
#      x y z
#    x 1.920520 0.000000 0.008680 
#    y 0.000000 1.844350 0.000000 
#    z 0.008680 0.000000 1.893490 
# 
# From -- ./inp_files/15540.got.cif
#   From: 2010.05.17/outbox.cif.g08.bks.cpg/sg10_8_cif.got.tgz:15540.got - 2010.06.03 11:33:40.
