data_PCOD9152056
_publ_section_title
;
Structure prediction by ZEFSAII (Michael W. Deem and Ramdas Pophale) SiO2 
 PCOD9152056
Probable space group: P 2/M
;
_chemical_formula_sum "Si O2"
_cell_formula_units_Z 28
_cell_length_a 12.722958
_cell_length_b 8.691453
_cell_length_c 17.089743
_cell_angle_alpha 90.000000
_cell_angle_beta 59.743980
_cell_angle_gamma 90.000000
_cell_volume 1632.376926
_symmetry_space_group_name_H-M "P 2/M"
_symmetry_group_IT_number 10
_symmetry_cell_setting 'monoclinic'
loop_
_space_group_symop_operation_xyz
x,y,z
-x,y,-z
-x,-y,-z
x,-y,z
loop_
_atom_site_type_symbol
_atom_site_label
_atom_site_fract_x
_atom_site_fract_y
_atom_site_fract_z
Si Si1 0.616909 0.315489 0.402719
Si Si2 0.848165 0.184479 0.406720
Si Si3 0.318101 0.816226 0.098413
Si Si4 0.112317 0.682502 0.280248
Si Si5 0.238419 0.815691 0.386407
Si Si6 0.526618 0.815767 0.274374
Si Si7 0.554885 0.683944 0.095760
O O1 0.500000 0.274399 0.500000
O O2 0.626666 0.500000 0.396994
O O3 0.736330 0.244577 0.397144
O O4 0.592564 0.250784 0.325598
O O5 0.820248 0.223347 0.508005
O O6 0.974528 0.258699 0.333410
O O7 0.855758 0.000000 0.398538
O O8 0.192090 0.762383 0.182934
O O9 0.426272 0.751719 0.113189
O O10 0.326562 0.000000 0.093339
O O11 0.346164 0.747378 0.002597
O O12 0.117445 0.500000 0.268853
O O13 0.173813 0.730275 0.339511
O O14 0.382114 0.780182 0.334747
O O15 0.225533 0.000000 0.378769
O O16 0.573817 0.742301 0.176363
O O17 0.539017 0.000000 0.267062
O O18 0.550129 0.500000 0.094063
#
# Coordination Sequence:
#
# PCOD9152056 Si02
#       7
#     4   4   4   4   4   4   4
#     4  11  23  38  58  84 115 149 192 243 289 331
#     4  11  23  40  59  80 112 155 199 237 281 342
#     4  11  21  36  57  82 114 152 190 230 281 345
#     4  12  24  37  56  84 118 153 190 237 290 341
#     4  10  21  36  56  82 115 153 193 233 280 341
#     4  11  21  36  59  85 116 153 191 234 284 340
#     4  11  21  35  56  86 117 147 185 236 290 336
#
# _framework density 17.152899999999999
#
# number of rings (size 3 to 8) (size 9 to 14) (size 15 to 20)
#    0.000    1.000    2.857    6.429    0.000    4.000 
#    0.000    0.000    0.000    0.857    0.000    6.000 
#    0.000    0.000    0.000    0.000    0.000    0.000 
#
# Total GULP energy -156590.518602 kJ/mol
# GULP energy per Si atom -5592.518522 kJ/mol
# Density = 1.711386 g / cm^3
# Si number density = 17.152900 Si / 1000 Ang^3
#
#
#
# Elastic Constant Matrix: (Units=GPa)
#
#
# Indices 1 2 3 4 5 6 
#
# 1 66.6923 33.3218 49.7482 0.0000 -8.0490 0.0000
# 2 33.3218 98.8689 57.1533 0.0000 -1.2890 0.0000
# 3 49.7482 57.1533 147.1149 0.0000 2.3464 0.0000
# 4 0.0000 0.0000 0.0000 26.7579 0.0000 4.0334
# 5 -8.0490 -1.2890 2.3464 0.0000 25.7760 0.0000
# 6 0.0000 0.0000 0.0000 4.0334 0.0000 33.2398
#
#
#
# Elastic Compliance Matrix: (Units=1/GPa)
#
#
# Indices 1 2 3 4 5 6 
#
# 1 0.022452 -0.003887 -0.006200 0.000000 0.007381 0.000000
# 2 -0.003887 0.013749 -0.004024 0.000000 -0.000160 0.000000
# 3 -0.006200 -0.004024 0.010507 0.000000 -0.003094 0.000000
# 4 0.000000 0.000000 0.000000 0.038069 0.000000 -0.004619
# 5 0.007381 -0.000160 -0.003094 0.000000 0.041374 0.000000
# 6 0.000000 0.000000 0.000000 -0.004619 0.000000 0.030645
#
#
# Mechanical properties :
#
#
# Convention : Reuss Voigt Hill
#
# Bulk Modulus (GPa) = 54.09786 65.90251 60.00018
# Shear Modulus (GPa) = 26.15354 28.65159 27.40256
#
# Velocity S-wave (km/s) = 3.90902 4.09144 4.00127
# Velocity P-wave (km/s) = 7.20978 7.79897 7.51015
#
# Compressibility (1/GPa) = 0.01848502
#
# Stress axis : x y z
#
# Youngs Moduli (GPa) = 44.53997 72.73448 95.17626
#
# Poissons Ratio (x) = 0.28269 0.59010
# Poissons Ratio (y) = 0.17311 0.38303
# Poissons Ratio (z) = 0.27615 0.29271
#
# Static dielectric constant tensor:
#      x y z
#    x 1.545320 0.000000 -0.004900 
#    y 0.000000 1.571450 0.000000 
#    z -0.004900 0.000000 1.577910 
# 
# From -- ./inp_files/49327.got.cif
#   From: 2010.05.17/outbox.cif.g08.bks.cpg/sg10_25_cif.got.tgz:49327.got - 2010.06.03 11:33:40.
