data_PCOD9152309
_publ_section_title
;
Structure prediction by ZEFSAII (Michael W. Deem and Ramdas Pophale) SiO2 
 PCOD9152309
Probable space group: P 2/M
;
_chemical_formula_sum "Si O2"
_cell_formula_units_Z 32
_cell_length_a 15.586799
_cell_length_b 9.053633
_cell_length_c 11.855172
_cell_angle_alpha 90.000000
_cell_angle_beta 94.277589
_cell_angle_gamma 90.000000
_cell_volume 1668.307932
_symmetry_space_group_name_H-M "P 2/M"
_symmetry_group_IT_number 10
_symmetry_cell_setting 'monoclinic'
loop_
_space_group_symop_operation_xyz
x,y,z
-x,y,-z
-x,-y,-z
x,-y,z
loop_
_atom_site_type_symbol
_atom_site_label
_atom_site_fract_x
_atom_site_fract_y
_atom_site_fract_z
Si Si1 0.145808 0.676109 0.703069
Si Si2 0.806156 0.675039 0.539498
Si Si3 0.366759 0.821900 0.431843
Si Si4 0.039146 0.172023 0.323059
Si Si5 0.911193 0.173080 0.932401
Si Si6 0.461983 0.179201 0.672094
Si Si7 0.237374 0.323652 0.946940
Si Si8 0.584721 0.822080 0.081052
O O1 0.128458 0.500000 0.704914
O O2 0.198826 0.706662 0.594749
O O3 0.197024 0.716579 0.820690
O O4 0.055942 0.761022 0.687058
O O5 0.804425 0.500000 0.556317
O O6 0.725845 0.750532 0.592915
O O7 0.896158 0.739984 0.590896
O O8 0.440071 0.777624 0.349204
O O9 0.403859 0.778073 0.559018
O O10 0.359358 0.000000 0.428877
O O11 0.075560 0.183507 0.199644
O O12 0.036572 0.000000 0.354866
O O13 0.899932 0.000000 0.961922
O O14 0.829937 0.262726 0.968667
O O15 0.000000 0.224702 0.000000
O O16 0.429704 0.229194 0.790848
O O17 0.461537 0.000000 0.673872
O O18 0.243556 0.500000 0.954577
O O19 0.330772 0.251084 0.962454
O O20 0.595486 0.000000 0.082776
O O21 0.500000 0.788528 0.000000
#
# Coordination Sequence:
#
# PCOD9152309 Si02
#       8
#     4   4   4   4   4   4   4   4
#     4  10  22  39  57  80 115 154 188 229 283 341
#     4  11  23  37  53  80 120 155 185 225 283 345
#     4   9  17  33  57  81 105 140 189 238 279 328
#     4  11  23  38  59  84 110 145 191 239 283 333
#     4  10  21  40  62  85 113 146 190 243 289 334
#     4   8  16  33  57  81 106 140 186 238 286 329
#     4  11  23  38  61  89 116 152 195 237 287 345
#     4  10  21  37  57  82 114 151 189 234 289 342
#
# _framework density 19.181111000000001
#
# number of rings (size 3 to 8) (size 9 to 14) (size 15 to 20)
#    0.000    2.000    1.250    3.000    0.000    5.500 
#    0.000    4.375    0.000    0.000    0.000    0.000 
#    0.000    0.000    0.000    0.000    0.000    0.000 
#
# Total GULP energy -178745.224673 kJ/mol
# GULP energy per Si atom -5585.788271 kJ/mol
# Density = 1.913745 g / cm^3
# Si number density = 19.181111 Si / 1000 Ang^3
#
#
#
# Elastic Constant Matrix: (Units=GPa)
#
#
# Indices 1 2 3 4 5 6 
#
# 1 135.5098 43.1270 9.4346 0.0000 -13.1382 0.0000
# 2 43.1270 29.0692 11.8778 0.0000 -4.9650 0.0000
# 3 9.4346 11.8778 31.1197 0.0000 -12.5693 0.0000
# 4 0.0000 0.0000 0.0000 23.5692 0.0000 -18.6974
# 5 -13.1382 -4.9650 -12.5693 0.0000 23.2995 0.0000
# 6 0.0000 0.0000 0.0000 -18.6974 0.0000 99.1159
#
#
#
# Elastic Compliance Matrix: (Units=1/GPa)
#
#
# Indices 1 2 3 4 5 6 
#
# 1 0.015511 -0.024934 0.007929 0.000000 0.007710 0.000000
# 2 -0.024934 0.080843 -0.028152 0.000000 -0.012020 0.000000
# 3 0.007929 -0.028152 0.050962 0.000000 0.025964 0.000000
# 4 0.000000 0.000000 0.000000 0.049895 0.000000 0.009412
# 5 0.007710 -0.012020 0.025964 0.000000 0.058712 0.000000
# 6 0.000000 0.000000 0.000000 0.009412 0.000000 0.011865
#
#
# Mechanical properties :
#
#
# Convention : Reuss Voigt Hill
#
# Bulk Modulus (GPa) = 17.54346 36.06418 26.80382
# Shear Modulus (GPa) = 13.25895 37.94751 25.60323
#
# Velocity S-wave (km/s) = 2.63202 4.45272 3.65748
# Velocity P-wave (km/s) = 4.28984 6.72892 5.64275
#
# Compressibility (1/GPa) = 0.05700130
#
# Stress axis : x y z
#
# Youngs Moduli (GPa) = 64.47212 12.36960 19.62239
#
# Poissons Ratio (x) = 0.30843 -0.15558
# Poissons Ratio (y) = 1.60757 0.55240
# Poissons Ratio (z) = -0.51118 0.34823
#
# Static dielectric constant tensor:
#      x y z
#    x 1.638820 0.000000 -0.002740 
#    y 0.000000 1.639280 0.000000 
#    z -0.002740 0.000000 1.680550 
# 
# From -- ./inp_files/49822.got.cif
#   From: 2010.05.17/outbox.cif.g08.bks.cpg/sg10_25_cif.got.tgz:49822.got - 2010.06.03 11:33:40.
