data_PCOD9152782
_publ_section_title
;
Structure prediction by ZEFSAII (Michael W. Deem and Ramdas Pophale) SiO2 
 PCOD9152782
Probable space group: P 2/M
;
_chemical_formula_sum "Si O2"
_cell_formula_units_Z 21
_cell_length_a 11.133713
_cell_length_b 10.556888
_cell_length_c 9.675970
_cell_angle_alpha 90.000000
_cell_angle_beta 108.544112
_cell_angle_gamma 90.000000
_cell_volume 1078.238944
_symmetry_space_group_name_H-M "P 2/M"
_symmetry_group_IT_number 10
_symmetry_cell_setting 'monoclinic'
loop_
_space_group_symop_operation_xyz
x,y,z
-x,y,-z
-x,-y,-z
x,-y,z
loop_
_atom_site_type_symbol
_atom_site_label
_atom_site_fract_x
_atom_site_fract_y
_atom_site_fract_z
Si Si1 0.807795 0.860951 0.581867
Si Si2 0.473385 0.347377 0.836573
Si Si3 0.184955 0.723297 0.685937
Si Si4 0.050832 0.854914 0.869307
Si Si5 0.371060 0.644842 0.364606
Si Si6 0.000000 0.500000 0.500000
O O1 0.835649 0.836295 0.431314
O O2 0.723151 0.744432 0.602989
O O3 0.933309 0.857568 0.720290
O O4 0.748069 0.000000 0.577870
O O5 0.476239 0.500000 0.839127
O O6 0.333346 0.310643 0.736202
O O7 0.582990 0.310837 0.769289
O O8 0.500000 0.299562 0.000000
O O9 0.150287 0.765850 0.828339
O O10 0.094603 0.610572 0.600725
O O11 0.097465 0.000000 0.903816
O O12 0.000000 0.811120 0.000000
O O13 0.500000 0.639965 0.500000
O O14 0.319156 0.500000 0.342498
#
# Coordination Sequence:
#
# PCOD9152782 Si02
#       6
#     4   4   4   4   4   1
#     4  11  23  39  63  91 124 161 207 258 308 371
#     4  10  22  39  59  87 125 164 200 246 309 369
#     4  12  22  40  65  91 125 160 210 253 312 366
#     4  10  23  42  62  87 121 161 202 256 320 373
#     4  10  21  38  62  89 117 161 203 248 299 365
#     4  12  24  36  66  98 120 160 208 272 294 374
#
# _framework density 19.476203999999999
#
# number of rings (size 3 to 8) (size 9 to 14) (size 15 to 20)
#    0.000    1.333    4.762    0.571    4.000    1.905 
#    0.000    0.476    0.000    2.857    0.000    0.000 
#    0.000    0.000    0.000    0.000    0.000    0.000 
#
# Total GULP energy -116954.932555 kJ/mol
# GULP energy per Si atom -5569.282503 kJ/mol
# Density = 1.943187 g / cm^3
# Si number density = 19.476204 Si / 1000 Ang^3
#
#
#
# Elastic Constant Matrix: (Units=GPa)
#
#
# Indices 1 2 3 4 5 6 
#
# 1 60.3601 35.3619 10.0706 0.0000 -18.3783 0.0000
# 2 35.3619 84.0400 -0.2685 0.0000 -15.2166 0.0000
# 3 10.0706 -0.2685 84.3887 0.0000 -22.2037 0.0000
# 4 0.0000 0.0000 0.0000 12.0915 0.0000 -0.1657
# 5 -18.3783 -15.2166 -22.2037 0.0000 38.5410 0.0000
# 6 0.0000 0.0000 0.0000 -0.1657 0.0000 12.6913
#
#
#
# Elastic Compliance Matrix: (Units=1/GPa)
#
#
# Indices 1 2 3 4 5 6 
#
# 1 0.024174 -0.008816 -0.000938 0.000000 0.007507 0.000000
# 2 -0.008816 0.016220 0.001983 0.000000 0.003343 0.000000
# 3 -0.000938 0.001983 0.014211 0.000000 0.008523 0.000000
# 4 0.000000 0.000000 0.000000 0.082717 0.000000 0.001080
# 5 0.007507 0.003343 0.008523 0.000000 0.035756 0.000000
# 6 0.000000 0.000000 0.000000 0.001080 0.000000 0.078808
#
#
# Mechanical properties :
#
#
# Convention : Reuss Voigt Hill
#
# Bulk Modulus (GPa) = 25.59902 35.45741 30.52822
# Shear Modulus (GPa) = 17.82866 24.90642 21.36754
#
# Velocity S-wave (km/s) = 3.02885 3.57993 3.31586
# Velocity P-wave (km/s) = 5.04026 5.94415 5.51077
#
# Compressibility (1/GPa) = 0.03906400
#
# Stress axis : x y z
#
# Youngs Moduli (GPa) = 41.36703 61.65209 70.37021
#
# Poissons Ratio (x) = 0.54350 0.06599
# Poissons Ratio (y) = 0.36467 -0.13955
# Poissons Ratio (z) = 0.03879 -0.12226
#
# Static dielectric constant tensor:
#      x y z
#    x 1.696000 0.000000 -0.049190 
#    y 0.000000 1.677050 0.000000 
#    z -0.049190 0.000000 1.714170 
# 
# From -- ./inp_files/23604.got.cif
#   From: 2010.05.17/outbox.cif.g08.bks.cpg/sg10_12_cif.got.tgz:23604.got - 2010.06.03 11:33:40.
