data_PCOD9152252
_publ_section_title
;
Structure prediction by ZEFSAII (Michael W. Deem and Ramdas Pophale) SiO2 
 PCOD9152252
Probable space group: P 2/M
;
_chemical_formula_sum "Si O2"
_cell_formula_units_Z 28
_cell_length_a 17.232010
_cell_length_b 12.921624
_cell_length_c 8.700540
_cell_angle_alpha 90.000000
_cell_angle_beta 120.325064
_cell_angle_gamma 90.000000
_cell_volume 1672.237582
_symmetry_space_group_name_H-M "P 2/M"
_symmetry_group_IT_number 10
_symmetry_cell_setting 'monoclinic'
loop_
_space_group_symop_operation_xyz
x,y,z
-x,y,-z
-x,-y,-z
x,-y,z
loop_
_atom_site_type_symbol
_atom_site_label
_atom_site_fract_x
_atom_site_fract_y
_atom_site_fract_z
Si Si1 0.401151 0.620631 0.967361
Si Si2 0.600847 0.000000 0.666712
Si Si3 0.399153 0.000000 0.965019
Si Si4 0.711201 0.805360 0.646088
Si Si5 0.711201 0.194640 0.276315
Si Si6 0.905503 0.120539 0.840189
Si Si7 0.094498 0.879461 0.529184
Si Si8 0.401151 0.379369 0.334940
O O1 0.382376 0.500000 0.913511
O O2 0.330356 0.698308 0.822564
O O3 0.500000 0.644925 0.000000
O O4 0.402486 0.633352 0.152486
O O5 0.500000 0.000000 0.500000
O O6 0.653516 0.899099 0.659249
O O7 0.598056 0.000000 0.848056
O O8 0.346484 0.100901 0.852216
O O9 0.500000 0.000000 0.000000
O O10 0.705907 0.812419 0.455907
O O11 0.815298 0.820159 0.796663
O O12 0.669644 0.698308 0.661851
O O13 0.815298 0.179842 0.333933
O O14 0.910301 0.122052 0.660301
O O15 0.895555 0.000000 0.878667
O O16 0.000000 0.159720 0.000000
O O17 0.000000 0.840280 0.500000
O O18 0.104445 0.000000 0.587557
O O19 0.500000 0.355075 0.500000
O O20 0.382376 0.500000 0.351240
#
# Coordination Sequence:
#
# PCOD9152252 Si02
#       8
#     4   2   2   4   4   4   4   4
#     4  10  21  37  56  79 106 139 181 223 263 312
#     4  12  24  36  51  74 107 144 177 212 262 316
#     4  12  24  36  51  74 107 144 177 212 262 316
#     4  11  21  36  55  78 109 140 175 218 265 316
#     4  11  21  36  55  78 109 140 175 218 265 316
#     4   9  18  33  52  76 106 138 173 214 260 311
#     4   9  18  33  52  76 106 138 173 214 260 311
#     4  10  21  37  56  79 106 139 181 223 263 312
#
# _framework density 16.744033000000002
#
# number of rings (size 3 to 8) (size 9 to 14) (size 15 to 20)
#    0.000    1.714    1.429    3.857    0.000    4.000 
#    0.000    0.000    0.000    0.857    0.000    0.000 
#    0.000    0.000    0.000    0.000    0.000    0.000 
#
# Total GULP energy -156375.004593 kJ/mol
# GULP energy per Si atom -5584.821593 kJ/mol
# Density = 1.670592 g / cm^3
# Si number density = 16.744033 Si / 1000 Ang^3
#
#
#
# Elastic Constant Matrix: (Units=GPa)
#
#
# Indices 1 2 3 4 5 6 
#
# 1 153.2696 74.0860 63.9177 0.0000 29.1967 0.0000
# 2 74.0860 81.4336 55.9113 0.0000 20.4601 0.0000
# 3 63.9177 55.9113 103.6915 0.0000 26.6162 0.0000
# 4 0.0000 0.0000 0.0000 19.6511 0.0000 -2.1904
# 5 29.1967 20.4601 26.6162 0.0000 34.6134 0.0000
# 6 0.0000 0.0000 0.0000 -2.1904 0.0000 17.7054
#
#
#
# Elastic Compliance Matrix: (Units=1/GPa)
#
#
# Indices 1 2 3 4 5 6 
#
# 1 0.012368 -0.009116 -0.001762 0.000000 -0.003690 0.000000
# 2 -0.009116 0.026741 -0.008368 0.000000 -0.001683 0.000000
# 3 -0.001762 -0.008368 0.016933 0.000000 -0.006589 0.000000
# 4 0.000000 0.000000 0.000000 0.051599 0.000000 0.006383
# 5 -0.003690 -0.001683 -0.006589 0.000000 0.038064 0.000000
# 6 0.000000 0.000000 0.000000 0.006383 0.000000 0.057270
#
#
# Mechanical properties :
#
#
# Convention : Reuss Voigt Hill
#
# Bulk Modulus (GPa) = 56.97335 80.69162 68.83249
# Shear Modulus (GPa) = 20.21693 24.02595 22.12144
#
# Velocity S-wave (km/s) = 3.47855 3.79211 3.63871
# Velocity P-wave (km/s) = 7.08757 8.21397 7.67148
#
# Compressibility (1/GPa) = 0.01755206
#
# Stress axis : x y z
#
# Youngs Moduli (GPa) = 80.85228 37.39523 59.05539
#
# Poissons Ratio (x) = 0.34088 0.10404
# Poissons Ratio (y) = 0.73702 0.49418
# Poissons Ratio (z) = 0.14244 0.31292
#
# Static dielectric constant tensor:
#      x y z
#    x 1.556270 0.000000 -0.004750 
#    y 0.000000 1.545800 0.000000 
#    z -0.004750 0.000000 1.560500 
# 
# From -- ./inp_files/28714.got.cif
#   From: 2010.05.17/outbox.cif.g08.bks.cpg/sg10_15_cif.got.tgz:28714.got - 2010.06.03 11:33:40.
