data_PCOD9152866
_publ_section_title
;
Structure prediction by ZEFSAII (Michael W. Deem and Ramdas Pophale) SiO2 
 PCOD9152866
Probable space group: P 2/M
;
_chemical_formula_sum "Si O2"
_cell_formula_units_Z 32
_cell_length_a 15.662134
_cell_length_b 7.598555
_cell_length_c 23.761134
_cell_angle_alpha 90.000000
_cell_angle_beta 30.676265
_cell_angle_gamma 90.000000
_cell_volume 1442.707280
_symmetry_space_group_name_H-M "P 2/M"
_symmetry_group_IT_number 10
_symmetry_cell_setting 'monoclinic'
loop_
_space_group_symop_operation_xyz
x,y,z
-x,y,-z
-x,-y,-z
x,-y,z
loop_
_atom_site_type_symbol
_atom_site_label
_atom_site_fract_x
_atom_site_fract_y
_atom_site_fract_z
Si Si1 0.806738 0.288089 0.957997
Si Si2 0.977035 0.207056 0.266038
Si Si3 0.867428 0.799265 0.529625
Si Si4 0.122813 0.298910 0.295939
Si Si5 0.401666 0.215082 0.499936
Si Si6 0.517092 0.715525 0.925685
Si Si7 0.822068 0.287254 0.076554
Si Si8 0.530437 0.790007 0.665199
O O1 0.799399 0.500000 0.963692
O O2 0.963989 0.238958 0.830573
O O3 0.641753 0.225046 0.019360
O O4 0.810921 0.223064 0.018888
O O5 0.790168 0.268707 0.383367
O O6 0.097229 0.296429 0.243309
O O7 0.985191 0.000000 0.272832
O O8 0.685409 0.720934 0.616248
O O9 0.000000 0.721180 0.500000
O O10 0.973213 0.799063 0.411734
O O11 0.837033 0.000000 0.566375
O O12 0.114337 0.500000 0.320438
O O13 0.307993 0.226366 0.200713
O O14 0.500000 0.273884 0.500000
O O15 0.460685 0.274917 0.404588
O O16 0.409369 0.000000 0.495608
O O17 0.521695 0.500000 0.923302
O O18 0.500000 0.772368 0.000000
O O19 0.827727 0.500000 0.072911
O O20 0.653061 0.239935 0.205439
O O21 0.000000 0.225359 0.000000
O O22 0.559156 0.000000 0.646168
#
# Coordination Sequence:
#
# PCOD9152866 Si02
#       8
#     4   4   4   4   4   4   4   4
#     4  10  21  39  59  79 114 157 196 239 289 343
#     4  11  21  36  59  87 119 148 188 241 297 349
#     4  10  22  40  59  83 120 158 191 243 303 345
#     4  11  21  35  58  84 115 153 196 235 284 352
#     4   9  19  36  59  85 113 146 184 236 295 345
#     4   9  17  32  53  78 109 146 185 227 275 333
#     4  10  24  43  61  84 119 159 199 250 301 342
#     4  10  21  40  63  87 118 155 197 241 293 359
#
# _framework density 22.180523000000001
#
# number of rings (size 3 to 8) (size 9 to 14) (size 15 to 20)
#    0.000    2.000    2.500    0.750    3.500    1.500 
#    0.000    1.875    0.000    1.875    0.000    0.000 
#    0.000    0.000    0.000    0.000    0.000    0.000 
#
# Total GULP energy -178723.798911 kJ/mol
# GULP energy per Si atom -5585.118716 kJ/mol
# Density = 2.213004 g / cm^3
# Si number density = 22.180523 Si / 1000 Ang^3
#
#
#
# Elastic Constant Matrix: (Units=GPa)
#
#
# Indices 1 2 3 4 5 6 
#
# 1 175.8442 7.5833 84.5694 0.0000 -1.2797 0.0000
# 2 7.5833 51.0765 -1.5495 0.0000 -3.2859 0.0000
# 3 84.5694 -1.5495 173.0590 0.0000 3.2464 0.0000
# 4 0.0000 0.0000 0.0000 17.2891 0.0000 3.9391
# 5 -1.2797 -3.2859 3.2464 0.0000 28.3345 0.0000
# 6 0.0000 0.0000 0.0000 3.9391 0.0000 0.1376
#
#
#
# Elastic Compliance Matrix: (Units=1/GPa)
#
#
# Indices 1 2 3 4 5 6 
#
# 1 0.007521 -0.001189 -0.003698 0.000000 0.000626 0.000000
# 2 -0.001189 0.019917 0.000718 0.000000 0.002174 0.000000
# 3 -0.003698 0.000718 0.007610 0.000000 -0.000956 0.000000
# 4 0.000000 0.000000 0.000000 -0.010473 0.000000 0.299832
# 5 0.000626 0.002174 -0.000956 0.000000 0.035682 0.000000
# 6 0.000000 0.000000 0.000000 0.299832 0.000000 -1.315994
#
#
# Mechanical properties :
#
#
# Convention : Reuss Voigt Hill
#
# Bulk Modulus (GPa) = 37.43706 64.57624 51.00665
# Shear Modulus (GPa) = -4.03715 29.77735 12.87010
#
# Velocity S-wave (km/s) = -1.35059 3.66799 2.41144
# Velocity P-wave (km/s) = 3.80564 6.86411 5.54972
#
# Compressibility (1/GPa) = 0.02671150
#
# Stress axis : x y z
#
# Youngs Moduli (GPa) = 132.96091 50.20942 131.41119
#
# Poissons Ratio (x) = 0.05968 0.48592
# Poissons Ratio (y) = 0.15804 -0.09440
# Poissons Ratio (z) = 0.49165 -0.03607
#
# Static dielectric constant tensor:
#      x y z
#    x 1.828610 0.000000 -0.014400 
#    y 0.000000 1.828940 0.000000 
#    z -0.014400 0.000000 1.781770 
# 
# From -- ./inp_files/89573.got.cif
#   From: 2010.05.17/outbox.cif.g08.bks.cpg/sg10_45_cif.got.tgz:89573.got - 2010.06.03 11:33:40.
