data_PCOD9152340
_publ_section_title
;
Structure prediction by ZEFSAII (Michael W. Deem and Ramdas Pophale) SiO2 
 PCOD9152340
Probable space group: P 2/M
;
_chemical_formula_sum "Si O2"
_cell_formula_units_Z 16
_cell_length_a 7.542407
_cell_length_b 12.614157
_cell_length_c 9.134629
_cell_angle_alpha 90.000000
_cell_angle_beta 122.889325
_cell_angle_gamma 90.000000
_cell_volume 729.783685
_symmetry_space_group_name_H-M "P 2/M"
_symmetry_group_IT_number 10
_symmetry_cell_setting 'monoclinic'
loop_
_space_group_symop_operation_xyz
x,y,z
-x,y,-z
-x,-y,-z
x,-y,z
loop_
_atom_site_type_symbol
_atom_site_label
_atom_site_fract_x
_atom_site_fract_y
_atom_site_fract_z
Si Si1 0.497107 0.713898 0.172501
Si Si2 0.200725 0.122194 0.196844
Si Si3 0.003452 0.500000 0.328034
Si Si4 0.241186 0.500000 0.047695
Si Si5 0.259276 0.292961 0.450935
O O1 0.381134 0.815212 0.190040
O O2 0.715496 0.707660 0.361547
O O3 0.500000 0.725527 0.000000
O O4 0.365335 0.606238 0.144687
O O5 0.170209 0.188288 0.332853
O O6 0.252661 0.000000 0.249394
O O7 0.000000 0.127042 0.000000
O O8 0.127884 0.393943 0.342032
O O9 0.000000 0.500000 0.500000
O O10 0.785899 0.500000 0.141704
O O11 0.000000 0.500000 0.000000
O O12 0.500000 0.304349 0.500000
#
# Coordination Sequence:
#
# PCOD9152340 Si02
#       5
#     4   4   2   2   4
#     4  11  22  37  58  86 119 149 185 234 285 333
#     4  10  22  41  62  82 108 147 194 237 280 336
#     4  12  22  34  56  86 118 147 184 231 280 331
#     4  12  22  36  58  84 119 155 190 225 276 341
#     4  10  21  37  58  82 114 150 188 226 275 338
#
# _framework density 21.924302000000001
#
# number of rings (size 3 to 8) (size 9 to 14) (size 15 to 20)
#    0.000    1.250    0.000    8.250    0.000    5.000 
#    0.000    0.000    0.000    3.750    0.000    0.000 
#    0.000    0.000    0.000    0.000    0.000    0.000 
#
# Total GULP energy -89494.960692 kJ/mol
# GULP energy per Si atom -5593.435043 kJ/mol
# Density = 2.187440 g / cm^3
# Si number density = 21.924302 Si / 1000 Ang^3
#
#
#
# Elastic Constant Matrix: (Units=GPa)
#
#
# Indices 1 2 3 4 5 6 
#
# 1 27.5957 35.0886 16.5121 0.0000 -7.9505 0.0000
# 2 35.0886 222.7752 80.6274 0.0000 7.3003 0.0000
# 3 16.5121 80.6274 187.4865 0.0000 -15.5785 0.0000
# 4 0.0000 0.0000 0.0000 35.7784 0.0000 -4.2054
# 5 -7.9505 7.3003 -15.5785 0.0000 39.4074 0.0000
# 6 0.0000 0.0000 0.0000 -4.2054 0.0000 42.6392
#
#
#
# Elastic Compliance Matrix: (Units=1/GPa)
#
#
# Indices 1 2 3 4 5 6 
#
# 1 0.050117 -0.008328 0.000141 0.000000 0.011710 0.000000
# 2 -0.008328 0.006850 -0.002541 0.000000 -0.003954 0.000000
# 3 0.000141 -0.002541 0.006675 0.000000 0.003138 0.000000
# 4 0.000000 0.000000 0.000000 0.028278 0.000000 0.002789
# 5 0.011710 -0.003954 0.003138 0.000000 0.029711 0.000000
# 6 0.000000 0.000000 0.000000 0.002789 0.000000 0.023728
#
#
# Mechanical properties :
#
#
# Convention : Reuss Voigt Hill
#
# Bulk Modulus (GPa) = 23.70549 78.03483 50.87016
# Shear Modulus (GPa) = 27.64331 43.94026 35.79179
#
# Velocity S-wave (km/s) = 3.55470 4.48166 4.04482
# Velocity P-wave (km/s) = 5.26154 7.90256 6.71321
#
# Compressibility (1/GPa) = 0.04218432
#
# Stress axis : x y z
#
# Youngs Moduli (GPa) = 19.95345 145.99203 149.82067
#
# Poissons Ratio (x) = 1.21587 -0.02108
# Poissons Ratio (y) = 0.16618 0.38065
# Poissons Ratio (z) = -0.00281 0.37092
#
# Static dielectric constant tensor:
#      x y z
#    x 1.882520 0.000000 -0.043420 
#    y 0.000000 1.745870 0.000000 
#    z -0.043420 0.000000 1.901680 
# 
# From -- ./inp_files/17094.got.cif
#   From: 2010.05.17/outbox.cif.g08.bks.cpg/sg10_9_cif.got.tgz:17094.got - 2010.06.03 11:33:40.
