data_PCOD9152154
_publ_section_title
;
Structure prediction by ZEFSAII (Michael W. Deem and Ramdas Pophale) SiO2 
 PCOD9152154
Probable space group: P 2/M
;
_chemical_formula_sum "Si O2"
_cell_formula_units_Z 28
_cell_length_a 15.466104
_cell_length_b 7.499664
_cell_length_c 20.917638
_cell_angle_alpha 90.000000
_cell_angle_beta 151.762418
_cell_angle_gamma 90.000000
_cell_volume 1147.928140
_symmetry_space_group_name_H-M "P 2/M"
_symmetry_group_IT_number 10
_symmetry_cell_setting 'monoclinic'
loop_
_space_group_symop_operation_xyz
x,y,z
-x,y,-z
-x,-y,-z
x,-y,z
loop_
_atom_site_type_symbol
_atom_site_label
_atom_site_fract_x
_atom_site_fract_y
_atom_site_fract_z
Si Si1 0.136984 0.784492 0.172632
Si Si2 0.312904 0.782549 0.412683
Si Si3 0.193527 0.714384 0.603043
Si Si4 0.106970 0.786469 0.403223
Si Si5 0.299615 0.204180 0.889693
Si Si6 0.441148 0.295400 0.110381
Si Si7 0.275468 0.785608 0.135561
O O1 0.166851 0.728281 0.263964
O O2 0.284426 0.724746 0.215230
O O3 0.150703 0.000000 0.180714
O O4 0.933407 0.742838 0.018805
O O5 0.500000 0.724855 0.500000
O O6 0.239374 0.719784 0.432886
O O7 0.325634 0.000000 0.425244
O O8 0.197724 0.500000 0.612972
O O9 0.355444 0.783604 0.753509
O O10 0.000000 0.783956 0.500000
O O11 0.199472 0.752318 0.531660
O O12 0.092727 0.000000 0.385609
O O13 0.896022 0.717723 0.260422
O O14 0.308669 0.204469 0.973236
O O15 0.301977 0.000000 0.868325
O O16 0.500000 0.280822 0.000000
O O17 0.444857 0.500000 0.092437
O O18 0.387932 0.289872 0.150311
O O19 0.302754 0.000000 0.151996
#
# Coordination Sequence:
#
# PCOD9152154 Si02
#       7
#     4   4   4   4   4   4   4
#     4   8  15  29  49  75 106 141 180 221 272 329
#     4   9  17  28  46  76 112 141 174 222 273 328
#     4  10  23  42  59  78 112 155 193 232 282 342
#     4  10  21  36  59  89 115 144 187 237 287 339
#     4  10  21  38  60  86 114 143 182 238 295 342
#     4  11  23  36  55  83 112 146 190 230 277 341
#     4   9  17  31  54  78 103 139 182 230 277 323
#
# _framework density 24.391773000000001
#
# number of rings (size 3 to 8) (size 9 to 14) (size 15 to 20)
#    0.000    2.429    0.000    3.000    2.000    4.571 
#    0.000    1.429    0.000    1.286    0.000    0.000 
#    0.000    0.000    0.000    0.000    0.000    0.000 
#
# Total GULP energy -156267.844063 kJ/mol
# GULP energy per Si atom -5580.994431 kJ/mol
# Density = 2.433626 g / cm^3
# Si number density = 24.391773 Si / 1000 Ang^3
#
#
#
# Elastic Constant Matrix: (Units=GPa)
#
#
# Indices 1 2 3 4 5 6 
#
# 1 94.7290 3.7259 -3.4515 0.0000 -11.9897 0.0000
# 2 3.7259 67.8241 4.8847 0.0000 5.9323 0.0000
# 3 -3.4515 4.8847 68.6533 0.0000 -5.9849 0.0000
# 4 0.0000 0.0000 0.0000 0.1328 0.0000 -5.0319
# 5 -11.9897 5.9323 -5.9849 0.0000 37.0187 0.0000
# 6 0.0000 0.0000 0.0000 -5.0319 0.0000 13.0513
#
#
#
# Elastic Compliance Matrix: (Units=1/GPa)
#
#
# Indices 1 2 3 4 5 6 
#
# 1 0.011129 -0.001025 0.000975 0.000000 0.003926 0.000000
# 2 -0.001025 0.015162 -0.001391 0.000000 -0.002986 0.000000
# 3 0.000975 -0.001391 0.014972 0.000000 0.002959 0.000000
# 4 0.000000 0.000000 0.000000 -0.553319 0.000000 -0.213332
# 5 0.003926 -0.002986 0.002959 0.000000 0.029242 0.000000
# 6 0.000000 0.000000 0.000000 -0.213332 0.000000 -0.005630
#
#
# Mechanical properties :
#
#
# Convention : Reuss Voigt Hill
#
# Bulk Modulus (GPa) = 26.05459 26.83606 26.44532
# Shear Modulus (GPa) = -10.57600 25.11038 7.26719
#
# Velocity S-wave (km/s) = -2.08454 3.21200 1.72796
# Velocity P-wave (km/s) = 2.21611 4.97814 3.85312
#
# Compressibility (1/GPa) = 0.03838096
#
# Stress axis : x y z
#
# Youngs Moduli (GPa) = 89.85353 65.95564 66.79202
#
# Poissons Ratio (x) = 0.06761 -0.06510
# Poissons Ratio (y) = 0.09210 0.09288
# Poissons Ratio (z) = -0.08758 0.09172
#
# Static dielectric constant tensor:
#      x y z
#    x 1.821280 0.000000 -0.153310 
#    y 0.000000 1.929360 0.000000 
#    z -0.153310 0.000000 1.749780 
# 
# From -- ./inp_files/84976.got.cif
#   From: 2010.05.17/outbox.cif.g08.bks.cpg/sg10_43_cif.got.tgz:84976.got - 2010.06.03 11:33:40.
