data_PCOD9152824
_publ_section_title
;
Structure prediction by ZEFSAII (Michael W. Deem and Ramdas Pophale) SiO2 
 PCOD9152824
Probable space group: P 2/M
;
_chemical_formula_sum "Si O2"
_cell_formula_units_Z 32
_cell_length_a 11.374468
_cell_length_b 7.517035
_cell_length_c 20.102808
_cell_angle_alpha 90.000000
_cell_angle_beta 51.519897
_cell_angle_gamma 90.000000
_cell_volume 1345.546413
_symmetry_space_group_name_H-M "P 2/M"
_symmetry_group_IT_number 10
_symmetry_cell_setting 'monoclinic'
loop_
_space_group_symop_operation_xyz
x,y,z
-x,y,-z
-x,-y,-z
x,-y,z
loop_
_atom_site_type_symbol
_atom_site_label
_atom_site_fract_x
_atom_site_fract_y
_atom_site_fract_z
Si Si1 0.409520 0.201084 0.095133
Si Si2 0.104677 0.792480 0.022122
Si Si3 0.770992 0.716994 0.264650
Si Si4 0.646530 0.203329 0.740396
Si Si5 0.456307 0.282996 0.439092
Si Si6 0.169289 0.705078 0.450951
Si Si7 0.324692 0.286830 0.839551
Si Si8 0.914170 0.300950 0.823851
O O1 0.395626 0.287223 0.173085
O O2 0.233740 0.193374 0.139687
O O3 0.470627 0.000000 0.081603
O O4 0.500000 0.280525 0.000000
O O5 0.091498 0.689182 0.094376
O O6 0.073380 0.000000 0.044730
O O7 0.267657 0.777274 0.930741
O O8 0.000000 0.720876 0.000000
O O9 0.775353 0.500000 0.266109
O O10 0.608746 0.772070 0.347549
O O11 0.781977 0.770068 0.183569
O O12 0.921079 0.775085 0.250260
O O13 0.757487 0.289418 0.648548
O O14 0.484162 0.208400 0.764474
O O15 0.696918 0.000000 0.733988
O O16 0.500000 0.234312 0.500000
O O17 0.449149 0.500000 0.439420
O O18 0.299870 0.223805 0.456917
O O19 0.146724 0.500000 0.479871
O O20 0.000000 0.782896 0.500000
O O21 0.333070 0.500000 0.836687
O O22 0.900207 0.500000 0.800238
#
# Coordination Sequence:
#
# PCOD9152824 Si02
#       8
#     4   4   4   4   4   4   4   4
#     4  10  23  43  61  80 117 164 209 256 308 373
#     4  11  22  34  51  80 117 156 197 237 291 357
#     4   9  18  32  53  84 117 148 184 238 300 355
#     4  11  23  39  62  89 119 162 208 251 310 374
#     4   9  17  33  58  87 121 158 193 241 313 376
#     4  10  21  38  63  95 123 158 213 268 312 370
#     4  11  20  35  59  84 117 151 194 247 295 348
#     4  11  22  36  57  85 117 152 200 254 303 357
#
# _framework density 23.782159
#
# number of rings (size 3 to 8) (size 9 to 14) (size 15 to 20)
#    0.000    1.750    2.500    2.250    0.000    4.000 
#    0.000    2.500    0.000    0.375    0.000    0.000 
#    0.000    0.000    0.000    0.000    0.000    0.000 
#
# Total GULP energy -178400.295474 kJ/mol
# GULP energy per Si atom -5575.009234 kJ/mol
# Density = 2.372803 g / cm^3
# Si number density = 23.782159 Si / 1000 Ang^3
#
#
#
# Elastic Constant Matrix: (Units=GPa)
#
#
# Indices 1 2 3 4 5 6 
#
# 1 146.7346 7.4804 63.9789 0.0000 -20.2662 0.0000
# 2 7.4804 78.2663 -3.7696 0.0000 -1.4560 0.0000
# 3 63.9789 -3.7696 121.6958 0.0000 -9.6251 0.0000
# 4 0.0000 0.0000 0.0000 -199.3079 0.0000 87.1737
# 5 -20.2662 -1.4560 -9.6251 0.0000 48.6859 0.0000
# 6 0.0000 0.0000 0.0000 87.1737 0.0000 27.0416
#
#
#
# Elastic Compliance Matrix: (Units=1/GPa)
#
#
# Indices 1 2 3 4 5 6 
#
# 1 0.009323 -0.001063 -0.004704 0.000000 0.002919 0.000000
# 2 -0.001063 0.012928 0.000970 0.000000 0.000136 0.000000
# 3 -0.004704 0.000970 0.010735 0.000000 0.000193 0.000000
# 4 0.000000 0.000000 0.000000 -0.002082 0.000000 0.006711
# 5 0.002919 0.000136 0.000193 0.000000 0.021797 0.000000
# 6 0.000000 0.000000 0.000000 0.006711 0.000000 0.015345
#
#
# Mechanical properties :
#
#
# Convention : Reuss Voigt Hill
#
# Bulk Modulus (GPa) = 42.74773 53.56401 48.15587
# Shear Modulus (GPa) = 58.52242 -6.11562 26.20340
#
# Velocity S-wave (km/s) = 4.96600 -1.60533 3.32295
# Velocity P-wave (km/s) = 7.13409 4.37442 5.91738
#
# Compressibility (1/GPa) = 0.02339305
#
# Stress axis : x y z
#
# Youngs Moduli (GPa) = 107.25865 77.35284 93.15015
#
# Poissons Ratio (x) = 0.08225 0.43814
# Poissons Ratio (y) = 0.11405 -0.09037
# Poissons Ratio (z) = 0.50450 -0.07505
#
# Static dielectric constant tensor:
#      x y z
#    x 2.044340 0.000000 -0.009810 
#    y 0.000000 1.949420 0.000000 
#    z -0.009810 0.000000 1.914440 
# 
# From -- ./inp_files/83555.got.cif
#   From: 2010.05.17/outbox.cif.g08.bks.cpg/sg10_42_cif.got.tgz:83555.got - 2010.06.03 11:33:40.
