data_PCOD9152197
_publ_section_title
;
Structure prediction by ZEFSAII (Michael W. Deem and Ramdas Pophale) SiO2 
 PCOD9152197
Probable space group: P 2/M
;
_chemical_formula_sum "Si O2"
_cell_formula_units_Z 32
_cell_length_a 9.448153
_cell_length_b 22.100089
_cell_length_c 15.971467
_cell_angle_alpha 90.000000
_cell_angle_beta 28.145099
_cell_angle_gamma 90.000000
_cell_volume 1573.103230
_symmetry_space_group_name_H-M "P 2/M"
_symmetry_group_IT_number 10
_symmetry_cell_setting 'monoclinic'
loop_
_space_group_symop_operation_xyz
x,y,z
-x,y,-z
-x,-y,-z
x,-y,z
loop_
_atom_site_type_symbol
_atom_site_label
_atom_site_fract_x
_atom_site_fract_y
_atom_site_fract_z
Si Si1 0.684469 0.831724 0.206188
Si Si2 0.234260 0.354668 0.956229
Si Si3 0.195521 0.847912 0.192848
Si Si4 0.159548 0.359980 0.670170
Si Si5 0.692308 0.569349 0.812343
Si Si6 0.705358 0.757699 0.706785
Si Si7 0.787066 0.773327 0.309890
Si Si8 0.641582 0.931458 0.518511
O O1 0.431229 0.812791 0.274412
O O2 0.722861 0.771978 0.245752
O O3 0.576717 0.889552 0.313177
O O4 0.000000 0.843020 0.000000
O O5 0.490946 0.405618 0.840817
O O6 0.441234 0.293454 0.851749
O O7 0.000000 0.357196 0.000000
O O8 0.022416 0.364525 0.148026
O O9 0.222256 0.791094 0.243267
O O10 0.066230 0.815615 0.177400
O O11 0.958809 0.896324 0.349214
O O12 0.500000 0.875917 0.000000
O O13 0.500000 0.383863 0.500000
O O14 0.183162 0.287576 0.653127
O O15 0.975600 0.388953 0.689893
O O16 0.780465 0.500000 0.751801
O O17 0.500000 0.570730 0.000000
O O18 0.000000 0.735989 0.500000
O O19 0.500000 0.805029 0.500000
O O20 0.500000 0.935650 0.500000
O O21 0.673438 0.000000 0.534037
#
# Coordination Sequence:
#
# PCOD9152197 Si02
#       8
#     4   4   4   4   4   4   4   4
#     4  12  22  39  63  90 124 162 204 253 317 382
#     4  11  23  39  59  94 130 166 213 262 324 384
#     4  12  22  38  63  91 120 160 206 255 314 373
#     4  10  21  36  63  94 125 166 214 268 320 380
#     4   9  20  40  62  87 127 175 222 268 314 373
#     4  12  24  39  62  94 130 160 193 260 331 380
#     4  11  19  37  59  86 122 159 203 250 311 383
#     4  11  24  45  66  88 121 165 214 259 302 372
#
# _framework density 20.341958000000002
#
# number of rings (size 3 to 8) (size 9 to 14) (size 15 to 20)
#    0.000    1.000    3.750    4.125    0.000    5.000 
#    0.000    1.250    0.000    2.625    0.000    0.000 
#    0.000    0.000    0.000    0.000    0.000    0.000 
#
# Total GULP energy -178339.016555 kJ/mol
# GULP energy per Si atom -5573.094267 kJ/mol
# Density = 2.029566 g / cm^3
# Si number density = 20.341958 Si / 1000 Ang^3
#
#
#
# Elastic Constant Matrix: (Units=GPa)
#
#
# Indices 1 2 3 4 5 6 
#
# 1 104.6414 35.7696 29.2584 0.0000 -18.1435 0.0000
# 2 35.7696 109.9896 31.2648 0.0000 -16.1178 0.0000
# 3 29.2584 31.2648 134.4904 0.0000 -17.4383 0.0000
# 4 0.0000 0.0000 0.0000 -1.1422 0.0000 13.3471
# 5 -18.1435 -16.1178 -17.4383 0.0000 29.6849 0.0000
# 6 0.0000 0.0000 0.0000 13.3471 0.0000 2.8769
#
#
#
# Elastic Compliance Matrix: (Units=1/GPa)
#
#
# Indices 1 2 3 4 5 6 
#
# 1 0.011696 -0.002720 -0.001274 0.000000 0.004924 0.000000
# 2 -0.002720 0.010898 -0.001505 0.000000 0.003371 0.000000
# 3 -0.001274 -0.001505 0.008503 0.000000 0.003400 0.000000
# 4 0.000000 0.000000 0.000000 -0.015857 0.000000 0.073566
# 5 0.004924 0.003371 0.003400 0.000000 0.040524 0.000000
# 6 0.000000 0.000000 0.000000 0.073566 0.000000 0.006296
#
#
# Mechanical properties :
#
#
# Convention : Reuss Voigt Hill
#
# Bulk Modulus (GPa) = 49.75052 60.18966 54.97009
# Shear Modulus (GPa) = 62.69067 23.13916 42.91491
#
# Velocity S-wave (km/s) = 5.55746 3.37636 4.59810
# Velocity P-wave (km/s) = 8.10497 6.69723 7.43450
#
# Compressibility (1/GPa) = 0.02010029
#
# Stress axis : x y z
#
# Youngs Moduli (GPa) = 85.49859 91.75979 117.60323
#
# Poissons Ratio (x) = 0.24960 0.14980
# Poissons Ratio (y) = 0.23257 0.17695
# Poissons Ratio (z) = 0.10890 0.13806
#
# Static dielectric constant tensor:
#      x y z
#    x 1.684080 0.000000 0.011200 
#    y 0.000000 1.736240 0.000000 
#    z 0.011200 0.000000 1.728660 
# 
# From -- ./inp_files/62688.got.cif
#   From: 2010.05.17/outbox.cif.g08.bks.cpg/sg10_32_cif.got.tgz:62688.got - 2010.06.03 11:33:40.
