data_PCOD9152123
_publ_section_title
;
Structure prediction by ZEFSAII (Michael W. Deem and Ramdas Pophale) SiO2 
 PCOD9152123
Probable space group: P 2/M
;
_chemical_formula_sum "Si O2"
_cell_formula_units_Z 28
_cell_length_a 17.606424
_cell_length_b 8.963901
_cell_length_c 14.384118
_cell_angle_alpha 90.000000
_cell_angle_beta 42.434087
_cell_angle_gamma 90.000000
_cell_volume 1531.753672
_symmetry_space_group_name_H-M "P 2/M"
_symmetry_group_IT_number 10
_symmetry_cell_setting 'monoclinic'
loop_
_space_group_symop_operation_xyz
x,y,z
-x,y,-z
-x,-y,-z
x,-y,z
loop_
_atom_site_type_symbol
_atom_site_label
_atom_site_fract_x
_atom_site_fract_y
_atom_site_fract_z
Si Si1 0.728631 0.176198 0.438645
Si Si2 0.372464 0.322341 0.645740
Si Si3 0.262578 0.322429 0.277665
Si Si4 0.321067 0.821135 0.890356
Si Si5 0.557882 0.178074 0.762111
Si Si6 0.843517 0.677936 0.822337
Si Si7 0.913756 0.177779 0.421004
O O1 0.707189 0.270539 0.366377
O O2 0.632308 0.209916 0.602478
O O3 0.845469 0.203081 0.386648
O O4 0.720294 0.000000 0.424179
O O5 0.500000 0.282158 0.500000
O O6 0.367486 0.500000 0.663087
O O7 0.340984 0.241360 0.769506
O O8 0.257655 0.500000 0.296142
O O9 0.380647 0.260545 0.209145
O O10 0.235876 0.289832 0.194803
O O11 0.165021 0.245529 0.427394
O O12 0.430717 0.779810 0.853130
O O13 0.314145 0.000000 0.893950
O O14 0.212516 0.751727 0.037241
O O15 0.564198 0.000000 0.772240
O O16 0.851754 0.500000 0.825364
O O17 0.965588 0.745801 0.691203
O O18 0.923634 0.000000 0.425793
#
# Coordination Sequence:
#
# PCOD9152123 Si02
#       7
#     4   4   4   4   4   4   4
#     4   9  18  35  58  85 114 144 185 235 281 328
#     4  11  22  35  57  89 118 147 184 227 280 341
#     4  10  21  36  58  85 115 151 189 234 287 336
#     4  11  23  39  59  82 114 154 192 234 283 336
#     4   9  19  35  56  84 114 147 190 236 281 332
#     4  11  24  40  56  81 117 154 191 234 286 340
#     4  10  21  38  61  87 113 147 194 239 278 329
#
# _framework density 18.279702
#
# number of rings (size 3 to 8) (size 9 to 14) (size 15 to 20)
#    0.000    1.857    1.429    3.429    0.000    9.143 
#    0.000    3.571    0.000    4.286    0.000    0.000 
#    0.000    0.000    0.000    0.000    0.000    0.000 
#
# Total GULP energy -156426.047921 kJ/mol
# GULP energy per Si atom -5586.644569 kJ/mol
# Density = 1.823810 g / cm^3
# Si number density = 18.279702 Si / 1000 Ang^3
#
#
#
# Elastic Constant Matrix: (Units=GPa)
#
#
# Indices 1 2 3 4 5 6 
#
# 1 56.6852 34.1699 12.2577 0.0000 13.7578 0.0000
# 2 34.1699 46.8271 20.6837 0.0000 14.5479 0.0000
# 3 12.2577 20.6837 39.6147 0.0000 16.0288 0.0000
# 4 0.0000 0.0000 0.0000 58.2503 0.0000 -13.9394
# 5 13.7578 14.5479 16.0288 0.0000 18.6762 0.0000
# 6 0.0000 0.0000 0.0000 -13.9394 0.0000 42.4301
#
#
#
# Elastic Compliance Matrix: (Units=1/GPa)
#
#
# Indices 1 2 3 4 5 6 
#
# 1 0.033306 -0.023601 0.006903 0.000000 -0.012075 0.000000
# 2 -0.023601 0.047123 -0.014529 0.000000 -0.006851 0.000000
# 3 0.006903 -0.014529 0.043159 0.000000 -0.030808 0.000000
# 4 0.000000 0.000000 0.000000 0.018632 0.000000 0.006121
# 5 -0.012075 -0.006851 -0.030808 0.000000 0.094217 0.000000
# 6 0.000000 0.000000 0.000000 0.006121 0.000000 0.025579
#
#
# Mechanical properties :
#
#
# Convention : Reuss Voigt Hill
#
# Bulk Modulus (GPa) = 16.35778 30.81663 23.58721
# Shear Modulus (GPa) = 14.49907 28.93904 21.71906
#
# Velocity S-wave (km/s) = 2.81940 3.98317 3.45070
# Velocity P-wave (km/s) = 4.42343 6.16840 5.36730
#
# Compressibility (1/GPa) = 0.06113299
#
# Stress axis : x y z
#
# Youngs Moduli (GPa) = 30.02437 21.22094 23.17022
#
# Poissons Ratio (x) = 0.50084 -0.15994
# Poissons Ratio (y) = 0.70862 0.33665
# Poissons Ratio (z) = -0.20726 0.30832
#
# Static dielectric constant tensor:
#      x y z
#    x 1.625850 0.000000 -0.006810 
#    y 0.000000 1.605780 0.000000 
#    z -0.006810 0.000000 1.598470 
# 
# From -- ./inp_files/68589.got.cif
#   From: 2010.05.17/outbox.cif.g08.bks.cpg/sg10_35_cif.got.tgz:68589.got - 2010.06.03 11:33:40.
