data_PCOD9152181
_publ_section_title
;
Structure prediction by ZEFSAII (Michael W. Deem and Ramdas Pophale) SiO2 
 PCOD9152181
Probable space group: P 2/M
;
_chemical_formula_sum "Si O2"
_cell_formula_units_Z 32
_cell_length_a 12.671895
_cell_length_b 12.682334
_cell_length_c 15.812117
_cell_angle_alpha 90.000000
_cell_angle_beta 38.196059
_cell_angle_gamma 90.000000
_cell_volume 1571.332831
_symmetry_space_group_name_H-M "P 2/M"
_symmetry_group_IT_number 10
_symmetry_cell_setting 'monoclinic'
loop_
_space_group_symop_operation_xyz
x,y,z
-x,y,-z
-x,-y,-z
x,-y,z
loop_
_atom_site_type_symbol
_atom_site_label
_atom_site_fract_x
_atom_site_fract_y
_atom_site_fract_z
Si Si1 0.394072 0.879827 0.979206
Si Si2 0.267640 0.690045 0.826042
Si Si3 0.415544 0.118442 0.640947
Si Si4 0.578142 0.286860 0.743622
Si Si5 0.009096 0.378840 0.861672
Si Si6 0.243743 0.885386 0.463387
Si Si7 0.046106 0.220230 0.253017
Si Si8 0.140399 0.615309 0.337113
O O1 0.200238 0.848914 0.120119
O O2 0.409700 0.000000 0.936912
O O3 0.500000 0.873634 0.000000
O O4 0.465907 0.793539 0.869559
O O5 0.284011 0.804590 0.770695
O O6 0.455305 0.669418 0.747067
O O7 0.185292 0.620945 0.803577
O O8 0.134866 0.673092 0.986448
O O9 0.500000 0.158900 0.500000
O O10 0.574917 0.110007 0.603955
O O11 0.348116 0.000000 0.667068
O O12 0.732225 0.212796 0.613513
O O13 0.672092 0.373200 0.740268
O O14 0.961537 0.500000 0.872606
O O15 0.021208 0.303420 0.773527
O O16 0.100530 0.855980 0.620806
O O17 0.209524 0.000000 0.445296
O O18 0.113923 0.291020 0.287898
O O19 0.122525 0.500000 0.307176
O O20 0.000000 0.619888 0.500000
#
# Coordination Sequence:
#
# PCOD9152181 Si02
#       8
#     4   4   4   4   4   4   4   4
#     4  11  23  39  61  93 133 165 199 257 318 376
#     4  10  21  39  63  89 122 163 209 258 307 372
#     4   9  18  35  59  88 122 159 202 252 307 365
#     4  11  21  42  63  91 127 162 208 252 313 380
#     4  11  24  42  63  87 123 167 212 265 321 369
#     4  10  21  36  61  90 121 161 200 244 306 379
#     4  12  22  42  64  93 125 162 211 258 315 379
#     4  11  24  42  64  91 125 164 209 266 318 365
#
# _framework density 20.364877
#
# number of rings (size 3 to 8) (size 9 to 14) (size 15 to 20)
#    0.000    1.375    3.750    2.625    0.000    1.500 
#    0.000    3.125    0.000    4.500    0.000    0.000 
#    0.000    0.000    0.000    0.000    0.000    0.000 
#
# Total GULP energy -178541.353655 kJ/mol
# GULP energy per Si atom -5579.417302 kJ/mol
# Density = 2.031853 g / cm^3
# Si number density = 20.364877 Si / 1000 Ang^3
#
#
#
# Elastic Constant Matrix: (Units=GPa)
#
#
# Indices 1 2 3 4 5 6 
#
# 1 72.0874 11.1766 -6.1742 0.0000 -6.0540 0.0000
# 2 11.1766 77.6869 21.1952 0.0000 -14.1322 0.0000
# 3 -6.1742 21.1952 74.0800 0.0000 -13.0887 0.0000
# 4 0.0000 0.0000 0.0000 8.2965 0.0000 -6.7702
# 5 -6.0540 -14.1322 -13.0887 0.0000 21.6430 0.0000
# 6 0.0000 0.0000 0.0000 -6.7702 0.0000 11.9948
#
#
#
# Elastic Compliance Matrix: (Units=1/GPa)
#
#
# Indices 1 2 3 4 5 6 
#
# 1 0.014776 -0.002037 0.002586 0.000000 0.004367 0.000000
# 2 -0.002037 0.015423 -0.003251 0.000000 0.007535 0.000000
# 3 0.002586 -0.003251 0.016120 0.000000 0.008349 0.000000
# 4 0.000000 0.000000 0.000000 0.223454 0.000000 0.126123
# 5 0.004367 0.007535 0.008349 0.000000 0.057395 0.000000
# 6 0.000000 0.000000 0.000000 0.126123 0.000000 0.154557
#
#
# Mechanical properties :
#
#
# Convention : Reuss Voigt Hill
#
# Bulk Modulus (GPa) = 24.44133 30.69440 27.56787
# Shear Modulus (GPa) = 9.98468 21.56396 15.77432
#
# Velocity S-wave (km/s) = 2.21665 3.25757 2.78616
# Velocity P-wave (km/s) = 4.31035 5.40870 4.89046
#
# Compressibility (1/GPa) = 0.04091431
#
# Stress axis : x y z
#
# Youngs Moduli (GPa) = 67.67703 64.83866 62.03567
#
# Poissons Ratio (x) = 0.13207 -0.16042
# Poissons Ratio (y) = 0.13785 0.20169
# Poissons Ratio (z) = -0.17500 0.21080
#
# Static dielectric constant tensor:
#      x y z
#    x 1.738670 0.000000 0.008500 
#    y 0.000000 1.736150 0.000000 
#    z 0.008500 0.000000 1.720650 
# 
# From -- ./inp_files/78178.got.cif
#   From: 2010.05.17/outbox.cif.g08.bks.cpg/sg10_40_cif.got.tgz:78178.got - 2010.06.03 11:33:40.
