data_PCOD9152869
_publ_section_title
;
Structure prediction by ZEFSAII (Michael W. Deem and Ramdas Pophale) SiO2 
 PCOD9152869
Probable space group: P 2/M
;
_chemical_formula_sum "Si O2"
_cell_formula_units_Z 28
_cell_length_a 9.131931
_cell_length_b 14.336626
_cell_length_c 15.699397
_cell_angle_alpha 90.000000
_cell_angle_beta 41.775665
_cell_angle_gamma 90.000000
_cell_volume 1369.327938
_symmetry_space_group_name_H-M "P 2/M"
_symmetry_group_IT_number 10
_symmetry_cell_setting 'monoclinic'
loop_
_space_group_symop_operation_xyz
x,y,z
-x,y,-z
-x,-y,-z
x,-y,z
loop_
_atom_site_type_symbol
_atom_site_label
_atom_site_fract_x
_atom_site_fract_y
_atom_site_fract_z
Si Si1 0.764082 0.891580 0.876829
Si Si2 0.738534 0.698636 0.632136
Si Si3 0.473225 0.392065 0.124566
Si Si4 0.679401 0.606198 0.495235
Si Si5 0.102477 0.737054 0.047331
Si Si6 0.040473 0.389769 0.213893
Si Si7 0.807196 0.895238 0.657242
O O1 0.872285 0.824006 0.899494
O O2 0.848008 0.879056 0.741874
O O3 0.802660 0.000000 0.880986
O O4 0.500000 0.875226 0.000000
O O5 0.678969 0.621295 0.726730
O O6 0.617395 0.672129 0.598542
O O7 0.676275 0.802576 0.688949
O O8 0.000000 0.696362 0.500000
O O9 0.549116 0.500000 0.085517
O O10 0.296873 0.372940 0.125287
O O11 0.664845 0.317797 0.059120
O O12 0.500000 0.602811 0.500000
O O13 0.717462 0.500000 0.509462
O O14 0.897410 0.643666 0.354905
O O15 0.966511 0.661015 0.160776
O O16 0.000000 0.757177 0.000000
O O17 0.006374 0.500000 0.221966
O O18 0.000000 0.897476 0.500000
O O19 0.707631 0.000000 0.697133
#
# Coordination Sequence:
#
# PCOD9152869 Si02
#       7
#     4   4   4   4   4   4   4
#     4  10  21  41  69  92 118 158 205 254 306 371
#     4  11  20  34  62  90 117 156 202 256 302 367
#     4  11  23  39  60  87 121 160 208 259 304 361
#     4  10  22  37  55  84 122 163 203 246 301 365
#     4  12  26  39  58  89 125 162 204 252 313 365
#     4  10  21  39  59  80 114 162 211 252 297 360
#     4   9  19  35  60  95 124 150 195 254 310 366
#
# _framework density 20.447987000000001
#
# number of rings (size 3 to 8) (size 9 to 14) (size 15 to 20)
#    0.000    1.571    1.429    3.857    4.000    3.143 
#    0.000    0.000    0.000    0.429    0.000    0.000 
#    0.000    0.000    0.000    0.000    0.000    0.000 
#
# Total GULP energy -156084.961137 kJ/mol
# GULP energy per Si atom -5574.462898 kJ/mol
# Density = 2.040145 g / cm^3
# Si number density = 20.447987 Si / 1000 Ang^3
#
#
#
# Elastic Constant Matrix: (Units=GPa)
#
#
# Indices 1 2 3 4 5 6 
#
# 1 86.7500 50.6041 45.5190 0.0000 33.6815 0.0000
# 2 50.6041 97.9120 38.1806 0.0000 26.7363 0.0000
# 3 45.5190 38.1806 81.9737 0.0000 23.6850 0.0000
# 4 0.0000 0.0000 0.0000 30.6317 0.0000 14.9347
# 5 33.6815 26.7363 23.6850 0.0000 39.5477 0.0000
# 6 0.0000 0.0000 0.0000 14.9347 0.0000 15.9528
#
#
#
# Elastic Compliance Matrix: (Units=1/GPa)
#
#
# Indices 1 2 3 4 5 6 
#
# 1 0.023082 -0.006215 -0.006598 0.000000 -0.011505 0.000000
# 2 -0.006215 0.015450 -0.002729 0.000000 -0.003518 0.000000
# 3 -0.006598 -0.002729 0.018111 0.000000 -0.003383 0.000000
# 4 0.000000 0.000000 0.000000 0.060060 0.000000 -0.056227
# 5 -0.011505 -0.003518 -0.003383 0.000000 0.039488 0.000000
# 6 0.000000 0.000000 0.000000 -0.056227 0.000000 0.115323
#
#
# Mechanical properties :
#
#
# Convention : Reuss Voigt Hill
#
# Bulk Modulus (GPa) = 39.12450 59.47148 49.29799
# Shear Modulus (GPa) = 16.07113 26.04857 21.05985
#
# Velocity S-wave (km/s) = 2.80652 3.57304 3.21272
# Velocity P-wave (km/s) = 5.44769 6.79482 6.15820
#
# Compressibility (1/GPa) = 0.02555943
#
# Stress axis : x y z
#
# Youngs Moduli (GPa) = 43.32430 64.72533 55.21451
#
# Poissons Ratio (x) = 0.40226 0.36432
# Poissons Ratio (y) = 0.26926 0.15066
# Poissons Ratio (z) = 0.28586 0.17661
#
# Static dielectric constant tensor:
#      x y z
#    x 1.721320 0.000000 -0.002010 
#    y 0.000000 1.719910 0.000000 
#    z -0.002010 0.000000 1.856930 
# 
# From -- ./inp_files/61767.got.cif
#   From: 2010.05.17/outbox.cif.g08.bks.cpg/sg10_31_cif.got.tgz:61767.got - 2010.06.03 11:33:40.
