data_PCOD9152286
_publ_section_title
;
Structure prediction by ZEFSAII (Michael W. Deem and Ramdas Pophale) SiO2 
 PCOD9152286
Probable space group: P 2/M
;
_chemical_formula_sum "Si O2"
_cell_formula_units_Z 32
_cell_length_a 25.810107
_cell_length_b 13.678686
_cell_length_c 10.380323
_cell_angle_alpha 90.000000
_cell_angle_beta 153.025991
_cell_angle_gamma 90.000000
_cell_volume 1662.282948
_symmetry_space_group_name_H-M "P 2/M"
_symmetry_group_IT_number 10
_symmetry_cell_setting 'monoclinic'
loop_
_space_group_symop_operation_xyz
x,y,z
-x,y,-z
-x,-y,-z
x,-y,z
loop_
_atom_site_type_symbol
_atom_site_label
_atom_site_fract_x
_atom_site_fract_y
_atom_site_fract_z
Si Si1 0.794676 0.778405 0.764320
Si Si2 0.236516 0.793812 0.791498
Si Si3 0.674089 0.385418 0.156852
Si Si4 0.884321 0.390064 0.825170
Si Si5 0.866560 0.887874 0.672086
Si Si6 0.136596 0.885604 0.822593
Si Si7 0.539221 0.741699 0.226944
Si Si8 0.527874 0.112717 0.704847
O O1 0.883103 0.691978 0.930911
O O2 0.797268 0.843545 0.639533
O O3 0.673846 0.723386 0.515579
O O4 0.828002 0.843966 0.959948
O O5 0.285062 0.685903 0.868404
O O6 0.145981 0.821452 0.481665
O O7 0.193302 0.819428 0.837162
O O8 0.338378 0.868985 0.984506
O O9 0.664605 0.500000 0.103052
O O10 0.773361 0.376756 0.486123
O O11 0.552495 0.342436 0.937940
O O12 0.878798 0.500000 0.865111
O O13 0.000000 0.381257 0.000000
O O14 0.832096 0.000000 0.571951
O O15 0.000000 0.888207 0.000000
O O16 0.000000 0.882114 0.500000
O O17 0.171698 0.000000 0.887015
O O18 0.530264 0.824821 0.314310
O O19 0.500000 0.777698 0.000000
O O20 0.500000 0.149670 0.500000
O O21 0.495673 0.000000 0.641517
#
# Coordination Sequence:
#
# PCOD9152286 Si02
#       8
#     4   4   4   4   4   4   4   4
#     4  12  22  38  61  91 131 162 206 254 319 365
#     4  11  21  39  61  86 116 157 207 253 297 359
#     4  10  22  41  65  91 121 161 209 260 314 373
#     4  10  21  38  64  94 121 157 209 261 316 373
#     4  11  22  36  59  88 121 162 209 255 304 366
#     4  11  25  41  61  91 130 172 208 249 308 375
#     4  11  22  37  57  92 123 158 200 254 311 372
#     4  10  21  37  57  79 112 161 206 243 291 356
#
# _framework density 19.250634999999999
#
# number of rings (size 3 to 8) (size 9 to 14) (size 15 to 20)
#    0.000    1.250    2.500    4.125    1.750    5.000 
#    0.000    0.625    0.000   13.500    0.000    0.000 
#    0.000    0.000    0.000    0.000    0.000    0.000 
#
# Total GULP energy -178641.392195 kJ/mol
# GULP energy per Si atom -5582.543506 kJ/mol
# Density = 1.920682 g / cm^3
# Si number density = 19.250635 Si / 1000 Ang^3
#
#
#
# Elastic Constant Matrix: (Units=GPa)
#
#
# Indices 1 2 3 4 5 6 
#
# 1 96.5422 64.0859 8.0623 0.0000 -7.8789 0.0000
# 2 64.0859 128.4952 24.4276 0.0000 -7.9251 0.0000
# 3 8.0623 24.4276 58.0491 0.0000 3.6508 0.0000
# 4 0.0000 0.0000 0.0000 19.9431 0.0000 -9.2929
# 5 -7.8789 -7.9251 3.6508 0.0000 38.6671 0.0000
# 6 0.0000 0.0000 0.0000 -9.2929 0.0000 -9.5304
#
#
#
# Elastic Compliance Matrix: (Units=1/GPa)
#
#
# Indices 1 2 3 4 5 6 
#
# 1 0.015642 -0.007913 0.001065 0.000000 0.001465 0.000000
# 2 -0.007913 0.012633 -0.004304 0.000000 0.001383 0.000000
# 3 0.001065 -0.004304 0.019045 0.000000 -0.002463 0.000000
# 4 0.000000 0.000000 0.000000 0.034478 0.000000 -0.033618
# 5 0.001465 0.001383 -0.002463 0.000000 0.026676 0.000000
# 6 0.000000 0.000000 0.000000 -0.033618 0.000000 -0.072147
#
#
# Mechanical properties :
#
#
# Convention : Reuss Voigt Hill
#
# Bulk Modulus (GPa) = 39.97495 52.91531 46.44513
# Shear Modulus (GPa) = 74.66231 22.25000 48.45616
#
# Velocity S-wave (km/s) = 6.23446 3.40340 5.02253
# Velocity P-wave (km/s) = 8.52264 6.55679 7.60351
#
# Compressibility (1/GPa) = 0.02501567
#
# Stress axis : x y z
#
# Youngs Moduli (GPa) = 63.93156 79.16022 52.50771
#
# Poissons Ratio (x) = 0.62643 -0.05595
# Poissons Ratio (y) = 0.50592 0.22598
# Poissons Ratio (z) = -0.06812 0.34069
#
# Static dielectric constant tensor:
#      x y z
#    x 1.656450 0.000000 0.067130 
#    y 0.000000 1.670070 0.000000 
#    z 0.067130 0.000000 1.584980 
# 
# From -- ./inp_files/36413.got.cif
#   From: 2010.05.17/outbox.cif.g08.bks.cpg/sg10_19_cif.got.tgz:36413.got - 2010.06.03 11:33:40.
