data_PCOD9152828
_publ_section_title
;
Structure prediction by ZEFSAII (Michael W. Deem and Ramdas Pophale) SiO2 
 PCOD9152828
Probable space group: P 2/M
;
_chemical_formula_sum "Si O2"
_cell_formula_units_Z 14
_cell_length_a 8.340395
_cell_length_b 11.538844
_cell_length_c 8.495544
_cell_angle_alpha 90.000000
_cell_angle_beta 49.792339
_cell_angle_gamma 90.000000
_cell_volume 624.407961
_symmetry_space_group_name_H-M "P 2/M"
_symmetry_group_IT_number 10
_symmetry_cell_setting 'monoclinic'
loop_
_space_group_symop_operation_xyz
x,y,z
-x,y,-z
-x,-y,-z
x,-y,z
loop_
_atom_site_type_symbol
_atom_site_label
_atom_site_fract_x
_atom_site_fract_y
_atom_site_fract_z
Si Si1 0.877147 0.374643 0.246541
Si Si2 0.227577 0.125774 0.769355
Si Si3 0.610008 0.868848 0.770811
Si Si4 0.000000 0.299409 0.500000
O O1 0.764579 0.500000 0.322240
O O2 0.760511 0.251079 0.318428
O O3 0.006281 0.367384 0.329336
O O4 0.000000 0.375027 0.000000
O O5 0.422983 0.126150 0.763434
O O6 0.235270 0.000000 0.676729
O O7 0.000000 0.124365 0.000000
O O8 0.798510 0.783117 0.620818
O O9 0.689771 0.000000 0.746139
O O10 0.500000 0.829290 0.000000
#
# Coordination Sequence:
#
# PCOD9152828 Si02
#       4
#     4   4   4   2
#     4  10  22  42  66  93 130 172 215 267 324 383
#     4   9  18  36  63  91 122 163 209 259 315 374
#     4  10  21  38  63  98 136 171 213 268 326 385
#     4  12  24  40  66  96 127 172 221 264 319 390
#
# _framework density 22.421236
#
# number of rings (size 3 to 8) (size 9 to 14) (size 15 to 20)
#    0.000    2.000    0.000    4.286    0.000    5.714 
#    0.000    7.143    0.000   12.857    0.000    0.000 
#    0.000    0.000    0.000    0.000    0.000    0.000 
#
# Total GULP energy -78005.565490 kJ/mol
# GULP energy per Si atom -5571.826106 kJ/mol
# Density = 2.237020 g / cm^3
# Si number density = 22.421236 Si / 1000 Ang^3
#
#
#
# Elastic Constant Matrix: (Units=GPa)
#
#
# Indices 1 2 3 4 5 6 
#
# 1 93.9148 55.2287 58.3648 0.0000 2.9877 0.0000
# 2 55.2287 211.3686 33.6225 0.0000 -6.8455 0.0000
# 3 58.3648 33.6225 129.3914 0.0000 8.5133 0.0000
# 4 0.0000 0.0000 0.0000 305.4681 0.0000 338.5233
# 5 2.9877 -6.8455 8.5133 0.0000 33.5253 0.0000
# 6 0.0000 0.0000 0.0000 338.5233 0.0000 387.8385
#
#
#
# Elastic Compliance Matrix: (Units=1/GPa)
#
#
# Indices 1 2 3 4 5 6 
#
# 1 0.016767 -0.003337 -0.006664 0.000000 -0.000483 0.000000
# 2 -0.003337 0.005660 -0.000062 0.000000 0.001469 0.000000
# 3 -0.006664 -0.000062 0.010895 0.000000 -0.002185 0.000000
# 4 0.000000 0.000000 0.000000 0.100106 0.000000 -0.087378
# 5 -0.000483 0.001469 -0.002185 0.000000 0.030726 0.000000
# 6 0.000000 0.000000 0.000000 -0.087378 0.000000 0.078846
#
#
# Mechanical properties :
#
#
# Convention : Reuss Voigt Hill
#
# Bulk Modulus (GPa) = 75.78481 81.01189 78.39835
# Shear Modulus (GPa) = 18.68978 164.53028 91.61003
#
# Velocity S-wave (km/s) = 2.89030 8.57559 6.39901
# Velocity P-wave (km/s) = 6.70912 11.58726 9.46776
#
# Compressibility (1/GPa) = 0.01319526
#
# Stress axis : x y z
#
# Youngs Moduli (GPa) = 59.64020 176.66524 91.78844
#
# Poissons Ratio (x) = 0.58947 0.61171
# Poissons Ratio (y) = 0.19900 0.00573
# Poissons Ratio (z) = 0.39747 0.01103
#
# Static dielectric constant tensor:
#      x y z
#    x 1.815210 0.000000 0.076090 
#    y 0.000000 1.849310 0.000000 
#    z 0.076090 0.000000 1.863270 
# 
# From -- ./inp_files/17068.got.cif
#   From: 2010.05.17/outbox.cif.g08.bks.cpg/sg10_9_cif.got.tgz:17068.got - 2010.06.03 11:33:40.
