data_PCOD9152835
_publ_section_title
;
Structure prediction by ZEFSAII (Michael W. Deem and Ramdas Pophale) SiO2 
 PCOD9152835
Probable space group: P 2/M
;
_chemical_formula_sum "Si O2"
_cell_formula_units_Z 20
_cell_length_a 10.057270
_cell_length_b 7.292444
_cell_length_c 29.662903
_cell_angle_alpha 90.000000
_cell_angle_beta 153.725755
_cell_angle_gamma 90.000000
_cell_volume 963.041840
_symmetry_space_group_name_H-M "P 2/M"
_symmetry_group_IT_number 10
_symmetry_cell_setting 'monoclinic'
loop_
_space_group_symop_operation_xyz
x,y,z
-x,y,-z
-x,-y,-z
x,-y,z
loop_
_atom_site_type_symbol
_atom_site_label
_atom_site_fract_x
_atom_site_fract_y
_atom_site_fract_z
Si Si1 0.800553 0.000000 0.652049
Si Si2 0.181521 0.720459 0.822492
Si Si3 0.883275 0.721762 0.822415
Si Si4 0.140554 0.723252 0.995433
Si Si5 0.800740 0.280389 0.395856
Si Si6 0.095810 0.000000 0.421519
O O1 0.933865 0.176302 0.717862
O O2 0.442030 0.000000 0.542168
O O3 0.911072 0.000000 0.634204
O O4 0.152317 0.500000 0.810082
O O5 0.511692 0.773157 0.905816
O O6 0.120816 0.772887 0.856089
O O7 0.888523 0.500000 0.825692
O O8 0.547944 0.773710 0.705393
O O9 0.962898 0.785089 0.896793
O O10 0.130511 0.500000 0.992736
O O11 0.000000 0.784929 0.000000
O O12 0.815295 0.500000 0.394718
O O13 0.000000 0.231482 0.500000
O O14 0.934822 0.176120 0.393928
#
# Coordination Sequence:
#
# PCOD9152835 Si02
#       6
#     2   4   4   4   4   2
#     4  11  26  42  59  89 120 158 211 247 298 375
#     4  10  21  40  64  86 122 163 199 249 302 355
#     4   9  18  34  60  93 123 158 204 247 299 363
#     4   9  18  33  59  92 124 160 200 245 302 362
#     4  10  21  38  64  93 121 157 206 250 297 360
#     4  11  25  42  59  86 126 159 198 259 307 350
#
# _framework density 20.767527999999999
#
# number of rings (size 3 to 8) (size 9 to 14) (size 15 to 20)
#    0.000    2.200    0.000    2.100    2.800    6.400 
#    0.000    5.500    0.000    0.000    0.000    0.000 
#    0.000    0.000    0.000    0.000    0.000    0.000 
#
# Total GULP energy -111790.860338 kJ/mol
# GULP energy per Si atom -5589.543017 kJ/mol
# Density = 2.072026 g / cm^3
# Si number density = 20.767528 Si / 1000 Ang^3
#
#
#
# Elastic Constant Matrix: (Units=GPa)
#
#
# Indices 1 2 3 4 5 6 
#
# 1 194.1545 25.8077 76.7044 0.0000 6.0898 0.0000
# 2 25.8077 84.7316 14.6858 0.0000 -0.7243 0.0000
# 3 76.7044 14.6858 100.2095 0.0000 -8.6298 0.0000
# 4 0.0000 0.0000 0.0000 128.6931 0.0000 54.4088
# 5 6.0898 -0.7243 -8.6298 0.0000 29.5765 0.0000
# 6 0.0000 0.0000 0.0000 54.4088 0.0000 26.0552
#
#
#
# Elastic Compliance Matrix: (Units=1/GPa)
#
#
# Indices 1 2 3 4 5 6 
#
# 1 0.007851 -0.001362 -0.006106 0.000000 -0.003431 0.000000
# 2 -0.001362 0.012347 -0.000735 0.000000 0.000368 0.000000
# 3 -0.006106 -0.000735 0.015250 0.000000 0.005689 0.000000
# 4 0.000000 0.000000 0.000000 0.066332 0.000000 -0.138517
# 5 -0.003431 0.000368 0.005689 0.000000 0.036186 0.000000
# 6 0.000000 0.000000 0.000000 -0.138517 0.000000 0.327633
#
#
# Mechanical properties :
#
#
# Convention : Reuss Voigt Hill
#
# Bulk Modulus (GPa) = 52.51256 68.16570 60.33913
# Shear Modulus (GPa) = 10.23847 54.32481 32.28164
#
# Velocity S-wave (km/s) = 2.22278 5.12009 3.94690
# Velocity P-wave (km/s) = 5.65053 8.23700 7.06317
#
# Compressibility (1/GPa) = 0.01904306
#
# Stress axis : x y z
#
# Youngs Moduli (GPa) = 127.36556 80.98819 65.57298
#
# Poissons Ratio (x) = 0.11035 0.40036
# Poissons Ratio (y) = 0.17353 0.04819
# Poissons Ratio (z) = 0.77765 0.05952
#
# Static dielectric constant tensor:
#      x y z
#    x 1.707470 0.000000 0.001240 
#    y 0.000000 1.765960 0.000000 
#    z 0.001240 0.000000 1.708510 
# 
# From -- ./inp_files/31451.got.cif
#   From: 2010.05.17/outbox.cif.g08.bks.cpg/sg10_16_cif.got.tgz:31451.got - 2010.06.03 11:33:40.
