data_PCOD9152187
_publ_section_title
;
Structure prediction by ZEFSAII (Michael W. Deem and Ramdas Pophale) SiO2 
 PCOD9152187
Probable space group: P 2/M
;
_chemical_formula_sum "Si O2"
_cell_formula_units_Z 32
_cell_length_a 11.063846
_cell_length_b 14.384147
_cell_length_c 17.172143
_cell_angle_alpha 90.000000
_cell_angle_beta 31.634634
_cell_angle_gamma 90.000000
_cell_volume 1433.378118
_symmetry_space_group_name_H-M "P 2/M"
_symmetry_group_IT_number 10
_symmetry_cell_setting 'monoclinic'
loop_
_space_group_symop_operation_xyz
x,y,z
-x,y,-z
-x,-y,-z
x,-y,z
loop_
_atom_site_type_symbol
_atom_site_label
_atom_site_fract_x
_atom_site_fract_y
_atom_site_fract_z
Si Si1 0.577199 0.101429 0.869025
Si Si2 0.104361 0.892845 0.857667
Si Si3 0.522778 0.802981 0.575315
Si Si4 0.993988 0.223066 0.597077
Si Si5 0.490993 0.400065 0.397834
Si Si6 0.253198 0.597461 0.899495
Si Si7 0.195616 0.252731 0.059007
Si Si8 0.055806 0.391750 0.276798
O O1 0.832146 0.140607 0.717610
O O2 0.546111 0.000000 0.847247
O O3 0.500000 0.089661 0.000000
O O4 0.416732 0.186955 0.935536
O O5 0.372393 0.868721 0.712435
O O6 0.003707 0.822211 0.848841
O O7 0.059612 0.000000 0.862084
O O8 0.000000 0.874233 0.000000
O O9 0.500000 0.841648 0.500000
O O10 0.414142 0.698567 0.626932
O O11 0.766149 0.788620 0.486056
O O12 0.896463 0.325579 0.674576
O O13 0.000000 0.216961 0.500000
O O14 0.595663 0.500000 0.365962
O O15 0.549723 0.396431 0.273918
O O16 0.223519 0.401075 0.568120
O O17 0.286608 0.500000 0.924801
O O18 0.238012 0.682590 0.963027
O O19 0.000000 0.593977 0.000000
O O20 0.142966 0.323697 0.159056
O O21 0.141593 0.500000 0.228865
#
# Coordination Sequence:
#
# PCOD9152187 Si02
#       8
#     4   4   4   4   4   4   4   4
#     4  11  26  48  73 100 135 186 242 296 357 428
#     4  11  25  42  65 100 138 181 234 297 363 426
#     4  11  24  44  69 100 138 183 229 291 355 419
#     4  11  26  47  73 104 144 193 239 293 357 430
#     4   9  19  36  60  94 133 180 226 277 345 420
#     4  10  21  36  61  98 139 183 232 287 353 426
#     4  12  22  42  70 101 136 186 233 299 356 426
#     4  10  22  42  67 100 138 180 233 288 351 430
#
# _framework density 22.324881999999999
#
# number of rings (size 3 to 8) (size 9 to 14) (size 15 to 20)
#    0.000    1.375    1.250    4.125    5.250    1.500 
#    0.000    7.500    0.000    0.000    0.000    0.000 
#    0.000    0.000    0.000    0.000    0.000    0.000 
#
# Total GULP energy -178391.538967 kJ/mol
# GULP energy per Si atom -5574.735593 kJ/mol
# Density = 2.227407 g / cm^3
# Si number density = 22.324882 Si / 1000 Ang^3
#
#
#
# Elastic Constant Matrix: (Units=GPa)
#
#
# Indices 1 2 3 4 5 6 
#
# 1 78.5270 50.6591 41.7262 0.0000 9.8091 0.0000
# 2 50.6591 158.7022 69.2849 0.0000 10.7919 0.0000
# 3 41.7262 69.2849 97.0333 0.0000 12.4055 0.0000
# 4 0.0000 0.0000 0.0000 27.2767 0.0000 3.5162
# 5 9.8091 10.7919 12.4055 0.0000 31.1184 0.0000
# 6 0.0000 0.0000 0.0000 3.5162 0.0000 37.8069
#
#
#
# Elastic Compliance Matrix: (Units=1/GPa)
#
#
# Indices 1 2 3 4 5 6 
#
# 1 0.017849 -0.003365 -0.004955 0.000000 -0.002484 0.000000
# 2 -0.003365 0.009800 -0.005534 0.000000 -0.000132 0.000000
# 3 -0.004955 -0.005534 0.016799 0.000000 -0.003216 0.000000
# 4 0.000000 0.000000 0.000000 0.037106 0.000000 -0.003451
# 5 -0.002484 -0.000132 -0.003216 0.000000 0.034246 0.000000
# 6 0.000000 0.000000 0.000000 -0.003451 0.000000 0.026771
#
#
# Mechanical properties :
#
#
# Convention : Reuss Voigt Hill
#
# Bulk Modulus (GPa) = 59.73696 73.06700 66.40198
# Shear Modulus (GPa) = 28.43203 30.74656 29.58929
#
# Velocity S-wave (km/s) = 3.57257 3.71513 3.64455
# Velocity P-wave (km/s) = 6.62071 7.15562 6.89336
#
# Compressibility (1/GPa) = 0.01674005
#
# Stress axis : x y z
#
# Youngs Moduli (GPa) = 56.02699 102.03929 59.52872
#
# Poissons Ratio (x) = 0.34341 0.29494
# Poissons Ratio (y) = 0.18856 0.32941
# Poissons Ratio (z) = 0.27759 0.56464
#
# Static dielectric constant tensor:
#      x y z
#    x 1.871710 0.000000 -0.036360 
#    y 0.000000 2.056490 0.000000 
#    z -0.036360 0.000000 1.883500 
# 
# From -- ./inp_files/77016.got.cif
#   From: 2010.05.17/outbox.cif.g08.bks.cpg/sg10_39_cif.got.tgz:77016.got - 2010.06.03 11:33:40.
