data_PCOD9152085
_publ_section_title
;
Structure prediction by ZEFSAII (Michael W. Deem and Ramdas Pophale) SiO2 
 PCOD9152085
Probable space group: P 2/M
;
_chemical_formula_sum "Si O2"
_cell_formula_units_Z 30
_cell_length_a 23.765908
_cell_length_b 13.847603
_cell_length_c 25.311057
_cell_angle_alpha 90.000000
_cell_angle_beta 11.366268
_cell_angle_gamma 90.000000
_cell_volume 1641.656395
_symmetry_space_group_name_H-M "P 2/M"
_symmetry_group_IT_number 10
_symmetry_cell_setting 'monoclinic'
loop_
_space_group_symop_operation_xyz
x,y,z
-x,y,-z
-x,-y,-z
x,-y,z
loop_
_atom_site_type_symbol
_atom_site_label
_atom_site_fract_x
_atom_site_fract_y
_atom_site_fract_z
Si Si1 0.158633 0.108310 0.272008
Si Si2 0.162472 0.382780 0.968316
Si Si3 0.222144 0.306838 0.095394
Si Si4 0.599546 0.613570 0.657441
Si Si5 0.529931 0.382376 0.532948
Si Si6 0.481523 0.387490 0.080847
Si Si7 0.000000 0.258818 0.500000
Si Si8 0.495307 0.108774 0.151613
O O1 0.177320 0.188476 0.299214
O O2 0.401668 0.111594 0.004220
O O3 0.157441 0.000000 0.296000
O O4 0.846260 0.122303 0.532372
O O5 0.160283 0.500000 0.971488
O O6 0.380629 0.353783 0.813224
O O7 0.281939 0.352728 0.801202
O O8 0.835765 0.352093 0.274866
O O9 0.330435 0.197958 0.984885
O O10 0.893819 0.327856 0.385371
O O11 0.429361 0.372298 0.868682
O O12 0.278835 0.337163 0.104167
O O13 0.667464 0.500000 0.587187
O O14 0.500000 0.350350 0.500000
O O15 0.525356 0.500000 0.536036
O O16 0.462369 0.500000 0.112348
O O17 0.195643 0.327593 0.355352
O O18 0.500000 0.382667 0.000000
O O19 0.560375 0.000000 0.111321
#
# Coordination Sequence:
#
# PCOD9152085 Si02
#       8
#     4   4   4   4   4   4   2   4
#     4  10  21  36  57  79 101 121 149 192 254 326
#     4   9  17  29  43  65  98 132 173 218 247 279
#     4  12  23  40  58  76  97 132 173 216 263 320
#     4  11  23  37  55  76 102 139 182 220 252 291
#     4   9  15  24  42  67  97 134 174 213 251 285
#     4  11  25  39  53  72  98 130 165 213 267 319
#     4  12  22  36  54  74  98 126 156 194 262 318
#     4  10  21  39  57  79 100 123 155 205 260 317
#
# _framework density 18.274227
#
# number of rings (size 3 to 8) (size 9 to 14) (size 15 to 20)
#    0.000    1.600    1.333    4.400    1.867    3.733 
#    0.000    2.000    0.000    0.000    0.000    0.000 
#    0.000    0.000    0.000    0.000    0.000   46.667 
#
# Total GULP energy -167592.021080 kJ/mol
# GULP energy per Si atom -5586.400703 kJ/mol
# Density = 1.823263 g / cm^3
# Si number density = 18.274227 Si / 1000 Ang^3
#
#
#
# Elastic Constant Matrix: (Units=GPa)
#
#
# Indices 1 2 3 4 5 6 
#
# 1 33.6330 -0.1654 -7.2111 0.0000 -4.7004 0.0000
# 2 -0.1654 73.1251 2.8802 0.0000 -13.5138 0.0000
# 3 -7.2111 2.8802 64.6288 0.0000 -7.0535 0.0000
# 4 0.0000 0.0000 0.0000 19.1708 0.0000 2.2432
# 5 -4.7004 -13.5138 -7.0535 0.0000 28.1956 0.0000
# 6 0.0000 0.0000 0.0000 2.2432 0.0000 1.5669
#
#
#
# Elastic Compliance Matrix: (Units=1/GPa)
#
#
# Indices 1 2 3 4 5 6 
#
# 1 0.031608 0.001179 0.004226 0.000000 0.006891 0.000000
# 2 0.001179 0.015049 0.000277 0.000000 0.007479 0.000000
# 3 0.004226 0.000277 0.016473 0.000000 0.004958 0.000000
# 4 0.000000 0.000000 0.000000 0.062659 0.000000 -0.089704
# 5 0.006891 0.007479 0.004958 0.000000 0.041440 0.000000
# 6 0.000000 0.000000 0.000000 -0.089704 0.000000 0.766607
#
#
# Mechanical properties :
#
#
# Convention : Reuss Voigt Hill
#
# Bulk Modulus (GPa) = 13.42392 18.04380 15.73386
# Shear Modulus (GPa) = 5.27813 21.51221 13.39517
#
# Velocity S-wave (km/s) = 1.70134 3.43474 2.71035
# Velocity P-wave (km/s) = 3.34980 5.06214 4.29223
#
# Compressibility (1/GPa) = 0.07449386
#
# Stress axis : x y z
#
# Youngs Moduli (GPa) = 31.63785 66.44950 60.70418
#
# Poissons Ratio (x) = -0.07832 -0.25655
# Poissons Ratio (y) = -0.03729 -0.01682
# Poissons Ratio (z) = -0.13371 -0.01841
#
# Static dielectric constant tensor:
#      x y z
#    x 1.654170 0.000000 0.013580 
#    y 0.000000 1.638820 0.000000 
#    z 0.013580 0.000000 1.663160 
# 
# From -- ./inp_files/93926.got.cif
#   From: 2010.05.17/outbox.cif.g08.bks.cpg/sg10_47_cif.got.tgz:93926.got - 2010.06.03 11:33:40.
