data_PCOD9152820
_publ_section_title
;
Structure prediction by ZEFSAII (Michael W. Deem and Ramdas Pophale) SiO2 
 PCOD9152820
Probable space group: P 2/M
;
_chemical_formula_sum "Si O2"
_cell_formula_units_Z 32
_cell_length_a 14.045107
_cell_length_b 27.779252
_cell_length_c 9.982568
_cell_angle_alpha 90.000000
_cell_angle_beta 26.472987
_cell_angle_gamma 90.000000
_cell_volume 1736.218569
_symmetry_space_group_name_H-M "P 2/M"
_symmetry_group_IT_number 10
_symmetry_cell_setting 'monoclinic'
loop_
_space_group_symop_operation_xyz
x,y,z
-x,y,-z
-x,-y,-z
x,-y,z
loop_
_atom_site_type_symbol
_atom_site_label
_atom_site_fract_x
_atom_site_fract_y
_atom_site_fract_z
Si Si1 0.827659 0.117541 0.828650
Si Si2 0.444645 0.443427 0.726795
Si Si3 0.524393 0.293174 0.314072
Si Si4 0.194591 0.623236 0.651847
Si Si5 0.883706 0.866010 0.275898
Si Si6 0.491954 0.799281 0.853227
Si Si7 0.904533 0.635554 0.768221
Si Si8 0.444650 0.056869 0.413195
O O1 0.000000 0.103949 0.500000
O O2 0.950082 0.124265 0.814862
O O3 0.708492 0.166446 0.931932
O O4 0.644426 0.077751 0.078713
O O5 0.500000 0.434423 0.500000
O O6 0.412251 0.500000 0.786567
O O7 0.650199 0.422724 0.544874
O O8 0.241242 0.412025 0.026503
O O9 0.500000 0.279041 0.500000
O O10 0.339528 0.332200 0.517218
O O11 0.508911 0.247695 0.237158
O O12 0.746561 0.320641 0.004968
O O13 0.095508 0.633739 0.633193
O O14 0.000000 0.615812 0.000000
O O15 0.701100 0.830680 0.557978
O O16 0.762417 0.913831 0.375203
O O17 0.000000 0.844412 0.000000
O O18 0.500000 0.787244 0.000000
O O19 0.000000 0.639230 0.500000
O O20 0.500000 0.066582 0.500000
O O21 0.417411 0.000000 0.430678
#
# Coordination Sequence:
#
# PCOD9152820 Si02
#       8
#     4   4   4   4   4   4   4   4
#     4  11  23  43  63  87 128 164 198 250 307 361
#     4  10  21  38  63  93 121 157 209 254 295 361
#     4  11  25  41  62  92 122 155 205 252 295 366
#     4  11  20  41  64  86 122 163 201 244 303 361
#     4  11  23  41  64  90 122 166 203 244 305 363
#     4  11  26  42  62  92 124 157 203 256 305 361
#     4  11  24  41  61  90 126 161 198 252 307 358
#     4  10  22  39  63  96 126 157 207 257 297 357
#
# _framework density 18.430859999999999
#
# number of rings (size 3 to 8) (size 9 to 14) (size 15 to 20)
#    0.000    1.250    5.000    0.750    3.500    5.500 
#    0.000    1.250    0.000    0.000    0.000    0.000 
#    0.000    0.000    0.000    0.000    0.000    0.000 
#
# Total GULP energy -178807.982075 kJ/mol
# GULP energy per Si atom -5587.749440 kJ/mol
# Density = 1.838891 g / cm^3
# Si number density = 18.430860 Si / 1000 Ang^3
#
#
#
# Elastic Constant Matrix: (Units=GPa)
#
#
# Indices 1 2 3 4 5 6 
#
# 1 145.2806 35.0952 38.2106 0.0000 8.8574 0.0000
# 2 35.0952 96.6514 24.0499 0.0000 6.9051 0.0000
# 3 38.2106 24.0499 91.2149 0.0000 15.7604 0.0000
# 4 0.0000 0.0000 0.0000 7.4832 0.0000 5.7002
# 5 8.8574 6.9051 15.7604 0.0000 41.7501 0.0000
# 6 0.0000 0.0000 0.0000 5.7002 0.0000 8.1543
#
#
#
# Elastic Compliance Matrix: (Units=1/GPa)
#
#
# Indices 1 2 3 4 5 6 
#
# 1 0.008178 -0.002256 -0.002777 0.000000 -0.000314 0.000000
# 2 -0.002256 0.011719 -0.002025 0.000000 -0.000695 0.000000
# 3 -0.002777 -0.002025 0.013373 0.000000 -0.004124 0.000000
# 4 0.000000 0.000000 0.000000 0.285839 0.000000 -0.199815
# 5 -0.000314 -0.000695 -0.004124 0.000000 0.025690 0.000000
# 6 0.000000 0.000000 0.000000 -0.199815 0.000000 0.262316
#
#
# Mechanical properties :
#
#
# Convention : Reuss Voigt Hill
#
# Bulk Modulus (GPa) = 52.20653 58.65094 55.42874
# Shear Modulus (GPa) = 7.96668 27.19693 17.58181
#
# Velocity S-wave (km/s) = 2.08131 3.84555 3.09193
# Velocity P-wave (km/s) = 5.84490 7.18393 6.54873
#
# Compressibility (1/GPa) = 0.01915469
#
# Stress axis : x y z
#
# Youngs Moduli (GPa) = 122.28469 85.33052 74.77927
#
# Poissons Ratio (x) = 0.19251 0.20764
# Poissons Ratio (y) = 0.27588 0.15140
# Poissons Ratio (z) = 0.33954 0.17277
#
# Static dielectric constant tensor:
#      x y z
#    x 1.638540 0.000000 0.004400 
#    y 0.000000 1.608100 0.000000 
#    z 0.004400 0.000000 1.628100 
# 
# From -- ./inp_files/26214.got.cif
#   From: 2010.05.17/outbox.cif.g08.bks.cpg/sg10_14_cif.got.tgz:26214.got - 2010.06.03 11:33:40.
