data_PCOD9152106
_publ_section_title
;
Structure prediction by ZEFSAII (Michael W. Deem and Ramdas Pophale) SiO2 
 PCOD9152106
Probable space group: P 2/M
;
_chemical_formula_sum "Si O2"
_cell_formula_units_Z 32
_cell_length_a 14.675264
_cell_length_b 9.293117
_cell_length_c 23.503380
_cell_angle_alpha 90.000000
_cell_angle_beta 148.351038
_cell_angle_gamma 90.000000
_cell_volume 1681.899086
_symmetry_space_group_name_H-M "P 2/M"
_symmetry_group_IT_number 10
_symmetry_cell_setting 'monoclinic'
loop_
_space_group_symop_operation_xyz
x,y,z
-x,y,-z
-x,-y,-z
x,-y,z
loop_
_atom_site_type_symbol
_atom_site_label
_atom_site_fract_x
_atom_site_fract_y
_atom_site_fract_z
Si Si1 0.432057 0.329333 0.256123
Si Si2 0.448068 0.671482 0.803198
Si Si3 0.028361 0.829273 0.833339
Si Si4 0.691981 0.830749 0.578448
Si Si5 0.908067 0.826596 0.891919
Si Si6 0.365612 0.671679 0.977734
Si Si7 0.082062 0.831448 0.606496
Si Si8 0.782458 0.329462 0.511941
O O1 0.396736 0.500000 0.242218
O O2 0.442777 0.290196 0.195127
O O3 0.282633 0.241652 0.208068
O O4 0.620585 0.301888 0.383561
O O5 0.411461 0.500000 0.780099
O O6 0.269011 0.757504 0.707136
O O7 0.548518 0.698814 0.915052
O O8 0.841441 0.807260 0.704705
O O9 0.011643 0.781443 0.890316
O O10 0.180080 0.748822 0.880230
O O11 0.065212 0.000000 0.852281
O O12 0.500000 0.802315 0.500000
O O13 0.730581 0.731709 0.545346
O O14 0.699155 0.000000 0.565693
O O15 0.894299 0.000000 0.882909
O O16 0.000000 0.785211 0.000000
O O17 0.340558 0.500000 0.957826
O O18 0.500000 0.718713 0.000000
O O19 0.000000 0.817593 0.500000
O O20 0.951725 0.751687 0.579586
O O21 0.095366 0.000000 0.627385
O O22 0.813000 0.500000 0.529677
#
# Coordination Sequence:
#
# PCOD9152106 Si02
#       8
#     4   4   4   4   4   4   4   4
#     4  10  21  36  57  86 116 152 193 236 293 355
#     4  10  21  39  60  83 120 160 197 245 301 354
#     4  10  22  40  61  88 121 158 199 248 304 355
#     4  10  22  41  63  88 123 164 203 248 302 361
#     4  10  21  37  60  88 117 150 192 240 294 353
#     4  10  23  41  61  87 117 156 205 250 298 355
#     4  11  23  38  59  90 122 156 198 244 299 361
#     4  11  23  38  59  86 119 156 198 246 298 356
#
# _framework density 19.026112000000001
#
# number of rings (size 3 to 8) (size 9 to 14) (size 15 to 20)
#    0.000    1.750    1.250    2.250    1.750    5.250 
#    0.000    0.000    0.000    0.000    0.000    0.000 
#    0.000    0.000    0.000    0.000    0.000    0.000 
#
# Total GULP energy -178816.043220 kJ/mol
# GULP energy per Si atom -5588.001351 kJ/mol
# Density = 1.898281 g / cm^3
# Si number density = 19.026112 Si / 1000 Ang^3
#
#
#
# Elastic Constant Matrix: (Units=GPa)
#
#
# Indices 1 2 3 4 5 6 
#
# 1 115.1697 32.9480 33.0811 0.0000 10.1518 0.0000
# 2 32.9480 27.6996 34.3712 0.0000 7.7729 0.0000
# 3 33.0811 34.3712 65.0564 0.0000 15.6608 0.0000
# 4 0.0000 0.0000 0.0000 29.6100 0.0000 3.8610
# 5 10.1518 7.7729 15.6608 0.0000 37.7105 0.0000
# 6 0.0000 0.0000 0.0000 3.8610 0.0000 28.6237
#
#
#
# Elastic Compliance Matrix: (Units=1/GPa)
#
#
# Indices 1 2 3 4 5 6 
#
# 1 0.013699 -0.022278 0.005096 0.000000 -0.001212 0.000000
# 2 -0.022278 0.141131 -0.064083 0.000000 0.003520 0.000000
# 3 0.005096 -0.064083 0.048651 0.000000 -0.008367 0.000000
# 4 0.000000 0.000000 0.000000 0.034377 0.000000 -0.004637
# 5 -0.001212 0.003520 -0.008367 0.000000 0.029593 0.000000
# 6 0.000000 0.000000 0.000000 -0.004637 0.000000 0.035562
#
#
# Mechanical properties :
#
#
# Convention : Reuss Voigt Hill
#
# Bulk Modulus (GPa) = 24.41925 45.41404 34.91664
# Shear Modulus (GPa) = 10.43420 26.35718 18.39569
#
# Velocity S-wave (km/s) = 2.34437 3.72602 3.11282
# Velocity P-wave (km/s) = 4.49339 6.51399 5.59565
#
# Compressibility (1/GPa) = 0.04095130
#
# Stress axis : x y z
#
# Youngs Moduli (GPa) = 72.99601 7.08563 20.55458
#
# Poissons Ratio (x) = 0.15786 -0.10475
# Poissons Ratio (y) = 1.62623 1.31719
# Poissons Ratio (z) = -0.37199 0.45406
#
# Static dielectric constant tensor:
#      x y z
#    x 1.646750 0.000000 -0.017510 
#    y 0.000000 1.633700 0.000000 
#    z -0.017510 0.000000 1.651510 
# 
# From -- ./inp_files/71482.got.cif
#   From: 2010.05.17/outbox.cif.g08.bks.cpg/sg10_36_cif.got.tgz:71482.got - 2010.06.03 11:33:40.
