data_PCOD9152918
_publ_section_title
;
Structure prediction by ZEFSAII (Michael W. Deem and Ramdas Pophale) SiO2 
 PCOD9152918
Probable space group: P 2/M
;
_chemical_formula_sum "Si O2"
_cell_formula_units_Z 28
_cell_length_a 20.697079
_cell_length_b 8.694301
_cell_length_c 16.425400
_cell_angle_alpha 90.000000
_cell_angle_beta 149.935273
_cell_angle_gamma 90.000000
_cell_volume 1480.738482
_symmetry_space_group_name_H-M "P 2/M"
_symmetry_group_IT_number 10
_symmetry_cell_setting 'monoclinic'
loop_
_space_group_symop_operation_xyz
x,y,z
-x,y,-z
-x,-y,-z
x,-y,z
loop_
_atom_site_type_symbol
_atom_site_label
_atom_site_fract_x
_atom_site_fract_y
_atom_site_fract_z
Si Si1 0.057402 0.685836 0.810915
Si Si2 0.575087 0.315316 0.355687
Si Si3 0.891765 0.685581 0.947344
Si Si4 0.646202 0.814613 0.138700
Si Si5 0.309776 0.815417 0.999838
Si Si6 0.220274 0.314442 0.559557
Si Si7 0.628558 0.815749 0.590882
O O1 0.064576 0.500000 0.813773
O O2 0.178546 0.756313 0.896423
O O3 0.921344 0.734807 0.624017
O O4 0.065705 0.727739 0.915172
O O5 0.572114 0.500000 0.354163
O O6 0.672951 0.265912 0.390668
O O7 0.622606 0.254498 0.494287
O O8 0.433482 0.251965 0.181277
O O9 0.879665 0.500000 0.930526
O O10 0.755269 0.757970 0.775316
O O11 0.000000 0.731887 0.000000
O O12 0.680789 0.768005 0.084663
O O13 0.740014 0.748815 0.309501
O O14 0.649743 0.000000 0.146461
O O15 0.500000 0.764897 0.000000
O O16 0.315464 0.000000 0.010039
O O17 0.221725 0.500000 0.563682
O O18 0.500000 0.769531 0.500000
O O19 0.630338 0.000000 0.587163
#
# Coordination Sequence:
#
# PCOD9152918 Si02
#       7
#     4   4   4   4   4   4   4
#     4  10  22  40  60  87 121 156 194 241 297 350
#     4  11  22  38  62  89 115 151 198 244 295 349
#     4  10  21  40  64  86 116 157 200 245 293 349
#     4  10  21  39  61  86 119 157 196 238 292 350
#     4  11  23  39  60  87 121 158 196 242 293 350
#     4  10  22  39  62  90 118 150 196 246 289 344
#     4  11  24  39  57  86 121 154 195 244 293 349
#
# _framework density 18.909483000000002
#
# number of rings (size 3 to 8) (size 9 to 14) (size 15 to 20)
#    0.000    1.571    1.429    3.000    0.000    9.714 
#    0.000    4.286    0.000    0.000    0.000    0.000 
#    0.000    0.000    0.000    0.000    0.000    0.000 
#
# Total GULP energy -156543.783245 kJ/mol
# GULP energy per Si atom -5590.849402 kJ/mol
# Density = 1.886644 g / cm^3
# Si number density = 18.909483 Si / 1000 Ang^3
#
#
#
# Elastic Constant Matrix: (Units=GPa)
#
#
# Indices 1 2 3 4 5 6 
#
# 1 99.0332 23.7811 51.3851 0.0000 3.4094 0.0000
# 2 23.7811 19.2393 31.4689 0.0000 -0.3265 0.0000
# 3 51.3851 31.4689 169.2168 0.0000 1.4207 0.0000
# 4 0.0000 0.0000 0.0000 47.6027 0.0000 -9.5055
# 5 3.4094 -0.3265 1.4207 0.0000 41.8334 0.0000
# 6 0.0000 0.0000 0.0000 -9.5055 0.0000 27.0881
#
#
#
# Elastic Compliance Matrix: (Units=1/GPa)
#
#
# Indices 1 2 3 4 5 6 
#
# 1 0.014705 -0.015682 -0.001538 0.000000 -0.001269 0.000000
# 2 -0.015682 0.091469 -0.012268 0.000000 0.002409 0.000000
# 3 -0.001538 -0.012268 0.008661 0.000000 -0.000264 0.000000
# 4 0.000000 0.000000 0.000000 0.022590 0.000000 0.007927
# 5 -0.001269 0.002409 -0.000264 0.000000 0.024035 0.000000
# 6 0.000000 0.000000 0.000000 0.007927 0.000000 0.039698
#
#
# Mechanical properties :
#
#
# Convention : Reuss Voigt Hill
#
# Bulk Modulus (GPa) = 17.90291 55.63994 36.77142
# Shear Modulus (GPa) = 17.93691 35.36180 26.64935
#
# Velocity S-wave (km/s) = 3.08322 4.32911 3.75815
# Velocity P-wave (km/s) = 4.70779 7.38082 6.19030
#
# Compressibility (1/GPa) = 0.05585685
#
# Stress axis : x y z
#
# Youngs Moduli (GPa) = 68.00263 10.93271 115.46660
#
# Poissons Ratio (x) = 0.17145 0.17765
# Poissons Ratio (y) = 1.06641 1.41659
# Poissons Ratio (z) = 0.10462 0.13413
#
# Static dielectric constant tensor:
#      x y z
#    x 1.667120 0.000000 -0.028070 
#    y 0.000000 1.640970 0.000000 
#    z -0.028070 0.000000 1.638660 
# 
# From -- ./inp_files/70265.got.cif
#   From: 2010.05.17/outbox.cif.g08.bks.cpg/sg10_36_cif.got.tgz:70265.got - 2010.06.03 11:33:40.
