data_PCOD9152435
_publ_section_title
;
Structure prediction by ZEFSAII (Michael W. Deem and Ramdas Pophale) SiO2 
 PCOD9152435
Probable space group: P 2/M
;
_chemical_formula_sum "Si O2"
_cell_formula_units_Z 32
_cell_length_a 24.379998
_cell_length_b 8.924511
_cell_length_c 15.898635
_cell_angle_alpha 90.000000
_cell_angle_beta 152.017300
_cell_angle_gamma 90.000000
_cell_volume 1623.082189
_symmetry_space_group_name_H-M "P 2/M"
_symmetry_group_IT_number 10
_symmetry_cell_setting 'monoclinic'
loop_
_space_group_symop_operation_xyz
x,y,z
-x,y,-z
-x,-y,-z
x,-y,z
loop_
_atom_site_type_symbol
_atom_site_label
_atom_site_fract_x
_atom_site_fract_y
_atom_site_fract_z
Si Si1 0.420806 0.180698 0.767956
Si Si2 0.189623 0.321539 0.935869
Si Si3 0.004594 0.174397 0.212636
Si Si4 0.786628 0.675802 0.593349
Si Si5 0.332500 0.818655 0.832338
Si Si6 0.366395 0.178059 0.304846
Si Si7 0.826059 0.171096 0.816420
Si Si8 0.864566 0.181396 0.312786
O O1 0.343150 0.257535 0.592258
O O2 0.364198 0.228403 0.780958
O O3 0.412854 0.000000 0.749770
O O4 0.557099 0.222040 0.959118
O O5 0.187588 0.500000 0.929746
O O6 0.072375 0.260129 0.822904
O O7 0.192272 0.250153 0.847370
O O8 0.297643 0.264927 0.138989
O O9 0.129224 0.243733 0.360076
O O10 0.015212 0.000000 0.251232
O O11 0.929557 0.182828 0.024523
O O12 0.787684 0.500000 0.581261
O O13 0.833024 0.717587 0.748558
O O14 0.211010 0.770458 0.708585
O O15 0.331544 0.000000 0.827770
O O16 0.500000 0.223478 0.500000
O O17 0.291114 0.196199 0.288001
O O18 0.363442 0.000000 0.280469
O O19 0.826476 0.000000 0.783784
O O20 0.000000 0.226348 0.500000
O O21 0.860298 0.000000 0.301803
#
# Coordination Sequence:
#
# PCOD9152435 Si02
#       8
#     4   4   4   4   4   4   4   4
#     4   9  18  36  60  81 107 146 193 239 283 333
#     4  11  23  38  56  85 122 154 187 233 299 359
#     4  10  21  39  61  80 107 148 194 236 278 332
#     4  12  24  34  51  84 118 147 182 226 285 346
#     4   8  17  36  60  84 107 141 193 246 285 326
#     4   9  19  38  63  86 111 150 200 246 285 335
#     4   9  19  36  56  80 108 144 189 234 279 327
#     4  10  21  37  60  88 116 151 200 248 293 345
#
# _framework density 19.715574
#
# number of rings (size 3 to 8) (size 9 to 14) (size 15 to 20)
#    0.000    2.250    0.000    4.500    1.750    5.500 
#    0.000    7.500    0.000    0.000    0.000    0.000 
#    0.000    0.000    0.000    0.000    0.000    0.000 
#
# Total GULP energy -178721.578985 kJ/mol
# GULP energy per Si atom -5585.049343 kJ/mol
# Density = 1.967070 g / cm^3
# Si number density = 19.715574 Si / 1000 Ang^3
#
#
#
# Elastic Constant Matrix: (Units=GPa)
#
#
# Indices 1 2 3 4 5 6 
#
# 1 49.2176 14.1581 20.0804 0.0000 13.9867 0.0000
# 2 14.1581 44.9553 14.6526 0.0000 7.1427 0.0000
# 3 20.0804 14.6526 43.2448 0.0000 24.1166 0.0000
# 4 0.0000 0.0000 0.0000 -11.7233 0.0000 9.0224
# 5 13.9867 7.1427 24.1166 0.0000 30.2037 0.0000
# 6 0.0000 0.0000 0.0000 9.0224 0.0000 10.7564
#
#
#
# Elastic Compliance Matrix: (Units=1/GPa)
#
#
# Indices 1 2 3 4 5 6 
#
# 1 0.026308 -0.004959 -0.007924 0.000000 -0.004683 0.000000
# 2 -0.004959 0.025980 -0.007850 0.000000 0.002420 0.000000
# 3 -0.007924 -0.007850 0.047560 0.000000 -0.032449 0.000000
# 4 0.000000 0.000000 0.000000 -0.051837 0.000000 0.043481
# 5 -0.004683 0.002420 -0.032449 0.000000 0.060614 0.000000
# 6 0.000000 0.000000 0.000000 0.043481 0.000000 0.056497
#
#
# Mechanical properties :
#
#
# Convention : Reuss Voigt Hill
#
# Bulk Modulus (GPa) = 17.12873 26.13330 21.63102
# Shear Modulus (GPa) = 22.11926 11.74915 16.93421
#
# Velocity S-wave (km/s) = 3.35314 2.44382 2.93392
# Velocity P-wave (km/s) = 4.86808 4.60944 4.74052
#
# Compressibility (1/GPa) = 0.05838145
#
# Stress axis : x y z
#
# Youngs Moduli (GPa) = 38.01105 38.49107 21.02628
#
# Poissons Ratio (x) = 0.19086 0.16662
# Poissons Ratio (y) = 0.18848 0.16506
# Poissons Ratio (z) = 0.30122 0.30216
#
# Static dielectric constant tensor:
#      x y z
#    x 1.697450 0.000000 0.011920 
#    y 0.000000 1.653460 0.000000 
#    z 0.011920 0.000000 1.703390 
# 
# From -- ./inp_files/71693.got.cif
#   From: 2010.05.17/outbox.cif.g08.bks.cpg/sg10_36_cif.got.tgz:71693.got - 2010.06.03 11:33:40.
