data_PCOD9152266
_publ_section_title
;
Structure prediction by ZEFSAII (Michael W. Deem and Ramdas Pophale) SiO2 
 PCOD9152266
Probable space group: P 2/M
;
_chemical_formula_sum "Si O2"
_cell_formula_units_Z 32
_cell_length_a 22.522352
_cell_length_b 7.678131
_cell_length_c 29.172356
_cell_angle_alpha 90.000000
_cell_angle_beta 18.003303
_cell_angle_gamma 90.000000
_cell_volume 1559.194070
_symmetry_space_group_name_H-M "P 2/M"
_symmetry_group_IT_number 10
_symmetry_cell_setting 'monoclinic'
loop_
_space_group_symop_operation_xyz
x,y,z
-x,y,-z
-x,-y,-z
x,-y,z
loop_
_atom_site_type_symbol
_atom_site_label
_atom_site_fract_x
_atom_site_fract_y
_atom_site_fract_z
Si Si1 0.307012 0.712428 0.778310
Si Si2 0.032370 0.289934 0.902686
Si Si3 0.913800 0.789994 0.796136
Si Si4 0.481273 0.213563 0.961135
Si Si5 0.157357 0.795638 0.049198
Si Si6 0.690463 0.707779 0.543759
Si Si7 0.589313 0.298493 0.717820
Si Si8 0.209927 0.201849 0.337348
O O1 0.308707 0.500000 0.775906
O O2 0.516342 0.774312 0.639732
O O3 0.218849 0.769205 0.794350
O O4 0.152145 0.762076 0.931011
O O5 0.034292 0.500000 0.900168
O O6 0.998298 0.227834 0.876379
O O7 0.104421 0.738401 0.629264
O O8 0.910105 0.000000 0.799364
O O9 0.719953 0.730052 0.913315
O O10 0.909522 0.729593 0.852077
O O11 0.657053 0.276608 0.800509
O O12 0.481888 0.000000 0.959553
O O13 0.500000 0.266806 0.000000
O O14 0.358251 0.709918 0.886973
O O15 0.200448 0.000000 0.022198
O O16 0.660859 0.500000 0.569376
O O17 0.668327 0.775810 0.611893
O O18 0.648336 0.500000 0.678402
O O19 0.670172 0.207851 0.703669
O O20 0.000000 0.281199 0.500000
O O21 0.177396 0.000000 0.348169
#
# Coordination Sequence:
#
# PCOD9152266 Si02
#       8
#     4   4   4   4   4   4   4   4
#     4   8  15  31  54  80 111 143 180 230 275 326
#     4   9  16  31  57  82 107 144 185 226 280 329
#     4  10  22  38  56  79 111 148 184 226 277 328
#     4   9  18  35  56  79 108 143 183 223 265 324
#     4  11  21  36  56  82 114 146 186 232 275 330
#     4  10  21  37  56  82 112 144 186 231 275 325
#     4  11  22  37  59  83 113 148 186 232 279 326
#     4  10  21  37  59  86 113 143 182 229 279 328
#
# _framework density 20.523425
#
# number of rings (size 3 to 8) (size 9 to 14) (size 15 to 20)
#    0.000    2.250    2.500    1.500    1.750    2.250 
#    0.000    2.500    0.000    4.500    0.000    0.000 
#    0.000    0.000    0.000    0.000    0.000    0.000 
#
# Total GULP energy -178645.586601 kJ/mol
# GULP energy per Si atom -5582.674581 kJ/mol
# Density = 2.047671 g / cm^3
# Si number density = 20.523425 Si / 1000 Ang^3
#
#
#
# Elastic Constant Matrix: (Units=GPa)
#
#
# Indices 1 2 3 4 5 6 
#
# 1 180.1983 -2.0079 85.8717 0.0000 17.6170 0.0000
# 2 -2.0079 34.0575 -0.3031 0.0000 -0.9022 0.0000
# 3 85.8717 -0.3031 147.5544 0.0000 15.9162 0.0000
# 4 0.0000 0.0000 0.0000 19.7745 0.0000 -0.7933
# 5 17.6170 -0.9022 15.9162 0.0000 28.2946 0.0000
# 6 0.0000 0.0000 0.0000 -0.7933 0.0000 22.2877
#
#
#
# Elastic Compliance Matrix: (Units=1/GPa)
#
#
# Indices 1 2 3 4 5 6 
#
# 1 0.007842 0.000359 -0.004298 0.000000 -0.002453 0.000000
# 2 0.000359 0.029404 -0.000240 0.000000 0.000849 0.000000
# 3 -0.004298 -0.000240 0.009571 0.000000 -0.002715 0.000000
# 4 0.000000 0.000000 0.000000 0.050642 0.000000 0.001803
# 5 -0.002453 0.000849 -0.002715 0.000000 0.038424 0.000000
# 6 0.000000 0.000000 0.000000 0.001803 0.000000 0.044932
#
#
# Mechanical properties :
#
#
# Convention : Reuss Voigt Hill
#
# Bulk Modulus (GPa) = 26.00267 58.77019 42.38643
# Shear Modulus (GPa) = 24.75340 32.62132 28.68736
#
# Velocity S-wave (km/s) = 3.47667 3.99114 3.74275
# Velocity P-wave (km/s) = 5.36783 7.06659 6.27496
#
# Compressibility (1/GPa) = 0.03845759
#
# Stress axis : x y z
#
# Youngs Moduli (GPa) = 127.52643 34.00944 104.48292
#
# Poissons Ratio (x) = -0.01221 0.44908
# Poissons Ratio (y) = -0.04579 0.02509
# Poissons Ratio (z) = 0.54813 0.00817
#
# Static dielectric constant tensor:
#      x y z
#    x 1.726680 0.000000 -0.002600 
#    y 0.000000 1.774410 0.000000 
#    z -0.002600 0.000000 1.697900 
# 
# From -- ./inp_files/93650.got.cif
#   From: 2010.05.17/outbox.cif.g08.bks.cpg/sg10_47_cif.got.tgz:93650.got - 2010.06.03 11:33:40.
