data_PCOD9152796
_publ_section_title
;
Structure prediction by ZEFSAII (Michael W. Deem and Ramdas Pophale) SiO2 
 PCOD9152796
Probable space group: P 2/M
;
_chemical_formula_sum "Si O2"
_cell_formula_units_Z 32
_cell_length_a 7.850813
_cell_length_b 13.959526
_cell_length_c 20.987156
_cell_angle_alpha 90.000000
_cell_angle_beta 143.401373
_cell_angle_gamma 90.000000
_cell_volume 1371.307885
_symmetry_space_group_name_H-M "P 2/M"
_symmetry_group_IT_number 10
_symmetry_cell_setting 'monoclinic'
loop_
_space_group_symop_operation_xyz
x,y,z
-x,y,-z
-x,-y,-z
x,-y,z
loop_
_atom_site_type_symbol
_atom_site_label
_atom_site_fract_x
_atom_site_fract_y
_atom_site_fract_z
Si Si1 0.742794 0.115003 0.660193
Si Si2 0.699655 0.114892 0.116605
Si Si3 0.318326 0.780065 0.096912
Si Si4 0.251500 0.391792 0.977805
Si Si5 0.886093 0.886234 0.555229
Si Si6 0.265610 0.387293 0.274752
Si Si7 0.695275 0.727368 0.327824
Si Si8 0.166279 0.614608 0.386888
O O1 0.418968 0.148270 0.562911
O O2 0.861773 0.129924 0.624477
O O3 0.974112 0.150621 0.780795
O O4 0.725134 0.000000 0.662471
O O5 0.538530 0.146738 0.131483
O O6 0.709491 0.000000 0.114905
O O7 0.500000 0.152175 0.000000
O O8 0.444843 0.751659 0.202567
O O9 0.295730 0.685742 0.045768
O O10 0.000000 0.822326 0.000000
O O11 0.256093 0.500000 0.006028
O O12 0.962507 0.378874 0.850645
O O13 0.500000 0.385119 0.000000
O O14 0.148367 0.825971 0.608614
O O15 0.918525 0.000000 0.554672
O O16 0.337445 0.500000 0.303197
O O17 0.549494 0.330540 0.340969
O O18 0.126066 0.358536 0.300389
O O19 0.939369 0.666213 0.364170
O O20 0.500000 0.637391 0.500000
O O21 0.130348 0.500000 0.383107
#
# Coordination Sequence:
#
# PCOD9152796 Si02
#       8
#     4   4   4   4   4   4   4   4
#     4   8  15  32  58  91 122 159 217 273 329 388
#     4  10  21  38  62  91 125 171 221 271 332 402
#     4  12  24  38  56  88 130 170 213 267 329 395
#     4  10  21  39  63  89 122 168 217 270 331 391
#     4   9  18  34  62  97 130 169 219 278 335 390
#     4  10  22  43  67  96 134 171 222 280 331 401
#     4  12  23  38  68  99 133 176 226 273 338 403
#     4  10  24  44  68  98 132 172 217 272 341 408
#
# _framework density 23.335386
#
# number of rings (size 3 to 8) (size 9 to 14) (size 15 to 20)
#    0.000    1.875    2.500    2.250    1.750    3.000 
#    0.000    1.875    2.750    0.750    0.000    0.875 
#    0.000    0.000    0.000    0.000    0.000    0.000 
#
# Total GULP energy -179157.905155 kJ/mol
# GULP energy per Si atom -5598.684536 kJ/mol
# Density = 2.328227 g / cm^3
# Si number density = 23.335386 Si / 1000 Ang^3
#
#
#
# Elastic Constant Matrix: (Units=GPa)
#
#
# Indices 1 2 3 4 5 6 
#
# 1 82.4818 26.5213 17.6119 0.0000 12.7133 0.0000
# 2 26.5213 80.1799 36.5748 0.0000 8.8027 0.0000
# 3 17.6119 36.5748 136.7750 0.0000 8.5178 0.0000
# 4 0.0000 0.0000 0.0000 14.2772 0.0000 14.3956
# 5 12.7133 8.8027 8.5178 0.0000 35.7366 0.0000
# 6 0.0000 0.0000 0.0000 14.3956 0.0000 24.5330
#
#
#
# Elastic Compliance Matrix: (Units=1/GPa)
#
#
# Indices 1 2 3 4 5 6 
#
# 1 0.014125 -0.004013 -0.000502 0.000000 -0.003917 0.000000
# 2 -0.004013 0.015593 -0.003555 0.000000 -0.001566 0.000000
# 3 -0.000502 -0.003555 0.008385 0.000000 -0.000944 0.000000
# 4 0.000000 0.000000 0.000000 0.171525 0.000000 -0.100648
# 5 -0.003917 -0.001566 -0.000944 0.000000 0.029987 0.000000
# 6 0.000000 0.000000 0.000000 -0.100648 0.000000 0.099820
#
#
# Mechanical properties :
#
#
# Convention : Reuss Voigt Hill
#
# Bulk Modulus (GPa) = 45.53146 51.20585 48.36866
# Shear Modulus (GPa) = 13.77799 29.49128 21.63464
#
# Velocity S-wave (km/s) = 2.43252 3.55885 3.04816
# Velocity P-wave (km/s) = 5.23867 6.23525 5.75856
#
# Compressibility (1/GPa) = 0.02196283
#
# Stress axis : x y z
#
# Youngs Moduli (GPa) = 70.79543 64.13050 119.25407
#
# Poissons Ratio (x) = 0.25738 0.05983
# Poissons Ratio (y) = 0.28413 0.42400
# Poissons Ratio (z) = 0.03552 0.22801
#
# Static dielectric constant tensor:
#      x y z
#    x 1.868230 0.000000 -0.021800 
#    y 0.000000 1.869750 0.000000 
#    z -0.021800 0.000000 1.902090 
# 
# From -- ./inp_files/88278.got.cif
#   From: 2010.05.17/outbox.cif.g08.bks.cpg/sg10_45_cif.got.tgz:88278.got - 2010.06.03 11:33:40.
