data_PCOD9152771
_publ_section_title
;
Structure prediction by ZEFSAII (Michael W. Deem and Ramdas Pophale) SiO2 
 PCOD9152771
Probable space group: P 2/M
;
_chemical_formula_sum "Si O2"
_cell_formula_units_Z 16
_cell_length_a 16.696532
_cell_length_b 8.341257
_cell_length_c 5.127531
_cell_angle_alpha 90.000000
_cell_angle_beta 58.977910
_cell_angle_gamma 90.000000
_cell_volume 611.971243
_symmetry_space_group_name_H-M "P 2/M"
_symmetry_group_IT_number 10
_symmetry_cell_setting 'monoclinic'
loop_
_space_group_symop_operation_xyz
x,y,z
-x,y,-z
-x,-y,-z
x,-y,z
loop_
_atom_site_type_symbol
_atom_site_label
_atom_site_fract_x
_atom_site_fract_y
_atom_site_fract_z
Si Si1 0.301067 0.325074 0.946016
Si Si2 0.267301 0.000000 0.144450
Si Si3 0.858541 0.000000 0.154316
Si Si4 0.437016 0.807731 0.345394
Si Si5 0.913551 0.325920 0.843337
O O1 0.332530 0.500000 0.982936
O O2 0.344420 0.289753 0.587053
O O3 0.188003 0.326250 0.126617
O O4 0.323633 0.164778 0.071301
O O5 0.185710 0.000000 0.489061
O O6 0.222488 0.000000 0.931117
O O7 0.911735 0.165600 0.015923
O O8 0.500000 0.787763 0.500000
O O9 0.419058 0.000000 0.350814
O O10 0.500000 0.750229 0.000000
O O11 0.916637 0.500000 0.975503
O O12 0.000000 0.317612 0.500000
#
# Coordination Sequence:
#
# PCOD9152771 Si02
#       5
#     4   2   2   4   4
#     4  10  21  40  65  94 129 169 213 263 318 377
#     4  10  22  40  61  91 124 162 208 259 311 372
#     4  10  21  38  62  87 124 166 212 255 308 366
#     4  10  22  41  65  92 126 165 208 261 321 378
#     4   9  19  38  64  96 132 170 213 261 316 377
#
# _framework density 26.145019999999999
#
# number of rings (size 3 to 8) (size 9 to 14) (size 15 to 20)
#    0.000    2.250    1.250    0.375    0.000    6.000 
#    0.000   15.000    0.000   13.500    0.000    0.000 
#    0.000    0.000    0.000    0.000    0.000    0.000 
#
# Total GULP energy -89540.378611 kJ/mol
# GULP energy per Si atom -5596.273663 kJ/mol
# Density = 2.608551 g / cm^3
# Si number density = 26.145020 Si / 1000 Ang^3
#
#
#
# Elastic Constant Matrix: (Units=GPa)
#
#
# Indices 1 2 3 4 5 6 
#
# 1 79.2334 -0.5713 27.6159 0.0000 -15.8393 0.0000
# 2 -0.5713 273.1634 74.5199 0.0000 0.4616 0.0000
# 3 27.6159 74.5199 195.0807 0.0000 -26.0877 0.0000
# 4 0.0000 0.0000 0.0000 33.8562 0.0000 37.1509
# 5 -15.8393 0.4616 -26.0877 0.0000 41.7310 0.0000
# 6 0.0000 0.0000 0.0000 37.1509 0.0000 68.0375
#
#
#
# Elastic Compliance Matrix: (Units=1/GPa)
#
#
# Indices 1 2 3 4 5 6 
#
# 1 0.014042 0.000453 -0.001581 0.000000 0.004336 0.000000
# 2 0.000453 0.004149 -0.001781 0.000000 -0.000987 0.000000
# 3 -0.001581 -0.001781 0.006496 0.000000 0.003480 0.000000
# 4 0.000000 0.000000 0.000000 0.073689 0.000000 -0.040237
# 5 0.004336 -0.000987 0.003480 0.000000 0.027796 0.000000
# 6 0.000000 0.000000 0.000000 -0.040237 0.000000 0.036669
#
#
# Mechanical properties :
#
#
# Convention : Reuss Voigt Hill
#
# Bulk Modulus (GPa) = 52.99617 83.40071 68.19844
# Shear Modulus (GPa) = 28.57990 58.45247 43.51618
#
# Velocity S-wave (km/s) = 3.30984 4.73345 4.08415
# Velocity P-wave (km/s) = 5.90938 7.86401 6.95569
#
# Compressibility (1/GPa) = 0.01886929
#
# Stress axis : x y z
#
# Youngs Moduli (GPa) = 71.21408 241.00094 153.94670
#
# Poissons Ratio (x) = -0.10926 0.24341
# Poissons Ratio (y) = -0.03229 0.27422
# Poissons Ratio (z) = 0.11260 0.42928
#
# Static dielectric constant tensor:
#      x y z
#    x 2.150930 0.000000 0.005110 
#    y 0.000000 2.091800 0.000000 
#    z 0.005110 0.000000 2.003500 
# 
# From -- ./inp_files/8557.got.cif
#   From: 2010.05.17/outbox.cif.g08.bks.cpg/sg10_5_cif.got.tgz:8557.got - 2010.06.03 11:33:40.
