data_PCOD9152037
_publ_section_title
;
Structure prediction by ZEFSAII (Michael W. Deem and Ramdas Pophale) SiO2 
 PCOD9152037
Probable space group: P 2/M
;
_chemical_formula_sum "Si O2"
_cell_formula_units_Z 32
_cell_length_a 27.690200
_cell_length_b 9.276781
_cell_length_c 21.711475
_cell_angle_alpha 90.000000
_cell_angle_beta 18.495446
_cell_angle_gamma 90.000000
_cell_volume 1769.236913
_symmetry_space_group_name_H-M "P 2/M"
_symmetry_group_IT_number 10
_symmetry_cell_setting 'monoclinic'
loop_
_space_group_symop_operation_xyz
x,y,z
-x,y,-z
-x,-y,-z
x,-y,z
loop_
_atom_site_type_symbol
_atom_site_label
_atom_site_fract_x
_atom_site_fract_y
_atom_site_fract_z
Si Si1 0.372845 0.831778 0.562367
Si Si2 0.284214 0.669231 0.013622
Si Si3 0.872257 0.330827 0.057455
Si Si4 0.182489 0.167564 0.669061
Si Si5 0.449032 0.672840 0.992583
Si Si6 0.316941 0.330381 0.833662
Si Si7 0.833299 0.171759 0.728345
Si Si8 0.378667 0.331852 0.336907
O O1 0.255588 0.746201 0.747016
O O2 0.307086 0.821664 0.572605
O O3 0.538483 0.760695 0.363273
O O4 0.378324 0.000000 0.573151
O O5 0.243935 0.500000 0.068580
O O6 0.188201 0.762607 0.177565
O O7 0.270888 0.711944 0.958539
O O8 0.460850 0.682590 0.820742
O O9 0.880877 0.500000 0.062326
O O10 0.817302 0.316492 0.053214
O O11 0.033931 0.254772 0.869282
O O12 0.254740 0.235108 0.520361
O O13 0.143786 0.000000 0.707670
O O14 0.422079 0.500000 0.020724
O O15 0.578832 0.706098 0.784741
O O16 0.500000 0.707172 0.000000
O O17 0.297380 0.754848 0.155100
O O18 0.361539 0.500000 0.782053
O O19 0.000000 0.202768 0.500000
O O20 0.810880 0.000000 0.756873
O O21 0.333070 0.500000 0.395136
#
# Coordination Sequence:
#
# PCOD9152037 Si02
#       8
#     4   4   4   4   4   4   4   4
#     4  11  23  38  59  84 111 146 187 227 276 337
#     4   9  18  35  60  84 108 143 189 233 271 323
#     4  11  24  39  57  82 113 147 184 232 284 327
#     4  11  23  38  56  81 113 148 186 228 276 332
#     4   9  19  37  60  86 113 145 188 234 276 324
#     4  10  21  39  60  84 111 142 186 233 278 330
#     4  10  21  36  55  83 119 151 184 226 274 331
#     4   9  17  33  59  84 108 142 185 230 273 324
#
# _framework density 18.086894000000001
#
# number of rings (size 3 to 8) (size 9 to 14) (size 15 to 20)
#    0.000    2.000    1.250    3.000    0.000    9.250 
#    2.250    0.000    0.000    0.000    0.000    0.000 
#    0.000    0.000    0.000    0.000    0.000    0.000 
#
# Total GULP energy -178702.640922 kJ/mol
# GULP energy per Si atom -5584.457529 kJ/mol
# Density = 1.804573 g / cm^3
# Si number density = 18.086894 Si / 1000 Ang^3
#
#
#
# Elastic Constant Matrix: (Units=GPa)
#
#
# Indices 1 2 3 4 5 6 
#
# 1 52.6578 18.9141 1.6941 0.0000 19.9514 0.0000
# 2 18.9141 70.4393 36.6259 0.0000 6.6353 0.0000
# 3 1.6941 36.6259 56.5494 0.0000 11.1982 0.0000
# 4 0.0000 0.0000 0.0000 0.1877 0.0000 -69.5246
# 5 19.9514 6.6353 11.1982 0.0000 27.2839 0.0000
# 6 0.0000 0.0000 0.0000 -69.5246 0.0000 -136.6244
#
#
#
# Elastic Compliance Matrix: (Units=1/GPa)
#
#
# Indices 1 2 3 4 5 6 
#
# 1 0.033239 -0.013024 0.012654 0.000000 -0.026332 0.000000
# 2 -0.013024 0.026516 -0.018931 0.000000 0.010846 0.000000
# 3 0.012654 -0.018931 0.033184 0.000000 -0.018269 0.000000
# 4 0.000000 0.000000 0.000000 0.028116 0.000000 -0.014308
# 5 -0.026332 0.010846 -0.018269 0.000000 0.060768 0.000000
# 6 0.000000 0.000000 0.000000 -0.014308 0.000000 -0.000039
#
#
# Mechanical properties :
#
#
# Convention : Reuss Voigt Hill
#
# Bulk Modulus (GPa) = 18.40424 32.67941 25.54182
# Shear Modulus (GPa) = 20.96454 -13.66975 3.64739
#
# Velocity S-wave (km/s) = 3.40825 -2.75213 1.42161
# Velocity P-wave (km/s) = 5.06811 2.82989 4.10451
#
# Compressibility (1/GPa) = 0.05433530
#
# Stress axis : x y z
#
# Youngs Moduli (GPa) = 30.08552 37.71328 30.13526
#
# Poissons Ratio (x) = 0.49119 -0.38134
# Poissons Ratio (y) = 0.39185 0.57050
# Poissons Ratio (z) = -0.38071 0.71396
#
# Static dielectric constant tensor:
#      x y z
#    x 1.628070 0.000000 0.010860 
#    y 0.000000 1.605420 0.000000 
#    z 0.010860 0.000000 1.582220 
# 
# From -- ./inp_files/86876.got.cif
#   From: 2010.05.17/outbox.cif.g08.bks.cpg/sg10_44_cif.got.tgz:86876.got - 2010.06.03 11:33:40.
