data_PCOD9152433
_publ_section_title
;
Structure prediction by ZEFSAII (Michael W. Deem and Ramdas Pophale) SiO2 
 PCOD9152433
Probable space group: P 2/M
;
_chemical_formula_sum "Si O2"
_cell_formula_units_Z 20
_cell_length_a 11.759056
_cell_length_b 7.509656
_cell_length_c 9.747283
_cell_angle_alpha 90.000000
_cell_angle_beta 108.940801
_cell_angle_gamma 90.000000
_cell_volume 814.142433
_symmetry_space_group_name_H-M "P 2/M"
_symmetry_group_IT_number 10
_symmetry_cell_setting 'monoclinic'
loop_
_space_group_symop_operation_xyz
x,y,z
-x,y,-z
-x,-y,-z
x,-y,z
loop_
_atom_site_type_symbol
_atom_site_label
_atom_site_fract_x
_atom_site_fract_y
_atom_site_fract_z
Si Si1 0.065904 0.297678 0.391993
Si Si2 0.769707 0.713061 0.771875
Si Si3 0.616513 0.217702 0.130877
Si Si4 0.500851 0.792504 0.351030
Si Si5 0.867311 0.788676 0.099911
O O1 0.098444 0.500000 0.445296
O O2 0.180564 0.217982 0.355709
O O3 0.000000 0.216060 0.500000
O O4 0.969476 0.300659 0.230758
O O5 0.763297 0.500000 0.760702
O O6 0.636985 0.783731 0.753633
O O7 0.856648 0.758910 0.933048
O O8 0.592257 0.281514 0.275418
O O9 0.740277 0.274373 0.112580
O O10 0.617362 0.000000 0.130602
O O11 0.500000 0.273552 0.000000
O O12 0.500000 0.707553 0.500000
O O13 0.533440 0.000000 0.378607
O O14 0.880671 0.000000 0.127216
#
# Coordination Sequence:
#
# PCOD9152433 Si02
#       5
#     4   4   4   4   4
#     4  10  24  44  61  82 118 158 194 241 299 349
#     4  11  23  40  61  85 118 158 198 239 290 350
#     4   9  17  34  57  85 119 149 182 233 292 341
#     4  10  21  37  60  87 119 155 191 238 293 343
#     4  11  22  38  64  91 117 151 197 245 288 345
#
# _framework density 24.565728
#
# number of rings (size 3 to 8) (size 9 to 14) (size 15 to 20)
#    0.000    1.800    2.000    1.800    2.800    4.800 
#    0.000    3.000    0.000    0.000    0.000    0.000 
#    0.000    0.000    0.000    0.000    0.000    0.000 
#
# Total GULP energy -111803.333445 kJ/mol
# GULP energy per Si atom -5590.166672 kJ/mol
# Density = 2.450982 g / cm^3
# Si number density = 24.565728 Si / 1000 Ang^3
#
#
#
# Elastic Constant Matrix: (Units=GPa)
#
#
# Indices 1 2 3 4 5 6 
#
# 1 81.0263 -8.5640 15.0915 0.0000 -38.2269 0.0000
# 2 -8.5640 85.4755 -5.4714 0.0000 -8.8156 0.0000
# 3 15.0915 -5.4714 114.5883 0.0000 -37.1671 0.0000
# 4 0.0000 0.0000 0.0000 11.6248 0.0000 5.0746
# 5 -38.2269 -8.8156 -37.1671 0.0000 58.5781 0.0000
# 6 0.0000 0.0000 0.0000 5.0746 0.0000 11.7475
#
#
#
# Elastic Compliance Matrix: (Units=1/GPa)
#
#
# Indices 1 2 3 4 5 6 
#
# 1 0.019127 0.003564 0.002359 0.000000 0.014515 0.000000
# 2 0.003564 0.012741 0.001908 0.000000 0.005454 0.000000
# 3 0.002359 0.001908 0.011458 0.000000 0.009096 0.000000
# 4 0.000000 0.000000 0.000000 0.106014 0.000000 -0.045795
# 5 0.014515 0.005454 0.009096 0.000000 0.033136 0.000000
# 6 0.000000 0.000000 0.000000 -0.045795 0.000000 0.104907
#
#
# Mechanical properties :
#
#
# Convention : Reuss Voigt Hill
#
# Bulk Modulus (GPa) = 16.95229 31.46691 24.20960
# Shear Modulus (GPa) = 17.15961 35.05902 26.10932
#
# Velocity S-wave (km/s) = 2.64582 3.78186 3.26365
# Velocity P-wave (km/s) = 4.03107 5.64864 4.90697
#
# Compressibility (1/GPa) = 0.05898910
#
# Stress axis : x y z
#
# Youngs Moduli (GPa) = 52.28191 78.48656 87.27703
#
# Poissons Ratio (x) = -0.27976 -0.20590
# Poissons Ratio (y) = -0.18636 -0.16652
# Poissons Ratio (z) = -0.12334 -0.14975
#
# Static dielectric constant tensor:
#      x y z
#    x 1.957260 0.000000 -0.026290 
#    y 0.000000 1.919990 0.000000 
#    z -0.026290 0.000000 1.956880 
# 
# From -- ./inp_files/22122.got.cif
#   From: 2010.05.17/outbox.cif.g08.bks.cpg/sg10_12_cif.got.tgz:22122.got - 2010.06.03 11:33:40.
