data_PCOD9152610
_publ_section_title
;
Structure prediction by ZEFSAII (Michael W. Deem and Ramdas Pophale) SiO2 
 PCOD9152610
Probable space group: P 2/M
;
_chemical_formula_sum "Si O2"
_cell_formula_units_Z 24
_cell_length_a 21.699716
_cell_length_b 11.480388
_cell_length_c 22.496219
_cell_angle_alpha 90.000000
_cell_angle_beta 167.185244
_cell_angle_gamma 90.000000
_cell_volume 1243.028157
_symmetry_space_group_name_H-M "P 2/M"
_symmetry_group_IT_number 10
_symmetry_cell_setting 'monoclinic'
loop_
_space_group_symop_operation_xyz
x,y,z
-x,y,-z
-x,-y,-z
x,-y,z
loop_
_atom_site_type_symbol
_atom_site_label
_atom_site_fract_x
_atom_site_fract_y
_atom_site_fract_z
Si Si1 0.742486 0.215344 0.383186
Si Si2 0.255867 0.000000 0.054609
Si Si3 0.847287 0.000000 0.568832
Si Si4 0.320749 0.637798 0.564439
Si Si5 0.911311 0.258702 0.084163
Si Si6 0.691543 0.860082 0.122576
Si Si7 0.212302 0.634578 0.254294
O O1 0.694288 0.325623 0.380360
O O2 0.020307 0.210288 0.604664
O O3 0.800671 0.111778 0.484480
O O4 0.481146 0.182991 0.096886
O O5 0.588786 0.000000 0.371242
O O6 0.142790 0.121301 0.972817
O O7 0.140541 0.000000 0.878067
O O8 0.281449 0.500000 0.519961
O O9 0.088809 0.708065 0.309360
O O10 0.616374 0.677414 0.815580
O O11 0.079112 0.303141 0.185203
O O12 0.746269 0.000000 0.170221
O O13 0.500000 0.842552 0.000000
O O14 0.500000 0.685009 0.500000
O O15 0.266208 0.500000 0.322856
O O16 0.000000 0.635192 0.000000
#
# Coordination Sequence:
#
# PCOD9152610 Si02
#       7
#     4   2   2   4   4   4   4
#     4  12  21  36  59  82 119 151 190 241 290 350
#     4  12  22  38  58  91 123 156 188 231 306 367
#     4  12  20  36  57  87 122 160 188 227 302 359
#     4  12  25  39  61  90 120 156 196 245 295 345
#     4  12  23  40  62  90 123 153 194 246 297 354
#     4  11  22  35  56  86 117 150 190 239 291 344
#     4  10  21  38  59  82 113 157 203 242 281 333
#
# _framework density 19.307687999999999
#
# number of rings (size 3 to 8) (size 9 to 14) (size 15 to 20)
#    0.000    0.500    5.000    5.000    0.000    2.667 
#    0.000    0.833    0.000    3.000    0.000    0.000 
#    0.000    0.000    0.000    0.000    0.000    0.000 
#
# Total GULP energy -134180.797471 kJ/mol
# GULP energy per Si atom -5590.866561 kJ/mol
# Density = 1.926374 g / cm^3
# Si number density = 19.307688 Si / 1000 Ang^3
#
#
#
# Elastic Constant Matrix: (Units=GPa)
#
#
# Indices 1 2 3 4 5 6 
#
# 1 79.4607 40.5724 1.2807 0.0000 20.5284 0.0000
# 2 40.5724 94.1259 0.9252 0.0000 19.6829 0.0000
# 3 1.2807 0.9252 68.1604 0.0000 23.3311 0.0000
# 4 0.0000 0.0000 0.0000 25.6631 0.0000 -16.0988
# 5 20.5284 19.6829 23.3311 0.0000 37.1917 0.0000
# 6 0.0000 0.0000 0.0000 -16.0988 0.0000 43.2878
#
#
#
# Elastic Compliance Matrix: (Units=1/GPa)
#
#
# Indices 1 2 3 4 5 6 
#
# 1 0.017702 -0.005932 0.002570 0.000000 -0.008243 0.000000
# 2 -0.005932 0.014292 0.001765 0.000000 -0.005397 0.000000
# 3 0.002570 0.001765 0.019616 0.000000 -0.014658 0.000000
# 4 0.000000 0.000000 0.000000 0.050823 0.000000 0.018901
# 5 -0.008243 -0.005397 -0.014658 0.000000 0.043489 0.000000
# 6 0.000000 0.000000 0.000000 0.018901 0.000000 0.030131
#
#
# Mechanical properties :
#
#
# Convention : Reuss Voigt Hill
#
# Bulk Modulus (GPa) = 20.65448 36.36706 28.51077
# Shear Modulus (GPa) = 25.59029 34.49312 30.04171
#
# Velocity S-wave (km/s) = 3.64455 4.23128 3.94883
# Velocity P-wave (km/s) = 5.33208 6.53820 5.96570
#
# Compressibility (1/GPa) = 0.04841565
#
# Stress axis : x y z
#
# Youngs Moduli (GPa) = 56.49151 69.96882 50.97761
#
# Poissons Ratio (x) = 0.41503 -0.13099
# Poissons Ratio (y) = 0.33509 -0.08996
# Poissons Ratio (z) = -0.14516 -0.12348
#
# Static dielectric constant tensor:
#      x y z
#    x 1.688410 0.000000 0.024350 
#    y 0.000000 1.664060 0.000000 
#    z 0.024350 0.000000 1.690980 
# 
# From -- ./inp_files/90850.got.cif
#   From: 2010.05.17/outbox.cif.g08.bks.cpg/sg10_46_cif.got.tgz:90850.got - 2010.06.03 11:33:40.
