data_PCOD9152585
_publ_section_title
;
Structure prediction by ZEFSAII (Michael W. Deem and Ramdas Pophale) SiO2 
 PCOD9152585
Probable space group: P 2/M
;
_chemical_formula_sum "Si O2"
_cell_formula_units_Z 32
_cell_length_a 12.386763
_cell_length_b 7.744564
_cell_length_c 14.975889
_cell_angle_alpha 90.000000
_cell_angle_beta 85.748118
_cell_angle_gamma 90.000000
_cell_volume 1432.684225
_symmetry_space_group_name_H-M "P 2/M"
_symmetry_group_IT_number 10
_symmetry_cell_setting 'monoclinic'
loop_
_space_group_symop_operation_xyz
x,y,z
-x,y,-z
-x,-y,-z
x,-y,z
loop_
_atom_site_type_symbol
_atom_site_label
_atom_site_fract_x
_atom_site_fract_y
_atom_site_fract_z
Si Si1 0.070591 0.789162 0.581166
Si Si2 0.619182 0.299174 0.011180
Si Si3 0.355763 0.698909 0.303144
Si Si4 0.694010 0.796904 0.495819
Si Si5 0.221447 0.802200 0.150777
Si Si6 0.590661 0.708646 0.325469
Si Si7 0.991994 0.794381 0.217909
Si Si8 0.240961 0.290891 0.831062
O O1 0.193497 0.734643 0.554631
O O2 0.000000 0.736389 0.500000
O O3 0.027621 0.727246 0.679839
O O4 0.069503 0.000000 0.584184
O O5 0.600082 0.500000 0.036617
O O6 0.693989 0.289147 0.919439
O O7 0.500000 0.222692 0.000000
O O8 0.690628 0.227038 0.088240
O O9 0.354093 0.500000 0.273578
O O10 0.327836 0.707491 0.409215
O O11 0.271258 0.797095 0.246976
O O12 0.478315 0.767288 0.288595
O O13 0.604273 0.769370 0.425697
O O14 0.703907 0.000000 0.514322
O O15 0.100922 0.725420 0.165349
O O16 0.215009 0.000000 0.119690
O O17 0.587935 0.500000 0.326435
O O18 0.692538 0.766193 0.260542
O O19 0.882673 0.766376 0.169174
O O20 0.009588 0.000000 0.225397
O O21 0.239521 0.500000 0.832443
#
# Coordination Sequence:
#
# PCOD9152585 Si02
#       8
#     4   4   4   4   4   4   4   4
#     4   9  17  32  54  78 111 157 201 241 291 350
#     4  10  22  43  68  92 122 161 200 241 300 365
#     4  11  23  39  59  83 119 164 202 246 305 363
#     4  11  21  34  56  86 118 156 203 250 299 357
#     4  11  24  41  63  91 121 154 198 252 301 355
#     4  10  21  38  58  83 118 158 200 246 299 358
#     4  10  21  39  60  85 121 161 197 243 308 362
#     4  10  21  38  63  90 117 155 204 251 292 355
#
# _framework density 22.335698000000001
#
# number of rings (size 3 to 8) (size 9 to 14) (size 15 to 20)
#    0.000    1.750    1.250    3.000    0.000    8.750 
#    0.000    3.750    0.000    1.875    0.000    0.000 
#    0.000    0.000    0.000    0.000    0.000    0.000 
#
# Total GULP energy -178878.773747 kJ/mol
# GULP energy per Si atom -5589.961680 kJ/mol
# Density = 2.228486 g / cm^3
# Si number density = 22.335698 Si / 1000 Ang^3
#
#
#
# Elastic Constant Matrix: (Units=GPa)
#
#
# Indices 1 2 3 4 5 6 
#
# 1 172.9764 -2.3557 54.5308 0.0000 0.8565 0.0000
# 2 -2.3557 30.8574 -7.9195 0.0000 -0.2874 0.0000
# 3 54.5308 -7.9195 96.1782 0.0000 13.7400 0.0000
# 4 0.0000 0.0000 0.0000 19.9622 0.0000 4.7592
# 5 0.8565 -0.2874 13.7400 0.0000 35.8935 0.0000
# 6 0.0000 0.0000 0.0000 4.7592 0.0000 18.8935
#
#
#
# Elastic Compliance Matrix: (Units=1/GPa)
#
#
# Indices 1 2 3 4 5 6 
#
# 1 0.007119 -0.000544 -0.004291 0.000000 0.001468 0.000000
# 2 -0.000544 0.033171 0.003174 0.000000 -0.000936 0.000000
# 3 -0.004291 0.003174 0.013830 0.000000 -0.005166 0.000000
# 4 0.000000 0.000000 0.000000 0.053295 0.000000 -0.013425
# 5 0.001468 -0.000936 -0.005166 0.000000 0.029795 0.000000
# 6 0.000000 0.000000 0.000000 -0.013425 0.000000 0.056310
#
#
# Mechanical properties :
#
#
# Convention : Reuss Voigt Hill
#
# Bulk Modulus (GPa) = 19.68610 43.16924 31.42767
# Shear Modulus (GPa) = 23.38898 32.00027 27.69463
#
# Velocity S-wave (km/s) = 3.23949 3.78920 3.52508
# Velocity P-wave (km/s) = 4.77758 6.20593 5.53800
#
# Compressibility (1/GPa) = 0.05079727
#
# Stress axis : x y z
#
# Youngs Moduli (GPa) = 140.46548 30.14650 72.30863
#
# Poissons Ratio (x) = 0.01640 0.31027
# Poissons Ratio (y) = 0.07643 -0.22948
# Poissons Ratio (z) = 0.60273 -0.09567
#
# Static dielectric constant tensor:
#      x y z
#    x 1.827410 0.000000 -0.004260 
#    y 0.000000 1.848210 0.000000 
#    z -0.004260 0.000000 1.793610 
# 
# From -- ./inp_files/63782.got.cif
#   From: 2010.05.17/outbox.cif.g08.bks.cpg/sg10_32_cif.got.tgz:63782.got - 2010.06.03 11:33:40.
