data_PCOD9152768
_publ_section_title
;
Structure prediction by ZEFSAII (Michael W. Deem and Ramdas Pophale) SiO2 
 PCOD9152768
Probable space group: P 2/M
;
_chemical_formula_sum "Si O2"
_cell_formula_units_Z 32
_cell_length_a 22.318977
_cell_length_b 13.333911
_cell_length_c 15.526875
_cell_angle_alpha 90.000000
_cell_angle_beta 160.955467
_cell_angle_gamma 90.000000
_cell_volume 1507.776271
_symmetry_space_group_name_H-M "P 2/M"
_symmetry_group_IT_number 10
_symmetry_cell_setting 'monoclinic'
loop_
_space_group_symop_operation_xyz
x,y,z
-x,y,-z
-x,-y,-z
x,-y,z
loop_
_atom_site_type_symbol
_atom_site_label
_atom_site_fract_x
_atom_site_fract_y
_atom_site_fract_z
Si Si1 0.298468 0.384529 0.185373
Si Si2 0.552537 0.605927 0.891417
Si Si3 0.835723 0.300075 0.167017
Si Si4 0.691943 0.767600 0.412381
Si Si5 0.382346 0.114122 0.071088
Si Si6 0.606860 0.886471 0.555331
Si Si7 0.225371 0.619814 0.635549
Si Si8 0.934846 0.730664 0.003242
O O1 0.500000 0.373432 0.500000
O O2 0.280309 0.500000 0.131614
O O3 0.265551 0.308330 0.062568
O O4 0.140131 0.357319 0.038102
O O5 0.461346 0.500000 0.757650
O O6 0.412191 0.688092 0.667700
O O7 0.738179 0.615416 0.091046
O O8 0.619058 0.619331 0.079640
O O9 0.043032 0.332373 0.430831
O O10 0.781145 0.196225 0.140834
O O11 0.537139 0.854188 0.209440
O O12 0.725679 0.699408 0.373227
O O13 0.893096 0.789469 0.720550
O O14 0.482879 0.116247 0.300948
O O15 0.320177 0.000000 0.970714
O O16 0.500000 0.868793 0.500000
O O17 0.681740 0.000000 0.662691
O O18 0.767963 0.807078 0.765780
O O19 0.199137 0.500000 0.576041
O O20 0.000000 0.692080 0.000000
#
# Coordination Sequence:
#
# PCOD9152768 Si02
#       8
#     4   4   4   4   4   4   4   4
#     4  11  24  39  57  84 125 169 203 238 295 373
#     4  10  22  39  63  91 121 158 204 256 312 366
#     4  11  21  38  64  91 120 159 202 257 310 363
#     4  11  23  37  60  87 123 166 196 250 307 365
#     4  10  22  41  61  88 124 163 207 255 305 362
#     4  10  21  38  62  87 115 156 207 261 307 348
#     4  11  22  40  65  95 124 153 202 263 312 363
#     4  12  23  37  57  85 124 162 203 247 293 359
#
# _framework density 21.223306999999998
#
# number of rings (size 3 to 8) (size 9 to 14) (size 15 to 20)
#    0.000    1.250    2.500    4.125    1.750    3.500 
#    0.000    0.625    0.000   12.000    0.000    0.000 
#    0.000    0.000    0.000    0.000    0.000    0.000 
#
# Total GULP energy -178476.601189 kJ/mol
# GULP energy per Si atom -5577.393787 kJ/mol
# Density = 2.117500 g / cm^3
# Si number density = 21.223307 Si / 1000 Ang^3
#
#
#
# Elastic Constant Matrix: (Units=GPa)
#
#
# Indices 1 2 3 4 5 6 
#
# 1 100.5905 7.5940 3.6112 0.0000 20.0605 0.0000
# 2 7.5940 108.1823 16.3103 0.0000 11.9669 0.0000
# 3 3.6112 16.3103 46.2853 0.0000 19.2225 0.0000
# 4 0.0000 0.0000 0.0000 14.2248 0.0000 0.5765
# 5 20.0605 11.9669 19.2225 0.0000 31.4276 0.0000
# 6 0.0000 0.0000 0.0000 0.5765 0.0000 24.2409
#
#
#
# Elastic Compliance Matrix: (Units=1/GPa)
#
#
# Indices 1 2 3 4 5 6 
#
# 1 0.011687 -0.000255 0.002997 0.000000 -0.009196 0.000000
# 2 -0.000255 0.009879 -0.002636 0.000000 -0.001986 0.000000
# 3 0.002997 -0.002636 0.030400 0.000000 -0.019503 0.000000
# 4 0.000000 0.000000 0.000000 0.070368 0.000000 -0.001673
# 5 -0.009196 -0.001986 -0.019503 0.000000 0.050374 0.000000
# 6 0.000000 0.000000 0.000000 -0.001673 0.000000 0.041292
#
#
# Mechanical properties :
#
#
# Convention : Reuss Voigt Hill
#
# Bulk Modulus (GPa) = 19.16540 34.45432 26.80986
# Shear Modulus (GPa) = 21.62808 29.14816 25.38812
#
# Velocity S-wave (km/s) = 3.19575 3.70997 3.46242
# Velocity P-wave (km/s) = 4.76100 5.88398 5.35202
#
# Compressibility (1/GPa) = 0.05217735
#
# Stress axis : x y z
#
# Youngs Moduli (GPa) = 85.56615 101.22740 32.89468
#
# Poissons Ratio (x) = 0.02581 -0.09859
# Poissons Ratio (y) = 0.02182 0.08672
# Poissons Ratio (z) = -0.25645 0.26687
#
# Static dielectric constant tensor:
#      x y z
#    x 1.848760 0.000000 0.011300 
#    y 0.000000 1.799820 0.000000 
#    z 0.011300 0.000000 1.775750 
# 
# From -- ./inp_files/70798.got.cif
#   From: 2010.05.17/outbox.cif.g08.bks.cpg/sg10_36_cif.got.tgz:70798.got - 2010.06.03 11:33:40.
