data_PCOD9152425
_publ_section_title
;
Structure prediction by ZEFSAII (Michael W. Deem and Ramdas Pophale) SiO2 
 PCOD9152425
Probable space group: P 2/M
;
_chemical_formula_sum "Si O2"
_cell_formula_units_Z 24
_cell_length_a 23.683193
_cell_length_b 9.006028
_cell_length_c 12.403178
_cell_angle_alpha 90.000000
_cell_angle_beta 25.564324
_cell_angle_gamma 90.000000
_cell_volume 1141.593811
_symmetry_space_group_name_H-M "P 2/M"
_symmetry_group_IT_number 10
_symmetry_cell_setting 'monoclinic'
loop_
_space_group_symop_operation_xyz
x,y,z
-x,y,-z
-x,-y,-z
x,-y,z
loop_
_atom_site_type_symbol
_atom_site_label
_atom_site_fract_x
_atom_site_fract_y
_atom_site_fract_z
Si Si1 0.039366 0.177615 0.554740
Si Si2 0.506441 0.830388 0.156057
Si Si3 0.245484 0.324736 0.337831
Si Si4 0.196634 0.173020 0.639688
Si Si5 0.546128 0.328657 0.540842
Si Si6 0.143264 0.673405 0.952437
O O1 0.175964 0.250307 0.354918
O O2 0.000000 0.213422 0.500000
O O3 0.045904 0.000000 0.554514
O O4 0.936264 0.244442 0.817299
O O5 0.353997 0.818982 0.388212
O O6 0.513087 0.781056 0.269010
O O7 0.548439 0.000000 0.066310
O O8 0.603773 0.725036 0.923756
O O9 0.233475 0.500000 0.355842
O O10 0.176490 0.259352 0.563189
O O11 0.132046 0.247668 0.855489
O O12 0.160814 0.000000 0.691881
O O13 0.500000 0.295123 0.500000
O O14 0.508287 0.500000 0.631413
O O15 0.703005 0.320404 0.280965
O O16 0.105373 0.500000 0.010728
#
# Coordination Sequence:
#
# PCOD9152425 Si02
#       6
#     4   4   4   4   4   4
#     4  11  26  46  65  88 121 162 208 255 305 364
#     4  10  21  37  59  91 127 163 202 249 304 364
#     4  12  25  40  63  92 124 163 207 254 308 366
#     4  10  21  40  65  93 127 163 203 252 307 364
#     4   9  19  35  57  88 122 161 202 247 303 360
#     4  10  21  39  63  91 125 160 203 254 304 362
#
# _framework density 21.023240000000001
#
# number of rings (size 3 to 8) (size 9 to 14) (size 15 to 20)
#    0.000    1.667    0.000    4.000    2.333    7.000 
#    0.000    3.333    0.000    0.000    0.000    0.000 
#    0.000    0.000    0.000    0.000    0.000    0.000 
#
# Total GULP energy -134286.849793 kJ/mol
# GULP energy per Si atom -5595.285408 kJ/mol
# Density = 2.097539 g / cm^3
# Si number density = 21.023240 Si / 1000 Ang^3
#
#
#
# Elastic Constant Matrix: (Units=GPa)
#
#
# Indices 1 2 3 4 5 6 
#
# 1 105.0017 63.9964 24.0745 0.0000 18.9800 0.0000
# 2 63.9964 142.3285 49.5741 0.0000 16.5367 0.0000
# 3 24.0745 49.5741 93.4823 0.0000 11.3395 0.0000
# 4 0.0000 0.0000 0.0000 627.5722 0.0000 -157.9569
# 5 18.9800 16.5367 11.3395 0.0000 25.1728 0.0000
# 6 0.0000 0.0000 0.0000 -157.9569 0.0000 71.7206
#
#
#
# Elastic Compliance Matrix: (Units=1/GPa)
#
#
# Indices 1 2 3 4 5 6 
#
# 1 0.014188 -0.005621 0.000187 0.000000 -0.007089 0.000000
# 2 -0.005621 0.011205 -0.004353 0.000000 -0.001161 0.000000
# 3 0.000187 -0.004353 0.013358 0.000000 -0.003298 0.000000
# 4 0.000000 0.000000 0.000000 0.003575 0.000000 0.007874
# 5 -0.007089 -0.001161 -0.003298 0.000000 0.047319 0.000000
# 6 0.000000 0.000000 0.000000 0.007874 0.000000 0.031286
#
#
# Mechanical properties :
#
#
# Convention : Reuss Voigt Hill
#
# Bulk Modulus (GPa) = 52.14959 68.45582 60.30271
# Shear Modulus (GPa) = 34.03729 158.43764 96.23746
#
# Velocity S-wave (km/s) = 4.02808 8.69061 6.77319
# Velocity P-wave (km/s) = 6.81861 11.54707 9.48231
#
# Compressibility (1/GPa) = 0.01917561
#
# Stress axis : x y z
#
# Youngs Moduli (GPa) = 70.48163 89.24850 74.86253
#
# Poissons Ratio (x) = 0.50166 -0.01399
# Poissons Ratio (y) = 0.39617 0.32591
# Poissons Ratio (z) = -0.01317 0.38854
#
# Static dielectric constant tensor:
#      x y z
#    x 1.752860 0.000000 -0.042400 
#    y 0.000000 1.704450 0.000000 
#    z -0.042400 0.000000 1.774420 
# 
# From -- ./inp_files/56527.got.cif
#   From: 2010.05.17/outbox.cif.g08.bks.cpg/sg10_29_cif.got.tgz:56527.got - 2010.06.03 11:33:40.
