data_PCOD9152634
_publ_section_title
;
Structure prediction by ZEFSAII (Michael W. Deem and Ramdas Pophale) SiO2 
 PCOD9152634
Probable space group: P 2/M
;
_chemical_formula_sum "Si O2"
_cell_formula_units_Z 28
_cell_length_a 9.971039
_cell_length_b 7.583722
_cell_length_c 27.373626
_cell_angle_alpha 90.000000
_cell_angle_beta 38.216251
_cell_angle_gamma 90.000000
_cell_volume 1280.521912
_symmetry_space_group_name_H-M "P 2/M"
_symmetry_group_IT_number 10
_symmetry_cell_setting 'monoclinic'
loop_
_space_group_symop_operation_xyz
x,y,z
-x,y,-z
-x,-y,-z
x,-y,z
loop_
_atom_site_type_symbol
_atom_site_label
_atom_site_fract_x
_atom_site_fract_y
_atom_site_fract_z
Si Si1 0.533785 0.799100 0.637080
Si Si2 0.051035 0.712620 0.752041
Si Si3 0.833934 0.000000 0.121283
Si Si4 0.410142 0.706728 0.080125
Si Si5 0.523426 0.299144 0.240100
Si Si6 0.313025 0.000000 0.949306
Si Si7 0.913961 0.712736 0.682500
Si Si8 0.339054 0.792581 0.503981
O O1 0.568060 0.704162 0.678544
O O2 0.628342 0.719733 0.559844
O O3 0.275083 0.797664 0.703044
O O4 0.613113 0.000000 0.620222
O O5 0.083368 0.500000 0.743632
O O6 0.843431 0.753880 0.844432
O O7 0.987404 0.767205 0.715365
O O8 0.727503 0.170784 0.176874
O O9 0.754392 0.000000 0.087735
O O10 0.092788 0.000000 0.044438
O O11 0.428517 0.500000 0.088749
O O12 0.546166 0.829580 0.077043
O O13 0.500000 0.729387 0.000000
O O14 0.580011 0.500000 0.210816
O O15 0.327358 0.230626 0.262429
O O16 0.911088 0.500000 0.682322
O O17 0.096049 0.773996 0.592615
O O18 0.500000 0.718617 0.500000
O O19 0.395135 0.000000 0.483403
#
# Coordination Sequence:
#
# PCOD9152634 Si02
#       8
#     4   4   2   4   4   2   4   4
#     4  11  23  39  62  95 130 169 218 267 323 387
#     4  10  21  38  62  93 125 166 217 267 324 384
#     4  11  26  46  68  97 125 171 220 263 323 396
#     4  10  23  41  65  99 135 169 213 268 326 386
#     4  11  25  45  67  95 130 171 217 267 323 386
#     4  11  25  44  68  96 130 169 217 264 328 387
#     4  10  22  39  63  91 124 170 220 266 318 383
#     4  10  21  38  59  92 131 167 211 265 323 375
#
# _framework density 21.866085999999999
#
# number of rings (size 3 to 8) (size 9 to 14) (size 15 to 20)
#    0.000    1.571    2.143    1.500    4.000    4.286 
#    0.000    4.286    0.000    0.000    0.000    0.000 
#    0.000    0.000    0.000    0.000    0.000    0.000 
#
# Total GULP energy -156607.098749 kJ/mol
# GULP energy per Si atom -5593.110670 kJ/mol
# Density = 2.181632 g / cm^3
# Si number density = 21.866086 Si / 1000 Ang^3
#
#
#
# Elastic Constant Matrix: (Units=GPa)
#
#
# Indices 1 2 3 4 5 6 
#
# 1 40.3925 0.5489 -16.5936 0.0000 6.7642 0.0000
# 2 0.5489 61.9549 8.0753 0.0000 4.1152 0.0000
# 3 -16.5936 8.0753 98.4749 0.0000 5.4118 0.0000
# 4 0.0000 0.0000 0.0000 7.1721 0.0000 -9.5557
# 5 6.7642 4.1152 5.4118 0.0000 29.0459 0.0000
# 6 0.0000 0.0000 0.0000 -9.5557 0.0000 25.3196
#
#
#
# Elastic Compliance Matrix: (Units=1/GPa)
#
#
# Indices 1 2 3 4 5 6 
#
# 1 0.028143 -0.000430 0.005188 0.000000 -0.007460 0.000000
# 2 -0.000430 0.016447 -0.001312 0.000000 -0.001986 0.000000
# 3 0.005188 -0.001312 0.011309 0.000000 -0.003129 0.000000
# 4 0.000000 0.000000 0.000000 0.280447 0.000000 0.105842
# 5 -0.007460 -0.001986 -0.003129 0.000000 0.037030 0.000000
# 6 0.000000 0.000000 0.000000 0.105842 0.000000 0.079440
#
#
# Mechanical properties :
#
#
# Convention : Reuss Voigt Hill
#
# Bulk Modulus (GPa) = 15.92608 20.54260 18.23434
# Shear Modulus (GPa) = 10.70996 26.22697 18.46847
#
# Velocity S-wave (km/s) = 2.21554 3.46704 2.90938
# Velocity P-wave (km/s) = 3.72076 5.04404 4.43207
#
# Compressibility (1/GPa) = 0.06279009
#
# Stress axis : x y z
#
# Youngs Moduli (GPa) = 35.53261 60.79953 88.42858
#
# Poissons Ratio (x) = 0.02614 -0.45872
# Poissons Ratio (y) = 0.01528 0.11603
# Poissons Ratio (z) = -0.18433 0.07977
#
# Static dielectric constant tensor:
#      x y z
#    x 1.781270 0.000000 0.027240 
#    y 0.000000 1.801300 0.000000 
#    z 0.027240 0.000000 1.771440 
# 
# From -- ./inp_files/92009.got.cif
#   From: 2010.05.17/outbox.cif.g08.bks.cpg/sg10_47_cif.got.tgz:92009.got - 2010.06.03 11:33:40.
