data_PCOD9152327
_publ_section_title
;
Structure prediction by ZEFSAII (Michael W. Deem and Ramdas Pophale) SiO2 
 PCOD9152327
Probable space group: P 2/M
;
_chemical_formula_sum "Si O2"
_cell_formula_units_Z 32
_cell_length_a 13.611089
_cell_length_b 8.391431
_cell_length_c 15.344756
_cell_angle_alpha 90.000000
_cell_angle_beta 58.743013
_cell_angle_gamma 90.000000
_cell_volume 1498.228639
_symmetry_space_group_name_H-M "P 2/M"
_symmetry_group_IT_number 10
_symmetry_cell_setting 'monoclinic'
loop_
_space_group_symop_operation_xyz
x,y,z
-x,y,-z
-x,-y,-z
x,-y,z
loop_
_atom_site_type_symbol
_atom_site_label
_atom_site_fract_x
_atom_site_fract_y
_atom_site_fract_z
Si Si1 0.868122 0.686653 0.579448
Si Si2 0.434651 0.188637 0.940168
Si Si3 0.083830 0.816729 0.266289
Si Si4 0.819139 0.686506 0.955287
Si Si5 0.319083 0.186431 0.465999
Si Si6 0.847280 0.310925 0.322702
Si Si7 0.524577 0.309049 0.259835
Si Si8 0.791119 0.693750 0.157610
O O1 0.857529 0.500000 0.561580
O O2 0.853230 0.712786 0.689405
O O3 0.775753 0.780316 0.565466
O O4 0.000000 0.736359 0.500000
O O5 0.504669 0.233640 0.820928
O O6 0.406509 0.000000 0.950630
O O7 0.500000 0.220539 0.000000
O O8 0.318052 0.290409 0.989607
O O9 0.126228 0.778497 0.149890
O O10 0.949277 0.774635 0.326951
O O11 0.102671 0.000000 0.279316
O O12 0.850276 0.500000 0.933952
O O13 0.847031 0.744796 0.040444
O O14 0.271227 0.274039 0.573727
O O15 0.438017 0.251756 0.373524
O O16 0.327379 0.000000 0.479783
O O17 0.868810 0.500000 0.314703
O O18 0.845515 0.254883 0.223430
O O19 0.519501 0.500000 0.255201
O O20 0.656424 0.261333 0.218821
O O21 0.794612 0.500000 0.155053
#
# Coordination Sequence:
#
# PCOD9152327 Si02
#       8
#     4   4   4   4   4   4   4   4
#     4  11  23  41  65  88 116 159 206 248 296 357
#     4  10  21  37  57  85 122 157 196 247 306 357
#     4  12  25  40  60  91 127 160 197 247 308 362
#     4  10  21  40  63  88 119 159 207 248 295 356
#     4  12  25  40  60  91 127 160 197 247 308 362
#     4  11  22  41  65  89 118 157 208 254 299 358
#     4  10  21  40  63  88 119 159 207 248 295 356
#     4   8  19  40  66  90 116 156 205 258 299 342
#
# _framework density 21.358556
#
# number of rings (size 3 to 8) (size 9 to 14) (size 15 to 20)
#    0.000    1.500    1.250    4.875    1.750    2.500 
#    0.000   12.500    0.000    0.000    0.000    0.000 
#    0.000    0.000    0.000    0.000    0.000    0.000 
#
# Total GULP energy -178920.868826 kJ/mol
# GULP energy per Si atom -5591.277151 kJ/mol
# Density = 2.130994 g / cm^3
# Si number density = 21.358556 Si / 1000 Ang^3
#
#
#
# Elastic Constant Matrix: (Units=GPa)
#
#
# Indices 1 2 3 4 5 6 
#
# 1 23.9835 -2.6156 -1.3272 0.0000 17.6535 0.0000
# 2 -2.6156 37.9285 -11.7466 0.0000 -0.4827 0.0000
# 3 -1.3272 -11.7466 90.2370 0.0000 8.4403 0.0000
# 4 0.0000 0.0000 0.0000 18.4578 0.0000 -14.4004
# 5 17.6535 -0.4827 8.4403 0.0000 37.8414 0.0000
# 6 0.0000 0.0000 0.0000 -14.4004 0.0000 21.5350
#
#
#
# Elastic Compliance Matrix: (Units=1/GPa)
#
#
# Indices 1 2 3 4 5 6 
#
# 1 0.065907 0.005585 0.004663 0.000000 -0.031715 0.000000
# 2 0.005585 0.027954 0.004015 0.000000 -0.003145 0.000000
# 3 0.004663 0.004015 0.012125 0.000000 -0.004828 0.000000
# 4 0.000000 0.000000 0.000000 0.113273 0.000000 0.075746
# 5 -0.031715 -0.003145 -0.004828 0.000000 0.042259 0.000000
# 6 0.000000 0.000000 0.000000 0.075746 0.000000 0.097087
#
#
# Mechanical properties :
#
#
# Convention : Reuss Voigt Hill
#
# Bulk Modulus (GPa) = 7.43422 13.41893 10.42657
# Shear Modulus (GPa) = 13.33633 26.75604 20.04619
#
# Velocity S-wave (km/s) = 2.50151 3.54320 3.06691
# Velocity P-wave (km/s) = 3.43972 4.79952 4.17535
#
# Compressibility (1/GPa) = 0.13451314
#
# Stress axis : x y z
#
# Youngs Moduli (GPa) = 15.17288 35.77291 82.47548
#
# Poissons Ratio (x) = -0.19981 -0.38458
# Poissons Ratio (y) = -0.08475 -0.33116
# Poissons Ratio (z) = -0.07075 -0.14364
#
# Static dielectric constant tensor:
#      x y z
#    x 1.755990 0.000000 -0.004240 
#    y 0.000000 1.717320 0.000000 
#    z -0.004240 0.000000 1.810610 
# 
# From -- ./inp_files/66497.got.cif
#   From: 2010.05.17/outbox.cif.g08.bks.cpg/sg10_34_cif.got.tgz:66497.got - 2010.06.03 11:33:40.
