data_PCOD9152232
_publ_section_title
;
Structure prediction by ZEFSAII (Michael W. Deem and Ramdas Pophale) SiO2 
 PCOD9152232
Probable space group: P 2/M
;
_chemical_formula_sum "Si O2"
_cell_formula_units_Z 24
_cell_length_a 16.815405
_cell_length_b 9.391765
_cell_length_c 7.997073
_cell_angle_alpha 90.000000
_cell_angle_beta 90.455608
_cell_angle_gamma 90.000000
_cell_volume 1262.908478
_symmetry_space_group_name_H-M "P 2/M"
_symmetry_group_IT_number 10
_symmetry_cell_setting 'monoclinic'
loop_
_space_group_symop_operation_xyz
x,y,z
-x,y,-z
-x,-y,-z
x,-y,z
loop_
_atom_site_type_symbol
_atom_site_label
_atom_site_fract_x
_atom_site_fract_y
_atom_site_fract_z
Si Si1 0.838818 0.331388 0.316403
Si Si2 0.992941 0.834639 0.199335
Si Si3 0.834264 0.832085 0.653577
Si Si4 0.326997 0.669317 0.849077
Si Si5 0.595166 0.666155 0.504209
Si Si6 0.670078 0.168230 0.816495
O O1 0.847729 0.500000 0.335185
O O2 0.920908 0.260851 0.260891
O O3 0.815645 0.261385 0.492031
O O4 0.766526 0.304920 0.187672
O O5 0.078057 0.795348 0.278847
O O6 0.976738 0.000000 0.243659
O O7 0.000000 0.825342 0.000000
O O8 0.764918 0.812207 0.787765
O O9 0.834314 0.000000 0.609100
O O10 0.338855 0.500000 0.876061
O O11 0.371461 0.708748 0.677446
O O12 0.353450 0.755622 0.011818
O O13 0.500000 0.673702 0.500000
O O14 0.618782 0.500000 0.530761
O O15 0.628652 0.760375 0.655481
O O16 0.653750 0.000000 0.822125
#
# Coordination Sequence:
#
# PCOD9152232 Si02
#       6
#     4   4   4   4   4   4
#     4  11  22  36  57  85 116 153 199 252 302 347
#     4  10  21  37  55  78 114 157 202 246 292 356
#     4  10  21  37  57  82 114 158 202 242 296 357
#     4  10  22  40  62  89 122 161 202 246 300 363
#     4  10  22  43  68  91 121 162 203 244 298 368
#     4  11  23  39  64  94 123 159 202 252 304 355
#
# _framework density 19.003753
#
# number of rings (size 3 to 8) (size 9 to 14) (size 15 to 20)
#    0.000    1.667    1.667    2.500    0.000    8.000 
#    0.000    3.333    0.000    0.000    0.000    0.000 
#    0.000    0.000    0.000    0.000    0.000    0.000 
#
# Total GULP energy -134102.622228 kJ/mol
# GULP energy per Si atom -5587.609259 kJ/mol
# Density = 1.896050 g / cm^3
# Si number density = 19.003753 Si / 1000 Ang^3
#
#
#
# Elastic Constant Matrix: (Units=GPa)
#
#
# Indices 1 2 3 4 5 6 
#
# 1 72.7961 44.1745 41.2386 0.0000 -5.1914 0.0000
# 2 44.1745 72.8444 82.2932 0.0000 -3.0926 0.0000
# 3 41.2386 82.2932 149.8774 0.0000 -10.0947 0.0000
# 4 0.0000 0.0000 0.0000 33.3312 0.0000 -0.2472
# 5 -5.1914 -3.0926 -10.0947 0.0000 9.0527 0.0000
# 6 0.0000 0.0000 0.0000 -0.2472 0.0000 21.1228
#
#
#
# Elastic Compliance Matrix: (Units=1/GPa)
#
#
# Indices 1 2 3 4 5 6 
#
# 1 0.023586 -0.019467 0.005041 0.000000 0.012496 0.000000
# 2 -0.019467 0.053183 -0.025271 0.000000 -0.021175 0.000000
# 3 0.005041 -0.025271 0.020299 0.000000 0.016893 0.000000
# 4 0.000000 0.000000 0.000000 0.030005 0.000000 0.000351
# 5 0.012496 -0.021175 0.016893 0.000000 0.129234 0.000000
# 6 0.000000 0.000000 0.000000 0.000351 0.000000 0.047346
#
#
# Mechanical properties :
#
#
# Convention : Reuss Voigt Hill
#
# Bulk Modulus (GPa) = 56.58445 70.10340 63.34392
# Shear Modulus (GPa) = 12.85550 21.22210 17.03880
#
# Velocity S-wave (km/s) = 2.60373 3.34538 2.99758
# Velocity P-wave (km/s) = 6.23532 7.20357 6.73686
#
# Compressibility (1/GPa) = 0.01767270
#
# Stress axis : x y z
#
# Youngs Moduli (GPa) = 42.39875 18.80286 49.26443
#
# Poissons Ratio (x) = 0.36604 -0.24834
# Poissons Ratio (y) = 0.82538 1.24498
# Poissons Ratio (z) = -0.21373 0.47517
#
# Static dielectric constant tensor:
#      x y z
#    x 1.667230 0.000000 -0.006020 
#    y 0.000000 1.634980 0.000000 
#    z -0.006020 0.000000 1.639020 
# 
# From -- ./inp_files/27322.got.cif
#   From: 2010.05.17/outbox.cif.g08.bks.cpg/sg10_14_cif.got.tgz:27322.got - 2010.06.03 11:33:40.
