data_PCOD9152532
_publ_section_title
;
Structure prediction by ZEFSAII (Michael W. Deem and Ramdas Pophale) SiO2 
 PCOD9152532
Probable space group: P 2/M
;
_chemical_formula_sum "Si O2"
_cell_formula_units_Z 28
_cell_length_a 15.136555
_cell_length_b 7.647977
_cell_length_c 20.377980
_cell_angle_alpha 90.000000
_cell_angle_beta 147.281264
_cell_angle_gamma 90.000000
_cell_volume 1275.095979
_symmetry_space_group_name_H-M "P 2/M"
_symmetry_group_IT_number 10
_symmetry_cell_setting 'monoclinic'
loop_
_space_group_symop_operation_xyz
x,y,z
-x,y,-z
-x,-y,-z
x,-y,z
loop_
_atom_site_type_symbol
_atom_site_label
_atom_site_fract_x
_atom_site_fract_y
_atom_site_fract_z
Si Si1 0.287700 0.705990 0.429610
Si Si2 0.866181 0.795810 0.366807
Si Si3 0.461567 0.300002 0.768326
Si Si4 0.788366 0.204782 0.040599
Si Si5 0.124070 0.287963 0.192532
Si Si6 0.421945 0.285282 0.299438
Si Si7 0.049740 0.211873 0.723234
O O1 0.314713 0.500000 0.435624
O O2 0.220140 0.774972 0.318240
O O3 0.453249 0.773408 0.565534
O O4 0.138272 0.731633 0.386603
O O5 0.688769 0.785668 0.288174
O O6 0.877028 0.724449 0.299700
O O7 0.000000 0.717760 0.500000
O O8 0.909680 0.000000 0.386195
O O9 0.410970 0.500000 0.725786
O O10 0.510695 0.223621 0.728247
O O11 0.625562 0.294251 0.913618
O O12 0.854256 0.273550 0.151821
O O13 0.939042 0.225856 0.084268
O O14 0.751034 0.000000 0.024153
O O15 0.117562 0.500000 0.189668
O O16 0.237516 0.234446 0.202729
O O17 0.423605 0.500000 0.299236
O O18 0.053427 0.000000 0.728724
#
# Coordination Sequence:
#
# PCOD9152532 Si02
#       7
#     4   4   4   4   4   4   4
#     4   9  16  29  53  82 107 133 170 213 256 307
#     4  10  21  38  59  82 107 135 167 205 257 317
#     4  11  23  37  54  77 106 139 176 216 256 301
#     4  10  21  38  55  74 104 138 176 217 257 303
#     4   9  17  32  55  79 104 136 174 213 255 308
#     4   9  18  32  51  77 108 140 171 210 262 310
#     4   9  19  35  55  77 104 139 171 208 261 311
#
# _framework density 21.959132
#
# number of rings (size 3 to 8) (size 9 to 14) (size 15 to 20)
#    0.000    2.429    0.000    2.143    0.000    4.286 
#    0.000    8.571    0.000    3.429    0.000    0.000 
#    0.000    0.000    0.000    0.000    0.000    0.000 
#
# Total GULP energy -156349.093325 kJ/mol
# GULP energy per Si atom -5583.896190 kJ/mol
# Density = 2.190915 g / cm^3
# Si number density = 21.959132 Si / 1000 Ang^3
#
#
#
# Elastic Constant Matrix: (Units=GPa)
#
#
# Indices 1 2 3 4 5 6 
#
# 1 111.2680 -13.6027 16.7711 0.0000 21.9133 0.0000
# 2 -13.6027 39.5084 -13.6342 0.0000 -6.2693 0.0000
# 3 16.7711 -13.6342 82.6865 0.0000 21.9385 0.0000
# 4 0.0000 0.0000 0.0000 15.7212 0.0000 8.8415
# 5 21.9133 -6.2693 21.9385 0.0000 19.0755 0.0000
# 6 0.0000 0.0000 0.0000 8.8415 0.0000 18.4897
#
#
#
# Elastic Compliance Matrix: (Units=1/GPa)
#
#
# Indices 1 2 3 4 5 6 
#
# 1 0.011992 0.002398 0.002028 0.000000 -0.015320 0.000000
# 2 0.002398 0.027705 0.003449 0.000000 0.002384 0.000000
# 3 0.002028 0.003449 0.018088 0.000000 -0.021999 0.000000
# 4 0.000000 0.000000 0.000000 0.087006 0.000000 -0.041605
# 5 -0.015320 0.002384 -0.021999 0.000000 0.096107 0.000000
# 6 0.000000 0.000000 0.000000 -0.041605 0.000000 0.073979
#
#
# Mechanical properties :
#
#
# Convention : Reuss Voigt Hill
#
# Bulk Modulus (GPa) = 13.59897 23.61459 18.60678
# Shear Modulus (GPa) = 15.44929 26.91919 21.18424
#
# Velocity S-wave (km/s) = 2.65532 3.50505 3.10935
# Velocity P-wave (km/s) = 3.95061 5.21131 4.62412
#
# Compressibility (1/GPa) = 0.07353496
#
# Stress axis : x y z
#
# Youngs Moduli (GPa) = 83.38937 36.09420 55.28494
#
# Poissons Ratio (x) = -0.08654 -0.11211
# Poissons Ratio (y) = -0.19993 -0.19070
# Poissons Ratio (z) = -0.16910 -0.12451
#
# Static dielectric constant tensor:
#      x y z
#    x 1.808580 0.000000 -0.039790 
#    y 0.000000 1.836190 0.000000 
#    z -0.039790 0.000000 1.772590 
# 
# From -- ./inp_files/49555.got.cif
#   From: 2010.05.17/outbox.cif.g08.bks.cpg/sg10_25_cif.got.tgz:49555.got - 2010.06.03 11:33:40.
