data_PCOD9152895
_publ_section_title
;
Structure prediction by ZEFSAII (Michael W. Deem and Ramdas Pophale) SiO2 
 PCOD9152895
Probable space group: P 2/M
;
_chemical_formula_sum "Si O2"
_cell_formula_units_Z 32
_cell_length_a 32.465182
_cell_length_b 8.939234
_cell_length_c 12.417172
_cell_angle_alpha 90.000000
_cell_angle_beta 28.130398
_cell_angle_gamma 90.000000
_cell_volume 1699.041381
_symmetry_space_group_name_H-M "P 2/M"
_symmetry_group_IT_number 10
_symmetry_cell_setting 'monoclinic'
loop_
_space_group_symop_operation_xyz
x,y,z
-x,y,-z
-x,-y,-z
x,-y,z
loop_
_atom_site_type_symbol
_atom_site_label
_atom_site_fract_x
_atom_site_fract_y
_atom_site_fract_z
Si Si1 0.643376 0.679698 0.683303
Si Si2 0.757996 0.819639 0.969533
Si Si3 0.908307 0.320238 0.767632
Si Si4 0.817740 0.821409 0.366867
Si Si5 0.849762 0.179993 0.537001
Si Si6 0.959056 0.320949 0.891829
Si Si7 0.514443 0.320555 0.792513
Si Si8 0.558542 0.180574 0.466188
O O1 0.655980 0.500000 0.653923
O O2 0.733646 0.759845 0.498621
O O3 0.596578 0.721263 0.679152
O O4 0.572894 0.715903 0.938979
O O5 0.659118 0.770539 0.220398
O O6 0.760610 0.000000 0.970476
O O7 0.827436 0.753496 0.893213
O O8 0.788601 0.777729 0.778316
O O9 0.901210 0.500000 0.774171
O O10 0.914756 0.282856 0.879004
O O11 0.000000 0.275451 0.500000
O O12 0.812281 0.781538 0.505917
O O13 0.822560 0.000000 0.346896
O O14 0.903383 0.749925 0.116174
O O15 0.943263 0.257660 0.334356
O O16 0.861685 0.000000 0.512672
O O17 0.960881 0.500000 0.897576
O O18 0.516443 0.500000 0.775553
O O19 0.520386 0.242484 0.664829
O O20 0.500000 0.228619 0.500000
O O21 0.557536 0.000000 0.471540
#
# Coordination Sequence:
#
# PCOD9152895 Si02
#       8
#     4   4   4   4   4   4   4   4
#     4   9  20  40  62  86 115 151 192 241 296 344
#     4  10  22  39  60  87 117 156 198 239 293 349
#     4  10  21  39  60  86 117 152 196 243 291 346
#     4  11  24  38  59  88 118 152 195 242 289 346
#     4  10  22  40  59  82 117 156 196 241 290 344
#     4  11  23  39  60  85 118 156 194 240 294 344
#     4   9  20  40  63  85 116 152 192 241 292 348
#     4  10  23  40  61  89 124 158 194 243 294 350
#
# _framework density 18.834150000000001
#
# number of rings (size 3 to 8) (size 9 to 14) (size 15 to 20)
#    0.000    2.000    1.250    1.875    3.500    5.500 
#    0.000    1.250    0.000    0.000    0.000    0.000 
#    0.000    0.000    0.000    0.000    0.000    0.000 
#
# Total GULP energy -178770.723167 kJ/mol
# GULP energy per Si atom -5586.585099 kJ/mol
# Density = 1.879128 g / cm^3
# Si number density = 18.834150 Si / 1000 Ang^3
#
#
#
# Elastic Constant Matrix: (Units=GPa)
#
#
# Indices 1 2 3 4 5 6 
#
# 1 87.7458 19.6412 23.4268 0.0000 7.6950 0.0000
# 2 19.6412 10.3764 12.5808 0.0000 3.6076 0.0000
# 3 23.4268 12.5808 39.4827 0.0000 -3.7468 0.0000
# 4 0.0000 0.0000 0.0000 49.8087 0.0000 0.3423
# 5 7.6950 3.6076 -3.7468 0.0000 31.0805 0.0000
# 6 0.0000 0.0000 0.0000 0.3423 0.0000 15.7748
#
#
#
# Elastic Compliance Matrix: (Units=1/GPa)
#
#
# Indices 1 2 3 4 5 6 
#
# 1 0.019786 -0.037430 0.000136 0.000000 -0.000538 0.000000
# 2 -0.037430 0.248829 -0.059622 0.000000 -0.026803 0.000000
# 3 0.000136 -0.059622 0.045418 0.000000 0.012362 0.000000
# 4 0.000000 0.000000 0.000000 0.020080 0.000000 -0.000436
# 5 -0.000538 -0.026803 0.012362 0.000000 0.036909 0.000000
# 6 0.000000 0.000000 0.000000 -0.000436 0.000000 0.063402
#
#
# Mechanical properties :
#
#
# Convention : Reuss Voigt Hill
#
# Bulk Modulus (GPa) = 8.31940 27.65584 17.98762
# Shear Modulus (GPa) = 7.48143 24.79654 16.13898
#
# Velocity S-wave (km/s) = 1.99522 3.63240 2.93046
# Velocity P-wave (km/s) = 3.12004 5.68403 4.58491
#
# Compressibility (1/GPa) = 0.12020102
#
# Stress axis : x y z
#
# Youngs Moduli (GPa) = 50.54141 4.01883 22.01767
#
# Poissons Ratio (x) = 0.15042 -0.00299
# Poissons Ratio (y) = 1.89175 1.31274
# Poissons Ratio (z) = -0.00687 0.23961
#
# Static dielectric constant tensor:
#      x y z
#    x 1.636210 0.000000 0.011760 
#    y 0.000000 1.630360 0.000000 
#    z 0.011760 0.000000 1.630720 
# 
# From -- ./inp_files/58179.got.cif
#   From: 2010.05.17/outbox.cif.g08.bks.cpg/sg10_30_cif.got.tgz:58179.got - 2010.06.03 11:33:40.
