data_PCOD9152138
_publ_section_title
;
Structure prediction by ZEFSAII (Michael W. Deem and Ramdas Pophale) SiO2 
 PCOD9152138
Probable space group: P 2/M
;
_chemical_formula_sum "Si O2"
_cell_formula_units_Z 32
_cell_length_a 8.068499
_cell_length_b 20.365437
_cell_length_c 12.887041
_cell_angle_alpha 90.000000
_cell_angle_beta 130.807301
_cell_angle_gamma 90.000000
_cell_volume 1602.820769
_symmetry_space_group_name_H-M "P 2/M"
_symmetry_group_IT_number 10
_symmetry_cell_setting 'monoclinic'
loop_
_space_group_symop_operation_xyz
x,y,z
-x,y,-z
-x,-y,-z
x,-y,z
loop_
_atom_site_type_symbol
_atom_site_label
_atom_site_fract_x
_atom_site_fract_y
_atom_site_fract_z
Si Si1 0.253188 0.424979 0.568967
Si Si2 0.753292 0.680870 0.598566
Si Si3 0.529356 0.323027 0.186702
Si Si4 0.866259 0.815555 0.549632
Si Si5 0.988175 0.159863 0.166372
Si Si6 0.837860 0.697230 0.113167
Si Si7 0.457836 0.818846 0.259847
Si Si8 0.622590 0.925497 0.940096
O O1 0.329618 0.500000 0.598105
O O2 0.252487 0.389126 0.458238
O O3 0.394158 0.379109 0.703212
O O4 0.000000 0.424254 0.500000
O O5 0.500000 0.701896 0.500000
O O6 0.867829 0.737541 0.576441
O O7 0.907823 0.679023 0.763075
O O8 0.702486 0.319384 0.162319
O O9 0.520817 0.252658 0.240866
O O10 0.293128 0.333650 0.036111
O O11 0.958328 0.849325 0.690356
O O12 0.618942 0.833824 0.420767
O O13 0.000000 0.828065 0.500000
O O14 0.210301 0.178572 0.198613
O O15 0.832974 0.224019 0.095567
O O16 0.867267 0.099399 0.064716
O O17 0.481792 0.873939 0.181868
O O18 0.616381 0.000000 0.898897
O O19 0.500000 0.922275 0.000000
#
# Coordination Sequence:
#
# PCOD9152138 Si02
#       8
#     4   4   4   4   4   4   4   4
#     4  11  23  41  62  87 122 167 215 259 320 391
#     4  11  21  37  59  89 120 159 205 258 318 377
#     4  11  21  37  62  88 123 159 208 266 312 375
#     4  11  21  36  62  91 124 156 208 265 308 366
#     4  11  23  37  59  96 127 160 206 258 321 370
#     4  10  21  36  58  91 121 156 207 259 312 370
#     4  12  22  37  62  95 127 163 205 263 316 370
#     4  11  24  43  64  90 129 174 214 251 305 378
#
# _framework density 19.964801999999999
#
# number of rings (size 3 to 8) (size 9 to 14) (size 15 to 20)
#    0.000    1.000    3.750    5.625    0.000    1.250 
#    0.000    2.500    0.000    4.500    0.000    0.000 
#    0.000    0.000    0.000    0.000    0.000    0.000 
#
# Total GULP energy -178855.638461 kJ/mol
# GULP energy per Si atom -5589.238702 kJ/mol
# Density = 1.991936 g / cm^3
# Si number density = 19.964802 Si / 1000 Ang^3
#
#
#
# Elastic Constant Matrix: (Units=GPa)
#
#
# Indices 1 2 3 4 5 6 
#
# 1 36.7804 12.2388 3.4072 0.0000 1.0084 0.0000
# 2 12.2388 111.8792 45.3642 0.0000 -11.0494 0.0000
# 3 3.4072 45.3642 143.6547 0.0000 3.8788 0.0000
# 4 0.0000 0.0000 0.0000 27.2856 0.0000 2.9893
# 5 1.0084 -11.0494 3.8788 0.0000 29.2617 0.0000
# 6 0.0000 0.0000 0.0000 2.9893 0.0000 8.6398
#
#
#
# Elastic Compliance Matrix: (Units=1/GPa)
#
#
# Indices 1 2 3 4 5 6 
#
# 1 0.028387 -0.003548 0.000512 0.000000 -0.002386 0.000000
# 2 -0.003548 0.011268 -0.003605 0.000000 0.004855 0.000000
# 3 0.000512 -0.003605 0.008154 0.000000 -0.002460 0.000000
# 4 0.000000 0.000000 0.000000 0.038093 0.000000 -0.013180
# 5 -0.002386 0.004855 -0.002460 0.000000 0.036416 0.000000
# 6 0.000000 0.000000 0.000000 -0.013180 0.000000 0.120303
#
#
# Mechanical properties :
#
#
# Convention : Reuss Voigt Hill
#
# Bulk Modulus (GPa) = 28.96456 46.03720 37.50088
# Shear Modulus (GPa) = 18.69766 28.45769 23.57767
#
# Velocity S-wave (km/s) = 3.06360 3.77953 3.44024
# Velocity P-wave (km/s) = 5.20130 6.49274 5.88257
#
# Compressibility (1/GPa) = 0.03452495
#
# Stress axis : x y z
#
# Youngs Moduli (GPa) = 35.22712 88.74965 122.64138
#
# Poissons Ratio (x) = 0.31493 -0.06276
# Poissons Ratio (y) = 0.12500 0.44213
# Poissons Ratio (z) = -0.01803 0.31995
#
# Static dielectric constant tensor:
#      x y z
#    x 1.759980 0.000000 0.021480 
#    y 0.000000 1.665060 0.000000 
#    z 0.021480 0.000000 1.751200 
# 
# From -- ./inp_files/62511.got.cif
#   From: 2010.05.17/outbox.cif.g08.bks.cpg/sg10_32_cif.got.tgz:62511.got - 2010.06.03 11:33:40.
