data_PCOD9152555
_publ_section_title
;
Structure prediction by ZEFSAII (Michael W. Deem and Ramdas Pophale) SiO2 
 PCOD9152555
Probable space group: P 2/M
;
_chemical_formula_sum "Si O2"
_cell_formula_units_Z 28
_cell_length_a 12.755530
_cell_length_b 8.964897
_cell_length_c 15.231844
_cell_angle_alpha 90.000000
_cell_angle_beta 105.253133
_cell_angle_gamma 90.000000
_cell_volume 1680.433805
_symmetry_space_group_name_H-M "P 2/M"
_symmetry_group_IT_number 10
_symmetry_cell_setting 'monoclinic'
loop_
_space_group_symop_operation_xyz
x,y,z
-x,y,-z
-x,-y,-z
x,-y,z
loop_
_atom_site_type_symbol
_atom_site_label
_atom_site_fract_x
_atom_site_fract_y
_atom_site_fract_z
Si Si1 0.474975 0.678354 0.096154
Si Si2 0.868419 0.822361 0.115207
Si Si3 0.899824 0.677632 0.790944
Si Si4 0.751606 0.177022 0.903739
Si Si5 0.708788 0.677788 0.223241
Si Si6 0.084647 0.821710 0.390743
Si Si7 0.160907 0.821933 0.599178
O O1 0.454698 0.500000 0.095822
O O2 0.369473 0.764336 0.105692
O O3 0.583440 0.712395 0.175010
O O4 0.500000 0.715430 0.000000
O O5 0.784186 0.757166 0.167327
O O6 0.984628 0.746071 0.153779
O O7 0.879674 0.000000 0.131035
O O8 0.820868 0.795451 0.007797
O O9 0.904688 0.500000 0.794987
O O10 0.808667 0.739271 0.836254
O O11 0.880862 0.734197 0.687724
O O12 0.751637 0.000000 0.887795
O O13 0.723100 0.500000 0.218686
O O14 0.749665 0.734658 0.326241
O O15 0.149552 0.783826 0.493972
O O16 0.957434 0.791620 0.383672
O O17 0.094156 0.000000 0.378548
O O18 0.178672 0.000000 0.609871
#
# Coordination Sequence:
#
# PCOD9152555 Si02
#       7
#     4   4   4   4   4   4   4
#     4  10  21  38  57  79 112 147 182 228 276 321
#     4  11  22  36  54  79 112 147 185 226 268 321
#     4  12  24  36  55  82 113 148 182 223 278 332
#     4  11  24  39  57  79 107 148 193 230 267 321
#     4  11  21  33  55  84 114 146 180 224 276 323
#     4   9  18  34  55  80 111 145 181 221 272 326
#     4   9  18  33  55  81 111 146 179 223 274 323
#
# _framework density 16.662364
#
# number of rings (size 3 to 8) (size 9 to 14) (size 15 to 20)
#    0.000    1.571    2.857    3.857    0.000    5.429 
#    0.000    1.429    0.000    0.857    0.000    6.000 
#    0.000    0.000    0.000    0.000    0.000    0.000 
#
# Total GULP energy -156434.551351 kJ/mol
# GULP energy per Si atom -5586.948263 kJ/mol
# Density = 1.662444 g / cm^3
# Si number density = 16.662364 Si / 1000 Ang^3
#
#
#
# Elastic Constant Matrix: (Units=GPa)
#
#
# Indices 1 2 3 4 5 6 
#
# 1 101.6582 63.4329 75.5129 0.0000 -11.3644 0.0000
# 2 63.4329 83.1932 84.2428 0.0000 -5.0743 0.0000
# 3 75.5129 84.2428 144.7922 0.0000 2.5823 0.0000
# 4 0.0000 0.0000 0.0000 21.7031 0.0000 -8.5896
# 5 -11.3644 -5.0743 2.5823 0.0000 20.7467 0.0000
# 6 0.0000 0.0000 0.0000 -8.5896 0.0000 -162.7192
#
#
#
# Elastic Compliance Matrix: (Units=1/GPa)
#
#
# Indices 1 2 3 4 5 6 
#
# 1 0.021266 -0.010245 -0.005305 0.000000 0.009803 0.000000
# 2 -0.010245 0.036099 -0.015752 0.000000 0.005178 0.000000
# 3 -0.005305 -0.015752 0.019001 0.000000 -0.009123 0.000000
# 4 0.000000 0.000000 0.000000 0.045133 0.000000 -0.002382
# 5 0.009803 0.005178 -0.009123 0.000000 0.055972 0.000000
# 6 0.000000 0.000000 0.000000 -0.002382 0.000000 -0.006020
#
#
# Mechanical properties :
#
#
# Convention : Reuss Voigt Hill
#
# Bulk Modulus (GPa) = 72.66843 86.22454 79.44649
# Shear Modulus (GPa) = 20.95187 -16.95688 1.99750
#
# Velocity S-wave (km/s) = 3.54988 -3.19356 1.09609
# Velocity P-wave (km/s) = 7.77877 6.18563 7.02749
#
# Compressibility (1/GPa) = 0.01376113
#
# Stress axis : x y z
#
# Youngs Moduli (GPa) = 47.02306 27.70198 52.63019
#
# Poissons Ratio (x) = 0.28382 0.27919
# Poissons Ratio (y) = 0.48177 0.82903
# Poissons Ratio (z) = 0.24945 0.43636
#
# Static dielectric constant tensor:
#      x y z
#    x 1.524830 0.000000 0.004360 
#    y 0.000000 1.552830 0.000000 
#    z 0.004360 0.000000 1.564290 
# 
# From -- ./inp_files/49566.got.cif
#   From: 2010.05.17/outbox.cif.g08.bks.cpg/sg10_25_cif.got.tgz:49566.got - 2010.06.03 11:33:40.
