data_PCOD9152091
_publ_section_title
;
Structure prediction by ZEFSAII (Michael W. Deem and Ramdas Pophale) SiO2 
 PCOD9152091
Probable space group: P 2/M
;
_chemical_formula_sum "Si O2"
_cell_formula_units_Z 28
_cell_length_a 11.844954
_cell_length_b 14.497815
_cell_length_c 10.097009
_cell_angle_alpha 90.000000
_cell_angle_beta 123.027071
_cell_angle_gamma 90.000000
_cell_volume 1453.740045
_symmetry_space_group_name_H-M "P 2/M"
_symmetry_group_IT_number 10
_symmetry_cell_setting 'monoclinic'
loop_
_space_group_symop_operation_xyz
x,y,z
-x,y,-z
-x,-y,-z
x,-y,z
loop_
_atom_site_type_symbol
_atom_site_label
_atom_site_fract_x
_atom_site_fract_y
_atom_site_fract_z
Si Si1 0.646063 0.890919 0.030027
Si Si2 0.071279 0.899996 0.685495
Si Si3 0.143363 0.390925 0.520990
Si Si4 0.431605 0.604086 0.322810
Si Si5 0.393500 0.395070 0.827820
Si Si6 0.214539 0.256697 0.076695
Si Si7 0.945418 0.263541 0.767131
O O1 0.702419 0.821792 0.951068
O O2 0.638377 0.000000 0.983673
O O3 0.500000 0.867885 0.000000
O O4 0.767948 0.884114 0.214631
O O5 0.000000 0.902885 0.500000
O O6 0.994348 0.822446 0.714532
O O7 0.054764 0.000000 0.741320
O O8 0.173404 0.500000 0.516538
O O9 0.250468 0.352528 0.697462
O O10 0.133230 0.335062 0.377377
O O11 0.000000 0.384706 0.500000
O O12 0.500000 0.641639 0.500000
O O13 0.385560 0.500000 0.324157
O O14 0.537537 0.599877 0.271186
O O15 0.314299 0.664791 0.188671
O O16 0.367437 0.500000 0.861900
O O17 0.500000 0.353183 0.000000
O O18 0.142412 0.226370 0.166642
O O19 0.089865 0.299885 0.913801
#
# Coordination Sequence:
#
# PCOD9152091 Si02
#       7
#     4   4   4   4   4   4   4
#     4   9  19  39  64  89 118 149 189 242 298 358
#     4   9  18  36  62  86 111 151 192 232 289 349
#     4  10  21  36  57  83 116 157 197 244 302 346
#     4  10  21  38  57  77 112 159 204 241 287 351
#     4   9  19  35  55  79 107 143 195 249 290 341
#     4  10  22  37  56  87 115 155 199 239 295 351
#     4  10  21  37  55  83 123 150 194 246 287 354
#
# _framework density 19.260666000000001
#
# number of rings (size 3 to 8) (size 9 to 14) (size 15 to 20)
#    0.000    2.429    0.000    1.286    2.000    3.429 
#    7.714    4.286    0.000    0.429    0.000    0.000 
#    0.000    0.000    0.000    0.000    0.000    0.000 
#
# Total GULP energy -155961.763027 kJ/mol
# GULP energy per Si atom -5570.062965 kJ/mol
# Density = 1.921683 g / cm^3
# Si number density = 19.260666 Si / 1000 Ang^3
#
#
#
# Elastic Constant Matrix: (Units=GPa)
#
#
# Indices 1 2 3 4 5 6 
#
# 1 108.1167 35.4621 55.1215 0.0000 16.4653 0.0000
# 2 35.4621 62.4489 44.9705 0.0000 15.9816 0.0000
# 3 55.1215 44.9705 147.6030 0.0000 22.0573 0.0000
# 4 0.0000 0.0000 0.0000 21.0173 0.0000 -0.1721
# 5 16.4653 15.9816 22.0573 0.0000 31.2522 0.0000
# 6 0.0000 0.0000 0.0000 -0.1721 0.0000 3.7047
#
#
#
# Elastic Compliance Matrix: (Units=1/GPa)
#
#
# Indices 1 2 3 4 5 6 
#
# 1 0.012571 -0.004387 -0.003022 0.000000 -0.002247 0.000000
# 2 -0.004387 0.023423 -0.004531 0.000000 -0.006468 0.000000
# 3 -0.003022 -0.004531 0.009726 0.000000 -0.002955 0.000000
# 4 0.000000 0.000000 0.000000 0.047598 0.000000 0.002211
# 5 -0.002247 -0.006468 -0.002955 0.000000 0.038574 0.000000
# 6 0.000000 0.000000 0.000000 0.002211 0.000000 0.270031
#
#
# Mechanical properties :
#
#
# Convention : Reuss Voigt Hill
#
# Bulk Modulus (GPa) = 45.79167 65.47520 55.63344
# Shear Modulus (GPa) = 11.54509 23.36914 17.45712
#
# Velocity S-wave (km/s) = 2.45095 3.48704 3.01385
# Velocity P-wave (km/s) = 5.64233 7.09088 6.40767
#
# Compressibility (1/GPa) = 0.02183803
#
# Stress axis : x y z
#
# Youngs Moduli (GPa) = 79.54626 42.69330 102.82077
#
# Poissons Ratio (x) = 0.18731 0.31075
# Poissons Ratio (y) = 0.34900 0.46591
# Poissons Ratio (z) = 0.24041 0.19345
#
# Static dielectric constant tensor:
#      x y z
#    x 1.743250 0.000000 0.014460 
#    y 0.000000 1.703600 0.000000 
#    z 0.014460 0.000000 1.713790 
# 
# From -- ./inp_files/25388.got.cif
#   From: 2010.05.17/outbox.cif.g08.bks.cpg/sg10_13_cif.got.tgz:25388.got - 2010.06.03 11:33:40.
