data_PCOD9152408
_publ_section_title
;
Structure prediction by ZEFSAII (Michael W. Deem and Ramdas Pophale) SiO2 
 PCOD9152408
Probable space group: P 2/M
;
_chemical_formula_sum "Si O2"
_cell_formula_units_Z 28
_cell_length_a 23.031228
_cell_length_b 8.705304
_cell_length_c 9.148512
_cell_angle_alpha 90.000000
_cell_angle_beta 53.434364
_cell_angle_gamma 90.000000
_cell_volume 1473.199763
_symmetry_space_group_name_H-M "P 2/M"
_symmetry_group_IT_number 10
_symmetry_cell_setting 'monoclinic'
loop_
_space_group_symop_operation_xyz
x,y,z
-x,y,-z
-x,-y,-z
x,-y,z
loop_
_atom_site_type_symbol
_atom_site_label
_atom_site_fract_x
_atom_site_fract_y
_atom_site_fract_z
Si Si1 0.428288 0.314528 0.020599
Si Si2 0.571970 0.185538 0.305187
Si Si3 0.138546 0.185412 0.122023
Si Si4 0.143248 0.184309 0.456124
Si Si5 0.997836 0.684059 0.174026
Si Si6 0.284859 0.814462 0.732580
Si Si7 0.283153 0.315693 0.408917
O O1 0.429062 0.500000 0.012683
O O2 0.356313 0.267185 0.215697
O O3 0.500000 0.264438 0.000000
O O4 0.427816 0.250242 0.858109
O O5 0.500000 0.233878 0.500000
O O6 0.643687 0.233168 0.285710
O O7 0.572014 0.000000 0.297338
O O8 0.141557 0.229108 0.287912
O O9 0.070095 0.259308 0.145485
O O10 0.131580 0.000000 0.125192
O O11 0.212645 0.228876 0.929313
O O12 0.071697 0.243953 0.643615
O O13 0.213692 0.251155 0.429062
O O14 0.145491 0.000000 0.460588
O O15 0.993087 0.500000 0.189442
O O16 0.000000 0.728684 0.000000
O O17 0.284143 0.744451 0.572710
O O18 0.285825 0.000000 0.719119
O O19 0.280073 0.500000 0.414333
#
# Coordination Sequence:
#
# PCOD9152408 Si02
#       7
#     4   4   4   4   4   4   4
#     4  10  22  39  58  83 117 156 195 236 286 344
#     4  10  21  37  59  88 118 150 194 244 289 337
#     4  10  22  39  59  84 113 149 192 234 282 342
#     4  11  23  40  62  86 115 151 190 234 286 342
#     4  11  24  40  59  86 118 150 188 235 284 336
#     4  10  21  38  59  84 116 152 190 235 288 343
#     4  11  23  38  58  86 117 150 193 239 283 337
#
# _framework density 19.006246999999998
#
# number of rings (size 3 to 8) (size 9 to 14) (size 15 to 20)
#    0.000    1.571    0.000    4.286    0.000   10.286 
#    0.000    0.000    0.000    0.000    0.000    0.000 
#    0.000    0.000    0.000    0.000    0.000    0.000 
#
# Total GULP energy -156589.366784 kJ/mol
# GULP energy per Si atom -5592.477385 kJ/mol
# Density = 1.896299 g / cm^3
# Si number density = 19.006247 Si / 1000 Ang^3
#
#
#
# Elastic Constant Matrix: (Units=GPa)
#
#
# Indices 1 2 3 4 5 6 
#
# 1 235.7857 53.8475 143.9364 0.0000 0.3731 0.0000
# 2 53.8475 26.0900 56.5841 0.0000 0.9412 0.0000
# 3 143.9364 56.5841 234.7805 0.0000 1.6816 0.0000
# 4 0.0000 0.0000 0.0000 48.6520 0.0000 47.7625
# 5 0.3731 0.9412 1.6816 0.0000 45.5225 0.0000
# 6 0.0000 0.0000 0.0000 47.7625 0.0000 131.4908
#
#
#
# Elastic Compliance Matrix: (Units=1/GPa)
#
#
# Indices 1 2 3 4 5 6 
#
# 1 0.008473 -0.013047 -0.002052 0.000000 0.000276 0.000000
# 2 -0.013047 0.100434 -0.016197 0.000000 -0.001371 0.000000
# 3 -0.002052 -0.016197 0.009421 0.000000 0.000004 0.000000
# 4 0.000000 0.000000 0.000000 0.031946 0.000000 -0.011604
# 5 0.000276 -0.001371 0.000004 0.000000 0.021993 0.000000
# 6 0.000000 0.000000 0.000000 -0.011604 0.000000 0.011820
#
#
# Mechanical properties :
#
#
# Convention : Reuss Voigt Hill
#
# Bulk Modulus (GPa) = 17.94165 111.71021 64.82593
# Shear Modulus (GPa) = 18.84954 61.28560 40.06757
#
# Velocity S-wave (km/s) = 3.15263 5.68463 4.59641
# Velocity P-wave (km/s) = 4.76576 10.09900 7.89627
#
# Compressibility (1/GPa) = 0.05573624
#
# Stress axis : x y z
#
# Youngs Moduli (GPa) = 118.02208 9.95674 106.14631
#
# Poissons Ratio (x) = 0.12991 0.21782
# Poissons Ratio (y) = 1.53983 1.71926
# Poissons Ratio (z) = 0.24219 0.16127
#
# Static dielectric constant tensor:
#      x y z
#    x 1.618490 0.000000 -0.008760 
#    y 0.000000 1.646530 0.000000 
#    z -0.008760 0.000000 1.628120 
# 
# From -- ./inp_files/34181.got.cif
#   From: 2010.05.17/outbox.cif.g08.bks.cpg/sg10_18_cif.got.tgz:34181.got - 2010.06.03 11:33:40.
