data_PCOD9152351
_publ_section_title
;
Structure prediction by ZEFSAII (Michael W. Deem and Ramdas Pophale) SiO2 
 PCOD9152351
Probable space group: P 2/M
;
_chemical_formula_sum "Si O2"
_cell_formula_units_Z 28
_cell_length_a 12.895580
_cell_length_b 8.789529
_cell_length_c 14.931081
_cell_angle_alpha 90.000000
_cell_angle_beta 58.438527
_cell_angle_gamma 90.000000
_cell_volume 1442.041100
_symmetry_space_group_name_H-M "P 2/M"
_symmetry_group_IT_number 10
_symmetry_cell_setting 'monoclinic'
loop_
_space_group_symop_operation_xyz
x,y,z
-x,y,-z
-x,-y,-z
x,-y,z
loop_
_atom_site_type_symbol
_atom_site_label
_atom_site_fract_x
_atom_site_fract_y
_atom_site_fract_z
Si Si1 0.486048 0.314523 0.108436
Si Si2 0.466007 0.820671 0.412338
Si Si3 0.086266 0.181993 0.878889
Si Si4 0.816681 0.819319 0.502155
Si Si5 0.005259 0.681511 0.726704
Si Si6 0.218450 0.683201 0.290952
Si Si7 0.346379 0.680712 0.808289
O O1 0.484563 0.500000 0.108680
O O2 0.356450 0.266382 0.208432
O O3 0.596998 0.268272 0.122216
O O4 0.500000 0.263348 0.000000
O O5 0.500000 0.794059 0.500000
O O6 0.324019 0.790128 0.460307
O O7 0.550365 0.720714 0.310737
O O8 0.488065 0.000000 0.382846
O O9 0.038313 0.246197 0.806605
O O10 0.222056 0.238885 0.837499
O O11 0.086048 0.000000 0.874140
O O12 0.000000 0.230705 0.000000
O O13 0.902789 0.739289 0.391366
O O14 0.831838 0.757305 0.595716
O O15 0.838097 0.000000 0.490128
O O16 0.014649 0.500000 0.729956
O O17 0.870313 0.719305 0.751582
O O18 0.218426 0.500000 0.302545
O O19 0.326311 0.500000 0.820285
#
# Coordination Sequence:
#
# PCOD9152351 Si02
#       7
#     4   4   4   4   4   4   4
#     4   9  19  36  61  92 124 159 198 249 312 363
#     4  10  21  37  58  84 120 165 204 246 302 362
#     4  11  26  46  65  87 124 167 204 251 311 371
#     4  11  22  37  60  90 128 169 207 250 305 373
#     4  11  24  40  64  93 123 162 211 262 307 361
#     4  10  21  39  62  91 127 163 204 257 310 363
#     4  11  22  38  66  95 121 156 203 257 303 361
#
# _framework density 19.416920999999999
#
# number of rings (size 3 to 8) (size 9 to 14) (size 15 to 20)
#    0.000    1.571    1.429    3.000    2.000    6.000 
#    0.000    0.000    0.000    2.143    0.000    0.000 
#    0.000    0.000    0.000    0.000    0.000    0.000 
#
# Total GULP energy -156532.846459 kJ/mol
# GULP energy per Si atom -5590.458802 kJ/mol
# Density = 1.937273 g / cm^3
# Si number density = 19.416921 Si / 1000 Ang^3
#
#
#
# Elastic Constant Matrix: (Units=GPa)
#
#
# Indices 1 2 3 4 5 6 
#
# 1 138.7073 39.8489 35.8987 0.0000 24.6331 0.0000
# 2 39.8489 29.6614 19.7423 0.0000 6.0868 0.0000
# 3 35.8987 19.7423 74.2128 0.0000 22.6426 0.0000
# 4 0.0000 0.0000 0.0000 18.0577 0.0000 6.6841
# 5 24.6331 6.0868 22.6426 0.0000 32.2027 0.0000
# 6 0.0000 0.0000 0.0000 6.6841 0.0000 17.0157
#
#
#
# Elastic Compliance Matrix: (Units=1/GPa)
#
#
# Indices 1 2 3 4 5 6 
#
# 1 0.013086 -0.016225 0.000133 0.000000 -0.007037 0.000000
# 2 -0.016225 0.061085 -0.011032 0.000000 0.008622 0.000000
# 3 0.000133 -0.011032 0.020039 0.000000 -0.012106 0.000000
# 4 0.000000 0.000000 0.000000 0.064800 0.000000 -0.025455
# 5 -0.007037 0.008622 -0.012106 0.000000 0.043319 0.000000
# 6 0.000000 0.000000 0.000000 -0.025455 0.000000 0.068769
#
#
# Mechanical properties :
#
#
# Convention : Reuss Voigt Hill
#
# Bulk Modulus (GPa) = 25.02395 48.17346 36.59871
# Shear Modulus (GPa) = 14.76384 23.26131 19.01258
#
# Velocity S-wave (km/s) = 2.76045 3.46496 3.13257
# Velocity P-wave (km/s) = 4.80373 6.39311 5.65454
#
# Compressibility (1/GPa) = 0.03996171
#
# Stress axis : x y z
#
# Youngs Moduli (GPa) = 76.41855 16.37068 49.90292
#
# Poissons Ratio (x) = 0.26561 -0.00665
# Poissons Ratio (y) = 1.23988 0.55054
# Poissons Ratio (z) = -0.01018 0.18060
#
# Static dielectric constant tensor:
#      x y z
#    x 1.673600 0.000000 0.001440 
#    y 0.000000 1.653290 0.000000 
#    z 0.001440 0.000000 1.642020 
# 
# From -- ./inp_files/63681.got.cif
#   From: 2010.05.17/outbox.cif.g08.bks.cpg/sg10_32_cif.got.tgz:63681.got - 2010.06.03 11:33:40.
