data_PCOD9152358
_publ_section_title
;
Structure prediction by ZEFSAII (Michael W. Deem and Ramdas Pophale) SiO2 
 PCOD9152358
Probable space group: P 2/M
;
_chemical_formula_sum "Si O2"
_cell_formula_units_Z 32
_cell_length_a 26.321679
_cell_length_b 8.286422
_cell_length_c 15.343808
_cell_angle_alpha 90.000000
_cell_angle_beta 153.949755
_cell_angle_gamma 90.000000
_cell_volume 1469.723856
_symmetry_space_group_name_H-M "P 2/M"
_symmetry_group_IT_number 10
_symmetry_cell_setting 'monoclinic'
loop_
_space_group_symop_operation_xyz
x,y,z
-x,y,-z
-x,-y,-z
x,-y,z
loop_
_atom_site_type_symbol
_atom_site_label
_atom_site_fract_x
_atom_site_fract_y
_atom_site_fract_z
Si Si1 0.797375 0.194339 0.746914
Si Si2 0.329229 0.310731 0.120186
Si Si3 0.133576 0.189484 0.691430
Si Si4 0.916008 0.689067 0.562150
Si Si5 0.433375 0.310264 0.808516
Si Si6 0.840724 0.694451 0.002145
Si Si7 0.178864 0.812426 0.406007
Si Si8 0.531506 0.190919 0.317105
O O1 0.852569 0.252832 0.921087
O O2 0.851992 0.246953 0.738947
O O3 0.662281 0.246219 0.540132
O O4 0.800024 0.000000 0.749735
O O5 0.353866 0.500000 0.166865
O O6 0.275712 0.248889 0.128958
O O7 0.442285 0.227858 0.256103
O O8 0.225781 0.284389 0.891143
O O9 0.153199 0.217787 0.618848
O O10 0.000000 0.241935 0.500000
O O11 0.143134 0.000000 0.727134
O O12 0.914847 0.500000 0.538099
O O13 0.868086 0.714126 0.585069
O O14 0.048039 0.750564 0.771859
O O15 0.402007 0.500000 0.762287
O O16 0.317766 0.204546 0.623745
O O17 0.503239 0.275697 0.827362
O O18 0.500000 0.272852 0.000000
O O19 0.841289 0.500000 0.005962
O O20 0.144558 0.000000 0.362118
O O21 0.534170 0.000000 0.306047
#
# Coordination Sequence:
#
# PCOD9152358 Si02
#       8
#     4   4   4   4   4   4   4   4
#     4   9  21  41  63  85 117 157 196 248 304 351
#     4  11  23  40  61  88 122 160 200 245 297 356
#     4  11  23  39  61  88 119 158 199 245 299 354
#     4  11  23  40  61  88 122 160 200 245 297 356
#     4  10  21  37  58  85 116 155 198 241 297 356
#     4  10  23  40  61  88 118 156 201 249 300 351
#     4  10  22  40  60  87 120 156 199 246 298 352
#     4  10  22  40  60  87 120 156 199 246 298 352
#
# _framework density 21.772798999999999
#
# number of rings (size 3 to 8) (size 9 to 14) (size 15 to 20)
#    0.000    1.750    1.250    3.000    1.750    7.500 
#    0.000    5.000    0.000    0.000    0.000    0.000 
#    0.000    0.000    0.000    0.000    0.000    0.000 
#
# Total GULP energy -178828.115268 kJ/mol
# GULP energy per Si atom -5588.378602 kJ/mol
# Density = 2.172324 g / cm^3
# Si number density = 21.772799 Si / 1000 Ang^3
#
#
#
# Elastic Constant Matrix: (Units=GPa)
#
#
# Indices 1 2 3 4 5 6 
#
# 1 85.3988 -7.6770 -6.1658 0.0000 -9.0055 0.0000
# 2 -7.6770 22.6607 -5.9094 0.0000 -1.1178 0.0000
# 3 -6.1658 -5.9094 15.3711 0.0000 -11.6831 0.0000
# 4 0.0000 0.0000 0.0000 25.2321 0.0000 1.4192
# 5 -9.0055 -1.1178 -11.6831 0.0000 38.0950 0.0000
# 6 0.0000 0.0000 0.0000 1.4192 0.0000 27.5648
#
#
#
# Elastic Compliance Matrix: (Units=1/GPa)
#
#
# Indices 1 2 3 4 5 6 
#
# 1 0.014665 0.009626 0.016212 0.000000 0.008721 0.000000
# 2 0.009626 0.058100 0.038106 0.000000 0.015667 0.000000
# 3 0.016212 0.038106 0.117320 0.000000 0.040931 0.000000
# 4 0.000000 0.000000 0.000000 0.039747 0.000000 -0.002046
# 5 0.008721 0.015667 0.040931 0.000000 0.041324 0.000000
# 6 0.000000 0.000000 0.000000 -0.002046 0.000000 0.036384
#
#
# Mechanical properties :
#
#
# Convention : Reuss Voigt Hill
#
# Bulk Modulus (GPa) = 3.14490 9.32513 6.23501
# Shear Modulus (GPa) = 17.50432 27.72389 22.61410
#
# Velocity S-wave (km/s) = 2.83848 3.57224 3.22629
# Velocity P-wave (km/s) = 3.49145 4.61593 4.09249
#
# Compressibility (1/GPa) = 0.31797540
#
# Stress axis : x y z
#
# Youngs Moduli (GPa) = 68.18780 17.21159 8.52367
#
# Poissons Ratio (x) = -0.16569 -0.13819
# Poissons Ratio (y) = -0.65640 -0.32480
# Poissons Ratio (z) = -1.10549 -0.65586
#
# Static dielectric constant tensor:
#      x y z
#    x 1.840330 0.000000 0.020520 
#    y 0.000000 1.734910 0.000000 
#    z 0.020520 0.000000 1.786540 
# 
# From -- ./inp_files/71654.got.cif
#   From: 2010.05.17/outbox.cif.g08.bks.cpg/sg10_36_cif.got.tgz:71654.got - 2010.06.03 11:33:40.
