data_PCOD9152838
_publ_section_title
;
Structure prediction by ZEFSAII (Michael W. Deem and Ramdas Pophale) SiO2 
 PCOD9152838
Probable space group: P 2/M
;
_chemical_formula_sum "Si O2"
_cell_formula_units_Z 16
_cell_length_a 11.674628
_cell_length_b 10.308510
_cell_length_c 11.995259
_cell_angle_alpha 90.000000
_cell_angle_beta 147.385102
_cell_angle_gamma 90.000000
_cell_volume 778.088758
_symmetry_space_group_name_H-M "P 2/M"
_symmetry_group_IT_number 10
_symmetry_cell_setting 'monoclinic'
loop_
_space_group_symop_operation_xyz
x,y,z
-x,y,-z
-x,-y,-z
x,-y,z
loop_
_atom_site_type_symbol
_atom_site_label
_atom_site_fract_x
_atom_site_fract_y
_atom_site_fract_z
Si Si1 0.892874 0.770427 0.591187
Si Si2 0.264072 0.147783 0.765999
Si Si3 0.853479 0.855982 0.988838
Si Si4 0.508416 0.648708 0.639572
O O1 0.109777 0.748366 0.698694
O O2 0.760083 0.844549 0.386615
O O3 0.727081 0.666079 0.502067
O O4 0.988080 0.840734 0.777167
O O5 0.202524 0.000000 0.749357
O O6 0.500000 0.169305 0.000000
O O7 0.673077 0.746603 0.832941
O O8 0.755721 0.000000 0.911773
O O9 0.000000 0.844846 0.000000
O O10 0.500000 0.678770 0.500000
O O11 0.579053 0.500000 0.709909
#
# Coordination Sequence:
#
# PCOD9152838 Si02
#       4
#     4   4   4   4
#     4  11  21  39  64  95 127 167 213 265 315 382
#     4  10  21  38  64  94 130 171 211 263 327 386
#     4  11  23  38  62  98 132 165 209 268 325 377
#     4  11  25  44  64  91 131 181 221 258 316 389
#
# _framework density 20.563206999999998
#
# number of rings (size 3 to 8) (size 9 to 14) (size 15 to 20)
#    0.000    1.250    2.500    4.500    0.000    7.000 
#    0.000    2.500    0.000    7.500    0.000    0.000 
#    0.000    0.000    0.000    0.000    0.000    0.000 
#
# Total GULP energy -89181.325642 kJ/mol
# GULP energy per Si atom -5573.832853 kJ/mol
# Density = 2.051640 g / cm^3
# Si number density = 20.563207 Si / 1000 Ang^3
#
#
#
# Elastic Constant Matrix: (Units=GPa)
#
#
# Indices 1 2 3 4 5 6 
#
# 1 107.6450 25.9864 55.9300 0.0000 -17.6157 0.0000
# 2 25.9864 89.9681 56.7781 0.0000 6.6908 0.0000
# 3 55.9300 56.7781 167.1769 0.0000 -9.7647 0.0000
# 4 0.0000 0.0000 0.0000 19.5329 0.0000 10.3492
# 5 -17.6157 6.6908 -9.7647 0.0000 40.9291 0.0000
# 6 0.0000 0.0000 0.0000 10.3492 0.0000 16.7306
#
#
#
# Elastic Compliance Matrix: (Units=1/GPa)
#
#
# Indices 1 2 3 4 5 6 
#
# 1 0.012165 -0.001882 -0.003151 0.000000 0.004792 0.000000
# 2 -0.001882 0.014953 -0.004705 0.000000 -0.004377 0.000000
# 3 -0.003151 -0.004705 0.008721 0.000000 0.001493 0.000000
# 4 0.000000 0.000000 0.000000 0.076155 0.000000 -0.047108
# 5 0.004792 -0.004377 0.001493 0.000000 0.027567 0.000000
# 6 0.000000 0.000000 0.000000 -0.047108 0.000000 0.088910
#
#
# Mechanical properties :
#
#
# Convention : Reuss Voigt Hill
#
# Bulk Modulus (GPa) = 61.10668 71.35322 66.22995
# Shear Modulus (GPa) = 19.73159 30.51156 25.12157
#
# Velocity S-wave (km/s) = 3.10103 3.85618 3.49904
# Velocity P-wave (km/s) = 6.52709 7.38929 6.97153
#
# Compressibility (1/GPa) = 0.01636482
#
# Stress axis : x y z
#
# Youngs Moduli (GPa) = 82.20021 66.87598 114.66630
#
# Poissons Ratio (x) = 0.12583 0.36132
# Poissons Ratio (y) = 0.15467 0.53946
# Poissons Ratio (z) = 0.25902 0.31463
#
# Static dielectric constant tensor:
#      x y z
#    x 1.793390 0.000000 -0.003060 
#    y 0.000000 1.710160 0.000000 
#    z -0.003060 0.000000 1.725800 
# 
# From -- ./inp_files/44492.got.cif
#   From: 2010.05.17/outbox.cif.g08.bks.cpg/sg10_23_cif.got.tgz:44492.got - 2010.06.03 11:33:40.
