data_PCOD9152151
_publ_section_title
;
Structure prediction by ZEFSAII (Michael W. Deem and Ramdas Pophale) SiO2 
 PCOD9152151
Probable space group: P 2/M
;
_chemical_formula_sum "Si O2"
_cell_formula_units_Z 32
_cell_length_a 29.490929
_cell_length_b 7.847743
_cell_length_c 12.428626
_cell_angle_alpha 90.000000
_cell_angle_beta 147.030052
_cell_angle_gamma 90.000000
_cell_volume 1565.359676
_symmetry_space_group_name_H-M "P 2/M"
_symmetry_group_IT_number 10
_symmetry_cell_setting 'monoclinic'
loop_
_space_group_symop_operation_xyz
x,y,z
-x,y,-z
-x,-y,-z
x,-y,z
loop_
_atom_site_type_symbol
_atom_site_label
_atom_site_fract_x
_atom_site_fract_y
_atom_site_fract_z
Si Si1 0.842874 0.793652 0.419212
Si Si2 0.841014 0.205544 0.953726
Si Si3 0.904179 0.792077 0.309333
Si Si4 0.599390 0.696840 0.194294
Si Si5 0.499593 0.209120 0.373441
Si Si6 0.655843 0.201923 0.541528
Si Si7 0.001528 0.297517 0.880893
Si Si8 0.656793 0.801692 0.078184
O O1 0.864097 0.735855 0.340798
O O2 0.917267 0.746060 0.648139
O O3 0.750038 0.728685 0.259177
O O4 0.841633 0.000000 0.418027
O O5 0.749092 0.271596 0.742245
O O6 0.836997 0.000000 0.948936
O O7 0.863135 0.267087 0.117430
O O8 0.916190 0.244717 0.021707
O O9 0.000000 0.740628 0.500000
O O10 0.901552 0.000000 0.303596
O O11 0.625960 0.500000 0.239606
O O12 0.631632 0.771982 0.369713
O O13 0.628143 0.789589 0.144111
O O14 0.500000 0.703211 0.000000
O O15 0.500000 0.257852 0.500000
O O16 0.582090 0.268187 0.472644
O O17 0.499583 0.000000 0.369920
O O18 0.416433 0.269000 0.144504
O O19 0.659597 0.000000 0.570980
O O20 0.005066 0.500000 0.895463
O O21 0.000000 0.226806 0.000000
O O22 0.664087 0.000000 0.061169
#
# Coordination Sequence:
#
# PCOD9152151 Si02
#       8
#     4   4   4   4   4   4   4   4
#     4  10  21  37  60  88 114 147 189 233 282 339
#     4  10  21  37  60  88 114 147 189 233 282 339
#     4   9  16  32  58  85 113 142 179 234 288 331
#     4  11  23  39  59  80 111 154 197 239 284 334
#     4   9  18  33  55  88 124 151 180 229 288 339
#     4  10  21  36  59  88 117 149 189 237 283 332
#     4  11  25  42  57  78 114 155 190 235 288 335
#     4  10  21  36  59  88 117 149 189 237 283 332
#
# _framework density 20.442585000000001
#
# number of rings (size 3 to 8) (size 9 to 14) (size 15 to 20)
#    0.000    2.000    2.500    0.750    3.500    2.500 
#    0.000    1.250    0.000    1.500    0.000    0.000 
#    0.000    0.000    0.000    0.000    0.000    0.000 
#
# Total GULP energy -178603.688957 kJ/mol
# GULP energy per Si atom -5581.365280 kJ/mol
# Density = 2.039606 g / cm^3
# Si number density = 20.442585 Si / 1000 Ang^3
#
#
#
# Elastic Constant Matrix: (Units=GPa)
#
#
# Indices 1 2 3 4 5 6 
#
# 1 128.4814 1.5881 134.4224 0.0000 -18.9185 0.0000
# 2 1.5881 24.6177 10.3333 0.0000 6.7431 0.0000
# 3 134.4224 10.3333 188.9123 0.0000 4.5845 0.0000
# 4 0.0000 0.0000 0.0000 -13.5002 0.0000 11.1722
# 5 -18.9185 6.7431 4.5845 0.0000 35.7387 0.0000
# 6 0.0000 0.0000 0.0000 11.1722 0.0000 -16.7017
#
#
#
# Elastic Compliance Matrix: (Units=1/GPa)
#
#
# Indices 1 2 3 4 5 6 
#
# 1 0.052930 0.003987 -0.038663 0.000000 0.032226 0.000000
# 2 0.003987 0.044027 -0.005111 0.000000 -0.005541 0.000000
# 3 -0.038663 -0.005111 0.033662 0.000000 -0.023820 0.000000
# 4 0.000000 0.000000 0.000000 -0.165924 0.000000 -0.110991
# 5 0.032226 -0.005541 -0.023820 0.000000 0.049141 0.000000
# 6 0.000000 0.000000 0.000000 -0.110991 0.000000 -0.134119
#
#
# Mechanical properties :
#
#
# Convention : Reuss Voigt Hill
#
# Bulk Modulus (GPa) = 19.59032 70.52210 45.05621
# Shear Modulus (GPa) = -211.01082 14.15188 -98.42947
#
# Velocity S-wave (km/s) = -10.17081 2.63397 -6.94649
# Velocity P-wave (km/s) = 11.32798 6.61989 6.50001
#
# Compressibility (1/GPa) = 0.05104561
#
# Stress axis : x y z
#
# Youngs Moduli (GPa) = 18.89300 22.71337 29.70713
#
# Poissons Ratio (x) = -0.09056 1.14856
# Poissons Ratio (y) = -0.07533 0.15183
# Poissons Ratio (z) = 0.73046 0.11609
#
# Static dielectric constant tensor:
#      x y z
#    x 1.762250 0.000000 -0.011310 
#    y 0.000000 1.751170 0.000000 
#    z -0.011310 0.000000 1.728630 
# 
# From -- ./inp_files/58252.got.cif
#   From: 2010.05.17/outbox.cif.g08.bks.cpg/sg10_30_cif.got.tgz:58252.got - 2010.06.03 11:33:40.
