data_PCOD9152254
_publ_section_title
;
Structure prediction by ZEFSAII (Michael W. Deem and Ramdas Pophale) SiO2 
 PCOD9152254
Probable space group: P 2/M
;
_chemical_formula_sum "Si O2"
_cell_formula_units_Z 28
_cell_length_a 9.186109
_cell_length_b 9.075313
_cell_length_c 19.045250
_cell_angle_alpha 90.000000
_cell_angle_beta 76.507085
_cell_angle_gamma 90.000000
_cell_volume 1543.918211
_symmetry_space_group_name_H-M "P 2/M"
_symmetry_group_IT_number 10
_symmetry_cell_setting 'monoclinic'
loop_
_space_group_symop_operation_xyz
x,y,z
-x,y,-z
-x,-y,-z
x,-y,z
loop_
_atom_site_type_symbol
_atom_site_label
_atom_site_fract_x
_atom_site_fract_y
_atom_site_fract_z
Si Si1 0.063002 0.823285 0.069509
Si Si2 0.623549 0.323868 0.927446
Si Si3 0.173359 0.169020 0.506817
Si Si4 0.518534 0.823714 0.795649
Si Si5 0.184238 0.823485 0.784445
Si Si6 0.766092 0.822725 0.651747
Si Si7 0.082315 0.675315 0.652776
O O1 0.217438 0.743333 0.068848
O O2 0.940355 0.789573 0.142874
O O3 0.087700 0.000000 0.067114
O O4 0.000000 0.782900 0.000000
O O5 0.634140 0.500000 0.922063
O O6 0.572965 0.258750 0.858715
O O7 0.500000 0.285159 0.000000
O O8 0.261762 0.215917 0.426883
O O9 0.177276 0.268969 0.574893
O O10 0.000000 0.169739 0.500000
O O11 0.211547 0.000000 0.520735
O O12 0.348403 0.786517 0.795079
O O13 0.628969 0.790352 0.718430
O O14 0.526123 0.000000 0.807361
O O15 0.148439 0.739692 0.716929
O O16 0.179842 0.000000 0.771892
O O17 0.915586 0.742060 0.661212
O O18 0.793903 0.000000 0.649919
O O19 0.075433 0.500000 0.654935
#
# Coordination Sequence:
#
# PCOD9152254 Si02
#       7
#     4   4   4   4   4   4   4
#     4  10  21  38  61  86 109 138 180 225 265 310
#     4  11  24  39  56  82 115 147 177 214 265 321
#     4   8  15  30  52  76 104 137 175 222 270 315
#     4  10  21  38  60  82 105 139 183 226 267 314
#     4  10  21  37  56  79 108 141 178 222 270 317
#     4   9  18  34  56  81 106 135 176 225 273 319
#     4  11  21  32  51  79 109 143 181 219 264 320
#
# _framework density 18.135676
#
# number of rings (size 3 to 8) (size 9 to 14) (size 15 to 20)
#    0.000    2.143    0.000    4.286    0.000   10.286 
#    0.000    0.714    0.000    4.286    0.000    0.000 
#    0.000    0.000    0.000    0.000    0.000    0.000 
#
# Total GULP energy -156350.406535 kJ/mol
# GULP energy per Si atom -5583.943091 kJ/mol
# Density = 1.809440 g / cm^3
# Si number density = 18.135676 Si / 1000 Ang^3
#
#
#
# Elastic Constant Matrix: (Units=GPa)
#
#
# Indices 1 2 3 4 5 6 
#
# 1 137.5385 67.0291 103.7407 0.0000 -3.4531 0.0000
# 2 67.0291 58.3097 83.8747 0.0000 2.8480 0.0000
# 3 103.7407 83.8747 198.5886 0.0000 -2.1369 0.0000
# 4 0.0000 0.0000 0.0000 -9.4117 0.0000 -29.2499
# 5 -3.4531 2.8480 -2.1369 0.0000 27.9860 0.0000
# 6 0.0000 0.0000 0.0000 -29.2499 0.0000 -12.7537
#
#
#
# Elastic Compliance Matrix: (Units=1/GPa)
#
#
# Indices 1 2 3 4 5 6 
#
# 1 0.017118 -0.017994 -0.001301 0.000000 0.003844 0.000000
# 2 -0.017994 0.063594 -0.017567 0.000000 -0.010033 0.000000
# 3 -0.001301 -0.017567 0.013163 0.000000 0.002632 0.000000
# 4 0.000000 0.000000 0.000000 0.017340 0.000000 -0.039767
# 5 0.003844 -0.010033 0.002632 0.000000 0.037429 0.000000
# 6 0.000000 0.000000 0.000000 -0.039767 0.000000 0.012796
#
#
# Mechanical properties :
#
#
# Convention : Reuss Voigt Hill
#
# Bulk Modulus (GPa) = 49.62678 100.41398 75.02038
# Shear Modulus (GPa) = 20.67148 10.48361 15.57754
#
# Velocity S-wave (km/s) = 3.37979 2.40691 2.93396
# Velocity P-wave (km/s) = 6.53102 7.95064 7.27554
#
# Compressibility (1/GPa) = 0.02015041
#
# Stress axis : x y z
#
# Youngs Moduli (GPa) = 58.41901 15.72487 75.96985
#
# Poissons Ratio (x) = 0.28295 0.09884
# Poissons Ratio (y) = 1.05117 1.33458
# Poissons Ratio (z) = 0.07601 0.27624
#
# Static dielectric constant tensor:
#      x y z
#    x 1.593340 0.000000 -0.017920 
#    y 0.000000 1.600350 0.000000 
#    z -0.017920 0.000000 1.624830 
# 
# From -- ./inp_files/37020.got.cif
#   From: 2010.05.17/outbox.cif.g08.bks.cpg/sg10_19_cif.got.tgz:37020.got - 2010.06.03 11:33:40.
