data_PCOD9152616
_publ_section_title
;
Structure prediction by ZEFSAII (Michael W. Deem and Ramdas Pophale) SiO2 
 PCOD9152616
Probable space group: P 2/M
;
_chemical_formula_sum "Si O2"
_cell_formula_units_Z 16
_cell_length_a 5.326396
_cell_length_b 22.920638
_cell_length_c 8.055917
_cell_angle_alpha 90.000000
_cell_angle_beta 138.193206
_cell_angle_gamma 90.000000
_cell_volume 655.622784
_symmetry_space_group_name_H-M "P 2/M"
_symmetry_group_IT_number 10
_symmetry_cell_setting 'monoclinic'
loop_
_space_group_symop_operation_xyz
x,y,z
-x,y,-z
-x,-y,-z
x,-y,z
loop_
_atom_site_type_symbol
_atom_site_label
_atom_site_fract_x
_atom_site_fract_y
_atom_site_fract_z
Si Si1 0.059371 0.437800 0.332702
Si Si2 0.940329 0.812896 0.666589
Si Si3 0.942592 0.062525 0.672210
Si Si4 0.936849 0.312382 0.774704
O O1 0.500000 0.437037 0.500000
O O2 0.913566 0.500000 0.189613
O O3 0.906407 0.374906 0.204729
O O4 0.000000 0.439852 0.500000
O O5 0.500000 0.811679 0.500000
O O6 0.087971 0.874907 0.810649
O O7 0.093653 0.749632 0.791199
O O8 0.000000 0.816241 0.500000
O O9 0.500000 0.062643 0.500000
O O10 0.000000 0.062142 0.500000
O O11 0.090178 0.000000 0.810115
O O12 0.500000 0.312679 0.500000
O O13 0.000000 0.311472 0.000000
#
# Coordination Sequence:
#
# PCOD9152616 Si02
#       4
#     4   4   4   4
#     4   9  18  35  58  84 114 148 187 231 280 334
#     4   9  17  31  50  75 107 142 182 227 276 330
#     4   8  13  22  40  67  98 133 173 218 268 322
#     4  10  21  38  59  84 115 150 190 234 282 336
#
# _framework density 24.404274000000001
#
# number of rings (size 3 to 8) (size 9 to 14) (size 15 to 20)
#    0.000    3.000    0.000    0.750    0.000    0.500 
#    0.000   20.000    0.000   14.250    0.000    0.000 
#    0.000   44.000    0.000    0.000    0.000   10.500 
#
# Total GULP energy -89161.702699 kJ/mol
# GULP energy per Si atom -5572.606419 kJ/mol
# Density = 2.434873 g / cm^3
# Si number density = 24.404274 Si / 1000 Ang^3
#
#
#
# Elastic Constant Matrix: (Units=GPa)
#
#
# Indices 1 2 3 4 5 6 
#
# 1 190.2009 7.3229 40.0546 0.0000 8.1995 0.0000
# 2 7.3229 395.1068 32.2052 0.0000 -6.0902 0.0000
# 3 40.0546 32.2052 67.5761 0.0000 -2.2481 0.0000
# 4 0.0000 0.0000 0.0000 -17.3402 0.0000 -44.2544
# 5 8.1995 -6.0902 -2.2481 0.0000 51.9050 0.0000
# 6 0.0000 0.0000 0.0000 -44.2544 0.0000 -5.0971
#
#
#
# Elastic Compliance Matrix: (Units=1/GPa)
#
#
# Indices 1 2 3 4 5 6 
#
# 1 0.006083 0.000174 -0.003725 0.000000 -0.001102 0.000000
# 2 0.000174 0.002642 -0.001355 0.000000 0.000224 0.000000
# 3 -0.003725 -0.001355 0.017691 0.000000 0.001196 0.000000
# 4 0.000000 0.000000 0.000000 0.002726 0.000000 -0.023665
# 5 -0.001102 0.000224 0.001196 0.000000 0.019518 0.000000
# 6 0.000000 0.000000 0.000000 -0.023665 0.000000 0.009273
#
#
# Mechanical properties :
#
#
# Convention : Reuss Voigt Hill
#
# Bulk Modulus (GPa) = 60.22472 90.22770 75.22621
# Shear Modulus (GPa) = 68.23291 44.11359 56.17325
#
# Velocity S-wave (km/s) = 5.29340 4.25622 4.80289
# Velocity P-wave (km/s) = 7.87983 7.82344 7.85168
#
# Compressibility (1/GPa) = 0.01660448
#
# Stress axis : x y z
#
# Youngs Moduli (GPa) = 164.39613 378.55870 56.52454
#
# Poissons Ratio (x) = -0.06583 0.21056
# Poissons Ratio (y) = -0.02859 0.07657
# Poissons Ratio (z) = 0.61239 0.51278
#
# Static dielectric constant tensor:
#      x y z
#    x 1.895140 0.000000 0.011700 
#    y 0.000000 2.186640 0.000000 
#    z 0.011700 0.000000 1.859180 
# 
# From -- ./inp_files/1470.got.cif
#   From: 2010.05.17/outbox.cif.g08.bks.cpg/sg10_1_cif.got.tgz:1470.got - 2010.06.03 11:33:40.
