data_PCOD9152860
_publ_section_title
;
Structure prediction by ZEFSAII (Michael W. Deem and Ramdas Pophale) SiO2 
 PCOD9152860
Probable space group: P 2/M
;
_chemical_formula_sum "Si O2"
_cell_formula_units_Z 28
_cell_length_a 5.902916
_cell_length_b 15.493587
_cell_length_c 15.315923
_cell_angle_alpha 90.000000
_cell_angle_beta 117.800777
_cell_angle_gamma 90.000000
_cell_volume 1239.071141
_symmetry_space_group_name_H-M "P 2/M"
_symmetry_group_IT_number 10
_symmetry_cell_setting 'monoclinic'
loop_
_space_group_symop_operation_xyz
x,y,z
-x,y,-z
-x,-y,-z
x,-y,z
loop_
_atom_site_type_symbol
_atom_site_label
_atom_site_fract_x
_atom_site_fract_y
_atom_site_fract_z
Si Si1 0.737058 0.186709 0.289227
Si Si2 0.016255 0.903094 0.197590
Si Si3 0.588382 0.405385 0.916279
Si Si4 0.054952 0.643290 0.740700
Si Si5 0.186784 0.264121 0.145406
Si Si6 0.536219 0.900149 0.408939
Si Si7 0.222155 0.596716 0.474109
O O1 0.931793 0.262448 0.302337
O O2 0.463309 0.230321 0.225456
O O3 0.739131 0.149269 0.385849
O O4 0.787230 0.114505 0.224805
O O5 0.021772 0.823729 0.129123
O O6 0.270859 0.898867 0.305292
O O7 0.614876 0.000000 0.431053
O O8 0.704811 0.500000 0.917626
O O9 0.333090 0.394098 0.812089
O O10 0.751596 0.318965 0.929668
O O11 0.500000 0.405677 0.000000
O O12 0.916254 0.663514 0.806476
O O13 0.907349 0.589514 0.643410
O O14 0.500000 0.865686 0.500000
O O15 0.004382 0.000000 0.158452
O O16 0.500000 0.638456 0.500000
O O17 0.279270 0.500000 0.520390
O O18 0.000000 0.633173 0.500000
#
# Coordination Sequence:
#
# PCOD9152860 Si02
#       7
#     4   4   4   4   4   4   4
#     4   9  18  33  48  75 107 151 199 243 307 362
#     4   9  17  32  54  78 107 150 200 245 301 369
#     4  10  22  39  64  96 124 155 196 248 320 391
#     4  10  21  39  57  84 121 159 203 257 309 368
#     4   9  20  37  57  84 119 154 197 246 310 373
#     4   9  17  29  44  68 104 145 193 247 301 357
#     4  10  23  41  61  87 119 165 221 266 314 375
#
# _framework density 22.597574000000002
#
# number of rings (size 3 to 8) (size 9 to 14) (size 15 to 20)
#    0.000    2.571    0.000    0.857    4.000    2.857 
#    7.714    3.571    0.000    0.429    0.000    9.000 
#    0.000    0.000    0.000    0.000    0.000    0.000 
#
# Total GULP energy -156039.611877 kJ/mol
# GULP energy per Si atom -5572.843281 kJ/mol
# Density = 2.254614 g / cm^3
# Si number density = 22.597574 Si / 1000 Ang^3
#
#
#
# Elastic Constant Matrix: (Units=GPa)
#
#
# Indices 1 2 3 4 5 6 
#
# 1 89.9191 28.5486 10.2288 0.0000 -9.8953 0.0000
# 2 28.5486 123.9473 24.4894 0.0000 -24.4186 0.0000
# 3 10.2288 24.4894 48.3569 0.0000 6.8588 0.0000
# 4 0.0000 0.0000 0.0000 32.3394 0.0000 21.9162
# 5 -9.8953 -24.4186 6.8588 0.0000 39.7002 0.0000
# 6 0.0000 0.0000 0.0000 21.9162 0.0000 155.7446
#
#
#
# Elastic Compliance Matrix: (Units=1/GPa)
#
#
# Indices 1 2 3 4 5 6 
#
# 1 0.012209 -0.002029 -0.001855 0.000000 0.002116 0.000000
# 2 -0.002029 0.011271 -0.006346 0.000000 0.007523 0.000000
# 3 -0.001855 -0.006346 0.025531 0.000000 -0.008777 0.000000
# 4 0.000000 0.000000 0.000000 0.034182 0.000000 -0.004810
# 5 0.002116 0.007523 -0.008777 0.000000 0.031860 0.000000
# 6 0.000000 0.000000 0.000000 -0.004810 0.000000 0.007098
#
#
# Mechanical properties :
#
#
# Convention : Reuss Voigt Hill
#
# Bulk Modulus (GPa) = 35.02507 43.19519 39.11013
# Shear Modulus (GPa) = 32.86720 58.82061 45.84390
#
# Velocity S-wave (km/s) = 3.81787 5.10746 4.50901
# Velocity P-wave (km/s) = 5.91337 7.34425 6.66731
#
# Compressibility (1/GPa) = 0.02855097
#
# Stress axis : x y z
#
# Youngs Moduli (GPa) = 81.90616 88.72140 39.16852
#
# Poissons Ratio (x) = 0.17999 0.07267
# Poissons Ratio (y) = 0.16616 0.24857
# Poissons Ratio (z) = 0.15196 0.56303
#
# Static dielectric constant tensor:
#      x y z
#    x 1.894810 0.000000 -0.024260 
#    y 0.000000 1.904590 0.000000 
#    z -0.024260 0.000000 1.830420 
# 
# From -- ./inp_files/59455.got.cif
#   From: 2010.05.17/outbox.cif.g08.bks.cpg/sg10_30_cif.got.tgz:59455.got - 2010.06.03 11:33:40.
