data_PCOD9152441
_publ_section_title
;
Structure prediction by ZEFSAII (Michael W. Deem and Ramdas Pophale) SiO2 
 PCOD9152441
Probable space group: P 2/M
;
_chemical_formula_sum "Si O2"
_cell_formula_units_Z 32
_cell_length_a 10.212532
_cell_length_b 14.187349
_cell_length_c 28.518391
_cell_angle_alpha 90.000000
_cell_angle_beta 26.458326
_cell_angle_gamma 90.000000
_cell_volume 1840.996646
_symmetry_space_group_name_H-M "P 2/M"
_symmetry_group_IT_number 10
_symmetry_cell_setting 'monoclinic'
loop_
_space_group_symop_operation_xyz
x,y,z
-x,y,-z
-x,-y,-z
x,-y,z
loop_
_atom_site_type_symbol
_atom_site_label
_atom_site_fract_x
_atom_site_fract_y
_atom_site_fract_z
Si Si1 0.373364 0.110860 0.487992
Si Si2 0.839919 0.250000 0.664033
Si Si3 0.731466 0.750000 0.307413
Si Si4 0.880309 0.389567 0.985462
Si Si5 0.813324 0.389140 0.512008
Si Si6 0.320998 0.730264 0.176585
Si Si7 0.796077 0.230264 0.176585
Si Si8 0.807620 0.889567 0.014538
O O1 0.500000 0.123595 0.500000
O O2 0.578294 0.164366 0.384858
O O3 0.059077 0.161974 0.588321
O O4 0.354528 0.000000 0.484294
O O5 0.780464 0.272381 0.737155
O O6 0.533759 0.227618 0.737156
O O7 0.999317 0.338026 0.588321
O O8 0.497417 0.664366 0.384858
O O9 0.789384 0.771208 0.234533
O O10 0.037950 0.728792 0.234533
O O11 0.909085 0.500000 0.966221
O O12 0.058347 0.325019 0.891903
O O13 0.545468 0.354008 0.093090
O O14 0.000000 0.371869 0.000000
O O15 0.775996 0.500000 0.515706
O O16 0.000000 0.376406 0.500000
O O17 0.517861 0.825019 0.108098
O O18 0.989084 0.145992 0.093089
O O19 0.740188 0.000000 0.033780
O O20 0.000000 0.871869 0.000000
#
# Coordination Sequence:
#
# PCOD9152441 Si02
#       8
#     4   4   4   4   4   4   4   4
#     4  10  22  39  60  87 117 153 198 241 289 354
#     4  11  20  37  62  86 112 155 196 239 292 348
#     4  11  24  39  60  88 122 153 188 247 300 346
#     4  10  21  37  60  89 116 150 200 243 279 344
#     4  10  22  39  60  87 117 153 198 241 289 354
#     4  11  21  39  59  85 118 153 191 238 294 344
#     4  11  21  39  59  85 118 153 191 238 294 344
#     4  10  21  37  60  89 116 150 200 243 279 344
#
# _framework density 17.381889999999999
#
# number of rings (size 3 to 8) (size 9 to 14) (size 15 to 20)
#    0.000    1.500    5.000    0.750    0.000    6.000 
#    0.000    2.500    0.000    0.000    0.000    0.000 
#    0.000    0.000    0.000    0.000    0.000    0.000 
#
# Total GULP energy -178700.531193 kJ/mol
# GULP energy per Si atom -5584.391600 kJ/mol
# Density = 1.734233 g / cm^3
# Si number density = 17.381890 Si / 1000 Ang^3
#
#
#
# Elastic Constant Matrix: (Units=GPa)
#
#
# Indices 1 2 3 4 5 6 
#
# 1 135.4485 47.4877 73.9165 0.0000 -1.4835 0.0000
# 2 47.4877 124.0979 52.2738 0.0000 -0.3554 0.0000
# 3 73.9165 52.2738 128.6372 0.0000 1.9917 0.0000
# 4 0.0000 0.0000 0.0000 6.4405 0.0000 0.6130
# 5 -1.4835 -0.3554 1.9917 0.0000 40.4901 0.0000
# 6 0.0000 0.0000 0.0000 0.6130 0.0000 14.6828
#
#
#
# Elastic Compliance Matrix: (Units=1/GPa)
#
#
# Indices 1 2 3 4 5 6 
#
# 1 0.011127 -0.001880 -0.005640 0.000000 0.000669 0.000000
# 2 -0.001880 0.010043 -0.003003 0.000000 0.000167 0.000000
# 3 -0.005640 -0.003003 0.012248 0.000000 -0.000836 0.000000
# 4 0.000000 0.000000 0.000000 0.155887 0.000000 -0.006508
# 5 0.000669 0.000167 -0.000836 0.000000 0.024764 0.000000
# 6 0.000000 0.000000 0.000000 -0.006508 0.000000 0.068379
#
#
# Mechanical properties :
#
#
# Convention : Reuss Voigt Hill
#
# Bulk Modulus (GPa) = 80.83403 81.72662 81.28032
# Shear Modulus (GPa) = 16.25378 26.62304 21.43841
#
# Velocity S-wave (km/s) = 3.06126 3.91788 3.51576
# Velocity P-wave (km/s) = 7.68770 8.22111 7.95888
#
# Compressibility (1/GPa) = 0.01237103
#
# Stress axis : x y z
#
# Youngs Moduli (GPa) = 89.86843 99.56916 81.64505
#
# Poissons Ratio (x) = 0.18722 0.46049
# Poissons Ratio (y) = 0.16898 0.24521
# Poissons Ratio (z) = 0.50688 0.29905
#
# Static dielectric constant tensor:
#      x y z
#    x 1.570350 0.000000 -0.000330 
#    y 0.000000 1.571040 0.000000 
#    z -0.000330 0.000000 1.574770 
# 
# From -- ./inp_files/88255.got.cif
#   From: 2010.05.17/outbox.cif.g08.bks.cpg/sg10_45_cif.got.tgz:88255.got - 2010.06.03 11:33:40.
