data_PCOD9152894
_publ_section_title
;
Structure prediction by ZEFSAII (Michael W. Deem and Ramdas Pophale) SiO2 
 PCOD9152894
Probable space group: P 2/M
;
_chemical_formula_sum "Si O2"
_cell_formula_units_Z 24
_cell_length_a 12.808973
_cell_length_b 8.366604
_cell_length_c 24.573436
_cell_angle_alpha 90.000000
_cell_angle_beta 29.481821
_cell_angle_gamma 90.000000
_cell_volume 1296.058465
_symmetry_space_group_name_H-M "P 2/M"
_symmetry_group_IT_number 10
_symmetry_cell_setting 'monoclinic'
loop_
_space_group_symop_operation_xyz
x,y,z
-x,y,-z
-x,-y,-z
x,-y,z
loop_
_atom_site_type_symbol
_atom_site_label
_atom_site_fract_x
_atom_site_fract_y
_atom_site_fract_z
Si Si1 0.885210 0.193919 0.251472
Si Si2 0.361098 0.194441 0.010944
Si Si3 0.469763 0.188910 0.377186
Si Si4 0.695945 0.189838 0.771302
Si Si5 0.760941 0.689154 0.623294
Si Si6 0.141247 0.687762 0.614011
O O1 0.699636 0.241756 0.294375
O O2 0.838845 0.258544 0.332704
O O3 0.118944 0.248100 0.126802
O O4 0.884827 0.000000 0.254765
O O5 0.355340 0.000000 0.014467
O O6 0.500000 0.245427 0.000000
O O7 0.488646 0.241829 0.899089
O O8 0.386465 0.276053 0.361327
O O9 0.303784 0.221018 0.501070
O O10 0.476206 0.000000 0.362907
O O11 0.684293 0.226708 0.712915
O O12 0.903763 0.274018 0.701456
O O13 0.723418 0.000000 0.767354
O O14 0.771661 0.500000 0.628987
O O15 0.000000 0.744395 0.500000
O O16 0.182800 0.500000 0.590023
#
# Coordination Sequence:
#
# PCOD9152894 Si02
#       6
#     4   4   4   4   4   4
#     4  10  21  39  60  86 117 151 193 238 283 336
#     4   9  17  34  61  88 114 146 188 239 285 326
#     4  11  23  38  60  86 114 152 196 237 282 341
#     4  11  21  36  62  89 114 148 194 239 282 334
#     4  11  23  39  59  84 117 152 188 236 289 341
#     4  12  23  35  55  86 123 155 186 232 291 344
#
# _framework density 18.517683000000002
#
# number of rings (size 3 to 8) (size 9 to 14) (size 15 to 20)
#    0.000    1.333    3.333    3.500    0.000    4.000 
#    0.000    3.333    0.000    5.000    0.000    0.000 
#    0.000    0.000    0.000    0.000    0.000    0.000 
#
# Total GULP energy -134134.448171 kJ/mol
# GULP energy per Si atom -5588.935340 kJ/mol
# Density = 1.847554 g / cm^3
# Si number density = 18.517683 Si / 1000 Ang^3
#
#
#
# Elastic Constant Matrix: (Units=GPa)
#
#
# Indices 1 2 3 4 5 6 
#
# 1 110.0602 -4.2908 35.6863 0.0000 -1.0998 0.0000
# 2 -4.2908 13.9912 -6.1644 0.0000 0.1387 0.0000
# 3 35.6863 -6.1644 51.7124 0.0000 12.2360 0.0000
# 4 0.0000 0.0000 0.0000 -14.4682 0.0000 -11.3614
# 5 -1.0998 0.1387 12.2360 0.0000 33.2102 0.0000
# 6 0.0000 0.0000 0.0000 -11.3614 0.0000 6.2466
#
#
#
# Elastic Compliance Matrix: (Units=1/GPa)
#
#
# Indices 1 2 3 4 5 6 
#
# 1 0.012134 -0.000429 -0.009334 0.000000 0.003843 0.000000
# 2 -0.000429 0.075933 0.010326 0.000000 -0.004136 0.000000
# 3 -0.009334 0.010326 0.029681 0.000000 -0.011288 0.000000
# 4 0.000000 0.000000 0.000000 -0.028464 0.000000 -0.051770
# 5 0.003843 -0.004136 -0.011288 0.000000 0.034415 0.000000
# 6 0.000000 0.000000 0.000000 -0.051770 0.000000 0.065926
#
#
# Mechanical properties :
#
#
# Convention : Reuss Voigt Hill
#
# Bulk Modulus (GPa) = 8.41226 25.13621 16.77424
# Shear Modulus (GPa) = 21.91794 15.03324 18.47559
#
# Velocity S-wave (km/s) = 3.44411 2.85236 3.16211
# Velocity P-wave (km/s) = 4.51316 4.94485 4.73393
#
# Compressibility (1/GPa) = 0.11887408
#
# Stress axis : x y z
#
# Youngs Moduli (GPa) = 82.41232 13.16953 33.69168
#
# Poissons Ratio (x) = 0.00565 0.31448
# Poissons Ratio (y) = 0.03538 -0.34792
# Poissons Ratio (z) = 0.76924 -0.13599
#
# Static dielectric constant tensor:
#      x y z
#    x 1.609510 0.000000 -0.009350 
#    y 0.000000 1.632970 0.000000 
#    z -0.009350 0.000000 1.628480 
# 
# From -- ./inp_files/45005.got.cif
#   From: 2010.05.17/outbox.cif.g08.bks.cpg/sg10_23_cif.got.tgz:45005.got - 2010.06.03 11:33:40.
