data_PCOD9152553
_publ_section_title
;
Structure prediction by ZEFSAII (Michael W. Deem and Ramdas Pophale) SiO2 
 PCOD9152553
Probable space group: P 2/M
;
_chemical_formula_sum "Si O2"
_cell_formula_units_Z 28
_cell_length_a 9.739041
_cell_length_b 9.056109
_cell_length_c 25.918661
_cell_angle_alpha 90.000000
_cell_angle_beta 37.836601
_cell_angle_gamma 90.000000
_cell_volume 1402.240292
_symmetry_space_group_name_H-M "P 2/M"
_symmetry_group_IT_number 10
_symmetry_cell_setting 'monoclinic'
loop_
_space_group_symop_operation_xyz
x,y,z
-x,y,-z
-x,-y,-z
x,-y,z
loop_
_atom_site_type_symbol
_atom_site_label
_atom_site_fract_x
_atom_site_fract_y
_atom_site_fract_z
Si Si1 0.764338 0.324105 0.417948
Si Si2 0.428058 0.826094 0.693060
Si Si3 0.476354 0.821969 0.124945
Si Si4 0.023203 0.822358 0.745904
Si Si5 0.404919 0.325488 0.802137
Si Si6 0.047702 0.167280 0.047342
Si Si7 0.842818 0.174066 0.498960
O O1 0.500000 0.285489 0.500000
O O2 0.783229 0.500000 0.408217
O O3 0.879458 0.249256 0.334792
O O4 0.873484 0.265996 0.438301
O O5 0.183348 0.780058 0.745709
O O6 0.509120 0.736865 0.718617
O O7 0.593369 0.807305 0.595633
O O8 0.428411 0.000000 0.706331
O O9 0.497793 0.748996 0.175024
O O10 0.695157 0.781824 0.026357
O O11 0.237704 0.784191 0.171336
O O12 0.488821 0.000000 0.127857
O O13 0.039869 0.000000 0.736123
O O14 0.424209 0.500000 0.800156
O O15 0.145281 0.273560 0.875539
O O16 0.024105 0.000000 0.075641
O O17 0.000000 0.157600 0.000000
O O18 0.000000 0.216168 0.500000
O O19 0.879725 0.000000 0.477064
#
# Coordination Sequence:
#
# PCOD9152553 Si02
#       7
#     4   4   4   4   4   4   4
#     4  11  23  38  57  82 114 149 181 220 276 333
#     4  10  21  38  57  79 110 146 185 230 275 318
#     4   9  19  36  59  85 109 138 182 233 275 319
#     4  10  21  38  61  83 106 142 189 232 272 322
#     4  11  22  34  54  83 115 149 181 218 271 331
#     4   8  15  32  56  80 108 141 180 226 272 317
#     4  10  22  39  60  84 108 142 189 235 272 314
#
# _framework density 19.968046999999999
#
# number of rings (size 3 to 8) (size 9 to 14) (size 15 to 20)
#    0.000    2.143    1.429    2.571    2.000    5.143 
#    0.000    0.714    0.000    4.286    0.000    0.000 
#    0.000    0.000    0.000    0.000    0.000    0.000 
#
# Total GULP energy -156335.696347 kJ/mol
# GULP energy per Si atom -5583.417727 kJ/mol
# Density = 1.992260 g / cm^3
# Si number density = 19.968047 Si / 1000 Ang^3
#
#
#
# Elastic Constant Matrix: (Units=GPa)
#
#
# Indices 1 2 3 4 5 6 
#
# 1 64.4205 9.3301 -0.1747 0.0000 -15.5648 0.0000
# 2 9.3301 18.0035 -0.5228 0.0000 1.0694 0.0000
# 3 -0.1747 -0.5228 18.7133 0.0000 -10.4126 0.0000
# 4 0.0000 0.0000 0.0000 277.5925 0.0000 155.4822
# 5 -15.5648 1.0694 -10.4126 0.0000 36.4779 0.0000
# 6 0.0000 0.0000 0.0000 155.4822 0.0000 104.8986
#
#
#
# Elastic Compliance Matrix: (Units=1/GPa)
#
#
# Indices 1 2 3 4 5 6 
#
# 1 0.019545 -0.010575 0.005587 0.000000 0.010245 0.000000
# 2 -0.010575 0.061373 -0.002254 0.000000 -0.006955 0.000000
# 3 0.005587 -0.002254 0.065136 0.000000 0.021043 0.000000
# 4 0.000000 0.000000 0.000000 0.021216 0.000000 -0.031446
# 5 0.010245 -0.006955 0.021043 0.000000 0.037996 0.000000
# 6 0.000000 0.000000 0.000000 -0.031446 0.000000 0.056143
#
#
# Mechanical properties :
#
#
# Convention : Reuss Voigt Hill
#
# Bulk Modulus (GPa) = 7.60049 13.15582 10.37815
# Shear Modulus (GPa) = 15.63722 89.96079 52.79901
#
# Velocity S-wave (km/s) = 2.80145 6.71939 5.14773
# Velocity P-wave (km/s) = 3.77872 8.17331 6.36717
#
# Compressibility (1/GPa) = 0.13157052
#
# Stress axis : x y z
#
# Youngs Moduli (GPa) = 51.16402 16.29381 15.35244
#
# Poissons Ratio (x) = 0.17231 -0.08578
# Poissons Ratio (y) = 0.54107 0.03461
# Poissons Ratio (z) = -0.28588 0.03673
#
# Static dielectric constant tensor:
#      x y z
#    x 1.703780 0.000000 -0.044960 
#    y 0.000000 1.665800 0.000000 
#    z -0.044960 0.000000 1.748680 
# 
# From -- ./inp_files/91983.got.cif
#   From: 2010.05.17/outbox.cif.g08.bks.cpg/sg10_46_cif.got.tgz:91983.got - 2010.06.03 11:33:40.
