data_PCOD9152041
_publ_section_title
;
Structure prediction by ZEFSAII (Michael W. Deem and Ramdas Pophale) SiO2 
 PCOD9152041
Probable space group: P 2/M
;
_chemical_formula_sum "Si O2"
_cell_formula_units_Z 32
_cell_length_a 12.539502
_cell_length_b 7.448865
_cell_length_c 30.604514
_cell_angle_alpha 90.000000
_cell_angle_beta 151.534624
_cell_angle_gamma 90.000000
_cell_volume 1362.495475
_symmetry_space_group_name_H-M "P 2/M"
_symmetry_group_IT_number 10
_symmetry_cell_setting 'monoclinic'
loop_
_space_group_symop_operation_xyz
x,y,z
-x,y,-z
-x,-y,-z
x,-y,z
loop_
_atom_site_type_symbol
_atom_site_label
_atom_site_fract_x
_atom_site_fract_y
_atom_site_fract_z
Si Si1 0.511733 0.284676 0.884897
Si Si2 0.658726 0.796749 0.411393
Si Si3 0.603720 0.779742 0.295323
Si Si4 0.782671 0.796737 0.899420
Si Si5 0.166698 0.294873 0.255499
Si Si6 0.988577 0.210643 0.705708
Si Si7 0.958782 0.780509 0.598166
Si Si8 0.713117 0.281102 0.048072
O O1 0.522253 0.500000 0.884139
O O2 0.602299 0.199218 0.873441
O O3 0.256837 0.234363 0.803332
O O4 0.666796 0.230792 0.981532
O O5 0.676695 0.716807 0.369523
O O6 0.396833 0.801281 0.327932
O O7 0.788588 0.717490 0.499469
O O8 0.748053 0.000000 0.439579
O O9 0.357740 0.717561 0.191395
O O10 0.794379 0.729022 0.329428
O O11 0.593893 0.000000 0.292591
O O12 0.848807 0.000000 0.910664
O O13 0.000000 0.709361 0.000000
O O14 0.196745 0.500000 0.251704
O O15 0.115935 0.294191 0.288798
O O16 0.947207 0.219271 0.152369
O O17 0.913592 0.280820 0.631208
O O18 0.935811 0.000000 0.688995
O O19 0.952367 0.000000 0.597731
O O20 0.715115 0.500000 0.050969
O O21 0.500000 0.222636 0.000000
#
# Coordination Sequence:
#
# PCOD9152041 Si02
#       8
#     4   4   4   4   4   4   4   4
#     4  11  21  36  58  83 112 151 194 232 278 341
#     4  10  21  37  60  87 112 146 196 241 284 337
#     4   9  17  34  59  86 114 147 189 234 282 339
#     4  10  21  36  55  84 121 151 181 233 293 335
#     4  11  23  40  58  81 118 155 189 232 288 343
#     4  11  21  37  61  87 116 148 191 240 287 337
#     4   9  18  35  61  87 111 145 189 242 291 336
#     4   9  18  35  56  76 106 148 185 219 268 332
#
# _framework density 23.486315999999999
#
# number of rings (size 3 to 8) (size 9 to 14) (size 15 to 20)
#    0.000    2.000    2.500    1.500    1.750    2.250 
#    0.000    6.875    0.000    0.750    0.000    0.000 
#    0.000    0.000    0.000    0.000    0.000    0.000 
#
# Total GULP energy -178869.240658 kJ/mol
# GULP energy per Si atom -5589.663771 kJ/mol
# Density = 2.343286 g / cm^3
# Si number density = 23.486316 Si / 1000 Ang^3
#
#
#
# Elastic Constant Matrix: (Units=GPa)
#
#
# Indices 1 2 3 4 5 6 
#
# 1 54.9484 -12.4161 1.1390 0.0000 -20.7412 0.0000
# 2 -12.4161 77.5076 -3.8551 0.0000 -3.5999 0.0000
# 3 1.1390 -3.8551 122.9160 0.0000 -32.4089 0.0000
# 4 0.0000 0.0000 0.0000 25.8614 0.0000 14.4022
# 5 -20.7412 -3.5999 -32.4089 0.0000 47.5745 0.0000
# 6 0.0000 0.0000 0.0000 14.4022 0.0000 43.7498
#
#
#
# Elastic Compliance Matrix: (Units=1/GPa)
#
#
# Indices 1 2 3 4 5 6 
#
# 1 0.024165 0.004654 0.003404 0.000000 0.013206 0.000000
# 2 0.004654 0.013910 0.001470 0.000000 0.004083 0.000000
# 3 0.003404 0.001470 0.010447 0.000000 0.008712 0.000000
# 4 0.000000 0.000000 0.000000 0.047348 0.000000 -0.015587
# 5 0.013206 0.004083 0.008712 0.000000 0.033021 0.000000
# 6 0.000000 0.000000 0.000000 -0.015587 0.000000 0.027988
#
#
# Mechanical properties :
#
#
# Convention : Reuss Voigt Hill
#
# Bulk Modulus (GPa) = 14.79792 25.01195 19.90494
# Shear Modulus (GPa) = 31.18170 41.47075 36.32623
#
# Velocity S-wave (km/s) = 3.64765 4.20663 3.93707
# Velocity P-wave (km/s) = 4.90457 5.85380 5.40009
#
# Compressibility (1/GPa) = 0.06757706
#
# Stress axis : x y z
#
# Youngs Moduli (GPa) = 41.38248 71.88985 95.71841
#
# Poissons Ratio (x) = -0.33455 -0.32583
# Poissons Ratio (y) = -0.19258 -0.14067
# Poissons Ratio (z) = -0.14087 -0.10565
#
# Static dielectric constant tensor:
#      x y z
#    x 1.837900 0.000000 -0.037290 
#    y 0.000000 1.965420 0.000000 
#    z -0.037290 0.000000 1.893850 
# 
# From -- ./inp_files/49978.got.cif
#   From: 2010.05.17/outbox.cif.g08.bks.cpg/sg10_25_cif.got.tgz:49978.got - 2010.06.03 11:33:40.
