data_PCOD9152613
_publ_section_title
;
Structure prediction by ZEFSAII (Michael W. Deem and Ramdas Pophale) SiO2 
 PCOD9152613
Probable space group: P 2/M
;
_chemical_formula_sum "Si O2"
_cell_formula_units_Z 32
_cell_length_a 22.444433
_cell_length_b 9.599375
_cell_length_c 14.562125
_cell_angle_alpha 90.000000
_cell_angle_beta 31.465254
_cell_angle_gamma 90.000000
_cell_volume 1637.688801
_symmetry_space_group_name_H-M "P 2/M"
_symmetry_group_IT_number 10
_symmetry_cell_setting 'monoclinic'
loop_
_space_group_symop_operation_xyz
x,y,z
-x,y,-z
-x,-y,-z
x,-y,z
loop_
_atom_site_type_symbol
_atom_site_label
_atom_site_fract_x
_atom_site_fract_y
_atom_site_fract_z
Si Si1 0.855159 0.840230 0.530861
Si Si2 0.266699 0.334702 0.165917
Si Si3 0.616234 0.664406 0.396471
Si Si4 0.162478 0.162838 0.949604
Si Si5 0.304943 0.664583 0.508046
Si Si6 0.114585 0.841023 0.230356
Si Si7 0.481430 0.331570 0.128161
Si Si8 0.090787 0.836746 0.756753
O O1 0.770253 0.731720 0.688314
O O2 0.877920 0.824527 0.392840
O O3 0.978713 0.820074 0.416110
O O4 0.818274 0.000000 0.595284
O O5 0.251253 0.500000 0.188783
O O6 0.188185 0.264458 0.192673
O O7 0.400042 0.304247 0.975341
O O8 0.500000 0.711925 0.500000
O O9 0.630354 0.500000 0.356960
O O10 0.727977 0.746859 0.217978
O O11 0.614516 0.678927 0.508916
O O12 0.180943 0.000000 0.902310
O O13 0.142453 0.170562 0.085666
O O14 0.041964 0.205917 0.061206
O O15 0.280326 0.500000 0.528785
O O16 0.374009 0.718630 0.328346
O O17 0.187360 0.746233 0.678204
O O18 0.139774 0.000000 0.226187
O O19 0.468759 0.500000 0.139106
O O20 0.500000 0.279610 0.000000
O O21 0.098743 0.000000 0.771286
#
# Coordination Sequence:
#
# PCOD9152613 Si02
#       8
#     4   4   4   4   4   4   4   4
#     4   9  18  34  53  74 109 151 184 223 281 341
#     4  11  21  30  50  80 107 142 191 239 279 330
#     4  10  23  40  60  85 116 153 190 231 281 339
#     4   9  20  39  61  84 112 148 189 234 285 339
#     4  10  21  38  59  83 113 151 190 230 285 345
#     4   9  19  35  53  75 107 148 185 223 282 343
#     4   9  19  35  53  76 108 145 183 226 277 329
#     4   9  19  37  60  85 112 145 188 236 286 338
#
# _framework density 19.539732000000001
#
# number of rings (size 3 to 8) (size 9 to 14) (size 15 to 20)
#    0.000    2.500    0.000    3.000    1.750    5.750 
#    0.000    6.250    0.000    3.375    0.000    0.000 
#    0.000    0.000    0.000    0.000    0.000    0.000 
#
# Total GULP energy -178620.547574 kJ/mol
# GULP energy per Si atom -5581.892112 kJ/mol
# Density = 1.949526 g / cm^3
# Si number density = 19.539732 Si / 1000 Ang^3
#
#
#
# Elastic Constant Matrix: (Units=GPa)
#
#
# Indices 1 2 3 4 5 6 
#
# 1 92.5242 40.0935 35.7999 0.0000 -23.1632 0.0000
# 2 40.0935 53.3625 48.7979 0.0000 -20.4567 0.0000
# 3 35.7999 48.7979 119.7657 0.0000 -19.1298 0.0000
# 4 0.0000 0.0000 0.0000 30.7068 0.0000 -5.4523
# 5 -23.1632 -20.4567 -19.1298 0.0000 27.2149 0.0000
# 6 0.0000 0.0000 0.0000 -5.4523 0.0000 48.6339
#
#
#
# Elastic Compliance Matrix: (Units=1/GPa)
#
#
# Indices 1 2 3 4 5 6 
#
# 1 0.016877 -0.010288 0.000232 0.000000 0.006794 0.000000
# 2 -0.010288 0.043525 -0.012201 0.000000 0.015383 0.000000
# 3 0.000232 -0.012201 0.013313 0.000000 0.000384 0.000000
# 4 0.000000 0.000000 0.000000 0.033228 0.000000 0.003725
# 5 0.006794 0.015383 0.000384 0.000000 0.054360 0.000000
# 6 0.000000 0.000000 0.000000 0.003725 0.000000 0.020979
#
#
# Mechanical properties :
#
#
# Convention : Reuss Voigt Hill
#
# Bulk Modulus (GPa) = 34.24667 57.22612 45.73640
# Shear Modulus (GPa) = 21.13889 30.70854 25.92371
#
# Velocity S-wave (km/s) = 3.29270 3.96864 3.64637
# Velocity P-wave (km/s) = 5.65867 7.09582 6.41761
#
# Compressibility (1/GPa) = 0.02919992
#
# Stress axis : x y z
#
# Youngs Moduli (GPa) = 59.25105 22.97541 75.11478
#
# Poissons Ratio (x) = 0.23638 -0.01745
# Poissons Ratio (y) = 0.60960 0.91651
# Poissons Ratio (z) = -0.01376 0.28033
#
# Static dielectric constant tensor:
#      x y z
#    x 1.725950 0.000000 0.030500 
#    y 0.000000 1.643850 0.000000 
#    z 0.030500 0.000000 1.685330 
# 
# From -- ./inp_files/71484.got.cif
#   From: 2010.05.17/outbox.cif.g08.bks.cpg/sg10_36_cif.got.tgz:71484.got - 2010.06.03 11:33:40.
