data_PCOD9152190
_publ_section_title
;
Structure prediction by ZEFSAII (Michael W. Deem and Ramdas Pophale) SiO2 
 PCOD9152190
Probable space group: P 2/M
;
_chemical_formula_sum "Si O2"
_cell_formula_units_Z 32
_cell_length_a 23.668070
_cell_length_b 7.576620
_cell_length_c 15.473654
_cell_angle_alpha 90.000000
_cell_angle_beta 149.160668
_cell_angle_gamma 90.000000
_cell_volume 1422.450891
_symmetry_space_group_name_H-M "P 2/M"
_symmetry_group_IT_number 10
_symmetry_cell_setting 'monoclinic'
loop_
_space_group_symop_operation_xyz
x,y,z
-x,y,-z
-x,-y,-z
x,-y,z
loop_
_atom_site_type_symbol
_atom_site_label
_atom_site_fract_x
_atom_site_fract_y
_atom_site_fract_z
Si Si1 0.777410 0.711755 0.361905
Si Si2 0.441434 0.206687 0.010144
Si Si3 0.981515 0.204921 0.380542
Si Si4 0.244015 0.713897 0.473280
Si Si5 0.410107 0.798325 0.316738
Si Si6 0.999442 0.206320 0.095116
Si Si7 0.537015 0.702682 0.318138
Si Si8 0.162442 0.782329 0.966680
O O1 0.784660 0.500000 0.369715
O O2 0.688978 0.771562 0.175434
O O3 0.899221 0.785294 0.507978
O O4 0.733220 0.767554 0.398049
O O5 0.468297 0.000000 0.051831
O O6 0.500000 0.278575 0.000000
O O7 0.481884 0.292826 0.151276
O O8 0.000000 0.285730 0.500000
O O9 0.891680 0.277778 0.195217
O O10 0.950470 0.000000 0.353559
O O11 0.244733 0.500000 0.471850
O O12 0.123416 0.778231 0.291684
O O13 0.340034 0.775616 0.535594
O O14 0.500000 0.716885 0.500000
O O15 0.464993 0.798838 0.294574
O O16 0.393096 0.000000 0.325108
O O17 0.287414 0.722399 0.146814
O O18 0.915757 0.277183 0.057170
O O19 0.969415 0.000000 0.046720
O O20 0.000000 0.286462 0.000000
O O21 0.545201 0.500000 0.357673
O O22 0.160645 0.000000 0.961616
#
# Coordination Sequence:
#
# PCOD9152190 Si02
#       8
#     4   4   4   4   4   4   4   4
#     4  11  22  38  59  85 122 159 197 246 305 368
#     4  11  23  38  60  90 121 158 202 245 297 366
#     4  10  21  37  59  85 117 160 202 248 303 359
#     4  10  22  39  59  86 123 160 195 245 307 366
#     4  10  23  42  65  90 121 164 213 263 309 361
#     4  10  21  36  62  92 117 149 195 250 305 363
#     4  11  24  42  62  88 125 165 206 253 310 367
#     4   9  19  38  58  86 124 154 193 253 308 352
#
# _framework density 22.496383000000002
#
# number of rings (size 3 to 8) (size 9 to 14) (size 15 to 20)
#    0.000    1.750    2.500    1.125    3.500    2.750 
#    0.000    1.250    0.000    0.000    0.000    0.000 
#    0.000    0.000    0.000    0.000    0.000    0.000 
#
# Total GULP energy -178809.423790 kJ/mol
# GULP energy per Si atom -5587.794493 kJ/mol
# Density = 2.244518 g / cm^3
# Si number density = 22.496383 Si / 1000 Ang^3
#
#
#
# Elastic Constant Matrix: (Units=GPa)
#
#
# Indices 1 2 3 4 5 6 
#
# 1 116.2492 -0.1708 91.0692 0.0000 -4.7878 0.0000
# 2 -0.1708 57.0560 -4.4841 0.0000 -5.1927 0.0000
# 3 91.0692 -4.4841 163.8888 0.0000 9.5147 0.0000
# 4 0.0000 0.0000 0.0000 5.7012 0.0000 -6.6954
# 5 -4.7878 -5.1927 9.5147 0.0000 37.6589 0.0000
# 6 0.0000 0.0000 0.0000 -6.6954 0.0000 -32.0284
#
#
#
# Elastic Compliance Matrix: (Units=1/GPa)
#
#
# Indices 1 2 3 4 5 6 
#
# 1 0.015900 -0.000277 -0.009092 0.000000 0.004280 0.000000
# 2 -0.000277 0.017774 0.000508 0.000000 0.002287 0.000000
# 3 -0.009092 0.000508 0.011398 0.000000 -0.003966 0.000000
# 4 0.000000 0.000000 0.000000 0.140829 0.000000 -0.029440
# 5 0.004280 0.002287 -0.003966 0.000000 0.028416 0.000000
# 6 0.000000 0.000000 0.000000 -0.029440 0.000000 -0.025068
#
#
# Mechanical properties :
#
#
# Convention : Reuss Voigt Hill
#
# Bulk Modulus (GPa) = 36.56377 56.66917 46.61647
# Shear Modulus (GPa) = 23.13876 18.98498 21.06187
#
# Velocity S-wave (km/s) = 3.21059 2.90817 3.06311
# Velocity P-wave (km/s) = 5.48017 6.04331 5.76862
#
# Compressibility (1/GPa) = 0.02734948
#
# Stress axis : x y z
#
# Youngs Moduli (GPa) = 62.89165 56.26232 87.73648
#
# Poissons Ratio (x) = 0.01561 0.79766
# Poissons Ratio (y) = 0.01744 -0.04454
# Poissons Ratio (z) = 0.57178 -0.02856
#
# Static dielectric constant tensor:
#      x y z
#    x 1.814970 0.000000 -0.013120 
#    y 0.000000 1.844350 0.000000 
#    z -0.013120 0.000000 1.820760 
# 
# From -- ./inp_files/71619.got.cif
#   From: 2010.05.17/outbox.cif.g08.bks.cpg/sg10_36_cif.got.tgz:71619.got - 2010.06.03 11:33:40.
