data_PCOD9152513
_publ_section_title
;
Structure prediction by ZEFSAII (Michael W. Deem and Ramdas Pophale) SiO2 
 PCOD9152513
Probable space group: P 2/M
;
_chemical_formula_sum "Si O2"
_cell_formula_units_Z 28
_cell_length_a 11.872377
_cell_length_b 16.031711
_cell_length_c 8.851004
_cell_angle_alpha 90.000000
_cell_angle_beta 62.019235
_cell_angle_gamma 90.000000
_cell_volume 1487.724480
_symmetry_space_group_name_H-M "P 2/M"
_symmetry_group_IT_number 10
_symmetry_cell_setting 'monoclinic'
loop_
_space_group_symop_operation_xyz
x,y,z
-x,y,-z
-x,-y,-z
x,-y,z
loop_
_atom_site_type_symbol
_atom_site_label
_atom_site_fract_x
_atom_site_fract_y
_atom_site_fract_z
Si Si1 0.808892 0.765688 0.896713
Si Si2 0.616629 0.315975 0.216647
Si Si3 0.612535 0.500000 0.307987
Si Si4 0.912135 0.500000 0.205413
Si Si5 0.585711 0.800084 0.813467
Si Si6 0.948023 0.671799 0.365050
Si Si7 0.713903 0.213118 0.433796
Si Si8 0.153382 0.903689 0.894616
O O1 0.713182 0.770017 0.816936
O O2 0.949233 0.735982 0.769504
O O3 0.751603 0.700346 0.051611
O O4 0.801951 0.854300 0.984984
O O5 0.593649 0.413213 0.236179
O O6 0.509142 0.272366 0.183323
O O7 0.631036 0.269000 0.368523
O O8 0.500000 0.500000 0.500000
O O9 0.759595 0.500000 0.270787
O O10 0.940849 0.585024 0.279261
O O11 0.000000 0.500000 0.000000
O O12 0.635652 0.832086 0.618232
O O13 0.500000 0.844834 0.000000
O O14 0.813938 0.720534 0.440999
O O15 0.000000 0.654884 0.500000
O O16 0.789204 0.146138 0.283900
O O17 0.192380 0.000000 0.867400
O O18 0.000000 0.899794 0.000000
#
# Coordination Sequence:
#
# PCOD9152513 Si02
#       8
#     4   4   2   2   4   4   4   4
#     4  10  21  39  62  88 125 160 201 251 316 381
#     4  10  22  37  61  86 116 163 213 256 300 368
#     4  12  22  35  57  89 119 152 211 268 305 345
#     4  12  27  41  60  89 132 171 219 271 312 378
#     4  10  21  39  60  87 116 162 209 251 302 372
#     4  12  23  38  60  91 127 167 206 255 323 369
#     4  11  20  37  65  85 122 159 206 255 310 375
#     4  10  21  37  63  98 127 154 200 258 317 378
#
# _framework density 18.820688000000001
#
# number of rings (size 3 to 8) (size 9 to 14) (size 15 to 20)
#    0.000    1.286    4.286    2.357    2.000    0.000 
#    0.000    4.643    0.000   29.143    0.000    0.000 
#    0.000    0.000    0.000    0.000    0.000    0.000 
#
# Total GULP energy -156037.973215 kJ/mol
# GULP energy per Si atom -5572.784758 kJ/mol
# Density = 1.877785 g / cm^3
# Si number density = 18.820688 Si / 1000 Ang^3
#
#
#
# Elastic Constant Matrix: (Units=GPa)
#
#
# Indices 1 2 3 4 5 6 
#
# 1 82.9553 19.4203 25.4385 0.0000 9.0579 0.0000
# 2 19.4203 102.5616 42.4402 0.0000 3.0477 0.0000
# 3 25.4385 42.4402 128.8589 0.0000 6.8137 0.0000
# 4 0.0000 0.0000 0.0000 7.7455 0.0000 2.8167
# 5 9.0579 3.0477 6.8137 0.0000 25.6631 0.0000
# 6 0.0000 0.0000 0.0000 2.8167 0.0000 10.2408
#
#
#
# Elastic Compliance Matrix: (Units=1/GPa)
#
#
# Indices 1 2 3 4 5 6 
#
# 1 0.013465 -0.001642 -0.001903 0.000000 -0.004052 0.000000
# 2 -0.001642 0.011492 -0.003468 0.000000 0.000135 0.000000
# 3 -0.001903 -0.003468 0.009352 0.000000 -0.001399 0.000000
# 4 0.000000 0.000000 0.000000 0.143456 0.000000 -0.039457
# 5 -0.004052 0.000135 -0.001399 0.000000 0.040752 0.000000
# 6 0.000000 0.000000 0.000000 -0.039457 0.000000 0.108501
#
#
# Mechanical properties :
#
#
# Convention : Reuss Voigt Hill
#
# Bulk Modulus (GPa) = 49.30066 54.33044 51.81555
# Shear Modulus (GPa) = 14.37586 23.86833 19.12209
#
# Velocity S-wave (km/s) = 2.76675 3.56504 3.19096
# Velocity P-wave (km/s) = 6.03807 6.77319 6.41617
#
# Compressibility (1/GPa) = 0.02028371
#
# Stress axis : x y z
#
# Youngs Moduli (GPa) = 74.26594 87.01583 106.92477
#
# Poissons Ratio (x) = 0.14285 0.20350
# Poissons Ratio (y) = 0.12192 0.37082
# Poissons Ratio (z) = 0.14135 0.30178
#
# Static dielectric constant tensor:
#      x y z
#    x 1.629530 0.000000 0.008980 
#    y 0.000000 1.591740 0.000000 
#    z 0.008980 0.000000 1.711050 
# 
# From -- ./inp_files/25240.got.cif
#   From: 2010.05.17/outbox.cif.g08.bks.cpg/sg10_13_cif.got.tgz:25240.got - 2010.06.03 11:33:40.
