data_PCOD9152359
_publ_section_title
;
Structure prediction by ZEFSAII (Michael W. Deem and Ramdas Pophale) SiO2 
 PCOD9152359
Probable space group: P 2/M
;
_chemical_formula_sum "Si O2"
_cell_formula_units_Z 24
_cell_length_a 17.756250
_cell_length_b 9.150287
_cell_length_c 7.012252
_cell_angle_alpha 90.000000
_cell_angle_beta 86.600532
_cell_angle_gamma 90.000000
_cell_volume 1137.309364
_symmetry_space_group_name_H-M "P 2/M"
_symmetry_group_IT_number 10
_symmetry_cell_setting 'monoclinic'
loop_
_space_group_symop_operation_xyz
x,y,z
-x,y,-z
-x,-y,-z
x,-y,z
loop_
_atom_site_type_symbol
_atom_site_label
_atom_site_fract_x
_atom_site_fract_y
_atom_site_fract_z
Si Si1 0.680301 0.668864 0.340085
Si Si2 0.169755 0.170153 0.600604
Si Si3 0.641633 0.330630 0.800502
Si Si4 0.917906 0.674346 0.091853
Si Si5 0.793423 0.171669 0.851199
Si Si6 0.517965 0.322133 0.278774
O O1 0.698818 0.500000 0.289544
O O2 0.753137 0.769587 0.316159
O O3 0.657331 0.668475 0.568532
O O4 0.605417 0.717809 0.237296
O O5 0.100943 0.261039 0.697758
O O6 0.181101 0.187682 0.373378
O O7 0.159861 0.000000 0.644606
O O8 0.644946 0.500000 0.862453
O O9 0.709905 0.239901 0.877879
O O10 0.555196 0.275907 0.831132
O O11 0.911584 0.500000 0.095312
O O12 0.854228 0.743329 0.966571
O O13 0.000000 0.714530 0.000000
O O14 0.792095 0.000000 0.897149
O O15 0.500000 0.278607 0.500000
O O16 0.516934 0.500000 0.272022
#
# Coordination Sequence:
#
# PCOD9152359 Si02
#       6
#     4   4   4   4   4   4
#     4   8  13  24  45  73 106 145 188 229 267 312
#     4  10  21  37  58  85 117 151 184 221 273 335
#     4   8  13  24  45  73 106 145 188 229 267 312
#     4  11  25  43  63  86 109 138 181 231 280 331
#     4  10  21  37  58  85 117 151 184 221 273 335
#     4   7  10  18  37  68 103 140 184 229 267 306
#
# _framework density 21.102437999999999
#
# number of rings (size 3 to 8) (size 9 to 14) (size 15 to 20)
#    0.000    3.000    0.000    3.500    0.000    4.000 
#    0.000    4.167    0.000    6.000    0.000    7.000 
#    0.000    0.000    0.000    0.000    0.000    0.000 
#
# Total GULP energy -134038.796361 kJ/mol
# GULP energy per Si atom -5584.949848 kJ/mol
# Density = 2.105441 g / cm^3
# Si number density = 21.102438 Si / 1000 Ang^3
#
#
#
# Elastic Constant Matrix: (Units=GPa)
#
#
# Indices 1 2 3 4 5 6 
#
# 1 110.5645 44.7965 31.0616 0.0000 -20.3287 0.0000
# 2 44.7965 61.8514 18.6238 0.0000 -11.6647 0.0000
# 3 31.0616 18.6238 71.2535 0.0000 -4.9046 0.0000
# 4 0.0000 0.0000 0.0000 14.8281 0.0000 -17.7298
# 5 -20.3287 -11.6647 -4.9046 0.0000 35.6541 0.0000
# 6 0.0000 0.0000 0.0000 -17.7298 0.0000 -31.0094
#
#
#
# Elastic Compliance Matrix: (Units=1/GPa)
#
#
# Indices 1 2 3 4 5 6 
#
# 1 0.014398 -0.008364 -0.003749 0.000000 0.004957 0.000000
# 2 -0.008364 0.023401 -0.002293 0.000000 0.002572 0.000000
# 3 -0.003749 -0.002293 0.016223 0.000000 -0.000656 0.000000
# 4 0.000000 0.000000 0.000000 0.040056 0.000000 -0.022902
# 5 0.004957 0.002572 -0.000656 0.000000 0.031625 0.000000
# 6 0.000000 0.000000 0.000000 -0.022902 0.000000 -0.019154
#
#
# Mechanical properties :
#
#
# Convention : Reuss Voigt Hill
#
# Bulk Modulus (GPa) = 39.66836 48.07037 43.86937
# Shear Modulus (GPa) = 34.77901 13.84039 24.30970
#
# Velocity S-wave (km/s) = 4.06409 2.56377 3.39777
# Velocity P-wave (km/s) = 6.39228 5.62075 6.01889
#
# Compressibility (1/GPa) = 0.02520900
#
# Stress axis : x y z
#
# Youngs Moduli (GPa) = 69.45392 42.73301 61.64094
#
# Poissons Ratio (x) = 0.35743 0.23110
# Poissons Ratio (y) = 0.58092 0.14136
# Poissons Ratio (z) = 0.26039 0.09800
#
# Static dielectric constant tensor:
#      x y z
#    x 1.749980 0.000000 -0.020550 
#    y 0.000000 1.689860 0.000000 
#    z -0.020550 0.000000 1.866200 
# 
# From -- ./inp_files/31226.got.cif
#   From: 2010.05.17/outbox.cif.g08.bks.cpg/sg10_16_cif.got.tgz:31226.got - 2010.06.03 11:33:40.
