data_PCOD9152925
_publ_section_title
;
Structure prediction by ZEFSAII (Michael W. Deem and Ramdas Pophale) SiO2 
 PCOD9152925
Probable space group: P 2/M
;
_chemical_formula_sum "Si O2"
_cell_formula_units_Z 17
_cell_length_a 5.116014
_cell_length_b 14.608900
_cell_length_c 10.225610
_cell_angle_alpha 90.000000
_cell_angle_beta 107.062511
_cell_angle_gamma 90.000000
_cell_volume 730.616768
_symmetry_space_group_name_H-M "P 2/M"
_symmetry_group_IT_number 10
_symmetry_cell_setting 'monoclinic'
loop_
_space_group_symop_operation_xyz
x,y,z
-x,y,-z
-x,-y,-z
x,-y,z
loop_
_atom_site_type_symbol
_atom_site_label
_atom_site_fract_x
_atom_site_fract_y
_atom_site_fract_z
Si Si1 0.684191 0.800348 0.407824
Si Si2 0.258413 0.402810 0.633148
Si Si3 0.756012 0.853593 0.127973
Si Si4 0.806503 0.639068 0.086749
Si Si5 0.000000 0.000000 0.000000
O O1 0.500000 0.835492 0.500000
O O2 0.590600 0.694345 0.365427
O O3 0.678874 0.853599 0.269467
O O4 0.000000 0.797922 0.500000
O O5 0.410601 0.500000 0.638115
O O6 0.144524 0.399310 0.763254
O O7 0.000000 0.402632 0.500000
O O8 0.826107 0.749047 0.104645
O O9 0.990276 0.920258 0.113552
O O10 0.500000 0.884106 0.000000
O O11 0.500000 0.617115 0.000000
O O12 0.000000 0.607985 0.000000
#
# Coordination Sequence:
#
# PCOD9152925 Si02
#       5
#     4   4   4   4   1
#     4  10  23  42  66  90 126 170 206 250 307 367
#     4   9  20  37  60  91 125 163 208 254 301 356
#     4  10  23  39  65  92 124 160 209 251 311 373
#     4  10  21  39  61  87 121 163 205 251 305 365
#     4  12  22  40  68  96 122 156 204 268 304 374
#
# _framework density 23.268014000000001
#
# number of rings (size 3 to 8) (size 9 to 14) (size 15 to 20)
#    0.000    2.118    1.176    0.353    3.294   12.706 
#    0.000    5.882    0.000    0.000    0.000    0.000 
#    0.000    0.000    0.000    0.000    0.000    0.000 
#
# Total GULP energy -94778.446141 kJ/mol
# GULP energy per Si atom -5575.202714 kJ/mol
# Density = 2.321505 g / cm^3
# Si number density = 23.268014 Si / 1000 Ang^3
#
#
#
# Elastic Constant Matrix: (Units=GPa)
#
#
# Indices 1 2 3 4 5 6 
#
# 1 108.2701 26.2849 71.9236 0.0000 -36.1028 0.0000
# 2 26.2849 59.5009 35.9881 0.0000 -3.9860 0.0000
# 3 71.9236 35.9881 219.7509 0.0000 -47.2628 0.0000
# 4 0.0000 0.0000 0.0000 20.0737 0.0000 -3.3245
# 5 -36.1028 -3.9860 -47.2628 0.0000 49.9036 0.0000
# 6 0.0000 0.0000 0.0000 -3.3245 0.0000 -0.8566
#
#
#
# Elastic Compliance Matrix: (Units=1/GPa)
#
#
# Indices 1 2 3 4 5 6 
#
# 1 0.014507 -0.004483 -0.002303 0.000000 0.007956 0.000000
# 2 -0.004483 0.020164 -0.002745 0.000000 -0.004233 0.000000
# 3 -0.002303 -0.002745 0.006717 0.000000 0.004476 0.000000
# 4 0.000000 0.000000 0.000000 0.030326 0.000000 -0.117688
# 5 0.007956 -0.004233 0.004476 0.000000 0.029696 0.000000
# 6 0.000000 0.000000 0.000000 -0.117688 0.000000 -0.710620
#
#
# Mechanical properties :
#
#
# Convention : Reuss Voigt Hill
#
# Bulk Modulus (GPa) = 44.79161 72.87947 58.83554
# Shear Modulus (GPa) = -8.58064 30.71248 11.06592
#
# Velocity S-wave (km/s) = -1.92243 3.63704 2.18316
# Velocity P-wave (km/s) = 3.79004 7.00194 5.62990
#
# Compressibility (1/GPa) = 0.02232561
#
# Stress axis : x y z
#
# Youngs Moduli (GPa) = 68.93092 49.59418 148.88612
#
# Poissons Ratio (x) = 0.22232 0.34286
# Poissons Ratio (y) = 0.30901 0.40873
# Poissons Ratio (z) = 0.15874 0.13615
#
# Static dielectric constant tensor:
#      x y z
#    x 1.682530 0.000000 -0.071030 
#    y 0.000000 1.912140 0.000000 
#    z -0.071030 0.000000 1.814630 
# 
# From -- ./inp_files/14349.got.cif
#   From: 2010.05.17/outbox.cif.g08.bks.cpg/sg10_8_cif.got.tgz:14349.got - 2010.06.03 11:33:40.
