data_PCOD9152943
_publ_section_title
;
Structure prediction by ZEFSAII (Michael W. Deem and Ramdas Pophale) SiO2 
 PCOD9152943
Probable space group: P 2/M
;
_chemical_formula_sum "Si O2"
_cell_formula_units_Z 28
_cell_length_a 14.265836
_cell_length_b 8.694718
_cell_length_c 19.967972
_cell_angle_alpha 90.000000
_cell_angle_beta 147.692752
_cell_angle_gamma 90.000000
_cell_volume 1323.735764
_symmetry_space_group_name_H-M "P 2/M"
_symmetry_group_IT_number 10
_symmetry_cell_setting 'monoclinic'
loop_
_space_group_symop_operation_xyz
x,y,z
-x,y,-z
-x,-y,-z
x,-y,z
loop_
_atom_site_type_symbol
_atom_site_label
_atom_site_fract_x
_atom_site_fract_y
_atom_site_fract_z
Si Si1 0.772122 0.000000 0.213575
Si Si2 0.842779 0.329326 0.450741
Si Si3 0.507452 0.180013 0.302724
Si Si4 0.382450 0.684082 0.493058
Si Si5 0.222666 0.329306 0.948215
Si Si6 0.983034 0.731125 0.678359
Si Si7 0.593859 0.000000 0.960466
Si Si8 0.121795 0.819617 0.010263
O O1 0.902279 0.140579 0.288718
O O2 0.615919 0.000000 0.172106
O O3 0.668875 0.000000 0.080927
O O4 0.801794 0.500000 0.398765
O O5 0.666657 0.231497 0.351105
O O6 0.000000 0.265154 0.500000
O O7 0.907238 0.348224 0.566361
O O8 0.518912 0.275475 0.378418
O O9 0.320780 0.201382 0.155426
O O10 0.528355 0.000000 0.331435
O O11 0.500000 0.727074 0.500000
O O12 0.347195 0.500000 0.467999
O O13 0.193803 0.768234 0.386487
O O14 0.305605 0.500000 0.006798
O O15 0.117176 0.333353 0.814586
O O16 0.338125 0.170624 0.021142
O O17 0.091082 0.294448 0.930098
O O18 0.097557 0.000000 0.975779
O O19 0.000000 0.790156 0.000000
#
# Coordination Sequence:
#
# PCOD9152943 Si02
#       8
#     2   4   4   4   4   4   2   4
#     4   9  20  38  62  84 128 168 200 259 331 364
#     4  10  22  41  64  91 128 168 206 260 325 380
#     4  10  22  40  61  91 124 163 214 263 313 384
#     4  10  22  39  61  90 129 166 202 260 323 376
#     4  11  22  39  67  95 128 172 217 268 322 385
#     4  10  21  39  61  97 125 161 212 261 311 389
#     4   9  20  42  59  90 128 166 215 267 318 377
#     4  10  23  43  62  89 131 173 216 272 327 380
#
# _framework density 21.152259000000001
#
# number of rings (size 3 to 8) (size 9 to 14) (size 15 to 20)
#    0.000    2.000    0.714    2.571    6.000    3.143 
#    0.000    8.571    0.000    0.000    0.000    0.000 
#    0.000    0.000    0.000    0.000    0.000    0.000 
#
# Total GULP energy -155917.384073 kJ/mol
# GULP energy per Si atom -5568.478003 kJ/mol
# Density = 2.110412 g / cm^3
# Si number density = 21.152259 Si / 1000 Ang^3
#
#
#
# Elastic Constant Matrix: (Units=GPa)
#
#
# Indices 1 2 3 4 5 6 
#
# 1 130.1827 31.9107 41.6076 0.0000 17.8203 0.0000
# 2 31.9107 80.4894 34.3125 0.0000 6.6163 0.0000
# 3 41.6076 34.3125 60.7071 0.0000 16.0385 0.0000
# 4 0.0000 0.0000 0.0000 21.1786 0.0000 -12.0400
# 5 17.8203 6.6163 16.0385 0.0000 30.5807 0.0000
# 6 0.0000 0.0000 0.0000 -12.0400 0.0000 -7.4422
#
#
#
# Elastic Compliance Matrix: (Units=1/GPa)
#
#
# Indices 1 2 3 4 5 6 
#
# 1 0.010146 -0.001505 -0.005372 0.000000 -0.002770 0.000000
# 2 -0.001505 0.016652 -0.008893 0.000000 0.001938 0.000000
# 3 -0.005372 -0.008893 0.027681 0.000000 -0.009463 0.000000
# 4 0.000000 0.000000 0.000000 0.024596 0.000000 -0.039791
# 5 -0.002770 0.001938 -0.009463 0.000000 0.038858 0.000000
# 6 0.000000 0.000000 0.000000 -0.039791 0.000000 -0.069994
#
#
# Mechanical properties :
#
#
# Convention : Reuss Voigt Hill
#
# Bulk Modulus (GPa) = 43.59100 54.11565 48.85333
# Shear Modulus (GPa) = 57.38866 19.76665 38.57766
#
# Velocity S-wave (km/s) = 5.21441 3.06026 4.27524
# Velocity P-wave (km/s) = 7.54364 6.17466 6.89321
#
# Compressibility (1/GPa) = 0.02294051
#
# Stress axis : x y z
#
# Youngs Moduli (GPa) = 98.55678 60.05192 36.12629
#
# Poissons Ratio (x) = 0.09038 0.19406
# Poissons Ratio (y) = 0.14833 0.32126
# Poissons Ratio (z) = 0.52943 0.53402
#
# Static dielectric constant tensor:
#      x y z
#    x 1.808360 0.000000 0.014870 
#    y 0.000000 1.792910 0.000000 
#    z 0.014870 0.000000 1.752440 
# 
# From -- ./inp_files/85009.got.cif
#   From: 2010.05.17/outbox.cif.g08.bks.cpg/sg10_43_cif.got.tgz:85009.got - 2010.06.03 11:33:40.
