data_PCOD9152737
_publ_section_title
;
Structure prediction by ZEFSAII (Michael W. Deem and Ramdas Pophale) SiO2 
 PCOD9152737
Probable space group: P 2/M
;
_chemical_formula_sum "Si O2"
_cell_formula_units_Z 32
_cell_length_a 26.511231
_cell_length_b 8.863181
_cell_length_c 20.515740
_cell_angle_alpha 90.000000
_cell_angle_beta 20.808491
_cell_angle_gamma 90.000000
_cell_volume 1712.518528
_symmetry_space_group_name_H-M "P 2/M"
_symmetry_group_IT_number 10
_symmetry_cell_setting 'monoclinic'
loop_
_space_group_symop_operation_xyz
x,y,z
-x,y,-z
-x,-y,-z
x,-y,z
loop_
_atom_site_type_symbol
_atom_site_label
_atom_site_fract_x
_atom_site_fract_y
_atom_site_fract_z
Si Si1 0.859731 0.180587 0.454417
Si Si2 0.113964 0.320193 0.713021
Si Si3 0.840952 0.680543 0.716497
Si Si4 0.821409 0.180705 0.882641
Si Si5 0.378651 0.319473 0.766378
Si Si6 0.664244 0.181481 0.813422
Si Si7 0.812142 0.179491 0.113737
Si Si8 0.712460 0.680313 0.366780
O O1 0.825273 0.263095 0.428870
O O2 0.756533 0.222229 0.638357
O O3 0.021371 0.216896 0.279771
O O4 0.850727 0.000000 0.455726
O O5 0.093273 0.500000 0.736066
O O6 0.215146 0.284031 0.651733
O O7 0.962846 0.241014 0.906813
O O8 0.834108 0.500000 0.730891
O O9 0.812139 0.755837 0.820947
O O10 0.731020 0.738431 0.795303
O O11 0.000000 0.721516 0.500000
O O12 0.806277 0.000000 0.900623
O O13 0.706261 0.253125 0.069650
O O14 0.362018 0.500000 0.784857
O O15 0.309197 0.249870 0.785562
O O16 0.545403 0.284458 0.569088
O O17 0.675692 0.000000 0.808457
O O18 0.500000 0.218853 0.000000
O O19 0.786983 0.233069 0.217804
O O20 0.809072 0.000000 0.112257
O O21 0.728477 0.500000 0.336181
#
# Coordination Sequence:
#
# PCOD9152737 Si02
#       8
#     4   4   4   4   4   4   4   4
#     4  10  21  38  61  89 122 157 199 249 299 358
#     4  11  23  40  64  89 119 160 203 248 301 361
#     4  11  23  38  61  91 122 159 203 248 296 354
#     4  11  22  38  63  91 122 159 201 251 301 356
#     4  11  23  41  64  89 122 160 201 251 303 359
#     4  10  22  41  64  91 124 162 201 246 305 363
#     4  12  24  39  62  92 122 158 204 250 299 358
#     4  10  24  43  61  88 123 160 201 248 305 360
#
# _framework density 18.685929000000002
#
# number of rings (size 3 to 8) (size 9 to 14) (size 15 to 20)
#    0.000    1.250    2.500    3.375    0.000    7.750 
#    0.000    2.500    0.000    0.000    0.000    0.000 
#    0.000    0.000    0.000    0.000    0.000    0.000 
#
# Total GULP energy -178982.085976 kJ/mol
# GULP energy per Si atom -5593.190187 kJ/mol
# Density = 1.864340 g / cm^3
# Si number density = 18.685929 Si / 1000 Ang^3
#
#
#
# Elastic Constant Matrix: (Units=GPa)
#
#
# Indices 1 2 3 4 5 6 
#
# 1 142.1077 48.2234 25.6412 0.0000 5.7104 0.0000
# 2 48.2234 41.6049 17.1005 0.0000 -1.6815 0.0000
# 3 25.6412 17.1005 34.2156 0.0000 -1.7300 0.0000
# 4 0.0000 0.0000 0.0000 18.2895 0.0000 7.3631
# 5 5.7104 -1.6815 -1.7300 0.0000 37.2067 0.0000
# 6 0.0000 0.0000 0.0000 7.3631 0.0000 38.1298
#
#
#
# Elastic Compliance Matrix: (Units=1/GPa)
#
#
# Indices 1 2 3 4 5 6 
#
# 1 0.012006 -0.012922 -0.002668 0.000000 -0.002551 0.000000
# 2 -0.012922 0.044175 -0.012222 0.000000 0.003411 0.000000
# 3 -0.002668 -0.012222 0.037415 0.000000 0.001597 0.000000
# 4 0.000000 0.000000 0.000000 0.059285 0.000000 -0.011448
# 5 -0.002551 0.003411 0.001597 0.000000 0.027497 0.000000
# 6 0.000000 0.000000 0.000000 -0.011448 0.000000 0.028437
#
#
# Mechanical properties :
#
#
# Convention : Reuss Voigt Hill
#
# Bulk Modulus (GPa) = 26.33517 44.42870 35.38193
# Shear Modulus (GPa) = 18.04435 27.18940 22.61688
#
# Velocity S-wave (km/s) = 3.11089 3.81868 3.48281
# Velocity P-wave (km/s) = 5.19881 6.57809 5.92870
#
# Compressibility (1/GPa) = 0.03797204
#
# Stress axis : x y z
#
# Youngs Moduli (GPa) = 83.29236 22.63727 26.72754
#
# Poissons Ratio (x) = 0.29253 0.07130
# Poissons Ratio (y) = 1.07634 0.32665
# Poissons Ratio (z) = 0.22220 0.27666
#
# Static dielectric constant tensor:
#      x y z
#    x 1.616420 0.000000 -0.001770 
#    y 0.000000 1.625770 0.000000 
#    z -0.001770 0.000000 1.619680 
# 
# From -- ./inp_files/86819.got.cif
#   From: 2010.05.17/outbox.cif.g08.bks.cpg/sg10_44_cif.got.tgz:86819.got - 2010.06.03 11:33:40.
