data_PCOD9152500
_publ_section_title
;
Structure prediction by ZEFSAII (Michael W. Deem and Ramdas Pophale) SiO2 
 PCOD9152500
Probable space group: P 2/M
;
_chemical_formula_sum "Si O2"
_cell_formula_units_Z 32
_cell_length_a 12.480126
_cell_length_b 8.432096
_cell_length_c 15.753688
_cell_angle_alpha 90.000000
_cell_angle_beta 89.302011
_cell_angle_gamma 90.000000
_cell_volume 1657.694611
_symmetry_space_group_name_H-M "P 2/M"
_symmetry_group_IT_number 10
_symmetry_cell_setting 'monoclinic'
loop_
_space_group_symop_operation_xyz
x,y,z
-x,y,-z
-x,-y,-z
x,-y,z
loop_
_atom_site_type_symbol
_atom_site_label
_atom_site_fract_x
_atom_site_fract_y
_atom_site_fract_z
Si Si1 0.015526 0.192155 0.901477
Si Si2 0.029483 0.308198 0.595259
Si Si3 0.514712 0.686544 0.404266
Si Si4 0.247246 0.183612 0.848270
Si Si5 0.523880 0.805750 0.096306
Si Si6 0.872021 0.310335 0.749182
Si Si7 0.371124 0.810654 0.251589
Si Si8 0.260146 0.181462 0.645631
O O1 0.133234 0.254084 0.874438
O O2 0.928064 0.254045 0.835757
O O3 0.013438 0.000000 0.894640
O O4 0.000000 0.233634 0.000000
O O5 0.031336 0.500000 0.597628
O O6 0.147261 0.244766 0.614259
O O7 0.000000 0.259059 0.500000
O O8 0.944799 0.254261 0.668294
O O9 0.500000 0.748589 0.500000
O O10 0.489187 0.500000 0.403972
O O11 0.439795 0.765987 0.334137
O O12 0.638594 0.714868 0.381301
O O13 0.357341 0.253834 0.881849
O O14 0.255028 0.181700 0.747290
O O15 0.244479 0.000000 0.878827
O O16 0.437442 0.753757 0.167647
O O17 0.524966 0.000000 0.100760
O O18 0.500000 0.761381 0.000000
O O19 0.872906 0.500000 0.747562
O O20 0.749436 0.254347 0.744152
O O21 0.364615 0.000000 0.246521
O O22 0.277498 0.000000 0.617100
#
# Coordination Sequence:
#
# PCOD9152500 Si02
#       8
#     4   4   4   4   4   4   4   4
#     4  10  21  37  62  91 119 157 206 254 301 356
#     4  10  23  42  62  85 118 162 205 242 296 370
#     4  11  25  43  63  87 121 164 204 243 299 367
#     4   9  17  33  56  86 120 149 190 249 300 344
#     4   9  18  33  58  89 119 153 192 238 296 353
#     4  11  24  41  60  85 124 165 200 245 305 368
#     4  11  23  40  63  90 121 156 202 255 302 353
#     4  11  21  38  64  92 121 150 197 260 304 345
#
# _framework density 19.303916999999998
#
# number of rings (size 3 to 8) (size 9 to 14) (size 15 to 20)
#    0.000    1.750    2.500    1.500    3.500    2.000 
#    0.000    0.000    0.000    1.500    0.000    0.000 
#    0.000    0.000    0.000    0.000    0.000    0.000 
#
# Total GULP energy -178644.780291 kJ/mol
# GULP energy per Si atom -5582.649384 kJ/mol
# Density = 1.925998 g / cm^3
# Si number density = 19.303917 Si / 1000 Ang^3
#
#
#
# Elastic Constant Matrix: (Units=GPa)
#
#
# Indices 1 2 3 4 5 6 
#
# 1 168.8392 15.6775 82.4883 0.0000 18.0366 0.0000
# 2 15.6775 17.9167 25.7003 0.0000 2.1991 0.0000
# 3 82.4883 25.7003 143.4112 0.0000 13.1157 0.0000
# 4 0.0000 0.0000 0.0000 20.6945 0.0000 9.4101
# 5 18.0366 2.1991 13.1157 0.0000 35.2873 0.0000
# 6 0.0000 0.0000 0.0000 9.4101 0.0000 40.4356
#
#
#
# Elastic Compliance Matrix: (Units=1/GPa)
#
#
# Indices 1 2 3 4 5 6 
#
# 1 0.008468 -0.000599 -0.004525 0.000000 -0.002609 0.000000
# 2 -0.000599 0.075172 -0.013174 0.000000 0.000518 0.000000
# 3 -0.004525 -0.013174 0.012060 0.000000 -0.001349 0.000000
# 4 0.000000 0.000000 0.000000 0.054041 0.000000 -0.012576
# 5 -0.002609 0.000518 -0.001349 0.000000 0.030141 0.000000
# 6 0.000000 0.000000 0.000000 -0.012576 0.000000 0.027657
#
#
# Mechanical properties :
#
#
# Convention : Reuss Voigt Hill
#
# Bulk Modulus (GPa) = 16.91937 64.21101 40.56519
# Shear Modulus (GPa) = 18.95120 33.03687 25.99404
#
# Velocity S-wave (km/s) = 3.13665 4.14140 3.67354
# Velocity P-wave (km/s) = 4.67995 7.49691 6.24922
#
# Compressibility (1/GPa) = 0.05910386
#
# Stress axis : x y z
#
# Youngs Moduli (GPa) = 118.09654 13.30283 82.92113
#
# Poissons Ratio (x) = 0.00797 0.37518
# Poissons Ratio (y) = 0.07074 1.09242
# Poissons Ratio (z) = 0.53433 0.17525
#
# Static dielectric constant tensor:
#      x y z
#    x 1.632700 0.000000 -0.014230 
#    y 0.000000 1.681630 0.000000 
#    z -0.014230 0.000000 1.666120 
# 
# From -- ./inp_files/63832.got.cif
#   From: 2010.05.17/outbox.cif.g08.bks.cpg/sg10_32_cif.got.tgz:63832.got - 2010.06.03 11:33:40.
