data_PCOD9152952
_publ_section_title
;
Structure prediction by ZEFSAII (Michael W. Deem and Ramdas Pophale) SiO2 
 PCOD9152952
Probable space group: P 2/M
;
_chemical_formula_sum "Si O2"
_cell_formula_units_Z 28
_cell_length_a 8.302427
_cell_length_b 10.085377
_cell_length_c 25.162082
_cell_angle_alpha 90.000000
_cell_angle_beta 139.097814
_cell_angle_gamma 90.000000
_cell_volume 1379.533711
_symmetry_space_group_name_H-M "P 2/M"
_symmetry_group_IT_number 10
_symmetry_cell_setting 'monoclinic'
loop_
_space_group_symop_operation_xyz
x,y,z
-x,y,-z
-x,-y,-z
x,-y,z
loop_
_atom_site_type_symbol
_atom_site_label
_atom_site_fract_x
_atom_site_fract_y
_atom_site_fract_z
Si Si1 0.360628 0.652458 0.379872
Si Si2 0.746551 0.714172 0.081169
Si Si3 0.417425 0.845638 0.178662
Si Si4 0.280149 0.646768 0.237092
Si Si5 0.072399 0.348520 0.456678
Si Si6 0.980226 0.154483 0.341604
Si Si7 0.339918 0.155236 0.043055
O O1 0.273233 0.500000 0.367060
O O2 0.379259 0.670320 0.320920
O O3 0.631747 0.662724 0.472255
O O4 0.178235 0.761361 0.357828
O O5 0.616162 0.815561 0.089556
O O6 0.982004 0.648301 0.164753
O O7 0.500000 0.637226 0.000000
O O8 0.823012 0.783465 0.044686
O O9 0.355282 0.756581 0.213591
O O10 0.313542 0.794253 0.096291
O O11 0.714073 0.844033 0.247691
O O12 0.344487 0.000000 0.168188
O O13 0.360885 0.500000 0.239869
O O14 0.003625 0.500000 0.423906
O O15 0.959079 0.235926 0.391410
O O16 0.000000 0.332547 0.500000
O O17 0.050693 0.000000 0.366788
O O18 0.298042 0.000000 0.034383
#
# Coordination Sequence:
#
# PCOD9152952 Si02
#       7
#     4   4   4   4   4   4   4
#     4  10  22  39  61  85 112 153 199 234 274 338
#     4   8  18  34  57  83 111 142 185 237 285 333
#     4  10  22  38  56  83 116 151 190 235 285 339
#     4  11  23  39  58  84 115 150 191 236 288 341
#     4  10  21  39  62  87 118 156 195 233 275 335
#     4  11  23  38  60  88 119 150 189 240 291 336
#     4   8  16  34  57  80 109 147 191 228 275 341
#
# _framework density 20.296711999999999
#
# number of rings (size 3 to 8) (size 9 to 14) (size 15 to 20)
#    0.857    1.286    0.000    3.429    0.000    7.429 
#    0.000    3.571    0.000    0.000    0.000    0.000 
#    0.000    0.000    0.000    0.000    0.000    0.000 
#
# Total GULP energy -156086.310776 kJ/mol
# GULP energy per Si atom -5574.511099 kJ/mol
# Density = 2.025052 g / cm^3
# Si number density = 20.296712 Si / 1000 Ang^3
#
#
#
# Elastic Constant Matrix: (Units=GPa)
#
#
# Indices 1 2 3 4 5 6 
#
# 1 69.4129 33.9143 4.2440 0.0000 -12.8867 0.0000
# 2 33.9143 99.1490 19.0583 0.0000 -15.1359 0.0000
# 3 4.2440 19.0583 63.9270 0.0000 -7.4628 0.0000
# 4 0.0000 0.0000 0.0000 46.0526 0.0000 3.7986
# 5 -12.8867 -15.1359 -7.4628 0.0000 39.0813 0.0000
# 6 0.0000 0.0000 0.0000 3.7986 0.0000 51.8651
#
#
#
# Elastic Compliance Matrix: (Units=1/GPa)
#
#
# Indices 1 2 3 4 5 6 
#
# 1 0.017850 -0.005702 0.000966 0.000000 0.003862 0.000000
# 2 -0.005702 0.013044 -0.003212 0.000000 0.002558 0.000000
# 3 0.000966 -0.003212 0.016803 0.000000 0.002283 0.000000
# 4 0.000000 0.000000 0.000000 0.021846 0.000000 -0.001600
# 5 0.003862 0.002558 0.002283 0.000000 0.028288 0.000000
# 6 0.000000 0.000000 0.000000 -0.001600 0.000000 0.019398
#
#
# Mechanical properties :
#
#
# Convention : Reuss Voigt Hill
#
# Bulk Modulus (GPa) = 31.44483 38.54690 34.99586
# Shear Modulus (GPa) = 34.78856 39.08462 36.93659
#
# Velocity S-wave (km/s) = 4.14454 4.39300 4.27058
# Velocity P-wave (km/s) = 6.19912 6.69060 6.44955
#
# Compressibility (1/GPa) = 0.03180173
#
# Stress axis : x y z
#
# Youngs Moduli (GPa) = 56.02131 76.66329 59.51419
#
# Poissons Ratio (x) = 0.43712 -0.05747
# Poissons Ratio (y) = 0.31942 0.19113
# Poissons Ratio (z) = -0.05410 0.24621
#
# Static dielectric constant tensor:
#      x y z
#    x 1.749680 0.000000 0.018390 
#    y 0.000000 1.693770 0.000000 
#    z 0.018390 0.000000 1.733610 
# 
# From -- ./inp_files/92085.got.cif
#   From: 2010.05.17/outbox.cif.g08.bks.cpg/sg10_47_cif.got.tgz:92085.got - 2010.06.03 11:33:40.
