data_PCOD9152712
_publ_section_title
;
Structure prediction by ZEFSAII (Michael W. Deem and Ramdas Pophale) SiO2 
 PCOD9152712
Probable space group: P 2/M
;
_chemical_formula_sum "Si O2"
_cell_formula_units_Z 24
_cell_length_a 10.191456
_cell_length_b 15.451611
_cell_length_c 16.723102
_cell_angle_alpha 90.000000
_cell_angle_beta 30.388812
_cell_angle_gamma 90.000000
_cell_volume 1332.176466
_symmetry_space_group_name_H-M "P 2/M"
_symmetry_group_IT_number 10
_symmetry_cell_setting 'monoclinic'
loop_
_space_group_symop_operation_xyz
x,y,z
-x,y,-z
-x,-y,-z
x,-y,z
loop_
_atom_site_type_symbol
_atom_site_label
_atom_site_fract_x
_atom_site_fract_y
_atom_site_fract_z
Si Si1 0.222117 0.400970 0.188523
Si Si2 0.911382 0.094428 0.639263
Si Si3 0.269924 0.743203 0.812044
Si Si4 0.264686 0.730762 0.309630
Si Si5 0.473150 0.898906 0.419475
Si Si6 0.238286 0.602202 0.689429
O O1 0.160285 0.500000 0.243599
O O2 0.238987 0.342183 0.257020
O O3 0.001636 0.373228 0.241732
O O4 0.500000 0.399210 0.000000
O O5 0.722745 0.175884 0.740866
O O6 0.000000 0.088620 0.500000
O O7 0.172670 0.111856 0.551710
O O8 0.805023 0.000000 0.717949
O O9 0.493674 0.721368 0.758562
O O10 0.359994 0.829875 0.717863
O O11 0.247471 0.665023 0.760403
O O12 0.000000 0.755471 0.000000
O O13 0.000000 0.729994 0.500000
O O14 0.500000 0.883998 0.500000
O O15 0.540762 0.000000 0.367161
O O16 0.500000 0.611507 0.500000
O O17 0.211456 0.500000 0.725284
#
# Coordination Sequence:
#
# PCOD9152712 Si02
#       6
#     4   4   4   4   4   4
#     4  10  22  40  59  81 114 153 188 230 288 342
#     4   9  17  34  59  83 110 145 189 231 273 330
#     4  12  24  36  56  89 123 150 183 238 297 340
#     4  11  21  36  59  87 108 150 196 231 277 331
#     4  10  21  38  61  86 113 152 197 235 278 339
#     4  10  22  40  61  83 112 155 197 237 283 335
#
# _framework density 18.015632
#
# number of rings (size 3 to 8) (size 9 to 14) (size 15 to 20)
#    0.000    1.667    3.333    2.500    2.333    1.667 
#    0.000    0.000    0.000    0.500    0.000    0.000 
#    0.000    0.000    0.000    0.000    0.000    0.000 
#
# Total GULP energy -133952.145425 kJ/mol
# GULP energy per Si atom -5581.339393 kJ/mol
# Density = 1.797463 g / cm^3
# Si number density = 18.015632 Si / 1000 Ang^3
#
#
#
# Elastic Constant Matrix: (Units=GPa)
#
#
# Indices 1 2 3 4 5 6 
#
# 1 196.6668 91.5983 54.9348 0.0000 -11.5892 0.0000
# 2 91.5983 126.6604 46.4704 0.0000 15.3574 0.0000
# 3 54.9348 46.4704 59.3697 0.0000 -8.5815 0.0000
# 4 0.0000 0.0000 0.0000 -21.3767 0.0000 6.7205
# 5 -11.5892 15.3574 -8.5815 0.0000 26.0342 0.0000
# 6 0.0000 0.0000 0.0000 6.7205 0.0000 34.7757
#
#
#
# Elastic Compliance Matrix: (Units=1/GPa)
#
#
# Indices 1 2 3 4 5 6 
#
# 1 0.009325 -0.006845 -0.002191 0.000000 0.007466 0.000000
# 2 -0.006845 0.019182 -0.011295 0.000000 -0.018085 0.000000
# 3 -0.002191 -0.011295 0.029962 0.000000 0.015564 0.000000
# 4 0.000000 0.000000 0.000000 -0.044101 0.000000 0.008523
# 5 0.007466 -0.018085 0.015564 0.000000 0.057533 0.000000
# 6 0.000000 0.000000 0.000000 0.008523 0.000000 0.027109
#
#
# Mechanical properties :
#
#
# Convention : Reuss Voigt Hill
#
# Bulk Modulus (GPa) = 56.15994 85.41156 70.78575
# Shear Modulus (GPa) = 34.33876 20.53287 27.43581
#
# Velocity S-wave (km/s) = 4.37057 3.37964 3.90665
# Velocity P-wave (km/s) = 7.53059 7.92098 7.72825
#
# Compressibility (1/GPa) = 0.01780629
#
# Stress axis : x y z
#
# Youngs Moduli (GPa) = 107.24037 52.13216 33.37579
#
# Poissons Ratio (x) = 0.35684 0.07314
# Poissons Ratio (y) = 0.73404 0.37698
# Poissons Ratio (z) = 0.23501 0.58883
#
# Static dielectric constant tensor:
#      x y z
#    x 1.597800 0.000000 -0.009110 
#    y 0.000000 1.667740 0.000000 
#    z -0.009110 0.000000 1.575260 
# 
# From -- ./inp_files/61662.got.cif
#   From: 2010.05.17/outbox.cif.g08.bks.cpg/sg10_31_cif.got.tgz:61662.got - 2010.06.03 11:33:40.
