data_PCOD9152991
_publ_section_title
;
Structure prediction by ZEFSAII (Michael W. Deem and Ramdas Pophale) SiO2 
 PCOD9152991
Probable space group: P 2/M
;
_chemical_formula_sum "Si O2"
_cell_formula_units_Z 32
_cell_length_a 12.124688
_cell_length_b 8.797686
_cell_length_c 29.301075
_cell_angle_alpha 90.000000
_cell_angle_beta 30.848696
_cell_angle_gamma 90.000000
_cell_volume 1602.682486
_symmetry_space_group_name_H-M "P 2/M"
_symmetry_group_IT_number 10
_symmetry_cell_setting 'monoclinic'
loop_
_space_group_symop_operation_xyz
x,y,z
-x,y,-z
-x,-y,-z
x,-y,z
loop_
_atom_site_type_symbol
_atom_site_label
_atom_site_fract_x
_atom_site_fract_y
_atom_site_fract_z
Si Si1 0.889405 0.680006 0.165929
Si Si2 0.359890 0.818483 0.006262
Si Si3 0.467164 0.683794 0.775632
Si Si4 0.682124 0.822447 0.325365
Si Si5 0.263419 0.680399 0.518907
Si Si6 0.072162 0.678219 0.683262
Si Si7 0.099838 0.818548 0.414590
Si Si8 0.428732 0.680103 0.158511
O O1 0.924629 0.500000 0.153391
O O2 0.763142 0.722002 0.164470
O O3 0.731204 0.726752 0.262987
O O4 0.116038 0.759913 0.093701
O O5 0.358689 0.000000 0.008302
O O6 0.500000 0.762628 0.000000
O O7 0.464452 0.763486 0.921917
O O8 0.493483 0.500000 0.763965
O O9 0.658656 0.759306 0.678508
O O10 0.492278 0.729867 0.819541
O O11 0.461697 0.769861 0.427095
O O12 0.867483 0.782974 0.295967
O O13 0.676410 0.000000 0.316581
O O14 0.295726 0.500000 0.501726
O O15 0.226471 0.709686 0.585558
O O16 0.049656 0.732898 0.568656
O O17 0.099662 0.500000 0.686396
O O18 0.828155 0.699325 0.753781
O O19 0.000000 0.787783 0.500000
O O20 0.092186 0.000000 0.409936
O O21 0.474970 0.500000 0.137917
#
# Coordination Sequence:
#
# PCOD9152991 Si02
#       8
#     4   4   4   4   4   4   4   4
#     4  11  24  43  68  93 122 164 211 258 309 370
#     4  11  25  44  66  96 130 164 204 254 315 380
#     4  10  22  42  65  92 123 162 212 260 310 370
#     4  12  25  39  58  89 129 165 205 261 320 377
#     4  11  22  39  61  87 120 163 215 262 308 371
#     4  10  21  39  63  89 121 163 211 260 309 370
#     4  11  23  37  57  88 126 168 212 260 316 373
#     4  10  21  41  67  94 124 161 208 260 312 372
#
# _framework density 19.966525000000001
#
# number of rings (size 3 to 8) (size 9 to 14) (size 15 to 20)
#    0.000    1.250    1.250    4.500    0.000   11.000 
#    0.000    2.500    0.000    0.000    0.000    0.000 
#    0.000    0.000    0.000    0.000    0.000    0.000 
#
# Total GULP energy -178983.474796 kJ/mol
# GULP energy per Si atom -5593.233587 kJ/mol
# Density = 1.992108 g / cm^3
# Si number density = 19.966525 Si / 1000 Ang^3
#
#
#
# Elastic Constant Matrix: (Units=GPa)
#
#
# Indices 1 2 3 4 5 6 
#
# 1 109.0234 25.2128 36.2758 0.0000 -11.6517 0.0000
# 2 25.2128 19.1046 19.3446 0.0000 -5.2286 0.0000
# 3 36.2758 19.3446 74.5878 0.0000 3.6072 0.0000
# 4 0.0000 0.0000 0.0000 62.3807 0.0000 6.2197
# 5 -11.6517 -5.2286 3.6072 0.0000 27.0415 0.0000
# 6 0.0000 0.0000 0.0000 6.2197 0.0000 -4.2054
#
#
#
# Elastic Compliance Matrix: (Units=1/GPa)
#
#
# Indices 1 2 3 4 5 6 
#
# 1 0.013907 -0.013968 -0.003322 0.000000 0.003735 0.000000
# 2 -0.013968 0.092936 -0.018004 0.000000 0.014353 0.000000
# 3 -0.003322 -0.018004 0.020059 0.000000 -0.007588 0.000000
# 4 0.000000 0.000000 0.000000 0.013970 0.000000 0.020662
# 5 0.003735 0.014353 -0.007588 0.000000 0.042377 0.000000
# 6 0.000000 0.000000 0.000000 0.020662 0.000000 -0.207230
#
#
# Mechanical properties :
#
#
# Convention : Reuss Voigt Hill
#
# Bulk Modulus (GPa) = 17.75745 40.48692 29.12219
# Shear Modulus (GPa) = 76.47904 25.16884 50.82394
#
# Velocity S-wave (km/s) = 6.19571 3.55428 5.05073
# Velocity P-wave (km/s) = 7.75212 6.09633 6.97354
#
# Compressibility (1/GPa) = 0.05631438
#
# Stress axis : x y z
#
# Youngs Moduli (GPa) = 71.90664 10.76013 49.85324
#
# Poissons Ratio (x) = 0.15030 0.16559
# Poissons Ratio (y) = 1.00439 0.89756
# Poissons Ratio (z) = 0.23885 0.19373
#
# Static dielectric constant tensor:
#      x y z
#    x 1.713550 0.000000 -0.011520 
#    y 0.000000 1.666990 0.000000 
#    z -0.011520 0.000000 1.690540 
# 
# From -- ./inp_files/94987.got.cif
#   From: 2010.05.17/outbox.cif.g08.bks.cpg/sg10_48_cif.got.tgz:94987.got - 2010.06.03 11:33:40.
