data_PCOD9152188
_publ_section_title
;
Structure prediction by ZEFSAII (Michael W. Deem and Ramdas Pophale) SiO2 
 PCOD9152188
Probable space group: P 2/M
;
_chemical_formula_sum "Si O2"
_cell_formula_units_Z 25
_cell_length_a 10.939342
_cell_length_b 14.526505
_cell_length_c 15.289280
_cell_angle_alpha 90.000000
_cell_angle_beta 154.167228
_cell_angle_gamma 90.000000
_cell_volume 1058.699659
_symmetry_space_group_name_H-M "P 2/M"
_symmetry_group_IT_number 10
_symmetry_cell_setting 'monoclinic'
loop_
_space_group_symop_operation_xyz
x,y,z
-x,y,-z
-x,-y,-z
x,-y,z
loop_
_atom_site_type_symbol
_atom_site_label
_atom_site_fract_x
_atom_site_fract_y
_atom_site_fract_z
Si Si1 0.854857 0.897539 0.536337
Si Si2 0.294508 0.395405 0.120258
Si Si3 0.394893 0.160521 0.798332
Si Si4 0.720748 0.290811 0.719621
Si Si5 0.000000 0.500000 0.500000
Si Si6 0.334634 0.631373 0.807654
Si Si7 0.954397 0.108535 0.798279
O O1 0.710907 0.837011 0.369730
O O2 0.180902 0.900848 0.716741
O O3 0.830654 0.871076 0.621620
O O4 0.734212 0.000000 0.449034
O O5 0.270265 0.500000 0.138453
O O6 0.388899 0.325708 0.257285
O O7 0.499378 0.401222 0.170944
O O8 0.003749 0.352900 0.895756
O O9 0.345729 0.259441 0.809307
O O10 0.713906 0.127607 0.999673
O O11 0.500000 0.307461 0.500000
O O12 0.822867 0.184308 0.778402
O O13 0.955862 0.580666 0.395146
O O14 0.500000 0.603130 0.000000
O O15 0.907221 0.000000 0.788434
#
# Coordination Sequence:
#
# PCOD9152188 Si02
#       7
#     4   4   4   4   1   4   4
#     4  10  21  36  62 101 141 184 236 281 340 423
#     4  11  26  51  73 101 138 174 238 298 348 431
#     4  11  21  39  66  97 142 191 231 282 352 424
#     4  11  26  46  74  98 134 188 244 290 349 409
#     4  12  26  44  72 112 146 178 216 278 382 428
#     4  12  26  45  71 109 146 178 223 288 356 435
#     4  11  23  40  67 102 142 188 239 299 353 409
#
# _framework density 23.613873999999999
#
# number of rings (size 3 to 8) (size 9 to 14) (size 15 to 20)
#    0.000    0.960    2.400    5.520    2.240    4.160 
#    0.000    1.600    0.000    0.000    0.000    0.000 
#    0.000    0.000    0.000    0.000    0.000    0.000 
#
# Total GULP energy -139505.480239 kJ/mol
# GULP energy per Si atom -5580.219210 kJ/mol
# Density = 2.356013 g / cm^3
# Si number density = 23.613874 Si / 1000 Ang^3
#
#
#
# Elastic Constant Matrix: (Units=GPa)
#
#
# Indices 1 2 3 4 5 6 
#
# 1 91.7362 45.6047 28.5489 0.0000 -15.0072 0.0000
# 2 45.6047 180.6091 49.6288 0.0000 -27.7500 0.0000
# 3 28.5489 49.6288 148.6844 0.0000 -33.5863 0.0000
# 4 0.0000 0.0000 0.0000 41.8309 0.0000 -3.2808
# 5 -15.0072 -27.7500 -33.5863 0.0000 28.9287 0.0000
# 6 0.0000 0.0000 0.0000 -3.2808 0.0000 34.9706
#
#
#
# Elastic Compliance Matrix: (Units=1/GPa)
#
#
# Indices 1 2 3 4 5 6 
#
# 1 0.012972 -0.002526 -0.000915 0.000000 0.003245 0.000000
# 2 -0.002526 0.007104 -0.000872 0.000000 0.004493 0.000000
# 3 -0.000915 -0.000872 0.009348 0.000000 0.009542 0.000000
# 4 0.000000 0.000000 0.000000 0.024083 0.000000 0.002259
# 5 0.003245 0.004493 0.009542 0.000000 0.051639 0.000000
# 6 0.000000 0.000000 0.000000 0.002259 0.000000 0.028807
#
#
# Mechanical properties :
#
#
# Convention : Reuss Voigt Hill
#
# Bulk Modulus (GPa) = 48.07680 74.28832 61.18256
# Shear Modulus (GPa) = 33.44251 40.96253 37.20252
#
# Velocity S-wave (km/s) = 3.76736 4.16947 3.97350
# Velocity P-wave (km/s) = 6.27118 7.39643 6.85693
#
# Compressibility (1/GPa) = 0.02080005
#
# Stress axis : x y z
#
# Youngs Moduli (GPa) = 77.09018 140.75933 106.97868
#
# Poissons Ratio (x) = 0.35550 0.09787
# Poissons Ratio (y) = 0.19470 0.09323
# Poissons Ratio (z) = 0.07052 0.12267
#
# Static dielectric constant tensor:
#      x y z
#    x 1.941510 0.000000 0.109460 
#    y 0.000000 1.675030 0.000000 
#    z 0.109460 0.000000 2.041040 
# 
# From -- ./inp_files/65201.got.cif
#   From: 2010.05.17/outbox.cif.g08.bks.cpg/sg10_33_cif.got.tgz:65201.got - 2010.06.03 11:33:40.
