data_PCOD9152332
_publ_section_title
;
Structure prediction by ZEFSAII (Michael W. Deem and Ramdas Pophale) SiO2 
 PCOD9152332
Probable space group: P 2/M
;
_chemical_formula_sum "Si O2"
_cell_formula_units_Z 15
_cell_length_a 11.649595
_cell_length_b 5.424839
_cell_length_c 17.716916
_cell_angle_alpha 90.000000
_cell_angle_beta 147.979681
_cell_angle_gamma 90.000000
_cell_volume 593.665613
_symmetry_space_group_name_H-M "P 2/M"
_symmetry_group_IT_number 10
_symmetry_cell_setting 'monoclinic'
loop_
_space_group_symop_operation_xyz
x,y,z
-x,y,-z
-x,-y,-z
x,-y,z
loop_
_atom_site_type_symbol
_atom_site_label
_atom_site_fract_x
_atom_site_fract_y
_atom_site_fract_z
Si Si1 0.745392 0.500000 0.847622
Si Si2 0.059082 0.000000 0.442958
Si Si3 0.257628 0.000000 0.335901
Si Si4 0.500000 0.000000 0.000000
Si Si5 0.603846 0.500000 0.959261
Si Si6 0.571542 0.000000 0.734884
Si Si7 0.876977 0.500000 0.350667
Si Si8 0.093318 0.500000 0.224248
O O1 0.634137 0.750589 0.811665
O O2 0.733584 0.500000 0.748530
O O3 0.000000 0.500000 0.000000
O O4 0.316220 0.000000 0.576133
O O5 0.000000 0.000000 0.500000
O O6 0.951109 0.751671 0.352387
O O7 0.500000 0.000000 0.500000
O O8 0.278399 0.000000 0.256271
O O9 0.141342 0.750567 0.294763
O O10 0.590737 0.768354 0.995177
O O11 0.379351 0.500000 0.787816
O O12 0.845142 0.500000 0.059956
O O13 0.000000 0.500000 0.500000
#
# Coordination Sequence:
#
# PCOD9152332 Si02
#       8
#     2   2   2   1   2   2   2   2
#     4  10  21  37  61  92 121 155 201 251 315 377
#     4  10  21  37  57  88 124 169 203 246 319 379
#     4  10  21  41  61  91 122 154 211 263 317 367
#     4  10  24  42  62  88 132 178 214 272 310 378
#     4  11  22  44  65  93 133 170 222 265 321 386
#     4  10  21  38  56  84 127 155 200 257 303 377
#     4  10  22  40  63  92 127 166 214 267 314 384
#     4  10  22  39  66  93 119 164 208 252 319 382
#
# _framework density 25.266749999999998
#
# number of rings (size 3 to 8) (size 9 to 14) (size 15 to 20)
#    0.000    1.867    0.000    3.200    0.000    4.267 
#   14.400    0.000    0.000    0.000    0.000    0.000 
#    0.000    0.000    0.000    0.000    0.000    0.000 
#
# Total GULP energy -83529.533043 kJ/mol
# GULP energy per Si atom -5568.635536 kJ/mol
# Density = 2.520924 g / cm^3
# Si number density = 25.266750 Si / 1000 Ang^3
#
#
#
# Elastic Constant Matrix: (Units=GPa)
#
#
# Indices 1 2 3 4 5 6 
#
# 1 94.7202 34.9176 1.2167 0.0000 19.6706 0.0000
# 2 34.9176 347.5240 84.0273 0.0000 23.2384 0.0000
# 3 1.2167 84.0273 151.7036 0.0000 33.5699 0.0000
# 4 0.0000 0.0000 0.0000 40.9838 0.0000 23.9241
# 5 19.6706 23.2384 33.5699 0.0000 32.2208 0.0000
# 6 0.0000 0.0000 0.0000 23.9241 0.0000 46.8887
#
#
#
# Elastic Compliance Matrix: (Units=1/GPa)
#
#
# Indices 1 2 3 4 5 6 
#
# 1 0.013088 -0.001335 0.002846 0.000000 -0.009992 0.000000
# 2 -0.001335 0.003468 -0.001998 0.000000 0.000395 0.000000
# 3 0.002846 -0.001998 0.010061 0.000000 -0.010778 0.000000
# 4 0.000000 0.000000 0.000000 0.034750 0.000000 -0.017731
# 5 -0.009992 0.000395 -0.010778 0.000000 0.048081 0.000000
# 6 0.000000 0.000000 0.000000 -0.017731 0.000000 0.030374
#
#
# Mechanical properties :
#
#
# Convention : Reuss Voigt Hill
#
# Bulk Modulus (GPa) = 38.99754 92.69677 65.84715
# Shear Modulus (GPa) = 33.48001 55.60441 44.54221
#
# Velocity S-wave (km/s) = 3.64409 4.69625 4.20322
# Velocity P-wave (km/s) = 5.75966 8.13469 7.04794
#
# Compressibility (1/GPa) = 0.02564264
#
# Stress axis : x y z
#
# Youngs Moduli (GPa) = 76.40582 288.33088 99.39810
#
# Poissons Ratio (x) = 0.38489 -0.28284
# Poissons Ratio (y) = 0.10199 0.19857
# Poissons Ratio (z) = -0.21741 0.57600
#
# Static dielectric constant tensor:
#      x y z
#    x 2.120550 0.000000 -0.080170 
#    y 0.000000 2.277630 0.000000 
#    z -0.080170 0.000000 1.864780 
# 
# From -- ./inp_files/30792.got.cif
#   From: 2010.05.17/outbox.cif.g08.bks.cpg/sg10_16_cif.got.tgz:30792.got - 2010.06.03 11:33:40.
