data_PCOD9152455
_publ_section_title
;
Structure prediction by ZEFSAII (Michael W. Deem and Ramdas Pophale) SiO2 
 PCOD9152455
Probable space group: P 2/M
;
_chemical_formula_sum "Si O2"
_cell_formula_units_Z 14
_cell_length_a 5.379000
_cell_length_b 16.457813
_cell_length_c 7.822256
_cell_angle_alpha 90.000000
_cell_angle_beta 60.073062
_cell_angle_gamma 90.000000
_cell_volume 600.144169
_symmetry_space_group_name_H-M "P 2/M"
_symmetry_group_IT_number 10
_symmetry_cell_setting 'monoclinic'
loop_
_space_group_symop_operation_xyz
x,y,z
-x,y,-z
-x,-y,-z
x,-y,z
loop_
_atom_site_type_symbol
_atom_site_label
_atom_site_fract_x
_atom_site_fract_y
_atom_site_fract_z
Si Si1 0.552731 0.325459 0.725976
Si Si2 0.941546 0.739558 0.280591
Si Si3 0.654526 0.500000 0.131002
Si Si4 0.155368 0.090142 0.131754
O O1 0.266617 0.271532 0.809953
O O2 0.749064 0.294961 0.501348
O O3 0.453700 0.417934 0.742361
O O4 0.766341 0.312409 0.811819
O O5 0.027040 0.832994 0.274013
O O6 0.500000 0.500000 0.000000
O O7 0.000000 0.500000 0.000000
O O8 0.102666 0.000000 0.224430
O O9 0.500000 0.100053 0.000000
O O10 0.000000 0.091014 0.000000
#
# Coordination Sequence:
#
# PCOD9152455 Si02
#       4
#     4   4   2   4
#     4  10  23  40  60  88 119 159 198 244 302 359
#     4  10  21  39  62  87 121 161 199 242 294 357
#     4  12  26  42  62  90 120 152 198 254 308 360
#     4  10  21  37  60  91 125 159 197 245 296 346
#
# _framework density 23.327729999999999
#
# number of rings (size 3 to 8) (size 9 to 14) (size 15 to 20)
#    0.000    1.714    0.000    3.429    0.000   11.429 
#    0.000    5.714    0.000    0.000    0.000    0.000 
#    0.000    0.000    0.000    0.000    0.000    0.000 
#
# Total GULP energy -78250.576739 kJ/mol
# GULP energy per Si atom -5589.326910 kJ/mol
# Density = 2.327464 g / cm^3
# Si number density = 23.327730 Si / 1000 Ang^3
#
#
#
# Elastic Constant Matrix: (Units=GPa)
#
#
# Indices 1 2 3 4 5 6 
#
# 1 217.6711 42.1961 42.3474 0.0000 -39.6294 0.0000
# 2 42.1961 255.6291 65.6136 0.0000 -40.2062 0.0000
# 3 42.3474 65.6136 94.4585 0.0000 -22.8981 0.0000
# 4 0.0000 0.0000 0.0000 110.0535 0.0000 -16.1968
# 5 -39.6294 -40.2062 -22.8981 0.0000 40.4846 0.0000
# 6 0.0000 0.0000 0.0000 -16.1968 0.0000 43.5330
#
#
#
# Elastic Compliance Matrix: (Units=1/GPa)
#
#
# Indices 1 2 3 4 5 6 
#
# 1 0.005757 0.000228 -0.001528 0.000000 0.004998 0.000000
# 2 0.000228 0.005186 -0.002784 0.000000 0.003799 0.000000
# 3 -0.001528 -0.002784 0.014107 0.000000 0.003719 0.000000
# 4 0.000000 0.000000 0.000000 0.009613 0.000000 0.003577
# 5 0.004998 0.003799 0.003719 0.000000 0.035469 0.000000
# 6 0.000000 0.000000 0.000000 0.003577 0.000000 0.024302
#
#
# Mechanical properties :
#
#
# Convention : Reuss Voigt Hill
#
# Bulk Modulus (GPa) = 59.23189 96.45254 77.84222
# Shear Modulus (GPa) = 46.19837 66.65432 56.42634
#
# Velocity S-wave (km/s) = 4.45500 5.35117 4.92352
# Velocity P-wave (km/s) = 7.20479 8.92281 8.10943
#
# Compressibility (1/GPa) = 0.01688280
#
# Stress axis : x y z
#
# Youngs Moduli (GPa) = 173.70140 192.81213 70.88822
#
# Poissons Ratio (x) = -0.04394 0.10830
# Poissons Ratio (y) = -0.03958 0.19734
# Poissons Ratio (z) = 0.26538 0.53675
#
# Static dielectric constant tensor:
#      x y z
#    x 1.766060 0.000000 -0.242660 
#    y 0.000000 1.850160 0.000000 
#    z -0.242660 0.000000 1.447540 
# 
# From -- ./inp_files/3456.got.cif
#   From: 2010.05.17/outbox.cif.g08.bks.cpg/sg10_2_cif.got.tgz:3456.got - 2010.06.03 11:33:40.
