data_PCOD9152097
_publ_section_title
;
Structure prediction by ZEFSAII (Michael W. Deem and Ramdas Pophale) SiO2 
 PCOD9152097
Probable space group: P 2/M
;
_chemical_formula_sum "Si O2"
_cell_formula_units_Z 24
_cell_length_a 10.606843
_cell_length_b 10.763763
_cell_length_c 13.262821
_cell_angle_alpha 90.000000
_cell_angle_beta 50.840071
_cell_angle_gamma 90.000000
_cell_volume 1174.097900
_symmetry_space_group_name_H-M "P 2/M"
_symmetry_group_IT_number 10
_symmetry_cell_setting 'monoclinic'
loop_
_space_group_symop_operation_xyz
x,y,z
-x,y,-z
-x,-y,-z
x,-y,z
loop_
_atom_site_type_symbol
_atom_site_label
_atom_site_fract_x
_atom_site_fract_y
_atom_site_fract_z
Si Si1 0.455109 0.136405 0.639622
Si Si2 0.970407 0.853979 0.626555
Si Si3 0.154574 0.362397 0.039932
Si Si4 0.342725 0.269590 0.135947
Si Si5 0.513049 0.635618 0.243738
Si Si6 0.921643 0.144418 0.210443
O O1 0.500000 0.143352 0.500000
O O2 0.527558 0.249389 0.664969
O O3 0.259639 0.144268 0.740481
O O4 0.506801 0.000000 0.651989
O O5 0.786430 0.826369 0.753985
O O6 0.000000 0.798080 0.500000
O O7 0.076675 0.817004 0.671254
O O8 0.999444 0.000000 0.603299
O O9 0.078019 0.500000 0.072540
O O10 0.247398 0.348655 0.100298
O O11 0.033878 0.245695 0.099085
O O12 0.298097 0.354928 0.885427
O O13 0.410991 0.350559 0.192860
O O14 0.500000 0.212774 0.000000
O O15 0.485800 0.500000 0.303358
O O16 0.982003 0.000000 0.173350
#
# Coordination Sequence:
#
# PCOD9152097 Si02
#       6
#     4   4   4   4   4   4
#     4  10  23  40  57  76 106 150 191 227 272 327
#     4   9  18  31  53  81 109 144 183 229 281 330
#     4   9  18  35  59  84 111 144 178 220 280 337
#     4   9  18  33  55  82 113 146 181 225 277 334
#     4  10  21  36  57  84 112 144 184 228 273 325
#     4   9  19  36  55  78 109 141 181 230 275 324
#
# _framework density 20.441227000000001
#
# number of rings (size 3 to 8) (size 9 to 14) (size 15 to 20)
#    0.000    2.667    0.000    0.500    2.333    5.333 
#    0.000    6.667    0.000    2.500    0.000    0.000 
#    0.000    0.000    0.000    0.000    0.000    0.000 
#
# Total GULP energy -133834.826063 kJ/mol
# GULP energy per Si atom -5576.451086 kJ/mol
# Density = 2.039470 g / cm^3
# Si number density = 20.441227 Si / 1000 Ang^3
#
#
#
# Elastic Constant Matrix: (Units=GPa)
#
#
# Indices 1 2 3 4 5 6 
#
# 1 46.1385 28.2445 9.9913 0.0000 8.3876 0.0000
# 2 28.2445 94.6050 16.5992 0.0000 22.7824 0.0000
# 3 9.9913 16.5992 40.4987 0.0000 17.9253 0.0000
# 4 0.0000 0.0000 0.0000 12.1479 0.0000 49.6258
# 5 8.3876 22.7824 17.9253 0.0000 22.7027 0.0000
# 6 0.0000 0.0000 0.0000 49.6258 0.0000 247.7670
#
#
#
# Elastic Compliance Matrix: (Units=1/GPa)
#
#
# Indices 1 2 3 4 5 6 
#
# 1 0.027009 -0.007539 -0.003851 0.000000 0.000628 0.000000
# 2 -0.007539 0.016057 0.001811 0.000000 -0.014758 0.000000
# 3 -0.003851 0.001811 0.038545 0.000000 -0.030828 0.000000
# 4 0.000000 0.000000 0.000000 0.452851 0.000000 -0.090703
# 5 0.000628 -0.014758 -0.030828 0.000000 0.082966 0.000000
# 6 0.000000 0.000000 0.000000 -0.090703 0.000000 0.022203
#
#
# Mechanical properties :
#
#
# Convention : Reuss Voigt Hill
#
# Bulk Modulus (GPa) = 16.01223 32.32358 24.16790
# Shear Modulus (GPa) = 7.35718 64.95065 36.15392
#
# Velocity S-wave (km/s) = 1.89921 5.64299 4.21013
# Velocity P-wave (km/s) = 3.55804 7.63577 5.95670
#
# Compressibility (1/GPa) = 0.06245227
#
# Stress axis : x y z
#
# Youngs Moduli (GPa) = 37.02491 62.27683 25.94370
#
# Poissons Ratio (x) = 0.46951 0.09991
# Poissons Ratio (y) = 0.27913 -0.04697
# Poissons Ratio (z) = 0.14258 -0.11276
#
# Static dielectric constant tensor:
#      x y z
#    x 1.759160 0.000000 0.014150 
#    y 0.000000 1.718150 0.000000 
#    z 0.014150 0.000000 1.740610 
# 
# From -- ./inp_files/46521.got.cif
#   From: 2010.05.17/outbox.cif.g08.bks.cpg/sg10_24_cif.got.tgz:46521.got - 2010.06.03 11:33:40.
