data_PCOD9152935
_publ_section_title
;
Structure prediction by ZEFSAII (Michael W. Deem and Ramdas Pophale) SiO2 
 PCOD9152935
Probable space group: P 2/M
;
_chemical_formula_sum "Si O2"
_cell_formula_units_Z 32
_cell_length_a 13.824864
_cell_length_b 8.739616
_cell_length_c 21.904352
_cell_angle_alpha 90.000000
_cell_angle_beta 146.917941
_cell_angle_gamma 90.000000
_cell_volume 1444.603572
_symmetry_space_group_name_H-M "P 2/M"
_symmetry_group_IT_number 10
_symmetry_cell_setting 'monoclinic'
loop_
_space_group_symop_operation_xyz
x,y,z
-x,y,-z
-x,-y,-z
x,-y,z
loop_
_atom_site_type_symbol
_atom_site_label
_atom_site_fract_x
_atom_site_fract_y
_atom_site_fract_z
Si Si1 0.978270 0.320276 0.167456
Si Si2 0.764141 0.674247 0.222549
Si Si3 0.515737 0.320826 0.435135
Si Si4 0.194605 0.326995 0.609727
Si Si5 0.207886 0.818780 0.192342
Si Si6 0.395720 0.180598 0.037769
Si Si7 0.119513 0.820056 0.361092
Si Si8 0.438397 0.819357 0.205764
O O1 0.006407 0.500000 0.190242
O O2 0.042412 0.267542 0.134712
O O3 0.096216 0.227958 0.278263
O O4 0.776367 0.273404 0.073402
O O5 0.771494 0.500000 0.202886
O O6 0.771757 0.666510 0.300038
O O7 0.580154 0.756409 0.109311
O O8 0.935114 0.768330 0.293016
O O9 0.500000 0.299422 0.500000
O O10 0.483348 0.500000 0.404875
O O11 0.375052 0.219351 0.324438
O O12 0.715219 0.271965 0.524456
O O13 0.181676 0.500000 0.577984
O O14 0.370851 0.250880 0.676408
O O15 0.000000 0.252677 0.500000
O O16 0.277049 0.764981 0.162782
O O17 0.169458 0.000000 0.170890
O O18 0.405166 0.202355 0.116375
O O19 0.375223 0.000000 0.014196
O O20 0.148542 0.000000 0.382413
O O21 0.452259 0.000000 0.223843
#
# Coordination Sequence:
#
# PCOD9152935 Si02
#       8
#     4   4   4   4   4   4   4   4
#     4  12  25  42  63  90 120 157 204 253 305 358
#     4  10  21  39  61  89 125 159 199 249 301 357
#     4  11  23  40  62  88 123 163 201 248 304 356
#     4   9  19  35  56  85 118 158 200 242 294 354
#     4  11  23  40  62  92 124 160 204 247 299 360
#     4  10  21  42  66  89 121 160 201 251 305 355
#     4  12  25  41  63  91 122 160 204 248 301 364
#     4   9  21  39  60  88 121 157 198 247 299 354
#
# _framework density 22.151406999999999
#
# number of rings (size 3 to 8) (size 9 to 14) (size 15 to 20)
#    0.000    1.500    1.250    3.750    1.750    3.750 
#    0.000    5.000    0.000    0.000    0.000    0.000 
#    0.000    0.000    0.000    0.000    0.000    0.000 
#
# Total GULP energy -178994.722728 kJ/mol
# GULP energy per Si atom -5593.585085 kJ/mol
# Density = 2.210099 g / cm^3
# Si number density = 22.151407 Si / 1000 Ang^3
#
#
#
# Elastic Constant Matrix: (Units=GPa)
#
#
# Indices 1 2 3 4 5 6 
#
# 1 79.0477 11.9709 0.8950 0.0000 19.3520 0.0000
# 2 11.9709 45.3917 -1.3166 0.0000 -3.6724 0.0000
# 3 0.8950 -1.3166 50.3145 0.0000 25.6327 0.0000
# 4 0.0000 0.0000 0.0000 21.6953 0.0000 7.6295
# 5 19.3520 -3.6724 25.6327 0.0000 32.7185 0.0000
# 6 0.0000 0.0000 0.0000 7.6295 0.0000 71.5064
#
#
#
# Elastic Compliance Matrix: (Units=1/GPa)
#
#
# Indices 1 2 3 4 5 6 
#
# 1 0.017877 -0.005924 0.008741 0.000000 -0.018087 0.000000
# 2 -0.005924 0.024236 -0.004046 0.000000 0.009394 0.000000
# 3 0.008741 -0.004046 0.037410 0.000000 -0.034932 0.000000
# 4 0.000000 0.000000 0.000000 0.047890 0.000000 -0.005110
# 5 -0.018087 0.009394 -0.034932 0.000000 0.069683 0.000000
# 6 0.000000 0.000000 0.000000 -0.005110 0.000000 0.014530
#
#
# Mechanical properties :
#
#
# Convention : Reuss Voigt Hill
#
# Bulk Modulus (GPa) = 12.97639 21.98363 17.48001
# Shear Modulus (GPa) = 20.85319 36.06436 28.45877
#
# Velocity S-wave (km/s) = 3.07154 4.03933 3.58821
# Velocity P-wave (km/s) = 4.29534 5.63034 5.00753
#
# Compressibility (1/GPa) = 0.07706306
#
# Stress axis : x y z
#
# Youngs Moduli (GPa) = 55.93890 41.26177 26.73087
#
# Poissons Ratio (x) = 0.24445 -0.23366
# Poissons Ratio (y) = 0.33140 0.10816
# Poissons Ratio (z) = -0.48897 0.16696
#
# Static dielectric constant tensor:
#      x y z
#    x 1.883810 0.000000 -0.022430 
#    y 0.000000 1.751370 0.000000 
#    z -0.022430 0.000000 1.809070 
# 
# From -- ./inp_files/89633.got.cif
#   From: 2010.05.17/outbox.cif.g08.bks.cpg/sg10_45_cif.got.tgz:89633.got - 2010.06.03 11:33:40.
