data_PCOD9152973
_publ_section_title
;
Structure prediction by ZEFSAII (Michael W. Deem and Ramdas Pophale) SiO2 
 PCOD9152973
Probable space group: P 2/M
;
_chemical_formula_sum "Si O2"
_cell_formula_units_Z 28
_cell_length_a 8.435330
_cell_length_b 13.047774
_cell_length_c 20.665149
_cell_angle_alpha 90.000000
_cell_angle_beta 32.293191
_cell_angle_gamma 90.000000
_cell_volume 1215.131042
_symmetry_space_group_name_H-M "P 2/M"
_symmetry_group_IT_number 10
_symmetry_cell_setting 'monoclinic'
loop_
_space_group_symop_operation_xyz
x,y,z
-x,y,-z
-x,-y,-z
x,-y,z
loop_
_atom_site_type_symbol
_atom_site_label
_atom_site_fract_x
_atom_site_fract_y
_atom_site_fract_z
Si Si1 0.310388 0.881868 0.161721
Si Si2 0.737867 0.389494 0.715048
Si Si3 0.535264 0.107077 0.228829
Si Si4 0.946104 0.797165 0.450531
Si Si5 0.329972 0.775599 0.624050
Si Si6 0.246644 0.316500 0.788952
Si Si7 0.422561 0.664285 0.957371
O O1 0.490321 0.886076 0.167471
O O2 0.471496 0.783535 0.075202
O O3 0.961791 0.845546 0.286637
O O4 0.317077 0.000000 0.134024
O O5 0.888814 0.500000 0.659079
O O6 0.499296 0.379506 0.739158
O O7 0.577629 0.378954 0.839747
O O8 0.946900 0.290686 0.635892
O O9 0.702655 0.201340 0.201922
O O10 0.191031 0.115463 0.367737
O O11 0.675811 0.000000 0.198716
O O12 0.614471 0.835249 0.555994
O O13 0.000000 0.741597 0.500000
O O14 0.500000 0.737814 0.500000
O O15 0.259183 0.693237 0.705969
O O16 0.928633 0.347913 0.924856
O O17 0.500000 0.617245 0.000000
#
# Coordination Sequence:
#
# PCOD9152973 Si02
#       7
#     4   4   4   4   4   4   4
#     4  11  24  41  65  99 138 185 228 270 326 391
#     4  11  25  47  74 100 127 169 226 282 344 407
#     4  10  21  39  62  96 131 175 230 271 321 391
#     4  11  21  42  67  95 131 173 218 274 333 396
#     4  12  22  40  65  93 137 177 221 266 328 391
#     4  11  24  42  69  98 129 179 223 277 335 392
#     4  12  24  45  70  96 138 176 219 279 335 392
#
# _framework density 23.042783
#
# number of rings (size 3 to 8) (size 9 to 14) (size 15 to 20)
#    0.000    0.857    8.571    0.429    0.000    4.286 
#    0.000    1.429    0.000    4.286    0.000    0.000 
#    0.000    0.000    0.000    0.000    0.000    0.000 
#
# Total GULP energy -156007.247419 kJ/mol
# GULP energy per Si atom -5571.687408 kJ/mol
# Density = 2.299034 g / cm^3
# Si number density = 23.042783 Si / 1000 Ang^3
#
#
#
# Elastic Constant Matrix: (Units=GPa)
#
#
# Indices 1 2 3 4 5 6 
#
# 1 75.2910 12.6151 18.7721 0.0000 11.7489 0.0000
# 2 12.6151 97.1114 -10.5129 0.0000 11.6376 0.0000
# 3 18.7721 -10.5129 40.6551 0.0000 20.7254 0.0000
# 4 0.0000 0.0000 0.0000 -13.5217 0.0000 -6.4689
# 5 11.7489 11.6376 20.7254 0.0000 50.6841 0.0000
# 6 0.0000 0.0000 0.0000 -6.4689 0.0000 49.9338
#
#
#
# Elastic Compliance Matrix: (Units=1/GPa)
#
#
# Indices 1 2 3 4 5 6 
#
# 1 0.015782 -0.002995 -0.008271 0.000000 0.000412 0.000000
# 2 -0.002995 0.012037 0.007012 0.000000 -0.004937 0.000000
# 3 -0.008271 0.007012 0.037993 0.000000 -0.015229 0.000000
# 4 0.000000 0.000000 0.000000 -0.069639 0.000000 -0.009022
# 5 0.000412 -0.004937 -0.015229 0.000000 0.026995 0.000000
# 6 0.000000 0.000000 0.000000 -0.009022 0.000000 0.018858
#
#
# Mechanical properties :
#
#
# Convention : Reuss Voigt Hill
#
# Bulk Modulus (GPa) = 17.45066 28.31178 22.88122
# Shear Modulus (GPa) = 71.80343 30.23146 51.01745
#
# Velocity S-wave (km/s) = 5.58825 3.62604 4.71045
# Velocity P-wave (km/s) = 7.01624 5.46299 6.28776
#
# Compressibility (1/GPa) = 0.05730443
#
# Stress axis : x y z
#
# Youngs Moduli (GPa) = 63.36501 83.07537 26.32075
#
# Poissons Ratio (x) = 0.24879 0.21770
# Poissons Ratio (y) = 0.18977 -0.18457
# Poissons Ratio (z) = 0.52410 -0.58255
#
# Static dielectric constant tensor:
#      x y z
#    x 1.983580 0.000000 0.095810 
#    y 0.000000 1.827950 0.000000 
#    z 0.095810 0.000000 1.941040 
# 
# From -- ./inp_files/82900.got.cif
#   From: 2010.05.17/outbox.cif.g08.bks.cpg/sg10_42_cif.got.tgz:82900.got - 2010.06.03 11:33:40.
