data_PCOD9152720
_publ_section_title
;
Structure prediction by ZEFSAII (Michael W. Deem and Ramdas Pophale) SiO2 
 PCOD9152720
Probable space group: P 2/M
;
_chemical_formula_sum "Si O2"
_cell_formula_units_Z 24
_cell_length_a 7.035238
_cell_length_b 10.800826
_cell_length_c 18.152683
_cell_angle_alpha 90.000000
_cell_angle_beta 50.056292
_cell_angle_gamma 90.000000
_cell_volume 1057.519122
_symmetry_space_group_name_H-M "P 2/M"
_symmetry_group_IT_number 10
_symmetry_cell_setting 'monoclinic'
loop_
_space_group_symop_operation_xyz
x,y,z
-x,y,-z
-x,-y,-z
x,-y,z
loop_
_atom_site_type_symbol
_atom_site_label
_atom_site_fract_x
_atom_site_fract_y
_atom_site_fract_z
Si Si1 0.678617 0.249636 0.726404
Si Si2 0.006446 0.645132 0.767265
Si Si3 0.698537 0.136119 0.077735
Si Si4 0.134582 0.135253 0.545075
Si Si5 0.552812 0.647961 0.598021
Si Si6 0.819159 0.639830 0.973346
O O1 0.782171 0.331914 0.767406
O O2 0.431684 0.178085 0.813737
O O3 0.641979 0.326795 0.660326
O O4 0.907127 0.156621 0.656833
O O5 0.051024 0.500000 0.761028
O O6 0.953064 0.680230 0.864874
O O7 0.267394 0.692382 0.670949
O O8 0.637027 0.249363 0.039192
O O9 0.603979 0.000000 0.081288
O O10 0.000000 0.127928 0.000000
O O11 0.298484 0.259224 0.492641
O O12 0.000000 0.126780 0.500000
O O13 0.252335 0.000000 0.528982
O O14 0.580295 0.500000 0.573945
O O15 0.721594 0.500000 0.988892
O O16 0.000000 0.631431 0.000000
#
# Coordination Sequence:
#
# PCOD9152720 Si02
#       6
#     4   4   4   4   4   4
#     4  11  22  38  62  89 122 163 204 249 304 365
#     4  10  22  39  61  93 126 158 201 253 306 360
#     4  10  21  38  61  87 117 155 199 250 303 353
#     4   9  20  39  62  89 125 166 204 247 303 364
#     4  10  21  39  64  92 123 160 204 252 302 358
#     4   9  18  36  60  84 115 155 196 241 297 357
#
# _framework density 22.694626
#
# number of rings (size 3 to 8) (size 9 to 14) (size 15 to 20)
#    0.000    2.167    0.000    3.000    0.000    8.333 
#    0.000    9.167    0.000    0.000    0.000    0.000 
#    0.000    0.000    0.000    0.000    0.000    0.000 
#
# Total GULP energy -133726.602900 kJ/mol
# GULP energy per Si atom -5571.941788 kJ/mol
# Density = 2.264297 g / cm^3
# Si number density = 22.694626 Si / 1000 Ang^3
#
#
#
# Elastic Constant Matrix: (Units=GPa)
#
#
# Indices 1 2 3 4 5 6 
#
# 1 93.7734 -14.1180 24.4147 0.0000 -0.8549 0.0000
# 2 -14.1180 151.8745 56.4561 0.0000 5.6005 0.0000
# 3 24.4147 56.4561 142.7616 0.0000 11.5581 0.0000
# 4 0.0000 0.0000 0.0000 15.9873 0.0000 -9.9268
# 5 -0.8549 5.6005 11.5581 0.0000 33.2714 0.0000
# 6 0.0000 0.0000 0.0000 -9.9268 0.0000 -50.5968
#
#
#
# Elastic Compliance Matrix: (Units=1/GPa)
#
#
# Indices 1 2 3 4 5 6 
#
# 1 0.011762 0.002151 -0.002940 0.000000 0.000961 0.000000
# 2 0.002151 0.008114 -0.003571 0.000000 -0.000070 0.000000
# 3 -0.002940 -0.003571 0.009134 0.000000 -0.002647 0.000000
# 4 0.000000 0.000000 0.000000 0.055757 0.000000 -0.010939
# 5 0.000961 -0.000070 -0.002647 0.000000 0.031012 0.000000
# 6 0.000000 0.000000 0.000000 -0.010939 0.000000 -0.017618
#
#
# Mechanical properties :
#
#
# Convention : Reuss Voigt Hill
#
# Bulk Modulus (GPa) = 49.28528 57.99059 53.63793
# Shear Modulus (GPa) = 43.99657 21.17617 32.58637
#
# Velocity S-wave (km/s) = 4.40777 3.05797 3.79339
# Velocity P-wave (km/s) = 6.90423 6.17060 6.54770
#
# Compressibility (1/GPa) = 0.02029003
#
# Stress axis : x y z
#
# Youngs Moduli (GPa) = 85.01957 123.23848 109.48121
#
# Poissons Ratio (x) = -0.26506 0.32186
# Poissons Ratio (y) = -0.18286 0.39096
# Poissons Ratio (z) = 0.24995 0.44009
#
# Static dielectric constant tensor:
#      x y z
#    x 1.911250 0.000000 0.015820 
#    y 0.000000 1.878780 0.000000 
#    z 0.015820 0.000000 1.940700 
# 
# From -- ./inp_files/92207.got.cif
#   From: 2010.05.17/outbox.cif.g08.bks.cpg/sg10_47_cif.got.tgz:92207.got - 2010.06.03 11:33:40.
