data_PCOD9152905
_publ_section_title
;
Structure prediction by ZEFSAII (Michael W. Deem and Ramdas Pophale) SiO2 
 PCOD9152905
Probable space group: P 2/M
;
_chemical_formula_sum "Si O2"
_cell_formula_units_Z 28
_cell_length_a 8.141014
_cell_length_b 7.891001
_cell_length_c 24.826571
_cell_angle_alpha 90.000000
_cell_angle_beta 136.783900
_cell_angle_gamma 90.000000
_cell_volume 1092.095448
_symmetry_space_group_name_H-M "P 2/M"
_symmetry_group_IT_number 10
_symmetry_cell_setting 'monoclinic'
loop_
_space_group_symop_operation_xyz
x,y,z
-x,y,-z
-x,-y,-z
x,-y,z
loop_
_atom_site_type_symbol
_atom_site_label
_atom_site_fract_x
_atom_site_fract_y
_atom_site_fract_z
Si Si1 0.474618 0.197340 0.053728
Si Si2 0.659093 0.191107 0.327001
Si Si3 0.312341 0.707280 0.381599
Si Si4 0.144562 0.305461 0.233323
Si Si5 0.828529 0.704098 0.530045
Si Si6 0.424143 0.300664 0.807569
Si Si7 0.968737 0.294413 0.908612
O O1 0.617231 0.267409 0.139150
O O2 0.531082 0.000000 0.064058
O O3 0.500000 0.277536 0.000000
O O4 0.189595 0.222310 0.994221
O O5 0.430230 0.305577 0.286582
O O6 0.705059 0.213337 0.273661
O O7 0.905236 0.230861 0.416553
O O8 0.582694 0.000000 0.319041
O O9 0.309393 0.500000 0.378190
O O10 0.147989 0.771388 0.293692
O O11 0.589915 0.762361 0.441940
O O12 0.229741 0.749547 0.421657
O O13 0.064320 0.500000 0.217601
O O14 0.020004 0.230077 0.150814
O O15 0.837735 0.500000 0.527864
O O16 0.391503 0.500000 0.790737
O O17 0.703573 0.252127 0.865293
O O18 0.985092 0.500000 0.913482
#
# Coordination Sequence:
#
# PCOD9152905 Si02
#       7
#     4   4   4   4   4   4   4
#     4  11  24  38  53  80 116 146 173 209 258 316
#     4  11  22  35  52  79 111 141 174 215 267 323
#     4   8  16  32  56  80 103 137 184 228 264 309
#     4   9  18  35  56  79 105 136 178 225 266 308
#     4   9  17  33  55  79 106 140 181 223 267 314
#     4  10  21  39  61  81 102 135 181 225 263 309
#     4   9  19  35  56  80 104 135 180 226 265 310
#
# _framework density 25.638784999999999
#
# number of rings (size 3 to 8) (size 9 to 14) (size 15 to 20)
#    0.000    2.429    0.000    4.286    0.000    7.429 
#    0.000    7.143    0.000    0.000    0.000    0.000 
#    0.000    0.000    0.000    0.000    0.000    0.000 
#
# Total GULP energy -156573.658307 kJ/mol
# GULP energy per Si atom -5591.916368 kJ/mol
# Density = 2.558043 g / cm^3
# Si number density = 25.638785 Si / 1000 Ang^3
#
#
#
# Elastic Constant Matrix: (Units=GPa)
#
#
# Indices 1 2 3 4 5 6 
#
# 1 73.0492 -0.9334 6.0680 0.0000 -6.9492 0.0000
# 2 -0.9334 45.2341 12.1674 0.0000 2.7075 0.0000
# 3 6.0680 12.1674 152.1160 0.0000 -7.2302 0.0000
# 4 0.0000 0.0000 0.0000 22.1480 0.0000 3.7061
# 5 -6.9492 2.7075 -7.2302 0.0000 51.5984 0.0000
# 6 0.0000 0.0000 0.0000 3.7061 0.0000 15.2571
#
#
#
# Elastic Compliance Matrix: (Units=1/GPa)
#
#
# Indices 1 2 3 4 5 6 
#
# 1 0.013904 0.000313 -0.000495 0.000000 0.001787 0.000000
# 2 0.000313 0.022708 -0.001896 0.000000 -0.001415 0.000000
# 3 -0.000495 -0.001896 0.006792 0.000000 0.000985 0.000000
# 4 0.000000 0.000000 0.000000 0.047064 0.000000 -0.011432
# 5 0.001787 -0.001415 0.000985 0.000000 0.019833 0.000000
# 6 0.000000 0.000000 0.000000 -0.011432 0.000000 0.068320
#
#
# Mechanical properties :
#
#
# Convention : Reuss Voigt Hill
#
# Bulk Modulus (GPa) = 25.47813 33.88926 29.68369
# Shear Modulus (GPa) = 25.52827 34.67387 30.10107
#
# Velocity S-wave (km/s) = 3.15888 3.68149 3.43015
# Velocity P-wave (km/s) = 4.82324 5.59623 5.22405
#
# Compressibility (1/GPa) = 0.03924934
#
# Stress axis : x y z
#
# Youngs Moduli (GPa) = 71.91920 44.03650 147.22916
#
# Poissons Ratio (x) = -0.01379 0.07284
# Poissons Ratio (y) = -0.02251 0.27917
# Poissons Ratio (z) = 0.03558 0.08350
#
# Static dielectric constant tensor:
#      x y z
#    x 2.155830 0.000000 -0.020100 
#    y 0.000000 1.913910 0.000000 
#    z -0.020100 0.000000 1.998180 
# 
# From -- ./inp_files/91892.got.cif
#   From: 2010.05.17/outbox.cif.g08.bks.cpg/sg10_46_cif.got.tgz:91892.got - 2010.06.03 11:33:40.
