data_PCOD9152922
_publ_section_title
;
Structure prediction by ZEFSAII (Michael W. Deem and Ramdas Pophale) SiO2 
 PCOD9152922
Probable space group: P 2/M
;
_chemical_formula_sum "Si O2"
_cell_formula_units_Z 18
_cell_length_a 9.028037
_cell_length_b 7.148041
_cell_length_c 11.806877
_cell_angle_alpha 90.000000
_cell_angle_beta 68.266330
_cell_angle_gamma 90.000000
_cell_volume 707.768842
_symmetry_space_group_name_H-M "P 2/M"
_symmetry_group_IT_number 10
_symmetry_cell_setting 'monoclinic'
loop_
_space_group_symop_operation_xyz
x,y,z
-x,y,-z
-x,-y,-z
x,-y,z
loop_
_atom_site_type_symbol
_atom_site_label
_atom_site_fract_x
_atom_site_fract_y
_atom_site_fract_z
Si Si1 0.350485 0.275223 0.662906
Si Si2 0.275369 0.723799 0.166787
Si Si3 0.047492 0.724320 0.610416
Si Si4 0.184118 0.726063 0.946690
Si Si5 0.434054 0.000000 0.299697
O O1 0.371726 0.500000 0.651167
O O2 0.270975 0.219665 0.807179
O O3 0.216016 0.216256 0.611582
O O4 0.512719 0.164173 0.624407
O O5 0.305784 0.500000 0.166575
O O6 0.094958 0.761449 0.261985
O O7 0.384308 0.838010 0.220178
O O8 0.276152 0.779315 0.034902
O O9 0.057440 0.500000 0.599128
O O10 0.000000 0.796173 0.500000
O O11 0.179545 0.500000 0.948340
O O12 0.000000 0.788043 0.000000
#
# Coordination Sequence:
#
# PCOD9152922 Si02
#       5
#     4   4   4   4   2
#     4  10  21  39  61  87 119 153 194 240 288 345
#     4  10  21  39  61  87 119 153 194 240 288 345
#     4   9  18  38  68  91 109 145 199 254 295 331
#     4   9  16  33  62  88 114 150 191 242 293 335
#     4  12  26  39  55  88 126 164 191 225 292 356
#
# _framework density 25.432033000000001
#
# number of rings (size 3 to 8) (size 9 to 14) (size 15 to 20)
#    0.000    2.222    2.222    0.667    0.000    3.556 
#    0.000    8.889    0.000    5.333    0.000    0.000 
#    0.000    0.000    0.000    0.000    0.000    0.000 
#
# Total GULP energy -100318.556896 kJ/mol
# GULP energy per Si atom -5573.253161 kJ/mol
# Density = 2.537415 g / cm^3
# Si number density = 25.432033 Si / 1000 Ang^3
#
#
#
# Elastic Constant Matrix: (Units=GPa)
#
#
# Indices 1 2 3 4 5 6 
#
# 1 136.9040 37.8315 85.9236 0.0000 51.5452 0.0000
# 2 37.8315 163.4715 16.5505 0.0000 16.6964 0.0000
# 3 85.9236 16.5505 143.6198 0.0000 29.5111 0.0000
# 4 0.0000 0.0000 0.0000 3.0957 0.0000 78.4166
# 5 51.5452 16.6964 29.5111 0.0000 59.9898 0.0000
# 6 0.0000 0.0000 0.0000 78.4166 0.0000 97.5139
#
#
#
# Elastic Compliance Matrix: (Units=1/GPa)
#
#
# Indices 1 2 3 4 5 6 
#
# 1 0.016186 -0.002002 -0.007464 0.000000 -0.009679 0.000000
# 2 -0.002002 0.006565 0.000515 0.000000 -0.000361 0.000000
# 3 -0.007464 0.000515 0.011214 0.000000 0.000754 0.000000
# 4 0.000000 0.000000 0.000000 -0.016677 0.000000 0.013411
# 5 -0.009679 -0.000361 0.000754 0.000000 0.024716 0.000000
# 6 0.000000 0.000000 0.000000 0.013411 0.000000 -0.000529
#
#
# Mechanical properties :
#
#
# Convention : Reuss Voigt Hill
#
# Bulk Modulus (GPa) = 62.25074 80.51183 71.38128
# Shear Modulus (GPa) = 77.24146 52.36588 64.80367
#
# Velocity S-wave (km/s) = 5.51703 4.54260 5.05336
# Velocity P-wave (km/s) = 8.06932 7.69675 7.88524
#
# Compressibility (1/GPa) = 0.01606407
#
# Stress axis : x y z
#
# Youngs Moduli (GPa) = 61.77995 152.31818 89.17124
#
# Poissons Ratio (x) = 0.30489 0.66561
# Poissons Ratio (y) = 0.12366 -0.04593
# Poissons Ratio (z) = 0.46115 -0.07846
#
# Static dielectric constant tensor:
#      x y z
#    x 2.024650 0.000000 -0.083920 
#    y 0.000000 2.053630 0.000000 
#    z -0.083920 0.000000 2.023160 
# 
# From -- ./inp_files/22158.got.cif
#   From: 2010.05.17/outbox.cif.g08.bks.cpg/sg10_12_cif.got.tgz:22158.got - 2010.06.03 11:33:40.
