data_PCOD9152883
_publ_section_title
;
Structure prediction by ZEFSAII (Michael W. Deem and Ramdas Pophale) SiO2 
 PCOD9152883
Probable space group: P 2/M
;
_chemical_formula_sum "Si O2"
_cell_formula_units_Z 32
_cell_length_a 12.376813
_cell_length_b 7.754246
_cell_length_c 14.861212
_cell_angle_alpha 90.000000
_cell_angle_beta 93.514229
_cell_angle_gamma 90.000000
_cell_volume 1423.590956
_symmetry_space_group_name_H-M "P 2/M"
_symmetry_group_IT_number 10
_symmetry_cell_setting 'monoclinic'
loop_
_space_group_symop_operation_xyz
x,y,z
-x,y,-z
-x,-y,-z
x,-y,z
loop_
_atom_site_type_symbol
_atom_site_label
_atom_site_fract_x
_atom_site_fract_y
_atom_site_fract_z
Si Si1 0.932646 0.789393 0.583266
Si Si2 0.619381 0.300353 0.022808
Si Si3 0.418570 0.697349 0.289382
Si Si4 0.684978 0.797652 0.540654
Si Si5 0.247632 0.801295 0.140705
Si Si6 0.653018 0.708762 0.333245
Si Si7 0.027599 0.794566 0.213394
Si Si8 0.211035 0.291557 0.822761
O O1 0.807633 0.739728 0.565532
O O2 0.000000 0.729125 0.500000
O O3 0.972425 0.729130 0.683293
O O4 0.937399 0.000000 0.582607
O O5 0.600255 0.500000 0.048517
O O6 0.688418 0.292597 0.935077
O O7 0.500000 0.222915 0.000000
O O8 0.697977 0.226117 0.103482
O O9 0.414948 0.500000 0.257408
O O10 0.393782 0.703780 0.394250
O O11 0.324741 0.794917 0.232020
O O12 0.539679 0.765463 0.283094
O O13 0.661021 0.772190 0.434978
O O14 0.676598 0.000000 0.561180
O O15 0.130947 0.727370 0.163325
O O16 0.234323 0.000000 0.111335
O O17 0.650518 0.500000 0.335679
O O18 0.751890 0.763868 0.275172
O O19 0.911076 0.763341 0.164289
O O20 0.045242 0.000000 0.220313
O O21 0.212164 0.500000 0.825625
#
# Coordination Sequence:
#
# PCOD9152883 Si02
#       8
#     4   4   4   4   4   4   4   4
#     4   9  17  32  54  78 111 157 201 240 288 348
#     4  10  22  43  68  92 121 159 199 243 302 363
#     4  11  22  38  60  84 119 163 202 245 302 363
#     4  11  21  35  56  85 119 156 203 251 297 355
#     4  11  23  40  63  91 123 157 199 252 302 359
#     4  10  22  39  57  83 119 159 200 246 303 360
#     4  10  21  39  59  84 122 160 196 243 304 360
#     4  10  22  40  62  88 118 152 200 251 292 353
#
# _framework density 22.478368
#
# number of rings (size 3 to 8) (size 9 to 14) (size 15 to 20)
#    0.000    1.750    1.250    3.000    0.000    8.250 
#    0.000    3.750    0.000    2.625    0.000    0.000 
#    0.000    0.000    0.000    0.000    0.000    0.000 
#
# Total GULP energy -178875.089710 kJ/mol
# GULP energy per Si atom -5589.846553 kJ/mol
# Density = 2.242721 g / cm^3
# Si number density = 22.478368 Si / 1000 Ang^3
#
#
#
# Elastic Constant Matrix: (Units=GPa)
#
#
# Indices 1 2 3 4 5 6 
#
# 1 146.3717 -2.6591 27.5614 0.0000 -1.7012 0.0000
# 2 -2.6591 33.0866 -9.9270 0.0000 -0.7770 0.0000
# 3 27.5614 -9.9270 75.6461 0.0000 -5.4635 0.0000
# 4 0.0000 0.0000 0.0000 20.0556 0.0000 5.2398
# 5 -1.7012 -0.7770 -5.4635 0.0000 35.8540 0.0000
# 6 0.0000 0.0000 0.0000 5.2398 0.0000 16.0641
#
#
#
# Elastic Compliance Matrix: (Units=1/GPa)
#
#
# Indices 1 2 3 4 5 6 
#
# 1 0.007337 -0.000224 -0.002708 0.000000 -0.000069 0.000000
# 2 -0.000224 0.031532 0.004316 0.000000 0.001330 0.000000
# 3 -0.002708 0.004316 0.014934 0.000000 0.002241 0.000000
# 4 0.000000 0.000000 0.000000 0.054506 0.000000 -0.017779
# 5 -0.000069 0.001330 0.002241 0.000000 0.028258 0.000000
# 6 0.000000 0.000000 0.000000 -0.017779 0.000000 0.068050
#
#
# Mechanical properties :
#
#
# Convention : Reuss Voigt Hill
#
# Bulk Modulus (GPa) = 17.67709 31.67276 24.67493
# Shear Modulus (GPa) = 22.65460 30.40336 26.52898
#
# Velocity S-wave (km/s) = 3.17809 3.68171 3.43913
# Velocity P-wave (km/s) = 4.62041 5.67399 5.17409
#
# Compressibility (1/GPa) = 0.05657040
#
# Stress axis : x y z
#
# Youngs Moduli (GPa) = 136.29780 31.71401 66.96061
#
# Poissons Ratio (x) = 0.00711 0.18130
# Poissons Ratio (y) = 0.03058 -0.28898
# Poissons Ratio (z) = 0.36904 -0.13687
#
# Static dielectric constant tensor:
#      x y z
#    x 1.821620 0.000000 -0.002770 
#    y 0.000000 1.842090 0.000000 
#    z -0.002770 0.000000 1.817230 
# 
# From -- ./inp_files/58196.got.cif
#   From: 2010.05.17/outbox.cif.g08.bks.cpg/sg10_30_cif.got.tgz:58196.got - 2010.06.03 11:33:40.
