data_PCOD9152773
_publ_section_title
;
Structure prediction by ZEFSAII (Michael W. Deem and Ramdas Pophale) SiO2 
 PCOD9152773
Probable space group: P 2/M
;
_chemical_formula_sum "Si O2"
_cell_formula_units_Z 18
_cell_length_a 5.629013
_cell_length_b 18.009883
_cell_length_c 8.875425
_cell_angle_alpha 90.000000
_cell_angle_beta 59.928990
_cell_angle_gamma 90.000000
_cell_volume 778.666932
_symmetry_space_group_name_H-M "P 2/M"
_symmetry_group_IT_number 10
_symmetry_cell_setting 'monoclinic'
loop_
_space_group_symop_operation_xyz
x,y,z
-x,y,-z
-x,-y,-z
x,-y,z
loop_
_atom_site_type_symbol
_atom_site_label
_atom_site_fract_x
_atom_site_fract_y
_atom_site_fract_z
Si Si1 0.000000 0.326005 0.000000
Si Si2 0.291331 0.083577 0.953587
Si Si3 0.543203 0.707692 0.667724
Si Si4 0.768217 0.583477 0.807677
Si Si5 0.687302 0.129674 0.589052
O O1 0.270964 0.282522 0.860491
O O2 0.970440 0.377475 0.861082
O O3 0.487609 0.079511 0.750009
O O4 0.227872 0.000000 0.033622
O O5 0.500000 0.123985 0.000000
O O6 0.000000 0.117156 0.000000
O O7 0.500000 0.697478 0.500000
O O8 0.699180 0.637387 0.690881
O O9 0.701642 0.784884 0.639980
O O10 0.848503 0.500000 0.738571
O O11 0.500000 0.578553 0.000000
O O12 0.500000 0.135753 0.500000
O O13 0.000000 0.101639 0.500000
#
# Coordination Sequence:
#
# PCOD9152773 Si02
#       5
#     2   4   4   4   4
#     4  10  21  38  62  88 115 172 204 274 337 394
#     4  10  22  41  67 100 135 171 217 267 318 386
#     4  10  24  39  61  89 129 161 220 270 327 394
#     4   9  19  37  60  88 120 159 213 269 332 400
#     4  11  25  42  65  94 132 175 217 270 324 387
#
# _framework density 23.116432
#
# number of rings (size 3 to 8) (size 9 to 14) (size 15 to 20)
#    0.000    2.000    0.000    1.667    7.778    4.889 
#    0.000    1.111    0.000    0.000    0.000    0.000 
#    0.000    0.000    0.000    0.000    0.000    0.000 
#
# Total GULP energy -100254.659307 kJ/mol
# GULP energy per Si atom -5569.703295 kJ/mol
# Density = 2.306382 g / cm^3
# Si number density = 23.116432 Si / 1000 Ang^3
#
#
#
# Elastic Constant Matrix: (Units=GPa)
#
#
# Indices 1 2 3 4 5 6 
#
# 1 163.0764 32.1663 47.8559 0.0000 -19.3132 0.0000
# 2 32.1663 75.4672 42.9241 0.0000 14.7528 0.0000
# 3 47.8559 42.9241 94.6779 0.0000 -6.6622 0.0000
# 4 0.0000 0.0000 0.0000 38.8341 0.0000 -9.4348
# 5 -19.3132 14.7528 -6.6622 0.0000 50.5746 0.0000
# 6 0.0000 0.0000 0.0000 -9.4348 0.0000 8.6392
#
#
#
# Elastic Compliance Matrix: (Units=1/GPa)
#
#
# Indices 1 2 3 4 5 6 
#
# 1 0.007777 -0.002523 -0.002550 0.000000 0.003370 0.000000
# 2 -0.002523 0.020939 -0.008797 0.000000 -0.008230 0.000000
# 3 -0.002550 -0.008797 0.016100 0.000000 0.003713 0.000000
# 4 0.000000 0.000000 0.000000 0.035050 0.000000 0.038278
# 5 0.003370 -0.008230 0.003713 0.000000 0.023950 0.000000
# 6 0.000000 0.000000 0.000000 0.038278 0.000000 0.157555
#
#
# Mechanical properties :
#
#
# Convention : Reuss Voigt Hill
#
# Bulk Modulus (GPa) = 58.56018 64.34600 61.45309
# Shear Modulus (GPa) = 16.96048 33.62793 25.29420
#
# Velocity S-wave (km/s) = 2.71162 3.81822 3.31147
# Velocity P-wave (km/s) = 5.93225 6.88000 6.42363
#
# Compressibility (1/GPa) = 0.01707645
#
# Stress axis : x y z
#
# Youngs Moduli (GPa) = 128.58045 47.75887 62.11031
#
# Poissons Ratio (x) = 0.12051 0.15838
# Poissons Ratio (y) = 0.32445 0.54636
# Poissons Ratio (z) = 0.32787 0.42011
#
# Static dielectric constant tensor:
#      x y z
#    x 1.834370 0.000000 -0.162520 
#    y 0.000000 1.899960 0.000000 
#    z -0.162520 0.000000 1.711090 
# 
# From -- ./inp_files/4260.got.cif
#   From: 2010.05.17/outbox.cif.g08.bks.cpg/sg10_3_cif.got.tgz:4260.got - 2010.06.03 11:33:40.
