data_PCOD9152088
_publ_section_title
;
Structure prediction by ZEFSAII (Michael W. Deem and Ramdas Pophale) SiO2 
 PCOD9152088
Probable space group: P 2/M
;
_chemical_formula_sum "Si O2"
_cell_formula_units_Z 32
_cell_length_a 14.673410
_cell_length_b 7.557343
_cell_length_c 15.163699
_cell_angle_alpha 90.000000
_cell_angle_beta 54.482590
_cell_angle_gamma 90.000000
_cell_volume 1368.665166
_symmetry_space_group_name_H-M "P 2/M"
_symmetry_group_IT_number 10
_symmetry_cell_setting 'monoclinic'
loop_
_space_group_symop_operation_xyz
x,y,z
-x,y,-z
-x,-y,-z
x,-y,z
loop_
_atom_site_type_symbol
_atom_site_label
_atom_site_fract_x
_atom_site_fract_y
_atom_site_fract_z
Si Si1 0.182710 0.798464 0.554340
Si Si2 0.513584 0.284411 0.892185
Si Si3 0.422838 0.292101 0.763365
Si Si4 0.586351 0.793672 0.520438
Si Si5 0.174300 0.787079 0.857116
Si Si6 0.931833 0.784799 0.712795
Si Si7 0.747067 0.296245 0.675342
Si Si8 0.047718 0.215143 0.105028
O O1 0.289265 0.716137 0.543885
O O2 0.219636 0.803077 0.431797
O O3 0.059123 0.721209 0.627396
O O4 0.169952 0.000000 0.595241
O O5 0.509533 0.500000 0.899276
O O6 0.427315 0.229303 0.862955
O O7 0.634840 0.232508 0.786205
O O8 0.500000 0.219724 0.000000
O O9 0.445401 0.500000 0.752315
O O10 0.522604 0.211022 0.649654
O O11 0.303487 0.264781 0.783755
O O12 0.500000 0.711437 0.500000
O O13 0.601577 0.000000 0.487076
O O14 0.082005 0.729064 0.836957
O O15 0.173644 0.000000 0.855635
O O16 0.120899 0.727412 0.980527
O O17 0.847428 0.713520 0.688375
O O18 0.903271 0.731895 0.828810
O O19 0.928850 0.000000 0.707240
O O20 0.727913 0.500000 0.659861
O O21 0.047244 0.000000 0.103667
#
# Coordination Sequence:
#
# PCOD9152088 Si02
#       8
#     4   4   4   4   4   4   4   4
#     4  10  21  38  59  82 111 145 183 231 283 331
#     4   9  20  38  57  78 111 154 192 226 278 341
#     4  11  22  37  59  87 117 153 187 233 290 338
#     4  10  22  39  62  88 113 149 194 236 280 339
#     4   9  18  35  59  83 112 150 188 227 275 334
#     4  10  21  36  57  83 111 143 184 232 282 332
#     4  11  22  38  59  81 109 147 187 229 279 336
#     4   8  17  35  58  83 112 147 186 232 281 326
#
# _framework density 23.380445000000002
#
# number of rings (size 3 to 8) (size 9 to 14) (size 15 to 20)
#    0.000    2.250    1.250    1.875    3.500    2.250 
#    0.000    1.875    0.000    3.000    0.000    0.000 
#    0.000    0.000    0.000    0.000    0.000    0.000 
#
# Total GULP energy -178772.946738 kJ/mol
# GULP energy per Si atom -5586.654586 kJ/mol
# Density = 2.332723 g / cm^3
# Si number density = 23.380445 Si / 1000 Ang^3
#
#
#
# Elastic Constant Matrix: (Units=GPa)
#
#
# Indices 1 2 3 4 5 6 
#
# 1 112.4987 -4.5378 -12.3710 0.0000 -0.4989 0.0000
# 2 -4.5378 59.6369 -7.6337 0.0000 -0.0095 0.0000
# 3 -12.3710 -7.6337 32.7767 0.0000 6.0022 0.0000
# 4 0.0000 0.0000 0.0000 -12.7267 0.0000 0.6362
# 5 -0.4989 -0.0095 6.0022 0.0000 39.3444 0.0000
# 6 0.0000 0.0000 0.0000 0.6362 0.0000 8.3463
#
#
#
# Elastic Compliance Matrix: (Units=1/GPa)
#
#
# Indices 1 2 3 4 5 6 
#
# 1 0.009365 0.001212 0.003904 0.000000 -0.000477 0.000000
# 2 0.001212 0.017455 0.004649 0.000000 -0.000690 0.000000
# 3 0.003904 0.004649 0.034007 0.000000 -0.005137 0.000000
# 4 0.000000 0.000000 0.000000 -0.078277 0.000000 0.005967
# 5 -0.000477 -0.000690 -0.005137 0.000000 0.026194 0.000000
# 6 0.000000 0.000000 0.000000 0.005967 0.000000 0.119359
#
#
# Mechanical properties :
#
#
# Convention : Reuss Voigt Hill
#
# Bulk Modulus (GPa) = 12.44420 17.31415 14.87917
# Shear Modulus (GPa) = 36.93908 22.28979 29.61443
#
# Velocity S-wave (km/s) = 3.97912 3.09099 3.56284
# Velocity P-wave (km/s) = 5.14250 4.49004 4.82730
#
# Compressibility (1/GPa) = 0.08035874
#
# Stress axis : x y z
#
# Youngs Moduli (GPa) = 106.77923 57.28886 29.40606
#
# Poissons Ratio (x) = -0.06945 -0.11481
# Poissons Ratio (y) = -0.12945 -0.13672
# Poissons Ratio (z) = -0.41690 -0.26635
#
# Static dielectric constant tensor:
#      x y z
#    x 1.884550 0.000000 0.016010 
#    y 0.000000 1.886520 0.000000 
#    z 0.016010 0.000000 1.862100 
# 
# From -- ./inp_files/66489.got.cif
#   From: 2010.05.17/outbox.cif.g08.bks.cpg/sg10_34_cif.got.tgz:66489.got - 2010.06.03 11:33:40.
