data_PCOD9152262
_publ_section_title
;
Structure prediction by ZEFSAII (Michael W. Deem and Ramdas Pophale) SiO2 
 PCOD9152262
Probable space group: P 2/M
;
_chemical_formula_sum "Si O2"
_cell_formula_units_Z 28
_cell_length_a 5.124623
_cell_length_b 33.128313
_cell_length_c 9.691613
_cell_angle_alpha 90.000000
_cell_angle_beta 60.952486
_cell_angle_gamma 90.000000
_cell_volume 1438.390265
_symmetry_space_group_name_H-M "P 2/M"
_symmetry_group_IT_number 10
_symmetry_cell_setting 'monoclinic'
loop_
_space_group_symop_operation_xyz
x,y,z
-x,y,-z
-x,-y,-z
x,-y,z
loop_
_atom_site_type_symbol
_atom_site_label
_atom_site_fract_x
_atom_site_fract_y
_atom_site_fract_z
Si Si1 0.154047 0.046166 0.609055
Si Si2 0.331789 0.676935 0.691104
Si Si3 0.273142 0.411528 0.823239
Si Si4 0.837376 0.725494 0.689106
Si Si5 0.856037 0.890694 0.888974
Si Si6 0.853098 0.200811 0.889363
Si Si7 0.902731 0.548071 0.682201
O O1 0.500000 0.057414 0.500000
O O2 0.000000 0.046304 0.500000
O O3 0.981726 0.077093 0.750159
O O4 0.144697 0.000000 0.666135
O O5 0.500000 0.672745 0.500000
O O6 0.334138 0.634883 0.769319
O O7 0.504623 0.710917 0.736451
O O8 0.000638 0.690877 0.736086
O O9 0.581651 0.431680 0.792442
O O10 0.153912 0.434176 0.717739
O O11 0.000000 0.414455 0.000000
O O12 0.892922 0.765964 0.761188
O O13 0.000000 0.729147 0.500000
O O14 0.946580 0.844732 0.825528
O O15 0.500000 0.892974 0.000000
O O16 0.000000 0.898658 0.000000
O O17 0.500000 0.199085 0.000000
O O18 0.000000 0.210807 0.000000
O O19 0.880236 0.500000 0.706145
O O20 0.000000 0.556606 0.500000
#
# Coordination Sequence:
#
# PCOD9152262 Si02
#       7
#     4   4   4   4   4   4   4
#     4  10  21  37  57  84 117 152 194 246 300 348
#     4  10  21  38  59  83 115 152 191 235 282 341
#     4  12  25  40  62  93 123 152 192 243 293 338
#     4  10  21  37  58  83 109 146 194 237 281 338
#     4  10  21  37  57  83 115 153 196 237 288 354
#     4  10  21  37  56  81 114 149 186 236 292 344
#     4  11  24  43  66  89 118 160 200 233 283 349
#
# _framework density 19.466204000000001
#
# number of rings (size 3 to 8) (size 9 to 14) (size 15 to 20)
#    0.000    1.571    0.000    4.714    0.000    6.857 
#    0.000    2.143    0.000    0.000    0.000    0.000 
#    0.000    0.000    0.000    0.000    0.000    0.000 
#
# Total GULP energy -156437.971044 kJ/mol
# GULP energy per Si atom -5587.070394 kJ/mol
# Density = 1.942190 g / cm^3
# Si number density = 19.466204 Si / 1000 Ang^3
#
#
#
# Elastic Constant Matrix: (Units=GPa)
#
#
# Indices 1 2 3 4 5 6 
#
# 1 108.3683 9.8768 16.7688 0.0000 6.7062 0.0000
# 2 9.8768 91.5422 52.4024 0.0000 5.8718 0.0000
# 3 16.7688 52.4024 46.0700 0.0000 5.3747 0.0000
# 4 0.0000 0.0000 0.0000 -204.2524 0.0000 -71.2780
# 5 6.7062 5.8718 5.3747 0.0000 25.7741 0.0000
# 6 0.0000 0.0000 0.0000 -71.2780 0.0000 12.5688
#
#
#
# Elastic Compliance Matrix: (Units=1/GPa)
#
#
# Indices 1 2 3 4 5 6 
#
# 1 0.010127 0.002902 -0.006767 0.000000 -0.001885 0.000000
# 2 0.002902 0.032146 -0.037592 0.000000 -0.000239 0.000000
# 3 -0.006767 -0.037592 0.067363 0.000000 -0.003722 0.000000
# 4 0.000000 0.000000 0.000000 -0.001643 0.000000 -0.009320
# 5 -0.001885 -0.000239 -0.003722 0.000000 0.040120 0.000000
# 6 0.000000 0.000000 0.000000 -0.009320 0.000000 0.026708
#
#
# Mechanical properties :
#
#
# Convention : Reuss Voigt Hill
#
# Bulk Modulus (GPa) = 37.42422 44.89741 41.16081
# Shear Modulus (GPa) = 18.75178 -22.05308 -1.65065
#
# Velocity S-wave (km/s) = 3.10707 -3.36950 -0.92184
# Velocity P-wave (km/s) = 5.66911 2.82424 4.47857
#
# Compressibility (1/GPa) = 0.02672067
#
# Stress axis : x y z
#
# Youngs Moduli (GPa) = 98.74517 31.10852 14.84495
#
# Poissons Ratio (x) = -0.09028 0.10046
# Poissons Ratio (y) = -0.28656 0.55806
# Poissons Ratio (z) = 0.66822 1.16944
#
# Static dielectric constant tensor:
#      x y z
#    x 1.649680 0.000000 0.001630 
#    y 0.000000 1.685220 0.000000 
#    z 0.001630 0.000000 1.651140 
# 
# From -- ./inp_files/15867.got.cif
#   From: 2010.05.17/outbox.cif.g08.bks.cpg/sg10_8_cif.got.tgz:15867.got - 2010.06.03 11:33:40.
