data_PCOD9152682
_publ_section_title
;
Structure prediction by ZEFSAII (Michael W. Deem and Ramdas Pophale) SiO2 
 PCOD9152682
Probable space group: P 2/M
;
_chemical_formula_sum "Si O2"
_cell_formula_units_Z 28
_cell_length_a 9.765552
_cell_length_b 7.912173
_cell_length_c 19.277002
_cell_angle_alpha 90.000000
_cell_angle_beta 120.340871
_cell_angle_gamma 90.000000
_cell_volume 1285.466287
_symmetry_space_group_name_H-M "P 2/M"
_symmetry_group_IT_number 10
_symmetry_cell_setting 'monoclinic'
loop_
_space_group_symop_operation_xyz
x,y,z
-x,y,-z
-x,-y,-z
x,-y,z
loop_
_atom_site_type_symbol
_atom_site_label
_atom_site_fract_x
_atom_site_fract_y
_atom_site_fract_z
Si Si1 0.492140 0.304358 0.190060
Si Si2 0.370734 0.198869 0.912704
Si Si3 0.271745 0.803963 0.636987
Si Si4 0.350391 0.198911 0.505197
Si Si5 0.969923 0.699744 0.649840
Si Si6 0.857992 0.294400 0.913904
Si Si7 0.972115 0.703556 0.178780
O O1 0.473122 0.500000 0.205726
O O2 0.609209 0.291873 0.154934
O O3 0.574866 0.210744 0.274573
O O4 0.322224 0.237659 0.119879
O O5 0.193844 0.229286 0.892764
O O6 0.397123 0.000000 0.907842
O O7 0.500000 0.262650 0.000000
O O8 0.315093 0.728771 0.572925
O O9 0.122319 0.724912 0.639301
O O10 0.228219 0.000000 0.616355
O O11 0.500000 0.269928 0.500000
O O12 0.187472 0.217203 0.421339
O O13 0.385903 0.000000 0.525200
O O14 0.939361 0.500000 0.646909
O O15 0.002494 0.764810 0.736277
O O16 0.858479 0.500000 0.920945
O O17 0.896466 0.250910 0.844002
O O18 0.000000 0.232625 0.000000
O O19 0.962710 0.500000 0.178253
#
# Coordination Sequence:
#
# PCOD9152682 Si02
#       7
#     4   4   4   4   4   4   4
#     4  11  22  37  62  91 119 157 202 250 304 360
#     4  11  23  38  58  87 122 160 203 249 296 352
#     4  11  23  41  64  89 122 161 200 247 300 360
#     4  10  24  44  65  91 123 163 203 241 298 366
#     4  11  23  39  63  94 124 158 202 252 300 355
#     4   9  19  36  58  85 118 157 201 249 302 358
#     4  10  21  38  60  88 120 158 202 247 302 358
#
# _framework density 21.781980000000001
#
# number of rings (size 3 to 8) (size 9 to 14) (size 15 to 20)
#    0.000    1.571    1.429    3.000    2.000    6.000 
#    0.000    1.429    0.000    3.857    0.000    0.000 
#    0.000    0.000    0.000    0.000    0.000    0.000 
#
# Total GULP energy -156440.099919 kJ/mol
# GULP energy per Si atom -5587.146426 kJ/mol
# Density = 2.173240 g / cm^3
# Si number density = 21.781980 Si / 1000 Ang^3
#
#
#
# Elastic Constant Matrix: (Units=GPa)
#
#
# Indices 1 2 3 4 5 6 
#
# 1 85.0665 0.2257 19.4192 0.0000 3.1367 0.0000
# 2 0.2257 20.3915 -8.5543 0.0000 -7.8467 0.0000
# 3 19.4192 -8.5543 91.0761 0.0000 -2.3306 0.0000
# 4 0.0000 0.0000 0.0000 23.7498 0.0000 6.8630
# 5 3.1367 -7.8467 -2.3306 0.0000 37.0871 0.0000
# 6 0.0000 0.0000 0.0000 6.8630 0.0000 14.7531
#
#
#
# Elastic Compliance Matrix: (Units=1/GPa)
#
#
# Indices 1 2 3 4 5 6 
#
# 1 0.012482 -0.001989 -0.002891 0.000000 -0.001658 0.000000
# 2 -0.001989 0.056398 0.006041 0.000000 0.012480 0.000000
# 3 -0.002891 0.006041 0.012222 0.000000 0.002291 0.000000
# 4 0.000000 0.000000 0.000000 0.048645 0.000000 -0.022629
# 5 -0.001658 0.012480 0.002291 0.000000 0.029888 0.000000
# 6 0.000000 0.000000 0.000000 -0.022629 0.000000 0.078309
#
#
# Mechanical properties :
#
#
# Convention : Reuss Voigt Hill
#
# Bulk Modulus (GPa) = 11.98684 24.30171 18.14427
# Shear Modulus (GPa) = 18.98035 27.48089 23.23062
#
# Velocity S-wave (km/s) = 2.95511 3.55580 3.26928
# Velocity P-wave (km/s) = 4.14230 5.29522 4.75384
#
# Compressibility (1/GPa) = 0.08342483
#
# Stress axis : x y z
#
# Youngs Moduli (GPa) = 80.11665 17.73097 81.81882
#
# Poissons Ratio (x) = 0.03526 0.23650
# Poissons Ratio (y) = 0.15934 -0.49423
# Poissons Ratio (z) = 0.23158 -0.10711
#
# Static dielectric constant tensor:
#      x y z
#    x 1.760090 0.000000 -0.022700 
#    y 0.000000 1.788350 0.000000 
#    z -0.022700 0.000000 1.778210 
# 
# From -- ./inp_files/82262.got.cif
#   From: 2010.05.17/outbox.cif.g08.bks.cpg/sg10_42_cif.got.tgz:82262.got - 2010.06.03 11:33:40.
