data_PCOD9152250
_publ_section_title
;
Structure prediction by ZEFSAII (Michael W. Deem and Ramdas Pophale) SiO2 
 PCOD9152250
Probable space group: P 2/M
;
_chemical_formula_sum "Si O2"
_cell_formula_units_Z 32
_cell_length_a 13.034744
_cell_length_b 7.849792
_cell_length_c 32.760111
_cell_angle_alpha 90.000000
_cell_angle_beta 153.970167
_cell_angle_gamma 90.000000
_cell_volume 1470.995388
_symmetry_space_group_name_H-M "P 2/M"
_symmetry_group_IT_number 10
_symmetry_cell_setting 'monoclinic'
loop_
_space_group_symop_operation_xyz
x,y,z
-x,y,-z
-x,-y,-z
x,-y,z
loop_
_atom_site_type_symbol
_atom_site_label
_atom_site_fract_x
_atom_site_fract_y
_atom_site_fract_z
Si Si1 0.038866 0.805032 0.897003
Si Si2 0.663234 0.209528 0.303591
Si Si3 0.034895 0.292803 0.734270
Si Si4 0.431065 0.797849 0.303935
Si Si5 0.078402 0.201525 0.396902
Si Si6 0.462382 0.302072 0.941614
Si Si7 0.550965 0.698184 0.599928
Si Si8 0.803379 0.804083 0.901404
O O1 0.835758 0.729455 0.795422
O O2 0.915546 0.810214 0.896723
O O3 0.092137 0.000000 0.903772
O O4 0.282189 0.709284 0.986740
O O5 0.593453 0.264643 0.324606
O O6 0.454352 0.267380 0.198551
O O7 0.908007 0.265145 0.372114
O O8 0.661651 0.000000 0.302762
O O9 0.034719 0.500000 0.733640
O O10 0.257379 0.230703 0.839957
O O11 0.035676 0.235838 0.687694
O O12 0.793183 0.231235 0.668597
O O13 0.517132 0.772570 0.380376
O O14 0.407795 0.000000 0.288526
O O15 0.335325 0.279438 0.492305
O O16 0.106213 0.000000 0.412003
O O17 0.397519 0.500000 0.924644
O O18 0.500000 0.224562 0.000000
O O19 0.590782 0.500000 0.621271
O O20 0.770133 0.000000 0.904588
O O21 0.000000 0.720942 0.000000
#
# Coordination Sequence:
#
# PCOD9152250 Si02
#       8
#     4   4   4   4   4   4   4   4
#     4   9  18  31  52  83 111 139 178 226 271 313
#     4   8  17  33  52  81 116 149 180 222 280 334
#     4  10  23  41  58  79 112 152 191 233 280 334
#     4   9  18  36  59  84 116 148 186 233 279 330
#     4  11  23  38  60  87 114 144 185 235 286 338
#     4  10  21  37  56  78 109 150 189 223 269 330
#     4  11  23  40  61  81 107 148 194 235 285 340
#     4   8  14  26  48  76 108 142 175 210 256 321
#
# _framework density 21.753976000000002
#
# number of rings (size 3 to 8) (size 9 to 14) (size 15 to 20)
#    0.000    2.500    0.000    3.375    1.750    5.250 
#    0.000    3.750    0.000    1.875    0.000    0.000 
#    0.000    0.000    0.000    0.000    0.000    0.000 
#
# Total GULP energy -178499.119276 kJ/mol
# GULP energy per Si atom -5578.097477 kJ/mol
# Density = 2.170446 g / cm^3
# Si number density = 21.753976 Si / 1000 Ang^3
#
#
#
# Elastic Constant Matrix: (Units=GPa)
#
#
# Indices 1 2 3 4 5 6 
#
# 1 76.8170 2.2679 37.6263 0.0000 9.4949 0.0000
# 2 2.2679 22.1148 -6.6384 0.0000 2.9251 0.0000
# 3 37.6263 -6.6384 104.1323 0.0000 3.7856 0.0000
# 4 0.0000 0.0000 0.0000 16.3885 0.0000 1.6926
# 5 9.4949 2.9251 3.7856 0.0000 35.2220 0.0000
# 6 0.0000 0.0000 0.0000 1.6926 0.0000 15.6064
#
#
#
# Elastic Compliance Matrix: (Units=1/GPa)
#
#
# Indices 1 2 3 4 5 6 
#
# 1 0.016497 -0.003031 -0.006025 0.000000 -0.003548 0.000000
# 2 -0.003031 0.047273 0.004238 0.000000 -0.003564 0.000000
# 3 -0.006025 0.004238 0.012051 0.000000 -0.000023 0.000000
# 4 0.000000 0.000000 0.000000 0.061710 0.000000 -0.006693
# 5 -0.003548 -0.003564 -0.000023 0.000000 0.029646 0.000000
# 6 0.000000 0.000000 0.000000 -0.006693 0.000000 0.064802
#
#
# Mechanical properties :
#
#
# Convention : Reuss Voigt Hill
#
# Bulk Modulus (GPa) = 15.10899 29.95287 22.53093
# Shear Modulus (GPa) = 18.96256 24.76393 21.86324
#
# Velocity S-wave (km/s) = 2.95563 3.37762 3.17365
# Velocity P-wave (km/s) = 4.31371 5.38609 4.87945
#
# Compressibility (1/GPa) = 0.06618577
#
# Stress axis : x y z
#
# Youngs Moduli (GPa) = 60.61615 21.15368 82.97849
#
# Poissons Ratio (x) = 0.06412 0.49997
# Poissons Ratio (y) = 0.18374 -0.35170
# Poissons Ratio (z) = 0.36523 -0.08966
#
# Static dielectric constant tensor:
#      x y z
#    x 1.815330 0.000000 0.003680 
#    y 0.000000 1.816490 0.000000 
#    z 0.003680 0.000000 1.817810 
# 
# From -- ./inp_files/95040.got.cif
#   From: 2010.05.17/outbox.cif.g08.bks.cpg/sg10_48_cif.got.tgz:95040.got - 2010.06.03 11:33:40.
