data_PCOD9152032
_publ_section_title
;
Structure prediction by ZEFSAII (Michael W. Deem and Ramdas Pophale) SiO2 
 PCOD9152032
Probable space group: P 2/M
;
_chemical_formula_sum "Si O2"
_cell_formula_units_Z 20
_cell_length_a 13.124678
_cell_length_b 14.507065
_cell_length_c 5.193140
_cell_angle_alpha 90.000000
_cell_angle_beta 91.800329
_cell_angle_gamma 90.000000
_cell_volume 988.288668
_symmetry_space_group_name_H-M "P 2/M"
_symmetry_group_IT_number 10
_symmetry_cell_setting 'monoclinic'
loop_
_space_group_symop_operation_xyz
x,y,z
-x,y,-z
-x,-y,-z
x,-y,z
loop_
_atom_site_type_symbol
_atom_site_label
_atom_site_fract_x
_atom_site_fract_y
_atom_site_fract_z
Si Si1 0.114950 0.895153 0.906391
Si Si2 0.826832 0.789445 0.587757
Si Si3 0.387940 0.281006 0.507455
Si Si4 0.330029 0.393420 0.997570
Si Si5 0.895324 0.606286 0.835625
O O1 0.117914 0.846453 0.630332
O O2 0.153527 0.000000 0.890303
O O3 0.170290 0.836277 0.131439
O O4 0.000000 0.898372 0.000000
O O5 0.709232 0.784900 0.494509
O O6 0.875396 0.687215 0.627415
O O7 0.500000 0.238581 0.500000
O O8 0.369299 0.344345 0.256853
O O9 0.377124 0.344002 0.757069
O O10 0.357229 0.500000 0.002087
O O11 0.206055 0.387267 0.993914
O O12 0.897559 0.500000 0.734773
O O13 0.000000 0.622084 0.000000
#
# Coordination Sequence:
#
# PCOD9152032 Si02
#       5
#     4   4   4   4   4
#     4  11  24  42  67  96 122 151 192 245 304 361
#     4  11  22  40  64  90 123 160 199 244 298 355
#     4  11  23  38  57  82 114 156 202 250 302 347
#     4  10  21  36  55  82 115 156 208 255 293 340
#     4   9  19  37  60  89 128 168 202 237 286 357
#
# _framework density 20.237000999999999
#
# number of rings (size 3 to 8) (size 9 to 14) (size 15 to 20)
#    0.000    1.600    0.000    5.400    0.000    6.400 
#    0.000    4.000    0.000   34.200    0.000    0.000 
#    0.000    0.000    0.000    0.000    0.000    0.000 
#
# Total GULP energy -111815.167661 kJ/mol
# GULP energy per Si atom -5590.758383 kJ/mol
# Density = 2.019094 g / cm^3
# Si number density = 20.237001 Si / 1000 Ang^3
#
#
#
# Elastic Constant Matrix: (Units=GPa)
#
#
# Indices 1 2 3 4 5 6 
#
# 1 115.3347 19.8517 5.0895 0.0000 12.8003 0.0000
# 2 19.8517 105.6010 38.5497 0.0000 -4.0202 0.0000
# 3 5.0895 38.5497 116.7101 0.0000 -9.0002 0.0000
# 4 0.0000 0.0000 0.0000 25.2297 0.0000 -1.7975
# 5 12.8003 -4.0202 -9.0002 0.0000 23.0908 0.0000
# 6 0.0000 0.0000 0.0000 -1.7975 0.0000 10.6697
#
#
#
# Elastic Compliance Matrix: (Units=1/GPa)
#
#
# Indices 1 2 3 4 5 6 
#
# 1 0.009658 -0.001955 -0.000221 0.000000 -0.005781 0.000000
# 2 -0.001955 0.011169 -0.003475 0.000000 0.001674 0.000000
# 3 -0.000221 -0.003475 0.009989 0.000000 0.003411 0.000000
# 4 0.000000 0.000000 0.000000 0.040117 0.000000 0.006758
# 5 -0.005781 0.001674 0.003411 0.000000 0.048133 0.000000
# 6 0.000000 0.000000 0.000000 0.006758 0.000000 0.094862
#
#
# Mechanical properties :
#
#
# Convention : Reuss Voigt Hill
#
# Bulk Modulus (GPa) = 51.24503 51.62529 51.43516
# Shear Modulus (GPa) = 21.57638 30.07503 25.82570
#
# Velocity S-wave (km/s) = 3.26879 3.85923 3.57622
# Velocity P-wave (km/s) = 6.29477 6.73973 6.52104
#
# Compressibility (1/GPa) = 0.01951409
#
# Stress axis : x y z
#
# Youngs Moduli (GPa) = 103.53871 89.53064 100.11303
#
# Poissons Ratio (x) = 0.17503 0.02215
# Poissons Ratio (y) = 0.20241 0.34789
# Poissons Ratio (z) = 0.02291 0.31111
#
# Static dielectric constant tensor:
#      x y z
#    x 1.759020 0.000000 0.003580 
#    y 0.000000 1.717640 0.000000 
#    z 0.003580 0.000000 1.699860 
# 
# From -- ./inp_files/6778.got.cif
#   From: 2010.05.17/outbox.cif.g08.bks.cpg/sg10_4_cif.got.tgz:6778.got - 2010.06.03 11:33:40.
