data_PCOD9152198
_publ_section_title
;
Structure prediction by ZEFSAII (Michael W. Deem and Ramdas Pophale) SiO2 
 PCOD9152198
Probable space group: P 2/M
;
_chemical_formula_sum "Si O2"
_cell_formula_units_Z 26
_cell_length_a 6.809338
_cell_length_b 20.545896
_cell_length_c 12.388552
_cell_angle_alpha 90.000000
_cell_angle_beta 43.880110
_cell_angle_gamma 90.000000
_cell_volume 1201.375544
_symmetry_space_group_name_H-M "P 2/M"
_symmetry_group_IT_number 10
_symmetry_cell_setting 'monoclinic'
loop_
_space_group_symop_operation_xyz
x,y,z
-x,y,-z
-x,-y,-z
x,-y,z
loop_
_atom_site_type_symbol
_atom_site_label
_atom_site_fract_x
_atom_site_fract_y
_atom_site_fract_z
Si Si1 0.713470 0.316793 0.828200
Si Si2 0.315146 0.645241 0.679536
Si Si3 0.415624 0.216802 0.708845
Si Si4 0.000000 0.864992 0.000000
Si Si5 0.168544 0.926867 0.157051
Si Si6 0.044462 0.193488 0.636965
Si Si7 0.665016 0.573923 0.134824
O O1 0.840636 0.256525 0.709276
O O2 0.537103 0.376064 0.846778
O O3 0.988749 0.348530 0.775690
O O4 0.500000 0.286018 0.000000
O O5 0.500000 0.653030 0.500000
O O6 0.393986 0.705643 0.726149
O O7 0.397520 0.581635 0.713115
O O8 0.723764 0.192258 0.549864
O O9 0.268981 0.181018 0.866891
O O10 0.219992 0.205526 0.679341
O O11 0.032782 0.906529 0.095758
O O12 0.102132 0.874712 0.276815
O O13 0.079380 0.000000 0.222358
O O14 0.500000 0.926346 0.000000
O O15 0.632623 0.500000 0.109445
O O16 0.000000 0.591733 0.000000
#
# Coordination Sequence:
#
# PCOD9152198 Si02
#       7
#     4   4   4   2   4   4   4
#     4  11  21  39  69  96 122 168 218 262 321 382
#     4  11  22  42  64  90 129 166 206 275 322 372
#     4   9  18  36  62  92 122 159 208 264 317 371
#     4  10  21  36  64  90 123 166 206 256 317 376
#     4  10  21  38  59  88 126 167 210 256 315 383
#     4   9  18  37  62  90 126 159 210 263 315 368
#     4  11  26  43  64  96 129 168 216 261 320 395
#
# _framework density 21.641860000000001
#
# number of rings (size 3 to 8) (size 9 to 14) (size 15 to 20)
#    0.000    1.846    4.615    0.692    1.077    4.308 
#    0.000   10.000    0.000    1.846    0.000    0.000 
#    0.000    0.000    0.000    0.000    0.000    0.000 
#
# Total GULP energy -145191.938041 kJ/mol
# GULP energy per Si atom -5584.305309 kJ/mol
# Density = 2.159260 g / cm^3
# Si number density = 21.641860 Si / 1000 Ang^3
#
#
#
# Elastic Constant Matrix: (Units=GPa)
#
#
# Indices 1 2 3 4 5 6 
#
# 1 89.7009 56.0115 37.6364 0.0000 -16.6264 0.0000
# 2 56.0115 144.8997 62.2332 0.0000 -8.5932 0.0000
# 3 37.6364 62.2332 96.8192 0.0000 -23.3897 0.0000
# 4 0.0000 0.0000 0.0000 18.1091 0.0000 -1.9717
# 5 -16.6264 -8.5932 -23.3897 0.0000 29.0690 0.0000
# 6 0.0000 0.0000 0.0000 -1.9717 0.0000 28.8946
#
#
#
# Elastic Compliance Matrix: (Units=1/GPa)
#
#
# Indices 1 2 3 4 5 6 
#
# 1 0.016258 -0.005343 -0.001267 0.000000 0.006700 0.000000
# 2 -0.005343 0.011453 -0.006461 0.000000 -0.004869 0.000000
# 3 -0.001267 -0.006461 0.017797 0.000000 0.011685 0.000000
# 4 0.000000 0.000000 0.000000 0.055634 0.000000 0.003796
# 5 0.006700 -0.004869 0.011685 0.000000 0.046196 0.000000
# 6 0.000000 0.000000 0.000000 0.003796 0.000000 0.034868
#
#
# Mechanical properties :
#
#
# Convention : Reuss Voigt Hill
#
# Bulk Modulus (GPa) = 51.63706 71.46466 61.55086
# Shear Modulus (GPa) = 23.27718 26.91713 25.09715
#
# Velocity S-wave (km/s) = 3.28314 3.53051 3.40907
# Velocity P-wave (km/s) = 6.18737 7.05071 6.63310
#
# Compressibility (1/GPa) = 0.01936593
#
# Stress axis : x y z
#
# Youngs Moduli (GPa) = 61.50825 87.31433 56.18966
#
# Poissons Ratio (x) = 0.46653 0.07119
# Poissons Ratio (y) = 0.32865 0.36304
# Poissons Ratio (z) = 0.07792 0.56413
#
# Static dielectric constant tensor:
#      x y z
#    x 1.895280 0.000000 0.020680 
#    y 0.000000 1.784310 0.000000 
#    z 0.020680 0.000000 1.803810 
# 
# From -- ./inp_files/39677.got.cif
#   From: 2010.05.17/outbox.cif.g08.bks.cpg/sg10_20_cif.got.tgz:39677.got - 2010.06.03 11:33:40.
