data_PCOD9152381
_publ_section_title
;
Structure prediction by ZEFSAII (Michael W. Deem and Ramdas Pophale) SiO2 
 PCOD9152381
Probable space group: P 2/M
;
_chemical_formula_sum "Si O2"
_cell_formula_units_Z 32
_cell_length_a 12.154687
_cell_length_b 14.844814
_cell_length_c 17.812206
_cell_angle_alpha 90.000000
_cell_angle_beta 30.543931
_cell_angle_gamma 90.000000
_cell_volume 1633.314943
_symmetry_space_group_name_H-M "P 2/M"
_symmetry_group_IT_number 10
_symmetry_cell_setting 'monoclinic'
loop_
_space_group_symop_operation_xyz
x,y,z
-x,y,-z
-x,-y,-z
x,-y,z
loop_
_atom_site_type_symbol
_atom_site_label
_atom_site_fract_x
_atom_site_fract_y
_atom_site_fract_z
Si Si1 0.015781 0.603607 0.295678
Si Si2 0.514240 0.816561 0.813373
Si Si3 0.709431 0.216284 0.324062
Si Si4 0.829852 0.719752 0.533873
Si Si5 0.720878 0.406801 0.322659
Si Si6 0.834574 0.216451 0.854587
Si Si7 0.237202 0.104707 0.847499
Si Si8 0.083715 0.894309 0.333852
O O1 0.085479 0.500000 0.273529
O O2 0.174585 0.689220 0.187369
O O3 0.856188 0.645293 0.453294
O O4 0.898459 0.596651 0.284165
O O5 0.605378 0.734696 0.708831
O O6 0.379573 0.877854 0.836253
O O7 0.721545 0.869676 0.723939
O O8 0.358082 0.787063 0.972539
O O9 0.500000 0.215786 0.500000
O O10 0.726198 0.314483 0.275722
O O11 0.672053 0.145379 0.281650
O O12 0.932534 0.206488 0.239794
O O13 0.000000 0.697286 0.500000
O O14 0.899329 0.818628 0.459802
O O15 0.500000 0.408282 0.500000
O O16 0.740007 0.500000 0.268046
O O17 0.829081 0.133915 0.799412
O O18 0.212388 0.000000 0.849561
O O19 0.000000 0.146212 0.000000
O O20 0.023504 0.000000 0.374483
#
# Coordination Sequence:
#
# PCOD9152381 Si02
#       8
#     4   4   4   4   4   4   4   4
#     4   9  18  35  58  82 111 148 187 229 278 336
#     4  11  22  38  58  82 118 153 186 236 293 338
#     4  10  21  37  59  82 112 153 192 235 281 331
#     4   9  21  37  57  84 114 146 186 235 285 340
#     4   8  15  28  52  81 104 132 179 228 271 321
#     4  10  21  38  58  87 115 150 192 239 284 339
#     4  11  24  39  55  80 116 156 190 227 285 348
#     4  10  22  39  61  85 110 148 198 243 283 333
#
# _framework density 19.592057
#
# number of rings (size 3 to 8) (size 9 to 14) (size 15 to 20)
#    0.000    2.250    1.250    0.750    7.000    5.250 
#    0.000    0.625    0.000   10.875    0.000    0.000 
#    0.000    0.000    0.000    0.000    0.000    0.000 
#
# Total GULP energy -178250.912930 kJ/mol
# GULP energy per Si atom -5570.341029 kJ/mol
# Density = 1.954746 g / cm^3
# Si number density = 19.592057 Si / 1000 Ang^3
#
#
#
# Elastic Constant Matrix: (Units=GPa)
#
#
# Indices 1 2 3 4 5 6 
#
# 1 36.2298 24.6312 8.0426 0.0000 9.1596 0.0000
# 2 24.6312 99.6400 13.9289 0.0000 13.7665 0.0000
# 3 8.0426 13.9289 75.7355 0.0000 20.7810 0.0000
# 4 0.0000 0.0000 0.0000 14.4975 0.0000 -0.8114
# 5 9.1596 13.7665 20.7810 0.0000 29.5284 0.0000
# 6 0.0000 0.0000 0.0000 -0.8114 0.0000 19.5947
#
#
#
# Elastic Compliance Matrix: (Units=1/GPa)
#
#
# Indices 1 2 3 4 5 6 
#
# 1 0.034561 -0.007531 -0.000380 0.000000 -0.006942 0.000000
# 2 -0.007531 0.012402 -0.000664 0.000000 -0.002979 0.000000
# 3 -0.000380 -0.000664 0.016420 0.000000 -0.011128 0.000000
# 4 0.000000 0.000000 0.000000 0.069138 0.000000 0.002863
# 5 -0.006942 -0.002979 -0.011128 0.000000 0.045240 0.000000
# 6 0.000000 0.000000 0.000000 0.002863 0.000000 0.051153
#
#
# Mechanical properties :
#
#
# Convention : Reuss Voigt Hill
#
# Bulk Modulus (GPa) = 21.62980 33.86785 27.74883
# Shear Modulus (GPa) = 19.12227 23.72428 21.42327
#
# Velocity S-wave (km/s) = 3.12752 3.48359 3.31035
# Velocity P-wave (km/s) = 4.90978 5.78832 5.36705
#
# Compressibility (1/GPa) = 0.04623251
#
# Stress axis : x y z
#
# Youngs Moduli (GPa) = 28.93401 80.63051 60.90213
#
# Poissons Ratio (x) = 0.60726 0.02316
# Poissons Ratio (y) = 0.21791 0.04043
# Poissons Ratio (z) = 0.01100 0.05353
#
# Static dielectric constant tensor:
#      x y z
#    x 1.739980 0.000000 -0.133730 
#    y 0.000000 1.725160 0.000000 
#    z -0.133730 0.000000 2.208900 
# 
# From -- ./inp_files/76963.got.cif
#   From: 2010.05.17/outbox.cif.g08.bks.cpg/sg10_39_cif.got.tgz:76963.got - 2010.06.03 11:33:40.
