data_PCOD9152644
_publ_section_title
;
Structure prediction by ZEFSAII (Michael W. Deem and Ramdas Pophale) SiO2 
 PCOD9152644
Probable space group: P 2/M
;
_chemical_formula_sum "Si O2"
_cell_formula_units_Z 28
_cell_length_a 9.457123
_cell_length_b 14.375208
_cell_length_c 12.045161
_cell_angle_alpha 90.000000
_cell_angle_beta 119.858330
_cell_angle_gamma 90.000000
_cell_volume 1420.151344
_symmetry_space_group_name_H-M "P 2/M"
_symmetry_group_IT_number 10
_symmetry_cell_setting 'monoclinic'
loop_
_space_group_symop_operation_xyz
x,y,z
-x,y,-z
-x,-y,-z
x,-y,z
loop_
_atom_site_type_symbol
_atom_site_label
_atom_site_fract_x
_atom_site_fract_y
_atom_site_fract_z
Si Si1 0.479101 0.608404 0.361532
Si Si2 0.360260 0.893522 0.300969
Si Si3 0.240936 0.105640 0.804627
Si Si4 0.128855 0.895691 0.420974
Si Si5 0.184582 0.191721 0.022980
Si Si6 0.345775 0.779089 0.646690
Si Si7 0.801884 0.395716 0.918493
O O1 0.500000 0.632696 0.500000
O O2 0.520846 0.500000 0.367746
O O3 0.602318 0.672554 0.339681
O O4 0.295870 0.618457 0.237330
O O5 0.227306 0.883613 0.344962
O O6 0.516497 0.829607 0.373468
O O7 0.413315 0.000000 0.320121
O O8 0.283385 0.862488 0.155255
O O9 0.212994 0.141751 0.917800
O O10 0.343954 0.175224 0.767762
O O11 0.060381 0.103855 0.681283
O O12 0.306487 0.000000 0.828900
O O13 0.182440 0.812712 0.521997
O O14 0.170561 0.000000 0.482385
O O15 0.238293 0.299947 0.034159
O O16 0.000000 0.191013 0.000000
O O17 0.750611 0.500000 0.937037
O O18 0.000000 0.398233 0.000000
#
# Coordination Sequence:
#
# PCOD9152644 Si02
#       7
#     4   4   4   4   4   4   4
#     4  10  21  39  65  95 127 162 206 260 318 373
#     4  11  21  34  56  86 115 151 196 252 298 354
#     4  11  24  40  59  85 122 168 208 250 307 376
#     4  10  21  38  60  84 116 162 208 249 301 370
#     4  11  21  37  61  85 116 157 207 253 307 363
#     4  12  23  37  58  88 124 155 197 251 315 371
#     4   9  19  37  62  91 121 154 204 259 309 367
#
# _framework density 19.716208999999999
#
# number of rings (size 3 to 8) (size 9 to 14) (size 15 to 20)
#    0.000    1.429    2.857    3.429    0.000    3.429 
#    0.000    2.143    0.000    3.429    0.000    0.000 
#    0.000    0.000    0.000    0.000    0.000    0.000 
#
# Total GULP energy -156166.750371 kJ/mol
# GULP energy per Si atom -5577.383942 kJ/mol
# Density = 1.967133 g / cm^3
# Si number density = 19.716209 Si / 1000 Ang^3
#
#
#
# Elastic Constant Matrix: (Units=GPa)
#
#
# Indices 1 2 3 4 5 6 
#
# 1 76.2908 33.4592 31.1861 0.0000 -16.9947 0.0000
# 2 33.4592 100.2624 43.2960 0.0000 -20.7998 0.0000
# 3 31.1861 43.2960 105.9689 0.0000 -4.6158 0.0000
# 4 0.0000 0.0000 0.0000 28.6519 0.0000 -1.6048
# 5 -16.9947 -20.7998 -4.6158 0.0000 33.3279 0.0000
# 6 0.0000 0.0000 0.0000 -1.6048 0.0000 24.0053
#
#
#
# Elastic Compliance Matrix: (Units=1/GPa)
#
#
# Indices 1 2 3 4 5 6 
#
# 1 0.017302 -0.002842 -0.003646 0.000000 0.006544 0.000000
# 2 -0.002842 0.014400 -0.004747 0.000000 0.006880 0.000000
# 3 -0.003646 -0.004747 0.012313 0.000000 -0.003116 0.000000
# 4 0.000000 0.000000 0.000000 0.035033 0.000000 0.002342
# 5 0.006544 0.006880 -0.003116 0.000000 0.037204 0.000000
# 6 0.000000 0.000000 0.000000 0.002342 0.000000 0.041814
#
#
# Mechanical properties :
#
#
# Convention : Reuss Voigt Hill
#
# Bulk Modulus (GPa) = 46.41383 55.37831 50.89607
# Shear Modulus (GPa) = 26.63568 28.83572 27.73570
#
# Velocity S-wave (km/s) = 3.67952 3.82846 3.75473
# Velocity P-wave (km/s) = 6.45321 6.90591 6.68339
#
# Compressibility (1/GPa) = 0.02154530
#
# Stress axis : x y z
#
# Youngs Moduli (GPa) = 57.79571 69.44678 81.21193
#
# Poissons Ratio (x) = 0.19738 0.29608
# Poissons Ratio (y) = 0.16426 0.38553
# Poissons Ratio (z) = 0.21071 0.32967
#
# Static dielectric constant tensor:
#      x y z
#    x 1.774700 0.000000 0.115320 
#    y 0.000000 1.717560 0.000000 
#    z 0.115320 0.000000 1.829110 
# 
# From -- ./inp_files/25223.got.cif
#   From: 2010.05.17/outbox.cif.g08.bks.cpg/sg10_13_cif.got.tgz:25223.got - 2010.06.03 11:33:40.
