data_PCOD9152051
_publ_section_title
;
Structure prediction by ZEFSAII (Michael W. Deem and Ramdas Pophale) SiO2 
 PCOD9152051
Probable space group: P 2/M
;
_chemical_formula_sum "Si O2"
_cell_formula_units_Z 32
_cell_length_a 9.631487
_cell_length_b 14.181868
_cell_length_c 22.473431
_cell_angle_alpha 90.000000
_cell_angle_beta 139.016784
_cell_angle_gamma 90.000000
_cell_volume 2013.226719
_symmetry_space_group_name_H-M "P 2/M"
_symmetry_group_IT_number 10
_symmetry_cell_setting 'monoclinic'
loop_
_space_group_symop_operation_xyz
x,y,z
-x,y,-z
-x,-y,-z
x,-y,z
loop_
_atom_site_type_symbol
_atom_site_label
_atom_site_fract_x
_atom_site_fract_y
_atom_site_fract_z
Si Si1 0.536737 0.297469 0.748162
Si Si2 0.305092 0.108396 0.150550
Si Si3 0.272548 0.298529 0.951132
Si Si4 0.750430 0.605300 0.930379
Si Si5 0.193744 0.107920 0.979361
Si Si6 0.257899 0.613784 0.415730
Si Si7 0.855197 0.613900 0.757114
Si Si8 0.919214 0.388659 0.406191
O O1 0.569947 0.186871 0.772140
O O2 0.642440 0.348597 0.838905
O O3 0.668070 0.335740 0.733878
O O4 0.294712 0.329220 0.667502
O O5 0.057155 0.116972 0.087990
O O6 0.369338 0.000000 0.182381
O O7 0.309302 0.124590 0.080428
O O8 0.248972 0.185784 0.948620
O O9 0.077395 0.346110 0.853500
O O10 0.500000 0.324983 0.000000
O O11 0.271161 0.334095 0.018026
O O12 0.665945 0.500000 0.912455
O O13 0.000000 0.599795 0.000000
O O14 0.235302 0.000000 0.974963
O O15 0.500000 0.649040 0.500000
O O16 0.268532 0.500000 0.424308
O O17 0.172031 0.633950 0.321805
O O18 0.097767 0.643285 0.416470
O O19 0.844524 0.500000 0.762793
O O20 0.872681 0.500000 0.379342
O O21 0.000000 0.382386 0.500000
#
# Coordination Sequence:
#
# PCOD9152051 Si02
#       8
#     4   4   4   4   4   4   4   4
#     4  12  20  33  56  78 105 134 179 221 264 312
#     4   9  17  31  56  79  98 131 178 227 270 310
#     4  12  24  34  47  73 110 146 181 217 263 313
#     4  11  21  34  50  71 105 149 184 212 247 308
#     4   9  17  34  53  72  99 136 183 230 270 306
#     4   9  19  36  54  73 104 139 173 213 258 306
#     4  11  22  34  49  73 105 145 177 210 260 315
#     4  10  21  36  56  82 107 136 177 221 260 305
#
# _framework density 15.894881
#
# number of rings (size 3 to 8) (size 9 to 14) (size 15 to 20)
#    0.000    1.625    3.750    3.000    1.750    3.250 
#    0.000    0.000    0.000    0.375    0.000    0.000 
#    0.000    3.500    0.000    0.000    0.000    0.000 
#
# Total GULP energy -178497.905824 kJ/mol
# GULP energy per Si atom -5578.059557 kJ/mol
# Density = 1.585870 g / cm^3
# Si number density = 15.894881 Si / 1000 Ang^3
#
#
#
# Elastic Constant Matrix: (Units=GPa)
#
#
# Indices 1 2 3 4 5 6 
#
# 1 105.9097 35.3754 59.5514 0.0000 7.8038 0.0000
# 2 35.3754 92.6961 36.0743 0.0000 0.5988 0.0000
# 3 59.5514 36.0743 69.7112 0.0000 0.6710 0.0000
# 4 0.0000 0.0000 0.0000 16.8732 0.0000 2.6525
# 5 7.8038 0.5988 0.6710 0.0000 23.5457 0.0000
# 6 0.0000 0.0000 0.0000 2.6525 0.0000 20.6285
#
#
#
# Elastic Compliance Matrix: (Units=1/GPa)
#
#
# Indices 1 2 3 4 5 6 
#
# 1 0.019031 -0.001152 -0.015605 0.000000 -0.005834 0.000000
# 2 -0.001152 0.013579 -0.006044 0.000000 0.000209 0.000000
# 3 -0.015605 -0.006044 0.030761 0.000000 0.004449 0.000000
# 4 0.000000 0.000000 0.000000 0.060488 0.000000 -0.007778
# 5 -0.005834 0.000209 0.004449 0.000000 0.044272 0.000000
# 6 0.000000 0.000000 0.000000 -0.007778 0.000000 0.049477
#
#
# Mechanical properties :
#
#
# Convention : Reuss Voigt Hill
#
# Bulk Modulus (GPa) = 56.28403 58.92436 57.60419
# Shear Modulus (GPa) = 18.57810 21.36385 19.97098
#
# Velocity S-wave (km/s) = 3.42250 3.67014 3.54848
# Velocity P-wave (km/s) = 7.14878 7.42372 7.28754
#
# Compressibility (1/GPa) = 0.01776703
#
# Stress axis : x y z
#
# Youngs Moduli (GPa) = 52.54505 73.64536 32.50874
#
# Poissons Ratio (x) = 0.08485 0.50731
# Poissons Ratio (y) = 0.06054 0.19650
# Poissons Ratio (z) = 0.81998 0.44515
#
# Static dielectric constant tensor:
#      x y z
#    x 1.528250 0.000000 -0.001660 
#    y 0.000000 1.549560 0.000000 
#    z -0.001660 0.000000 1.504050 
# 
# From -- ./inp_files/29134.got.cif
#   From: 2010.05.17/outbox.cif.g08.bks.cpg/sg10_15_cif.got.tgz:29134.got - 2010.06.03 11:33:40.
