data_PCOD9152214
_publ_section_title
;
Structure prediction by ZEFSAII (Michael W. Deem and Ramdas Pophale) SiO2 
 PCOD9152214
Probable space group: P 2/M
;
_chemical_formula_sum "Si O2"
_cell_formula_units_Z 32
_cell_length_a 18.416667
_cell_length_b 13.822784
_cell_length_c 7.181975
_cell_angle_alpha 90.000000
_cell_angle_beta 63.851434
_cell_angle_gamma 90.000000
_cell_volume 1641.192726
_symmetry_space_group_name_H-M "P 2/M"
_symmetry_group_IT_number 10
_symmetry_cell_setting 'monoclinic'
loop_
_space_group_symop_operation_xyz
x,y,z
-x,y,-z
-x,-y,-z
x,-y,z
loop_
_atom_site_type_symbol
_atom_site_label
_atom_site_fract_x
_atom_site_fract_y
_atom_site_fract_z
Si Si1 0.413786 0.891150 0.575040
Si Si2 0.982579 0.712566 0.797660
Si Si3 0.880785 0.111150 0.788442
Si Si4 0.144783 0.609799 0.521856
Si Si5 0.246859 0.193794 0.795202
Si Si6 0.823614 0.606316 0.068267
Si Si7 0.240764 0.790620 0.353906
Si Si8 0.593420 0.110304 0.857918
O O1 0.500000 0.840864 0.500000
O O2 0.335934 0.841039 0.744138
O O3 0.400692 0.897389 0.370768
O O4 0.420224 0.000000 0.644194
O O5 0.952683 0.813249 0.745251
O O6 0.060056 0.666924 0.610803
O O7 0.907996 0.637060 0.877874
O O8 0.000000 0.727071 0.000000
O O9 0.825990 0.144643 0.675637
O O10 0.905533 0.000000 0.744698
O O11 0.820478 0.127368 0.032625
O O12 0.141204 0.500000 0.455252
O O13 0.160871 0.602894 0.726326
O O14 0.213293 0.679132 0.358023
O O15 0.233844 0.301676 0.887441
O O16 0.236606 0.193353 0.582669
O O17 0.796041 0.500000 0.041355
O O18 0.330089 0.821396 0.182476
O O19 0.603652 0.000000 0.919550
O O20 0.500000 0.141022 0.000000
#
# Coordination Sequence:
#
# PCOD9152214 Si02
#       8
#     4   4   4   4   4   4   4   4
#     4   9  17  28  46  73 100 131 173 214 258 310
#     4   9  18  34  53  80 111 138 178 226 264 310
#     4  11  23  36  54  77 106 149 185 213 263 319
#     4   9  17  33  57  78 104 139 175 221 274 319
#     4   9  19  35  53  75 107 140 173 220 264 309
#     4   8  14  28  54  81 102 134 175 215 265 316
#     4  10  21  37  54  80 111 137 179 227 265 313
#     4   9  18  32  51  75 103 138 174 213 263 312
#
# _framework density 19.498014000000001
#
# number of rings (size 3 to 8) (size 9 to 14) (size 15 to 20)
#    0.000    2.750    0.000    1.875    1.750    3.750 
#    0.000    5.625    0.000    0.750    0.000    0.000 
#    0.000    0.000    0.000    0.000    0.000    0.000 
#
# Total GULP energy -178546.074768 kJ/mol
# GULP energy per Si atom -5579.564837 kJ/mol
# Density = 1.945364 g / cm^3
# Si number density = 19.498014 Si / 1000 Ang^3
#
#
#
# Elastic Constant Matrix: (Units=GPa)
#
#
# Indices 1 2 3 4 5 6 
#
# 1 92.8746 63.1426 36.9756 0.0000 -24.6626 0.0000
# 2 63.1426 154.6672 36.3752 0.0000 -25.7041 0.0000
# 3 36.9756 36.3752 95.9207 0.0000 -3.6993 0.0000
# 4 0.0000 0.0000 0.0000 13.0484 0.0000 2.6540
# 5 -24.6626 -25.7041 -3.6993 0.0000 40.3361 0.0000
# 6 0.0000 0.0000 0.0000 2.6540 0.0000 13.8672
#
#
#
# Elastic Compliance Matrix: (Units=1/GPa)
#
#
# Indices 1 2 3 4 5 6 
#
# 1 0.018038 -0.005014 -0.004767 0.000000 0.007397 0.000000
# 2 -0.005014 0.009319 -0.001496 0.000000 0.002736 0.000000
# 3 -0.004767 -0.001496 0.012726 0.000000 -0.002700 0.000000
# 4 0.000000 0.000000 0.000000 0.079742 0.000000 -0.015262
# 5 0.007397 0.002736 -0.002700 0.000000 0.030810 0.000000
# 6 0.000000 0.000000 0.000000 -0.015262 0.000000 0.075033
#
#
# Mechanical properties :
#
#
# Convention : Reuss Voigt Hill
#
# Bulk Modulus (GPa) = 57.04413 68.49436 62.76925
# Shear Modulus (GPa) = 19.68018 27.24828 23.46423
#
# Velocity S-wave (km/s) = 3.18046 3.74236 3.47279
# Velocity P-wave (km/s) = 6.54271 7.34022 6.95291
#
# Compressibility (1/GPa) = 0.01753029
#
# Stress axis : x y z
#
# Youngs Moduli (GPa) = 55.43958 107.31136 78.58052
#
# Poissons Ratio (x) = 0.53801 0.37457
# Poissons Ratio (y) = 0.27795 0.11753
# Poissons Ratio (z) = 0.26426 0.16051
#
# Static dielectric constant tensor:
#      x y z
#    x 1.716930 0.000000 0.041430 
#    y 0.000000 1.672930 0.000000 
#    z 0.041430 0.000000 1.743860 
# 
# From -- ./inp_files/34597.got.cif
#   From: 2010.05.17/outbox.cif.g08.bks.cpg/sg10_18_cif.got.tgz:34597.got - 2010.06.03 11:33:40.
