data_PCOD9152211
_publ_section_title
;
Structure prediction by ZEFSAII (Michael W. Deem and Ramdas Pophale) SiO2 
 PCOD9152211
Probable space group: P 2/M
;
_chemical_formula_sum "Si O2"
_cell_formula_units_Z 32
_cell_length_a 14.268464
_cell_length_b 7.720920
_cell_length_c 14.588498
_cell_angle_alpha 90.000000
_cell_angle_beta 118.843008
_cell_angle_gamma 90.000000
_cell_volume 1407.776147
_symmetry_space_group_name_H-M "P 2/M"
_symmetry_group_IT_number 10
_symmetry_cell_setting 'monoclinic'
loop_
_space_group_symop_operation_xyz
x,y,z
-x,y,-z
-x,-y,-z
x,-y,z
loop_
_atom_site_type_symbol
_atom_site_label
_atom_site_fract_x
_atom_site_fract_y
_atom_site_fract_z
Si Si1 0.815977 0.294484 0.569094
Si Si2 0.994135 0.290275 0.796201
Si Si3 0.264880 0.792001 0.654597
Si Si4 0.503599 0.211686 0.296718
Si Si5 0.769300 0.207214 0.156739
Si Si6 0.153858 0.302694 0.121165
Si Si7 0.669563 0.795881 0.651461
Si Si8 0.329828 0.201382 0.067837
O O1 0.815185 0.500000 0.576082
O O2 0.913303 0.228176 0.677981
O O3 0.820076 0.247513 0.464808
O O4 0.706466 0.227860 0.564947
O O5 0.989180 0.500000 0.797046
O O6 0.949702 0.230513 0.874508
O O7 0.112219 0.237452 0.825315
O O8 0.378849 0.724690 0.671398
O O9 0.241888 0.724445 0.745484
O O10 0.271206 0.000000 0.663576
O O11 0.446157 0.258638 0.365505
O O12 0.421098 0.271742 0.178219
O O13 0.508205 0.000000 0.297803
O O14 0.752244 0.000000 0.152635
O O15 0.688297 0.278246 0.041288
O O16 0.133443 0.500000 0.082055
O O17 0.241930 0.300554 0.245094
O O18 0.216937 0.212103 0.069031
O O19 0.680430 0.000000 0.678134
O O20 0.357231 0.000000 0.069363
#
# Coordination Sequence:
#
# PCOD9152211 Si02
#       8
#     4   4   4   4   4   4   4   4
#     4  10  21  37  55  78 106 139 174 213 261 315
#     4   9  20  37  55  74 103 139 172 208 262 320
#     4  10  21  37  54  76 104 138 179 221 258 303
#     4   8  16  32  55  79 106 138 171 206 256 314
#     4  10  22  36  53  78 105 134 179 226 260 298
#     4   9  17  31  52  80 108 137 172 210 255 314
#     4   9  16  30  54  82 108 136 168 209 259 313
#     4   9  18  34  54  79 108 139 171 211 261 311
#
# _framework density 22.730886000000002
#
# number of rings (size 3 to 8) (size 9 to 14) (size 15 to 20)
#    0.000    2.750    0.000    2.625    0.000    6.000 
#    0.000   13.125    0.000    0.000    0.000    5.250 
#    0.000    0.000    0.000    0.000    0.000    0.000 
#
# Total GULP energy -178577.651935 kJ/mol
# GULP energy per Si atom -5580.551623 kJ/mol
# Density = 2.267915 g / cm^3
# Si number density = 22.730886 Si / 1000 Ang^3
#
#
#
# Elastic Constant Matrix: (Units=GPa)
#
#
# Indices 1 2 3 4 5 6 
#
# 1 33.5239 -5.3750 18.5718 0.0000 -0.6658 0.0000
# 2 -5.3750 41.8861 -3.9380 0.0000 0.3106 0.0000
# 3 18.5718 -3.9380 118.7842 0.0000 -22.3479 0.0000
# 4 0.0000 0.0000 0.0000 7.7231 0.0000 15.6397
# 5 -0.6658 0.3106 -22.3479 0.0000 28.3420 0.0000
# 6 0.0000 0.0000 0.0000 15.6397 0.0000 22.6937
#
#
#
# Elastic Compliance Matrix: (Units=1/GPa)
#
#
# Indices 1 2 3 4 5 6 
#
# 1 0.033605 0.003790 -0.005857 0.000000 -0.003870 0.000000
# 2 0.003790 0.024381 0.000214 0.000000 -0.000009 0.000000
# 3 -0.005857 0.000214 0.010938 0.000000 0.008485 0.000000
# 4 0.000000 0.000000 0.000000 -0.327316 0.000000 0.225574
# 5 -0.003870 -0.000009 0.008485 0.000000 0.041883 0.000000
# 6 0.000000 0.000000 0.000000 0.225574 0.000000 -0.111392
#
#
# Mechanical properties :
#
#
# Convention : Reuss Voigt Hill
#
# Bulk Modulus (GPa) = 15.33299 23.63463 19.48381
# Shear Modulus (GPa) = -16.53124 24.08079 3.77477
#
# Velocity S-wave (km/s) = -2.69970 3.25835 1.29005
# Velocity P-wave (km/s) = 1.71981 4.95742 3.28772
#
# Compressibility (1/GPa) = 0.06521886
#
# Stress axis : x y z
#
# Youngs Moduli (GPa) = 29.75765 41.01576 91.42738
#
# Poissons Ratio (x) = -0.15547 0.53545
# Poissons Ratio (y) = -0.11279 -0.01956
# Poissons Ratio (z) = 0.17428 -0.00877
#
# Static dielectric constant tensor:
#      x y z
#    x 1.841990 0.000000 -0.000750 
#    y 0.000000 1.869220 0.000000 
#    z -0.000750 0.000000 1.894480 
# 
# From -- ./inp_files/66615.got.cif
#   From: 2010.05.17/outbox.cif.g08.bks.cpg/sg10_34_cif.got.tgz:66615.got - 2010.06.03 11:33:40.
