data_PCOD9152837
_publ_section_title
;
Structure prediction by ZEFSAII (Michael W. Deem and Ramdas Pophale) SiO2 
 PCOD9152837
Probable space group: P 2/M
;
_chemical_formula_sum "Si O2"
_cell_formula_units_Z 28
_cell_length_a 8.559689
_cell_length_b 14.846090
_cell_length_c 20.590693
_cell_angle_alpha 90.000000
_cell_angle_beta 150.307959
_cell_angle_gamma 90.000000
_cell_volume 1296.112460
_symmetry_space_group_name_H-M "P 2/M"
_symmetry_group_IT_number 10
_symmetry_cell_setting 'monoclinic'
loop_
_space_group_symop_operation_xyz
x,y,z
-x,y,-z
-x,-y,-z
x,-y,z
loop_
_atom_site_type_symbol
_atom_site_label
_atom_site_fract_x
_atom_site_fract_y
_atom_site_fract_z
Si Si1 0.543706 0.138171 0.439811
Si Si2 0.284376 0.398207 0.221703
Si Si3 0.258068 0.272035 0.967972
Si Si4 0.147016 0.901956 0.178736
Si Si5 0.252421 0.902136 0.697142
Si Si6 0.203752 0.676446 0.510719
Si Si7 0.380760 0.301627 0.775861
O O1 0.500000 0.120354 0.500000
O O2 0.252345 0.104973 0.291825
O O3 0.580069 0.243965 0.438151
O O4 0.886767 0.099822 0.543599
O O5 0.216804 0.500000 0.177036
O O6 0.572196 0.396883 0.376586
O O7 0.390961 0.335866 0.199359
O O8 0.990725 0.346037 0.145999
O O9 0.068690 0.181620 0.919238
O O10 0.500000 0.245337 0.000000
O O11 0.446633 0.317969 0.094807
O O12 0.482295 0.897858 0.262679
O O13 0.003756 0.000000 0.113311
O O14 0.304366 0.805819 0.750276
O O15 0.299905 0.000000 0.747697
O O16 0.000000 0.711101 0.500000
O O17 0.950776 0.652656 0.364139
#
# Coordination Sequence:
#
# PCOD9152837 Si02
#       7
#     4   4   4   4   4   4   4
#     4  11  21  35  62  98 137 175 219 272 327 379
#     4  11  23  44  74 100 127 162 213 274 334 400
#     4  12  27  44  63  94 136 182 216 267 327 389
#     4  11  23  41  63  91 131 182 228 269 322 382
#     4  10  21  38  64  94 129 172 221 271 320 381
#     4   9  19  39  68  98 127 165 214 266 329 387
#     4  10  22  41  67  98 131 168 219 265 322 387
#
# _framework density 21.603064
#
# number of rings (size 3 to 8) (size 9 to 14) (size 15 to 20)
#    0.000    1.429    2.857    3.000    4.000    7.143 
#    0.000    1.429    0.000    3.000    0.000    0.000 
#    0.000    0.000    0.000    0.000    0.000    0.000 
#
# Total GULP energy -156212.023799 kJ/mol
# GULP energy per Si atom -5579.000850 kJ/mol
# Density = 2.155389 g / cm^3
# Si number density = 21.603064 Si / 1000 Ang^3
#
#
#
# Elastic Constant Matrix: (Units=GPa)
#
#
# Indices 1 2 3 4 5 6 
#
# 1 35.6780 8.6289 31.9718 0.0000 6.3513 0.0000
# 2 8.6289 95.4314 17.7595 0.0000 18.6970 0.0000
# 3 31.9718 17.7595 101.9588 0.0000 -4.7361 0.0000
# 4 0.0000 0.0000 0.0000 -4.6579 0.0000 4.1402
# 5 6.3513 18.6970 -4.7361 0.0000 20.6241 0.0000
# 6 0.0000 0.0000 0.0000 4.1402 0.0000 0.1075
#
#
#
# Elastic Compliance Matrix: (Units=1/GPa)
#
#
# Indices 1 2 3 4 5 6 
#
# 1 0.044692 0.002692 -0.015400 0.000000 -0.019741 0.000000
# 2 0.002692 0.013738 -0.003896 0.000000 -0.014178 0.000000
# 3 -0.015400 -0.003896 0.015869 0.000000 0.011919 0.000000
# 4 0.000000 0.000000 0.000000 -0.006096 0.000000 0.234676
# 5 -0.019741 -0.014178 0.011919 0.000000 0.070157 0.000000
# 6 0.000000 0.000000 0.000000 0.234676 0.000000 0.264020
#
#
# Mechanical properties :
#
#
# Convention : Reuss Voigt Hill
#
# Bulk Modulus (GPa) = 24.33559 38.86539 31.60049
# Shear Modulus (GPa) = 11.12880 14.86194 12.99537
#
# Velocity S-wave (km/s) = 2.27215 2.62574 2.45532
# Velocity P-wave (km/s) = 4.26297 5.21751 4.76420
#
# Compressibility (1/GPa) = 0.04109208
#
# Stress axis : x y z
#
# Youngs Moduli (GPa) = 22.37538 72.79030 63.01490
#
# Poissons Ratio (x) = -0.19599 0.97045
# Poissons Ratio (y) = -0.06025 0.24550
# Poissons Ratio (z) = 0.34459 0.28358
#
# Static dielectric constant tensor:
#      x y z
#    x 1.791230 0.000000 0.011520 
#    y 0.000000 1.776440 0.000000 
#    z 0.011520 0.000000 1.810530 
# 
# From -- ./inp_files/82943.got.cif
#   From: 2010.05.17/outbox.cif.g08.bks.cpg/sg10_42_cif.got.tgz:82943.got - 2010.06.03 11:33:40.
