data_PCOD9152023
_publ_section_title
;
Structure prediction by ZEFSAII (Michael W. Deem and Ramdas Pophale) SiO2 
 PCOD9152023
Probable space group: P 2/M
;
_chemical_formula_sum "Si O2"
_cell_formula_units_Z 28
_cell_length_a 13.077191
_cell_length_b 22.360817
_cell_length_c 5.055816
_cell_angle_alpha 90.000000
_cell_angle_beta 79.983293
_cell_angle_gamma 90.000000
_cell_volume 1455.869691
_symmetry_space_group_name_H-M "P 2/M"
_symmetry_group_IT_number 10
_symmetry_cell_setting 'monoclinic'
loop_
_space_group_symop_operation_xyz
x,y,z
-x,y,-z
-x,-y,-z
x,-y,z
loop_
_atom_site_type_symbol
_atom_site_label
_atom_site_fract_x
_atom_site_fract_y
_atom_site_fract_z
Si Si1 0.114933 0.742497 0.561051
Si Si2 0.571461 0.145600 0.226918
Si Si3 0.112996 0.115492 0.569965
Si Si4 0.571181 0.715837 0.226457
Si Si5 0.926209 0.568046 0.778522
Si Si6 0.772519 0.929669 0.990371
Si Si7 0.793634 0.680584 0.969679
O O1 0.121161 0.813237 0.608760
O O2 0.138280 0.707273 0.819822
O O3 0.000000 0.729517 0.500000
O O4 0.193589 0.722969 0.293070
O O5 0.500000 0.124467 0.500000
O O6 0.602134 0.214788 0.267815
O O7 0.672047 0.105834 0.136748
O O8 0.500000 0.144883 0.000000
O O9 0.137952 0.083676 0.834362
O O10 0.000000 0.102147 0.500000
O O11 0.194006 0.094946 0.310100
O O12 0.500000 0.694662 0.500000
O O13 0.676202 0.680288 0.124675
O O14 0.500000 0.715328 0.000000
O O15 0.112157 0.500000 0.245730
O O16 0.000000 0.584164 0.500000
O O17 0.837405 0.616530 0.863062
O O18 0.000000 0.568307 0.000000
O O19 0.752984 0.000000 0.983387
#
# Coordination Sequence:
#
# PCOD9152023 Si02
#       7
#     4   4   4   4   4   4   4
#     4  11  22  35  57  88 116 144 184 235 293 349
#     4  10  21  38  59  81 109 141 178 233 297 346
#     4  11  24  41  58  81 115 149 184 233 288 341
#     4  10  21  36  55  81 110 145 189 236 286 340
#     4  10  21  37  57  86 125 163 196 228 270 331
#     4  12  25  40  60  83 108 146 194 233 278 349
#     4  12  21  35  60  86 118 153 191 236 283 333
#
# _framework density 19.232491
#
# number of rings (size 3 to 8) (size 9 to 14) (size 15 to 20)
#    0.000    1.143    0.000    7.714    0.000    6.857 
#    0.000    0.000    0.000    0.857    0.000    0.000 
#    0.000    0.000    0.000    0.000    0.000    0.000 
#
# Total GULP energy -156678.936530 kJ/mol
# GULP energy per Si atom -5595.676305 kJ/mol
# Density = 1.918872 g / cm^3
# Si number density = 19.232491 Si / 1000 Ang^3
#
#
#
# Elastic Constant Matrix: (Units=GPa)
#
#
# Indices 1 2 3 4 5 6 
#
# 1 69.1037 40.7949 16.5454 0.0000 -19.3895 0.0000
# 2 40.7949 93.3164 26.0054 0.0000 -20.7432 0.0000
# 3 16.5454 26.0054 117.4401 0.0000 -10.5701 0.0000
# 4 0.0000 0.0000 0.0000 258.6922 0.0000 46.9451
# 5 -19.3895 -20.7432 -10.5701 0.0000 39.3734 0.0000
# 6 0.0000 0.0000 0.0000 46.9451 0.0000 39.4857
#
#
#
# Elastic Compliance Matrix: (Units=1/GPa)
#
#
# Indices 1 2 3 4 5 6 
#
# 1 0.020800 -0.007544 -0.000713 0.000000 0.006078 0.000000
# 2 -0.007544 0.015435 -0.002006 0.000000 0.003878 0.000000
# 3 -0.000713 -0.002006 0.009154 0.000000 0.001050 0.000000
# 4 0.000000 0.000000 0.000000 0.004929 0.000000 -0.005860
# 5 0.006078 0.003878 0.001050 0.000000 0.030716 0.000000
# 6 0.000000 0.000000 0.000000 -0.005860 0.000000 0.032293
#
#
# Mechanical properties :
#
#
# Convention : Reuss Voigt Hill
#
# Bulk Modulus (GPa) = 40.21818 49.61681 44.91750
# Shear Modulus (GPa) = 35.17642 80.61124 57.89383
#
# Velocity S-wave (km/s) = 4.28133 6.48113 5.49249
# Velocity P-wave (km/s) = 6.73771 9.04772 7.97678
#
# Compressibility (1/GPa) = 0.02486438
#
# Stress axis : x y z
#
# Youngs Moduli (GPa) = 48.07629 64.78701 109.24068
#
# Poissons Ratio (x) = 0.48872 0.07789
# Poissons Ratio (y) = 0.36266 0.21914
# Poissons Ratio (z) = 0.03428 0.12997
#
# Static dielectric constant tensor:
#      x y z
#    x 1.666560 0.000000 0.000120 
#    y 0.000000 1.661810 0.000000 
#    z 0.000120 0.000000 1.659450 
# 
# From -- ./inp_files/7694.got.cif
#   From: 2010.05.17/outbox.cif.g08.bks.cpg/sg10_4_cif.got.tgz:7694.got - 2010.06.03 11:33:40.
