data_PCOD9152404
_publ_section_title
;
Structure prediction by ZEFSAII (Michael W. Deem and Ramdas Pophale) SiO2 
 PCOD9152404
Probable space group: P 2/M
;
_chemical_formula_sum "Si O2"
_cell_formula_units_Z 32
_cell_length_a 12.365550
_cell_length_b 11.404124
_cell_length_c 12.134237
_cell_angle_alpha 90.000000
_cell_angle_beta 114.517203
_cell_angle_gamma 90.000000
_cell_volume 1556.866242
_symmetry_space_group_name_H-M "P 2/M"
_symmetry_group_IT_number 10
_symmetry_cell_setting 'monoclinic'
loop_
_space_group_symop_operation_xyz
x,y,z
-x,y,-z
-x,-y,-z
x,-y,z
loop_
_atom_site_type_symbol
_atom_site_label
_atom_site_fract_x
_atom_site_fract_y
_atom_site_fract_z
Si Si1 0.364935 0.321447 0.933919
Si Si2 0.000506 0.867596 0.677071
Si Si3 0.145466 0.371852 0.692132
Si Si4 0.101855 0.865108 0.119694
Si Si5 0.219699 0.766127 0.527510
Si Si6 0.635576 0.367372 0.588737
Si Si7 0.584743 0.862141 0.220218
Si Si8 0.660613 0.729224 0.832429
O O1 0.269680 0.376769 0.811364
O O2 0.380894 0.193542 0.883532
O O3 0.500000 0.368807 0.000000
O O4 0.316319 0.322381 0.036852
O O5 0.944372 0.863404 0.775295
O O6 0.891376 0.848811 0.546712
O O7 0.080539 0.749855 0.700403
O O8 0.053369 0.000000 0.685350
O O9 0.086270 0.500000 0.681957
O O10 0.173064 0.346100 0.576037
O O11 0.227437 0.806008 0.154831
O O12 0.116173 0.000000 0.090937
O O13 0.000000 0.809917 0.000000
O O14 0.280825 0.722100 0.441462
O O15 0.315420 0.827214 0.647898
O O16 0.500000 0.340027 0.500000
O O17 0.661838 0.500000 0.564105
O O18 0.644716 0.358219 0.724084
O O19 0.461149 0.802440 0.204788
O O20 0.572525 0.000000 0.208233
#
# Coordination Sequence:
#
# PCOD9152404 Si02
#       8
#     4   4   4   4   4   4   4   4
#     4   9  22  40  63  93 128 163 208 259 319 376
#     4  11  24  42  65  93 128 168 213 263 322 382
#     4  11  25  43  66  94 127 165 214 269 319 376
#     4  10  21  37  59  87 122 166 210 254 309 376
#     4  11  22  42  63  93 127 165 211 261 317 380
#     4  11  23  40  63  91 127 167 209 259 321 384
#     4  10  21  37  62  95 128 164 207 261 317 378
#     4  11  20  39  62  90 124 166 209 259 313 377
#
# _framework density 20.554109
#
# number of rings (size 3 to 8) (size 9 to 14) (size 15 to 20)
#    0.000    1.500    2.500    2.250    0.000    8.000 
#    0.000    0.625    0.000    1.500    0.000    0.000 
#    0.000    0.000    0.000    0.000    0.000    0.000 
#
# Total GULP energy -178585.748073 kJ/mol
# GULP energy per Si atom -5580.804627 kJ/mol
# Density = 2.050733 g / cm^3
# Si number density = 20.554109 Si / 1000 Ang^3
#
#
#
# Elastic Constant Matrix: (Units=GPa)
#
#
# Indices 1 2 3 4 5 6 
#
# 1 56.6614 26.5426 20.4221 0.0000 -1.7744 0.0000
# 2 26.5426 100.5849 7.3309 0.0000 0.0862 0.0000
# 3 20.4221 7.3309 101.5106 0.0000 -4.3972 0.0000
# 4 0.0000 0.0000 0.0000 -9.3201 0.0000 -6.0805
# 5 -1.7744 0.0862 -4.3972 0.0000 43.1006 0.0000
# 6 0.0000 0.0000 0.0000 -6.0805 0.0000 30.8512
#
#
#
# Elastic Compliance Matrix: (Units=1/GPa)
#
#
# Indices 1 2 3 4 5 6 
#
# 1 0.021622 -0.005419 -0.003937 0.000000 0.000499 0.000000
# 2 -0.005419 0.011353 0.000261 0.000000 -0.000219 0.000000
# 3 -0.003937 0.000261 0.010664 0.000000 0.000925 0.000000
# 4 0.000000 0.000000 0.000000 -0.095071 0.000000 -0.018738
# 5 0.000499 -0.000219 0.000925 0.000000 0.023317 0.000000
# 6 0.000000 0.000000 0.000000 -0.018738 0.000000 0.028721
#
#
# Mechanical properties :
#
#
# Convention : Reuss Voigt Hill
#
# Bulk Modulus (GPa) = 39.29440 40.81647 40.05544
# Shear Modulus (GPa) = 183.28717 26.55710 104.92213
#
# Velocity S-wave (km/s) = 9.45339 3.59842 7.15245
# Velocity P-wave (km/s) = 11.76072 6.09639 9.36698
#
# Compressibility (1/GPa) = 0.02544892
#
# Stress axis : x y z
#
# Youngs Moduli (GPa) = 46.24954 88.08220 93.76923
#
# Poissons Ratio (x) = 0.47733 0.36916
# Poissons Ratio (y) = 0.25063 -0.02446
# Poissons Ratio (z) = 0.18208 -0.02298
#
# Static dielectric constant tensor:
#      x y z
#    x 1.735330 0.000000 0.015770 
#    y 0.000000 1.742510 0.000000 
#    z 0.015770 0.000000 1.741860 
# 
# From -- ./inp_files/47013.got.cif
#   From: 2010.05.17/outbox.cif.g08.bks.cpg/sg10_24_cif.got.tgz:47013.got - 2010.06.03 11:33:40.
