data_PCOD9152419
_publ_section_title
;
Structure prediction by ZEFSAII (Michael W. Deem and Ramdas Pophale) SiO2 
 PCOD9152419
Probable space group: P 2/M
;
_chemical_formula_sum "Si O2"
_cell_formula_units_Z 22
_cell_length_a 30.148068
_cell_length_b 7.361183
_cell_length_c 8.369086
_cell_angle_alpha 90.000000
_cell_angle_beta 144.911989
_cell_angle_gamma 90.000000
_cell_volume 1067.646823
_symmetry_space_group_name_H-M "P 2/M"
_symmetry_group_IT_number 10
_symmetry_cell_setting 'monoclinic'
loop_
_space_group_symop_operation_xyz
x,y,z
-x,y,-z
-x,-y,-z
x,-y,z
loop_
_atom_site_type_symbol
_atom_site_label
_atom_site_fract_x
_atom_site_fract_y
_atom_site_fract_z
Si Si1 0.857402 0.286441 0.758168
Si Si2 0.680486 0.283134 0.340846
Si Si3 0.927848 0.000000 0.174760
Si Si4 0.411091 0.278923 0.245134
Si Si5 0.316865 0.719472 0.285870
Si Si6 0.088833 0.000000 0.316029
Si Si7 0.815258 0.000000 0.112231
O O1 0.869910 0.500000 0.781561
O O2 0.771177 0.255618 0.571345
O O3 0.868040 0.176684 0.626446
O O4 0.920994 0.183941 0.052685
O O5 0.667785 0.500000 0.305839
O O6 0.660600 0.224291 0.464586
O O7 0.633585 0.215108 0.047008
O O8 0.847364 0.000000 0.030610
O O9 0.000000 0.000000 0.500000
O O10 0.500000 0.222630 0.500000
O O11 0.408773 0.500000 0.234801
O O12 0.372970 0.230046 0.303707
O O13 0.307861 0.500000 0.259022
O O14 0.237590 0.824276 0.017485
O O15 0.107888 0.000000 0.556169
O O16 0.000000 0.000000 0.000000
#
# Coordination Sequence:
#
# PCOD9152419 Si02
#       7
#     4   4   2   4   4   2   2
#     4  10  21  41  63  85 119 162 204 250 307 369
#     4   9  17  33  58  86 117 158 207 253 304 364
#     4  11  23  39  61  91 123 152 198 255 305 376
#     4   9  18  33  56  88 124 162 206 258 311 361
#     4  10  21  37  59  90 121 158 213 257 301 374
#     4  11  25  41  59  90 123 156 201 253 312 383
#     4  12  22  38  63  88 119 157 199 253 315 366
#
# _framework density 20.606065000000001
#
# number of rings (size 3 to 8) (size 9 to 14) (size 15 to 20)
#    0.000    2.000    1.818    2.182    0.000    3.636 
#    0.000    5.909    0.000    1.091    0.000    0.000 
#    0.000    0.000    0.000    0.000    0.000    0.000 
#
# Total GULP energy -122631.191506 kJ/mol
# GULP energy per Si atom -5574.145068 kJ/mol
# Density = 2.055917 g / cm^3
# Si number density = 20.606065 Si / 1000 Ang^3
#
#
#
# Elastic Constant Matrix: (Units=GPa)
#
#
# Indices 1 2 3 4 5 6 
#
# 1 152.1646 39.0401 54.7503 0.0000 -14.0224 0.0000
# 2 39.0401 111.7224 41.7164 0.0000 -3.1967 0.0000
# 3 54.7503 41.7164 116.2272 0.0000 -24.2394 0.0000
# 4 0.0000 0.0000 0.0000 31.5365 0.0000 -34.6214
# 5 -14.0224 -3.1967 -24.2394 0.0000 31.2673 0.0000
# 6 0.0000 0.0000 0.0000 -34.6214 0.0000 82.5871
#
#
#
# Elastic Compliance Matrix: (Units=1/GPa)
#
#
# Indices 1 2 3 4 5 6 
#
# 1 0.008200 -0.001710 -0.003004 0.000000 0.001174 0.000000
# 2 -0.001710 0.010818 -0.003586 0.000000 -0.002441 0.000000
# 3 -0.003004 -0.003586 0.013060 0.000000 0.008411 0.000000
# 4 0.000000 0.000000 0.000000 0.058744 0.000000 0.024626
# 5 0.001174 -0.002441 0.008411 0.000000 0.038779 0.000000
# 6 0.000000 0.000000 0.000000 0.024626 0.000000 0.022432
#
#
# Mechanical properties :
#
#
# Convention : Reuss Voigt Hill
#
# Bulk Modulus (GPa) = 64.61260 72.34753 68.48007
# Shear Modulus (GPa) = 28.76992 45.38535 37.07763
#
# Velocity S-wave (km/s) = 3.74061 4.69820 4.24648
# Velocity P-wave (km/s) = 7.07675 8.03846 7.57289
#
# Compressibility (1/GPa) = 0.01547686
#
# Stress axis : x y z
#
# Youngs Moduli (GPa) = 121.95751 92.44265 76.56862
#
# Poissons Ratio (x) = 0.15808 0.23001
# Poissons Ratio (y) = 0.20855 0.27459
# Poissons Ratio (z) = 0.36636 0.33152
#
# Static dielectric constant tensor:
#      x y z
#    x 1.765830 0.000000 -0.030080 
#    y 0.000000 1.718140 0.000000 
#    z -0.030080 0.000000 1.708900 
# 
# From -- ./inp_files/38117.got.cif
#   From: 2010.05.17/outbox.cif.g08.bks.cpg/sg10_20_cif.got.tgz:38117.got - 2010.06.03 11:33:40.
