data_PCOD9152117
_publ_section_title
;
Structure prediction by ZEFSAII (Michael W. Deem and Ramdas Pophale) SiO2 
 PCOD9152117
Probable space group: P 2/M
;
_chemical_formula_sum "Si O2"
_cell_formula_units_Z 22
_cell_length_a 12.341525
_cell_length_b 19.261363
_cell_length_c 5.319285
_cell_angle_alpha 90.000000
_cell_angle_beta 122.777893
_cell_angle_gamma 90.000000
_cell_volume 1063.136867
_symmetry_space_group_name_H-M "P 2/M"
_symmetry_group_IT_number 10
_symmetry_cell_setting 'monoclinic'
loop_
_space_group_symop_operation_xyz
x,y,z
-x,y,-z
-x,-y,-z
x,-y,z
loop_
_atom_site_type_symbol
_atom_site_label
_atom_site_fract_x
_atom_site_fract_y
_atom_site_fract_z
Si Si1 0.177348 0.077108 0.080240
Si Si2 0.588437 0.575938 0.863069
Si Si3 0.354134 0.280115 0.213189
Si Si4 0.000000 0.844629 0.500000
Si Si5 0.583402 0.130578 0.861267
Si Si6 0.854630 0.216743 0.702533
O O1 0.051016 0.104102 0.777456
O O2 0.166122 0.000000 0.167905
O O3 0.293742 0.082033 0.027836
O O4 0.200635 0.139986 0.300440
O O5 0.500000 0.573674 0.500000
O O6 0.654574 0.500000 0.959257
O O7 0.671669 0.646203 0.950970
O O8 0.500000 0.581916 0.000000
O O9 0.500000 0.285924 0.500000
O O10 0.367441 0.210490 0.063505
O O11 0.249554 0.266564 0.301950
O O12 0.888958 0.792721 0.454654
O O13 0.500000 0.124932 0.500000
O O14 0.500000 0.113856 0.000000
O O15 0.000000 0.228276 0.000000
#
# Coordination Sequence:
#
# PCOD9152117 Si02
#       6
#     4   4   4   2   4   4
#     4  10  22  36  55  77 105 142 185 236 285 339
#     4   9  17  31  51  83 120 148 178 222 274 323
#     4   9  18  33  57  83 109 144 184 231 273 325
#     4  10  21  36  58  76 103 142 188 238 283 340
#     4  10  22  37  55  80 114 145 181 228 281 341
#     4   9  20  38  52  77 109 142 184 232 281 336
#
# _framework density 20.693476
#
# number of rings (size 3 to 8) (size 9 to 14) (size 15 to 20)
#    0.000    2.545    0.000    0.818    7.636    4.727 
#    9.818    0.000    0.000    0.545    0.000    0.636 
#    0.000    0.000    0.000    0.000    0.000    0.000 
#
# Total GULP energy -122579.614929 kJ/mol
# GULP energy per Si atom -5571.800679 kJ/mol
# Density = 2.064638 g / cm^3
# Si number density = 20.693476 Si / 1000 Ang^3
#
#
#
# Elastic Constant Matrix: (Units=GPa)
#
#
# Indices 1 2 3 4 5 6 
#
# 1 150.4548 42.9167 19.8946 0.0000 -14.4857 0.0000
# 2 42.9167 123.1393 -5.6752 0.0000 -6.7063 0.0000
# 3 19.8946 -5.6752 49.0110 0.0000 -7.6585 0.0000
# 4 0.0000 0.0000 0.0000 8.6638 0.0000 -2.3534
# 5 -14.4857 -6.7063 -7.6585 0.0000 38.6887 0.0000
# 6 0.0000 0.0000 0.0000 -2.3534 0.0000 18.0705
#
#
#
# Elastic Compliance Matrix: (Units=1/GPa)
#
#
# Indices 1 2 3 4 5 6 
#
# 1 0.008084 -0.002869 -0.003321 0.000000 0.001872 0.000000
# 2 -0.002869 0.009286 0.002398 0.000000 0.001010 0.000000
# 3 -0.003321 0.002398 0.022599 0.000000 0.003646 0.000000
# 4 0.000000 0.000000 0.000000 0.119656 0.000000 0.015583
# 5 0.001872 0.001010 0.003646 0.000000 0.027445 0.000000
# 6 0.000000 0.000000 0.000000 0.015583 0.000000 0.057368
#
#
# Mechanical properties :
#
#
# Convention : Reuss Voigt Hill
#
# Bulk Modulus (GPa) = 30.87855 48.54194 39.71024
# Shear Modulus (GPa) = 19.02460 30.78253 24.90357
#
# Velocity S-wave (km/s) = 3.03537 3.86106 3.47284
# Velocity P-wave (km/s) = 5.21909 6.58677 5.94241
#
# Compressibility (1/GPa) = 0.03238494
#
# Stress axis : x y z
#
# Youngs Moduli (GPa) = 123.69825 107.68696 44.24975
#
# Poissons Ratio (x) = 0.30891 0.14696
# Poissons Ratio (y) = 0.35484 -0.10609
# Poissons Ratio (z) = 0.41082 -0.25819
#
# Static dielectric constant tensor:
#      x y z
#    x 1.808690 0.000000 0.017280 
#    y 0.000000 1.762170 0.000000 
#    z 0.017280 0.000000 1.920430 
# 
# From -- ./inp_files/7155.got.cif
#   From: 2010.05.17/outbox.cif.g08.bks.cpg/sg10_4_cif.got.tgz:7155.got - 2010.06.03 11:33:40.
