data_PCOD9152141
_publ_section_title
;
Structure prediction by ZEFSAII (Michael W. Deem and Ramdas Pophale) SiO2 
 PCOD9152141
Probable space group: P 2/M
;
_chemical_formula_sum "Si O2"
_cell_formula_units_Z 22
_cell_length_a 22.966020
_cell_length_b 11.910875
_cell_length_c 12.207434
_cell_angle_alpha 90.000000
_cell_angle_beta 159.488731
_cell_angle_gamma 90.000000
_cell_volume 1170.058234
_symmetry_space_group_name_H-M "P 2/M"
_symmetry_group_IT_number 10
_symmetry_cell_setting 'monoclinic'
loop_
_space_group_symop_operation_xyz
x,y,z
-x,y,-z
-x,-y,-z
x,-y,z
loop_
_atom_site_type_symbol
_atom_site_label
_atom_site_fract_x
_atom_site_fract_y
_atom_site_fract_z
Si Si1 0.491136 0.259220 0.606757
Si Si2 0.769283 0.133583 0.696782
Si Si3 0.838792 0.133578 0.573677
Si Si4 0.994012 0.500000 0.621486
Si Si5 0.332355 0.500000 0.355491
Si Si6 0.736657 0.693997 0.211588
Si Si7 0.509438 0.500000 0.147560
O O1 0.500000 0.212755 0.500000
O O2 0.359119 0.196382 0.451694
O O3 0.430692 0.388259 0.495218
O O4 0.670622 0.258124 0.980523
O O5 0.759449 0.166254 0.551207
O O6 0.740534 0.000000 0.652363
O O7 0.962133 0.152908 0.068670
O O8 0.766617 0.207604 0.349887
O O9 0.813151 0.000000 0.513675
O O10 0.893317 0.612237 0.475799
O O11 0.000000 0.500000 0.500000
O O12 0.162346 0.500000 0.988116
O O13 0.331179 0.500000 0.488416
O O14 0.591227 0.611041 0.995685
O O15 0.500000 0.500000 0.000000
#
# Coordination Sequence:
#
# PCOD9152141 Si02
#       7
#     4   4   4   2   2   4   2
#     4  11  22  37  57  82 115 151 188 231 282 342
#     4   9  20  38  59  82 111 150 189 233 286 340
#     4   9  19  38  60  83 112 144 190 240 284 337
#     4  11  21  39  60  83 117 153 196 236 275 342
#     4  10  21  36  59  79 110 156 189 225 285 337
#     4  10  22  35  56  87 112 145 190 233 282 337
#     4   9  21  37  52  80 121 144 178 234 284 337
#
# _framework density 18.802482999999999
#
# number of rings (size 3 to 8) (size 9 to 14) (size 15 to 20)
#    0.000    2.182    0.000    4.091    5.091    1.091 
#    0.000    2.727    0.000    2.727    0.000    0.000 
#    0.000    0.000    0.000    0.000    0.000    0.000 
#
# Total GULP energy -122735.830317 kJ/mol
# GULP energy per Si atom -5578.901378 kJ/mol
# Density = 1.875969 g / cm^3
# Si number density = 18.802483 Si / 1000 Ang^3
#
#
#
# Elastic Constant Matrix: (Units=GPa)
#
#
# Indices 1 2 3 4 5 6 
#
# 1 103.2850 41.9245 63.4037 0.0000 -28.2107 0.0000
# 2 41.9245 62.9156 46.4394 0.0000 -11.5518 0.0000
# 3 63.4037 46.4394 127.6096 0.0000 -40.1549 0.0000
# 4 0.0000 0.0000 0.0000 -54.1353 0.0000 53.3875
# 5 -28.2107 -11.5518 -40.1549 0.0000 35.0096 0.0000
# 6 0.0000 0.0000 0.0000 53.3875 0.0000 -47.0875
#
#
#
# Elastic Compliance Matrix: (Units=1/GPa)
#
#
# Indices 1 2 3 4 5 6 
#
# 1 0.016673 -0.007306 -0.003374 0.000000 0.007154 0.000000
# 2 -0.007306 0.025133 -0.007447 0.000000 -0.006136 0.000000
# 3 -0.003374 -0.007447 0.016577 0.000000 0.013838 0.000000
# 4 0.000000 0.000000 0.000000 0.156368 0.000000 0.177289
# 5 0.007154 -0.006136 0.013838 0.000000 0.048175 0.000000
# 6 0.000000 0.000000 0.000000 0.177289 0.000000 0.179772
#
#
# Mechanical properties :
#
#
# Convention : Reuss Voigt Hill
#
# Bulk Modulus (GPa) = 45.18981 66.37170 55.78075
# Shear Modulus (GPa) = 10.28111 -3.77313 3.25399
#
# Velocity S-wave (km/s) = 2.34090 -1.41812 1.31696
# Velocity P-wave (km/s) = 5.60291 5.71792 5.66071
#
# Compressibility (1/GPa) = 0.02212888
#
# Stress axis : x y z
#
# Youngs Moduli (GPa) = 59.97770 39.78821 60.32423
#
# Poissons Ratio (x) = 0.29070 0.20353
# Poissons Ratio (y) = 0.43821 0.44924
# Poissons Ratio (z) = 0.20236 0.29630
#
# Static dielectric constant tensor:
#      x y z
#    x 1.667020 0.000000 -0.019830 
#    y 0.000000 1.640730 0.000000 
#    z -0.019830 0.000000 1.677450 
# 
# From -- ./inp_files/24173.got.cif
#   From: 2010.05.17/outbox.cif.g08.bks.cpg/sg10_13_cif.got.tgz:24173.got - 2010.06.03 11:33:40.
