data_PCOD9152774
_publ_section_title
;
Structure prediction by ZEFSAII (Michael W. Deem and Ramdas Pophale) SiO2 
 PCOD9152774
Probable space group: P 2/M
;
_chemical_formula_sum "Si O2"
_cell_formula_units_Z 30
_cell_length_a 21.888046
_cell_length_b 9.471036
_cell_length_c 10.414907
_cell_angle_alpha 90.000000
_cell_angle_beta 43.488248
_cell_angle_gamma 90.000000
_cell_volume 1485.861027
_symmetry_space_group_name_H-M "P 2/M"
_symmetry_group_IT_number 10
_symmetry_cell_setting 'monoclinic'
loop_
_space_group_symop_operation_xyz
x,y,z
-x,y,-z
-x,-y,-z
x,-y,z
loop_
_atom_site_type_symbol
_atom_site_label
_atom_site_fract_x
_atom_site_fract_y
_atom_site_fract_z
Si Si1 0.307152 0.331975 0.334103
Si Si2 0.012968 0.345208 0.628466
Si Si3 0.000000 0.754518 0.000000
Si Si4 0.683520 0.830338 0.234494
Si Si5 0.149306 0.340486 0.951775
Si Si6 0.357553 0.334018 0.961320
Si Si7 0.135829 0.157614 0.588370
Si Si8 0.430571 0.664887 0.389336
O O1 0.290329 0.500000 0.363375
O O2 0.219883 0.246314 0.505937
O O3 0.382587 0.303659 0.326083
O O4 0.330990 0.296727 0.149007
O O5 0.035687 0.500000 0.650917
O O6 0.091653 0.239372 0.538057
O O7 0.000000 0.357300 0.500000
O O8 0.917230 0.306147 0.830372
O O9 0.079072 0.666487 0.943181
O O10 0.054054 0.842039 0.812891
O O11 0.772803 0.772469 0.167073
O O12 0.680698 0.761322 0.095966
O O13 0.605703 0.764085 0.441867
O O14 0.679795 0.000000 0.235462
O O15 0.185063 0.500000 0.908486
O O16 0.333182 0.500000 0.978345
O O17 0.464139 0.322718 0.788243
O O18 0.163604 0.000000 0.516089
O O19 0.410664 0.500000 0.451764
#
# Coordination Sequence:
#
# PCOD9152774 Si02
#       8
#     4   4   2   4   4   4   4   4
#     4  10  22  40  65  95 125 158 204 262 316 369
#     4   9  20  38  59  82 110 148 195 246 296 345
#     4  10  22  40  62  88 120 160 204 254 300 352
#     4  12  26  40  59  92 132 169 206 250 306 373
#     4  10  21  38  62  88 116 153 200 250 298 351
#     4  10  22  42  67  92 122 161 206 260 316 369
#     4  11  23  37  57  86 121 160 198 239 294 361
#     4  10  21  41  68  94 119 157 211 262 312 369
#
# _framework density 20.190313
#
# number of rings (size 3 to 8) (size 9 to 14) (size 15 to 20)
#    0.000    1.733    0.000    3.600    1.867   11.467 
#    0.000    0.000    0.000    2.400    0.000    0.000 
#    0.000    0.000    0.000    0.000    0.000    0.000 
#
# Total GULP energy -167421.020575 kJ/mol
# GULP energy per Si atom -5580.700686 kJ/mol
# Density = 2.014436 g / cm^3
# Si number density = 20.190313 Si / 1000 Ang^3
#
#
#
# Elastic Constant Matrix: (Units=GPa)
#
#
# Indices 1 2 3 4 5 6 
#
# 1 94.7869 46.7255 21.5610 0.0000 1.6889 0.0000
# 2 46.7255 90.4487 31.5828 0.0000 -0.4783 0.0000
# 3 21.5610 31.5828 51.5832 0.0000 -1.4350 0.0000
# 4 0.0000 0.0000 0.0000 10.6942 0.0000 4.4676
# 5 1.6889 -0.4783 -1.4350 0.0000 29.3057 0.0000
# 6 0.0000 0.0000 0.0000 4.4676 0.0000 -2.4225
#
#
#
# Elastic Compliance Matrix: (Units=1/GPa)
#
#
# Indices 1 2 3 4 5 6 
#
# 1 0.014323 -0.006746 -0.001885 0.000000 -0.001028 0.000000
# 2 -0.006746 0.017241 -0.007728 0.000000 0.000292 0.000000
# 3 -0.001885 -0.007728 0.024939 0.000000 0.001204 0.000000
# 4 0.000000 0.000000 0.000000 0.052817 0.000000 0.097406
# 5 -0.001028 0.000292 0.001204 0.000000 0.034246 0.000000
# 6 0.000000 0.000000 0.000000 0.097406 0.000000 -0.233164
#
#
# Mechanical properties :
#
#
# Convention : Reuss Voigt Hill
#
# Bulk Modulus (GPa) = 42.04424 48.50637 45.27530
# Shear Modulus (GPa) = -102.14270 16.64545 -42.74862
#
# Velocity S-wave (km/s) = -7.12038 2.87440 -4.60639
# Velocity P-wave (km/s) = 6.83597 5.92393 2.41222
#
# Compressibility (1/GPa) = 0.02378447
#
# Stress axis : x y z
#
# Youngs Moduli (GPa) = 69.81956 58.00047 40.09755
#
# Poissons Ratio (x) = 0.39129 0.07557
# Poissons Ratio (y) = 0.47103 0.30989
# Poissons Ratio (z) = 0.13158 0.44824
#
# Static dielectric constant tensor:
#      x y z
#    x 1.743240 0.000000 0.017760 
#    y 0.000000 1.725720 0.000000 
#    z 0.017760 0.000000 1.745840 
# 
# From -- ./inp_files/56626.got.cif
#   From: 2010.05.17/outbox.cif.g08.bks.cpg/sg10_29_cif.got.tgz:56626.got - 2010.06.03 11:33:40.
