data_PCOD9152303
_publ_section_title
;
Structure prediction by ZEFSAII (Michael W. Deem and Ramdas Pophale) SiO2 
 PCOD9152303
Probable space group: P 2/M
;
_chemical_formula_sum "Si O2"
_cell_formula_units_Z 20
_cell_length_a 26.177018
_cell_length_b 7.697680
_cell_length_c 9.108007
_cell_angle_alpha 90.000000
_cell_angle_beta 149.414369
_cell_angle_gamma 90.000000
_cell_volume 933.839587
_symmetry_space_group_name_H-M "P 2/M"
_symmetry_group_IT_number 10
_symmetry_cell_setting 'monoclinic'
loop_
_space_group_symop_operation_xyz
x,y,z
-x,y,-z
-x,-y,-z
x,-y,z
loop_
_atom_site_type_symbol
_atom_site_label
_atom_site_fract_x
_atom_site_fract_y
_atom_site_fract_z
Si Si1 0.898196 0.206442 0.821132
Si Si2 0.700313 0.288738 0.845427
Si Si3 0.487808 0.702577 0.807330
Si Si4 0.099627 0.710095 0.831062
Si Si5 0.693987 0.796025 0.170925
O O1 0.795270 0.276411 0.496207
O O2 0.897259 0.000000 0.788008
O O3 0.899662 0.232933 0.998710
O O4 0.000000 0.278288 0.000000
O O5 0.698918 0.500000 0.847851
O O6 0.602315 0.225343 0.514653
O O7 0.800434 0.233852 0.007204
O O8 0.700352 0.226048 0.012292
O O9 0.460739 0.500000 0.761858
O O10 0.500000 0.780634 0.000000
O O11 0.593013 0.712687 0.983730
O O12 0.098843 0.500000 0.828566
O O13 0.000000 0.770627 0.500000
O O14 0.686529 0.000000 0.188066
#
# Coordination Sequence:
#
# PCOD9152303 Si02
#       5
#     4   4   4   4   4
#     4  10  22  39  57  80 112 149 185 221 271 333
#     4  10  21  37  57  82 112 146 183 223 274 333
#     4  10  21  38  59  81 109 147 185 223 274 332
#     4  10  21  37  59  87 113 140 182 232 275 319
#     4  11  23  37  56  83 112 144 185 230 272 319
#
# _framework density 21.416952999999999
#
# number of rings (size 3 to 8) (size 9 to 14) (size 15 to 20)
#    0.000    1.800    0.000    3.600    0.000    8.400 
#    0.000    0.000    0.000    0.000    0.000    0.000 
#    0.000    0.000    0.000    0.000    0.000    0.000 
#
# Total GULP energy -111820.308235 kJ/mol
# GULP energy per Si atom -5591.015412 kJ/mol
# Density = 2.136821 g / cm^3
# Si number density = 21.416953 Si / 1000 Ang^3
#
#
#
# Elastic Constant Matrix: (Units=GPa)
#
#
# Indices 1 2 3 4 5 6 
#
# 1 132.8560 -31.7615 77.4364 0.0000 0.3684 0.0000
# 2 -31.7615 31.2744 -11.0254 0.0000 2.0989 0.0000
# 3 77.4364 -11.0254 219.4985 0.0000 -2.0946 0.0000
# 4 0.0000 0.0000 0.0000 13.5066 0.0000 -2.2634
# 5 0.3684 2.0989 -2.0946 0.0000 42.5325 0.0000
# 6 0.0000 0.0000 0.0000 -2.2634 0.0000 33.6570
#
#
#
# Elastic Compliance Matrix: (Units=1/GPa)
#
#
# Indices 1 2 3 4 5 6 
#
# 1 0.012492 0.011390 -0.003843 0.000000 -0.000860 0.000000
# 2 0.011390 0.043035 -0.001879 0.000000 -0.002315 0.000000
# 3 -0.003843 -0.001879 0.005821 0.000000 0.000413 0.000000
# 4 0.000000 0.000000 0.000000 0.074882 0.000000 0.005036
# 5 -0.000860 -0.002315 0.000413 0.000000 0.023653 0.000000
# 6 0.000000 0.000000 0.000000 0.005036 0.000000 0.030050
#
#
# Mechanical properties :
#
#
# Convention : Reuss Voigt Hill
#
# Bulk Modulus (GPa) = 13.75808 50.32531 32.04170
# Shear Modulus (GPa) = 24.65161 41.20452 32.92806
#
# Velocity S-wave (km/s) = 3.39637 4.39101 3.92532
# Velocity P-wave (km/s) = 4.67100 7.01832 5.96134
#
# Compressibility (1/GPa) = 0.07268454
#
# Stress axis : x y z
#
# Youngs Moduli (GPa) = 80.04945 23.23677 171.78420
#
# Poissons Ratio (x) = -0.26466 0.66020
# Poissons Ratio (y) = -0.91174 0.32271
# Poissons Ratio (z) = 0.30765 0.04365
#
# Static dielectric constant tensor:
#      x y z
#    x 1.698840 0.000000 0.006070 
#    y 0.000000 1.806440 0.000000 
#    z 0.006070 0.000000 1.767300 
# 
# From -- ./inp_files/22093.got.cif
#   From: 2010.05.17/outbox.cif.g08.bks.cpg/sg10_12_cif.got.tgz:22093.got - 2010.06.03 11:33:40.
