data_PCOD9152352
_publ_section_title
;
Structure prediction by ZEFSAII (Michael W. Deem and Ramdas Pophale) SiO2 
 PCOD9152352
Probable space group: P 2/M
;
_chemical_formula_sum "Si O2"
_cell_formula_units_Z 28
_cell_length_a 13.699667
_cell_length_b 8.760473
_cell_length_c 12.926142
_cell_angle_alpha 90.000000
_cell_angle_beta 111.902968
_cell_angle_gamma 90.000000
_cell_volume 1439.357855
_symmetry_space_group_name_H-M "P 2/M"
_symmetry_group_IT_number 10
_symmetry_cell_setting 'monoclinic'
loop_
_space_group_symop_operation_xyz
x,y,z
-x,y,-z
-x,-y,-z
x,-y,z
loop_
_atom_site_type_symbol
_atom_site_label
_atom_site_fract_x
_atom_site_fract_y
_atom_site_fract_z
Si Si1 0.277843 0.815768 0.277482
Si Si2 0.719288 0.817678 0.488406
Si Si3 0.108650 0.317427 0.597275
Si Si4 0.492781 0.681816 0.675404
Si Si5 0.583258 0.318275 0.122093
Si Si6 0.190684 0.181967 0.833706
Si Si7 0.879554 0.186179 0.966068
O O1 0.243549 0.777865 0.380899
O O2 0.392710 0.746501 0.303929
O O3 0.286092 0.000000 0.274800
O O4 0.195970 0.763889 0.157346
O O5 0.794049 0.743913 0.431998
O O6 0.600454 0.758638 0.426717
O O7 0.721180 0.000000 0.477074
O O8 0.114235 0.500000 0.602034
O O9 0.118007 0.254076 0.716644
O O10 0.000000 0.270358 0.500000
O O11 0.490821 0.500000 0.658021
O O12 0.465052 0.713017 0.784571
O O13 0.605677 0.500000 0.125598
O O14 0.690688 0.229122 0.146668
O O15 0.500000 0.280402 0.000000
O O16 0.162987 0.234285 0.938636
O O17 0.179701 0.000000 0.825493
O O18 0.878981 0.000000 0.964275
O O19 0.000000 0.235525 0.000000
#
# Coordination Sequence:
#
# PCOD9152352 Si02
#       7
#     4   4   4   4   4   4   4
#     4  10  22  39  61  89 123 161 202 252 300 353
#     4  11  23  39  63  93 122 157 203 252 301 357
#     4  11  25  43  63  88 123 163 200 248 308 366
#     4  11  22  37  59  87 123 165 201 244 302 362
#     4  10  21  37  58  84 121 166 203 244 299 356
#     4  11  22  37  64  94 119 155 202 252 300 355
#     4   9  20  39  62  89 122 158 198 248 304 355
#
# _framework density 19.453118
#
# number of rings (size 3 to 8) (size 9 to 14) (size 15 to 20)
#    0.000    1.571    1.429    3.000    2.000    4.857 
#    0.000    0.714    0.000    2.143    0.000    0.000 
#    0.000    0.000    0.000    0.000    0.000    0.000 
#
# Total GULP energy -156536.922024 kJ/mol
# GULP energy per Si atom -5590.604358 kJ/mol
# Density = 1.940884 g / cm^3
# Si number density = 19.453118 Si / 1000 Ang^3
#
#
#
# Elastic Constant Matrix: (Units=GPa)
#
#
# Indices 1 2 3 4 5 6 
#
# 1 49.3203 6.7302 26.5935 0.0000 4.9514 0.0000
# 2 6.7302 20.8278 32.2984 0.0000 -1.6222 0.0000
# 3 26.5935 32.2984 162.2794 0.0000 3.9030 0.0000
# 4 0.0000 0.0000 0.0000 27.4964 0.0000 2.9679
# 5 4.9514 -1.6222 3.9030 0.0000 34.6088 0.0000
# 6 0.0000 0.0000 0.0000 2.9679 0.0000 19.7104
#
#
#
# Elastic Compliance Matrix: (Units=1/GPa)
#
#
# Indices 1 2 3 4 5 6 
#
# 1 0.022618 -0.002760 -0.003085 0.000000 -0.003017 0.000000
# 2 -0.002760 0.070598 -0.013725 0.000000 0.005252 0.000000
# 3 -0.003085 -0.013725 0.009430 0.000000 -0.001265 0.000000
# 4 0.000000 0.000000 0.000000 0.036969 0.000000 -0.005567
# 5 -0.003017 0.005252 -0.001265 0.000000 0.029715 0.000000
# 6 0.000000 0.000000 0.000000 -0.005567 0.000000 0.051573
#
#
# Mechanical properties :
#
#
# Convention : Reuss Voigt Hill
#
# Bulk Modulus (GPa) = 15.74656 40.40798 28.07727
# Shear Modulus (GPa) = 17.78018 27.48346 22.63182
#
# Velocity S-wave (km/s) = 3.02653 3.76281 3.41457
# Velocity P-wave (km/s) = 4.50836 6.30043 5.47817
#
# Compressibility (1/GPa) = 0.06350593
#
# Stress axis : x y z
#
# Youngs Moduli (GPa) = 44.21163 14.16474 106.04657
#
# Poissons Ratio (x) = 0.03910 0.32711
# Poissons Ratio (y) = 0.12205 1.45549
# Poissons Ratio (z) = 0.13638 0.19441
#
# Static dielectric constant tensor:
#      x y z
#    x 1.638970 0.000000 -0.006110 
#    y 0.000000 1.654530 0.000000 
#    z -0.006110 0.000000 1.685920 
# 
# From -- ./inp_files/50066.got.cif
#   From: 2010.05.17/outbox.cif.g08.bks.cpg/sg10_26_cif.got.tgz:50066.got - 2010.06.03 11:33:40.
