data_PCOD9152659
_publ_section_title
;
Structure prediction by ZEFSAII (Michael W. Deem and Ramdas Pophale) SiO2 
 PCOD9152659
Probable space group: P 2/M
;
_chemical_formula_sum "Si O2"
_cell_formula_units_Z 18
_cell_length_a 5.319838
_cell_length_b 25.822975
_cell_length_c 5.315896
_cell_angle_alpha 90.000000
_cell_angle_beta 83.814363
_cell_angle_gamma 90.000000
_cell_volume 726.014524
_symmetry_space_group_name_H-M "P 2/M"
_symmetry_group_IT_number 10
_symmetry_cell_setting 'monoclinic'
loop_
_space_group_symop_operation_xyz
x,y,z
-x,y,-z
-x,-y,-z
x,-y,z
loop_
_atom_site_type_symbol
_atom_site_label
_atom_site_fract_x
_atom_site_fract_y
_atom_site_fract_z
Si Si1 0.729622 0.277965 0.670511
Si Si2 0.729062 0.611952 0.669339
Si Si3 0.166340 0.500000 0.227137
Si Si4 0.830378 0.165828 0.770857
Si Si5 0.824565 0.055426 0.767386
O O1 0.500000 0.279529 0.500000
O O2 0.730387 0.333106 0.817256
O O3 0.704690 0.222081 0.800215
O O4 0.000000 0.277418 0.500000
O O5 0.500000 0.615286 0.500000
O O6 0.697923 0.555480 0.792210
O O7 0.000000 0.610721 0.500000
O O8 0.000000 0.500000 0.500000
O O9 0.000000 0.500000 0.000000
O O10 0.000000 0.166993 0.500000
O O11 0.683167 0.110894 0.772059
O O12 0.000000 0.162626 0.000000
O O13 0.000000 0.055554 0.500000
O O14 0.683807 0.000000 0.774904
O O15 0.000000 0.055037 0.000000
#
# Coordination Sequence:
#
# PCOD9152659 Si02
#       5
#     4   4   2   4   4
#     4   9  18  34  56  81 111 146 185 229 277 330
#     4   9  18  35  57  82 112 147 186 229 277 330
#     4  10  21  38  60  86 116 150 188 232 280 332
#     4   9  17  30  49  74 105 140 179 224 273 326
#     4   8  13  22  39  65  96 131 171 215 264 318
#
# _framework density 24.792891000000001
#
# number of rings (size 3 to 8) (size 9 to 14) (size 15 to 20)
#    0.000    3.111    0.000    0.333    0.000    0.889 
#    0.000   13.333    0.000   24.667    0.000    0.000 
#    0.000   39.111    0.000    0.000    0.000    9.333 
#
# Total GULP energy -100302.136706 kJ/mol
# GULP energy per Si atom -5572.340928 kJ/mol
# Density = 2.473646 g / cm^3
# Si number density = 24.792891 Si / 1000 Ang^3
#
#
#
# Elastic Constant Matrix: (Units=GPa)
#
#
# Indices 1 2 3 4 5 6 
#
# 1 120.9371 13.6087 40.1589 0.0000 -22.1694 0.0000
# 2 13.6087 404.9350 13.8643 0.0000 8.4811 0.0000
# 3 40.1589 13.8643 131.6676 0.0000 -18.0711 0.0000
# 4 0.0000 0.0000 0.0000 -45.1081 0.0000 33.2279
# 5 -22.1694 8.4811 -18.0711 0.0000 54.0104 0.0000
# 6 0.0000 0.0000 0.0000 33.2279 0.0000 -49.1067
#
#
#
# Elastic Compliance Matrix: (Units=1/GPa)
#
#
# Indices 1 2 3 4 5 6 
#
# 1 0.009718 -0.000308 -0.002492 0.000000 0.003204 0.000000
# 2 -0.000308 0.002501 -0.000252 0.000000 -0.000604 0.000000
# 3 -0.002492 -0.000252 0.008643 0.000000 0.001909 0.000000
# 4 0.000000 0.000000 0.000000 -0.044200 0.000000 -0.029908
# 5 0.003204 -0.000604 0.001909 0.000000 0.020563 0.000000
# 6 0.000000 0.000000 0.000000 -0.029908 0.000000 -0.040601
#
#
# Mechanical properties :
#
#
# Convention : Reuss Voigt Hill
#
# Bulk Modulus (GPa) = 67.76025 88.08927 77.92476
# Shear Modulus (GPa) = -154.55886 31.28632 -61.63627
#
# Velocity S-wave (km/s) = -7.90413 3.55619 -4.99144
# Velocity P-wave (km/s) = 7.47734 7.24356 1.31176
#
# Compressibility (1/GPa) = 0.01475791
#
# Stress axis : x y z
#
# Youngs Moduli (GPa) = 102.89957 399.81229 115.69468
#
# Poissons Ratio (x) = 0.12329 0.28830
# Poissons Ratio (y) = 0.03173 0.02917
# Poissons Ratio (z) = 0.25642 0.10082
#
# Static dielectric constant tensor:
#      x y z
#    x 1.625000 0.000000 -0.196020 
#    y 0.000000 2.330980 0.000000 
#    z -0.196020 0.000000 1.747320 
# 
# From -- ./inp_files/2028.got.cif
#   From: 2010.05.17/outbox.cif.g08.bks.cpg/sg10_2_cif.got.tgz:2028.got - 2010.06.03 11:33:40.
