data_PCOD9152739
_publ_section_title
;
Structure prediction by ZEFSAII (Michael W. Deem and Ramdas Pophale) SiO2 
 PCOD9152739
Probable space group: P 2/M
;
_chemical_formula_sum "Si O2"
_cell_formula_units_Z 32
_cell_length_a 22.866292
_cell_length_b 8.935287
_cell_length_c 15.353428
_cell_angle_alpha 90.000000
_cell_angle_beta 148.400824
_cell_angle_gamma 90.000000
_cell_volume 1643.686777
_symmetry_space_group_name_H-M "P 2/M"
_symmetry_group_IT_number 10
_symmetry_cell_setting 'monoclinic'
loop_
_space_group_symop_operation_xyz
x,y,z
-x,y,-z
-x,-y,-z
x,-y,z
loop_
_atom_site_type_symbol
_atom_site_label
_atom_site_fract_x
_atom_site_fract_y
_atom_site_fract_z
Si Si1 0.138760 0.820548 0.038917
Si Si2 0.428075 0.673115 0.821076
Si Si3 0.198142 0.177358 0.577456
Si Si4 0.239662 0.179640 0.980051
Si Si5 0.133590 0.675349 0.675162
Si Si6 0.906698 0.677725 0.716323
Si Si7 0.729383 0.178614 0.619996
Si Si8 0.488563 0.178564 0.244556
O O1 0.223521 0.786642 0.224732
O O2 0.119832 0.000000 0.015138
O O3 0.189393 0.777897 0.009607
O O4 0.021243 0.739004 0.901872
O O5 0.394852 0.500000 0.765071
O O6 0.318592 0.773321 0.694273
O O7 0.498216 0.732847 0.828665
O O8 0.500000 0.681574 0.000000
O O9 0.185132 0.238221 0.658440
O O10 0.108862 0.252985 0.399626
O O11 0.185509 0.000000 0.559033
O O12 0.178211 0.259011 0.822151
O O13 0.226611 0.000000 0.953886
O O14 0.371466 0.213762 0.141308
O O15 0.162196 0.500000 0.704762
O O16 0.000000 0.690828 0.500000
O O17 0.907226 0.500000 0.711991
O O18 0.804050 0.734983 0.644570
O O19 0.598968 0.212175 0.440986
O O20 0.744266 0.000000 0.624002
O O21 0.489376 0.000000 0.227283
#
# Coordination Sequence:
#
# PCOD9152739 Si02
#       8
#     4   4   4   4   4   4   4   4
#     4  10  22  40  63  90 123 163 209 257 308 365
#     4  11  23  38  58  87 121 158 199 244 299 360
#     4  12  24  39  62  89 119 157 201 249 304 364
#     4  10  22  40  62  91 124 163 210 256 303 363
#     4  11  24  41  61  88 123 163 206 253 306 366
#     4  12  24  39  61  91 126 160 204 258 314 372
#     4  10  21  39  63  91 123 163 206 254 311 367
#     4  10  21  38  61  89 123 162 205 252 303 361
#
# _framework density 19.468429
#
# number of rings (size 3 to 8) (size 9 to 14) (size 15 to 20)
#    0.000    1.250    1.250    4.875    0.000    9.500 
#    0.000    2.500    0.000    0.000    0.000    3.500 
#    0.000    0.000    0.000    0.000    0.000    0.000 
#
# Total GULP energy -179008.077869 kJ/mol
# GULP energy per Si atom -5594.002433 kJ/mol
# Density = 1.942412 g / cm^3
# Si number density = 19.468429 Si / 1000 Ang^3
#
#
#
# Elastic Constant Matrix: (Units=GPa)
#
#
# Indices 1 2 3 4 5 6 
#
# 1 76.0585 43.0691 37.9953 0.0000 -7.9785 0.0000
# 2 43.0691 70.8142 57.7139 0.0000 -3.6619 0.0000
# 3 37.9953 57.7139 123.9926 0.0000 -9.1196 0.0000
# 4 0.0000 0.0000 0.0000 10.0221 0.0000 5.1559
# 5 -7.9785 -3.6619 -9.1196 0.0000 34.1616 0.0000
# 6 0.0000 0.0000 0.0000 5.1559 0.0000 -7.4633
#
#
#
# Elastic Compliance Matrix: (Units=1/GPa)
#
#
# Indices 1 2 3 4 5 6 
#
# 1 0.020473 -0.011869 -0.000501 0.000000 0.003376 0.000000
# 2 -0.011869 0.029639 -0.010332 0.000000 -0.002353 0.000000
# 3 -0.000501 -0.010332 0.013197 0.000000 0.002298 0.000000
# 4 0.000000 0.000000 0.000000 0.073616 0.000000 0.050856
# 5 0.003376 -0.002353 0.002298 0.000000 0.030422 0.000000
# 6 0.000000 0.000000 0.000000 0.050856 0.000000 -0.098855
#
#
# Mechanical properties :
#
#
# Convention : Reuss Voigt Hill
#
# Bulk Modulus (GPa) = 55.84912 60.93577 58.39245
# Shear Modulus (GPa) = 41.71410 16.14987 28.93198
#
# Velocity S-wave (km/s) = 4.63390 2.88330 3.85918
# Velocity P-wave (km/s) = 7.57496 6.51554 7.06514
#
# Compressibility (1/GPa) = 0.01790539
#
# Stress axis : x y z
#
# Youngs Moduli (GPa) = 48.84495 33.73936 75.77716
#
# Poissons Ratio (x) = 0.40045 0.03795
# Poissons Ratio (y) = 0.57974 0.78292
# Poissons Ratio (z) = 0.02446 0.34859
#
# Static dielectric constant tensor:
#      x y z
#    x 1.656950 0.000000 0.006610 
#    y 0.000000 1.650870 0.000000 
#    z 0.006610 0.000000 1.683310 
# 
# From -- ./inp_files/71695.got.cif
#   From: 2010.05.17/outbox.cif.g08.bks.cpg/sg10_36_cif.got.tgz:71695.got - 2010.06.03 11:33:40.
