data_PCOD9152225
_publ_section_title
;
Structure prediction by ZEFSAII (Michael W. Deem and Ramdas Pophale) SiO2 
 PCOD9152225
Probable space group: P 2/M
;
_chemical_formula_sum "Si O2"
_cell_formula_units_Z 32
_cell_length_a 24.942441
_cell_length_b 14.869133
_cell_length_c 9.149333
_cell_angle_alpha 90.000000
_cell_angle_beta 30.257927
_cell_angle_gamma 90.000000
_cell_volume 1709.829391
_symmetry_space_group_name_H-M "P 2/M"
_symmetry_group_IT_number 10
_symmetry_cell_setting 'monoclinic'
loop_
_space_group_symop_operation_xyz
x,y,z
-x,y,-z
-x,-y,-z
x,-y,z
loop_
_atom_site_type_symbol
_atom_site_label
_atom_site_fract_x
_atom_site_fract_y
_atom_site_fract_z
Si Si1 0.062738 0.170170 0.213413
Si Si2 0.199862 0.219890 0.629101
Si Si3 0.741842 0.899159 0.069805
Si Si4 0.323992 0.600660 0.353062
Si Si5 0.535337 0.207753 0.574595
Si Si6 0.452282 0.400234 0.345883
Si Si7 0.598327 0.897027 0.879369
Si Si8 0.869364 0.103228 0.479028
O O1 0.000000 0.213352 0.500000
O O2 0.977267 0.116514 0.317507
O O3 0.124766 0.228594 0.947389
O O4 0.152824 0.110843 0.080163
O O5 0.249896 0.317361 0.480807
O O6 0.296897 0.150144 0.431403
O O7 0.142254 0.173635 0.625538
O O8 0.650308 0.833210 0.337082
O O9 0.699884 0.000000 0.180423
O O10 0.777372 0.882731 0.817971
O O11 0.277507 0.500000 0.449095
O O12 0.364833 0.613076 0.423760
O O13 0.432876 0.601471 0.003652
O O14 0.500000 0.176253 0.500000
O O15 0.547931 0.314731 0.550675
O O16 0.446178 0.169442 0.892292
O O17 0.437100 0.500000 0.445806
O O18 0.620350 0.000000 0.875367
O O19 0.500000 0.900934 0.000000
O O20 0.864646 0.000000 0.437007
#
# Coordination Sequence:
#
# PCOD9152225 Si02
#       8
#     4   4   4   4   4   4   4   4
#     4  10  22  39  59  80 105 144 192 238 279 326
#     4  12  21  34  59  84 112 140 180 234 286 332
#     4  10  21  37  55  76 111 159 197 223 265 328
#     4   9  18  34  60  85 107 143 189 231 272 329
#     4  12  23  34  53  84 123 156 181 225 281 338
#     4   9  18  35  56  80 112 149 190 231 269 320
#     4  11  23  36  52  79 115 155 195 225 262 330
#     4  10  22  38  56  81 111 145 191 241 282 318
#
# _framework density 18.715318
#
# number of rings (size 3 to 8) (size 9 to 14) (size 15 to 20)
#    0.000    1.625    1.250    5.250    0.000    7.250 
#    0.000    0.000    0.000    1.875    0.000    1.750 
#    0.000    0.000    0.000    0.000    0.000    0.000 
#
# Total GULP energy -178553.597836 kJ/mol
# GULP energy per Si atom -5579.799932 kJ/mol
# Density = 1.867272 g / cm^3
# Si number density = 18.715318 Si / 1000 Ang^3
#
#
#
# Elastic Constant Matrix: (Units=GPa)
#
#
# Indices 1 2 3 4 5 6 
#
# 1 87.0396 34.6412 24.5377 0.0000 -1.4564 0.0000
# 2 34.6412 113.0563 32.6934 0.0000 -0.2540 0.0000
# 3 24.5377 32.6934 74.5321 0.0000 -2.1958 0.0000
# 4 0.0000 0.0000 0.0000 17.5290 0.0000 4.9126
# 5 -1.4564 -0.2540 -2.1958 0.0000 23.0973 0.0000
# 6 0.0000 0.0000 0.0000 4.9126 0.0000 7.4686
#
#
#
# Elastic Compliance Matrix: (Units=1/GPa)
#
#
# Indices 1 2 3 4 5 6 
#
# 1 0.013671 -0.003311 -0.003033 0.000000 0.000537 0.000000
# 2 -0.003311 0.010934 -0.003719 0.000000 -0.000442 0.000000
# 3 -0.003033 -0.003719 0.016085 0.000000 0.001297 0.000000
# 4 0.000000 0.000000 0.000000 0.069942 0.000000 -0.046006
# 5 0.000537 -0.000442 0.001297 0.000000 0.043447 0.000000
# 6 0.000000 0.000000 0.000000 -0.046006 0.000000 0.164154
#
#
# Mechanical properties :
#
#
# Convention : Reuss Voigt Hill
#
# Bulk Modulus (GPa) = 48.62706 50.93029 49.77867
# Shear Modulus (GPa) = 14.48380 21.80270 18.14325
#
# Velocity S-wave (km/s) = 2.78493 3.41686 3.11695
# Velocity P-wave (km/s) = 6.03158 6.54514 6.29360
#
# Compressibility (1/GPa) = 0.02056468
#
# Stress axis : x y z
#
# Youngs Moduli (GPa) = 73.14992 91.45712 62.16915
#
# Poissons Ratio (x) = 0.30277 0.18854
# Poissons Ratio (y) = 0.24217 0.23123
# Poissons Ratio (z) = 0.22184 0.34016
#
# Static dielectric constant tensor:
#      x y z
#    x 1.674210 0.000000 0.003620 
#    y 0.000000 1.625250 0.000000 
#    z 0.003620 0.000000 1.675920 
# 
# From -- ./inp_files/36341.got.cif
#   From: 2010.05.17/outbox.cif.g08.bks.cpg/sg10_19_cif.got.tgz:36341.got - 2010.06.03 11:33:40.
