data_PCOD9152158
_publ_section_title
;
Structure prediction by ZEFSAII (Michael W. Deem and Ramdas Pophale) SiO2 
 PCOD9152158
Probable space group: P 2/M
;
_chemical_formula_sum "Si O2"
_cell_formula_units_Z 32
_cell_length_a 9.255578
_cell_length_b 22.743465
_cell_length_c 14.920248
_cell_angle_alpha 90.000000
_cell_angle_beta 149.016229
_cell_angle_gamma 90.000000
_cell_volume 1616.853827
_symmetry_space_group_name_H-M "P 2/M"
_symmetry_group_IT_number 10
_symmetry_cell_setting 'monoclinic'
loop_
_space_group_symop_operation_xyz
x,y,z
-x,y,-z
-x,-y,-z
x,-y,z
loop_
_atom_site_type_symbol
_atom_site_label
_atom_site_fract_x
_atom_site_fract_y
_atom_site_fract_z
Si Si1 0.754701 0.857878 0.937587
Si Si2 0.290745 0.371550 0.597918
Si Si3 0.181445 0.738400 0.318314
Si Si4 0.557932 0.431475 0.900389
Si Si5 0.179430 0.839311 0.825264
Si Si6 0.759997 0.933233 0.298378
Si Si7 0.704085 0.263586 0.819358
Si Si8 0.064038 0.382689 0.759332
O O1 0.506900 0.903969 0.796793
O O2 0.652610 0.791135 0.858454
O O3 0.855884 0.863059 0.093382
O O4 0.000000 0.870798 0.000000
O O5 0.501118 0.412463 0.767767
O O6 0.448898 0.308825 0.677929
O O7 0.000000 0.366804 0.500000
O O8 0.197006 0.393124 0.448535
O O9 0.500000 0.718531 0.500000
O O10 0.209609 0.761424 0.231830
O O11 0.055795 0.789656 0.313014
O O12 0.981981 0.682896 0.228104
O O13 0.488304 0.500000 0.873552
O O14 0.330070 0.393612 0.835582
O O15 0.854222 0.419671 0.108098
O O16 0.170570 0.889975 0.747135
O O17 0.500000 0.814159 0.000000
O O18 0.000000 0.933632 0.500000
O O19 0.708215 0.000000 0.240254
O O20 0.000000 0.295447 0.000000
#
# Coordination Sequence:
#
# PCOD9152158 Si02
#       8
#     4   4   4   4   4   4   4   4
#     4  10  21  39  64  93 125 167 208 259 319 380
#     4  10  22  37  60  93 121 160 211 259 318 384
#     4  12  23  37  60  94 129 161 195 255 329 388
#     4  10  22  39  64  90 119 163 215 271 314 368
#     4  10  23  39  64  93 127 166 214 257 316 376
#     4  10  24  43  63  90 126 169 216 268 312 363
#     4  11  21  39  60  90 132 161 199 258 323 391
#     4  10  21  36  59  90 123 157 206 253 322 378
#
# _framework density 19.791522000000001
#
# number of rings (size 3 to 8) (size 9 to 14) (size 15 to 20)
#    0.000    1.625    3.750    1.500    3.500    8.750 
#    0.000    0.000    0.000    7.500    0.000    0.000 
#    0.000    0.000    0.000    0.000    0.000    0.000 
#
# Total GULP energy -178139.597971 kJ/mol
# GULP energy per Si atom -5566.862437 kJ/mol
# Density = 1.974648 g / cm^3
# Si number density = 19.791522 Si / 1000 Ang^3
#
#
#
# Elastic Constant Matrix: (Units=GPa)
#
#
# Indices 1 2 3 4 5 6 
#
# 1 82.7222 38.5181 30.5707 0.0000 -4.9668 0.0000
# 2 38.5181 100.0379 42.3758 0.0000 10.9941 0.0000
# 3 30.5707 42.3758 87.3233 0.0000 -15.6405 0.0000
# 4 0.0000 0.0000 0.0000 19.0163 0.0000 -7.1532
# 5 -4.9668 10.9941 -15.6405 0.0000 32.6228 0.0000
# 6 0.0000 0.0000 0.0000 -7.1532 0.0000 7.8743
#
#
#
# Elastic Compliance Matrix: (Units=1/GPa)
#
#
# Indices 1 2 3 4 5 6 
#
# 1 0.015632 -0.005380 -0.002309 0.000000 0.003086 0.000000
# 2 -0.005380 0.016581 -0.007997 0.000000 -0.010241 0.000000
# 3 -0.002309 -0.007997 0.018116 0.000000 0.011029 0.000000
# 4 0.000000 0.000000 0.000000 0.079883 0.000000 0.072567
# 5 0.003086 -0.010241 0.011029 0.000000 0.039862 0.000000
# 6 0.000000 0.000000 0.000000 0.072567 0.000000 0.192916
#
#
# Mechanical properties :
#
#
# Convention : Reuss Voigt Hill
#
# Bulk Modulus (GPa) = 52.75089 54.77917 53.76503
# Shear Modulus (GPa) = 12.47874 22.47728 17.47801
#
# Velocity S-wave (km/s) = 2.51372 3.37367 2.97493
# Velocity P-wave (km/s) = 5.92758 6.55086 6.24700
#
# Compressibility (1/GPa) = 0.01895703
#
# Stress axis : x y z
#
# Youngs Moduli (GPa) = 63.96958 60.31107 55.19905
#
# Poissons Ratio (x) = 0.32448 0.12746
# Poissons Ratio (y) = 0.34416 0.44143
# Poissons Ratio (z) = 0.14772 0.48231
#
# Static dielectric constant tensor:
#      x y z
#    x 1.716170 0.000000 -0.056530 
#    y 0.000000 1.674650 0.000000 
#    z -0.056530 0.000000 1.798250 
# 
# From -- ./inp_files/62731.got.cif
#   From: 2010.05.17/outbox.cif.g08.bks.cpg/sg10_32_cif.got.tgz:62731.got - 2010.06.03 11:33:40.
