data_PCOD9152263
_publ_section_title
;
Structure prediction by ZEFSAII (Michael W. Deem and Ramdas Pophale) SiO2 
 PCOD9152263
Probable space group: P 2/M
;
_chemical_formula_sum "Si O2"
_cell_formula_units_Z 28
_cell_length_a 16.442717
_cell_length_b 8.720421
_cell_length_c 12.652872
_cell_angle_alpha 90.000000
_cell_angle_beta 55.924404
_cell_angle_gamma 90.000000
_cell_volume 1502.751996
_symmetry_space_group_name_H-M "P 2/M"
_symmetry_group_IT_number 10
_symmetry_cell_setting 'monoclinic'
loop_
_space_group_symop_operation_xyz
x,y,z
-x,y,-z
-x,-y,-z
x,-y,z
loop_
_atom_site_type_symbol
_atom_site_label
_atom_site_fract_x
_atom_site_fract_y
_atom_site_fract_z
Si Si1 0.131534 0.317686 0.984126
Si Si2 0.226019 0.682721 0.536023
Si Si3 0.494684 0.820059 0.171120
Si Si4 0.570870 0.818984 0.542356
Si Si5 0.291496 0.318135 0.254360
Si Si6 0.717866 0.817161 0.959600
Si Si7 0.077737 0.182137 0.804880
O O1 0.131290 0.500000 0.970157
O O2 0.136962 0.236936 0.865890
O O3 0.217206 0.264883 0.999509
O O4 0.027723 0.263512 0.108849
O O5 0.212911 0.500000 0.551464
O O6 0.327317 0.729571 0.520228
O O7 0.240433 0.726552 0.402411
O O8 0.137356 0.766518 0.658805
O O9 0.483977 0.805373 0.305367
O O10 0.406062 0.725447 0.185376
O O11 0.479626 0.000000 0.154798
O O12 0.603289 0.774987 0.057420
O O13 0.500000 0.766742 0.500000
O O14 0.592984 0.000000 0.509485
O O15 0.281456 0.500000 0.248130
O O16 0.252095 0.232911 0.179935
O O17 0.726321 0.000000 0.966025
O O18 0.064504 0.000000 0.817911
#
# Coordination Sequence:
#
# PCOD9152263 Si02
#       7
#     4   4   4   4   4   4   4
#     4  11  23  40  61  88 118 147 184 233 285 338
#     4  10  21  37  57  82 112 150 189 233 289 341
#     4   9  19  34  52  78 113 152 192 233 281 333
#     4   9  18  32  51  78 111 149 190 233 278 336
#     4  10  21  37  56  81 115 153 194 238 284 337
#     4  11  22  36  57  84 116 152 194 239 283 335
#     4  11  22  40  64  87 114 148 187 231 283 343
#
# _framework density 18.632482
#
# number of rings (size 3 to 8) (size 9 to 14) (size 15 to 20)
#    0.000    1.857    0.000    5.143    2.000    4.857 
#    0.000    0.714    0.000    4.286    0.000    0.000 
#    0.000    0.000    0.000    0.000    0.000    0.000 
#
# Total GULP energy -156445.902637 kJ/mol
# GULP energy per Si atom -5587.353666 kJ/mol
# Density = 1.859007 g / cm^3
# Si number density = 18.632482 Si / 1000 Ang^3
#
#
#
# Elastic Constant Matrix: (Units=GPa)
#
#
# Indices 1 2 3 4 5 6 
#
# 1 24.0582 8.3653 17.0732 0.0000 6.6073 0.0000
# 2 8.3653 52.5927 18.0786 0.0000 -1.0035 0.0000
# 3 17.0732 18.0786 72.2200 0.0000 -9.9328 0.0000
# 4 0.0000 0.0000 0.0000 30.0480 0.0000 -0.7846
# 5 6.6073 -1.0035 -9.9328 0.0000 13.7388 0.0000
# 6 0.0000 0.0000 0.0000 -0.7846 0.0000 33.7620
#
#
#
# Elastic Compliance Matrix: (Units=1/GPa)
#
#
# Indices 1 2 3 4 5 6 
#
# 1 0.074907 -0.004721 -0.023906 0.000000 -0.053653 0.000000
# 2 -0.004721 0.021179 -0.004065 0.000000 0.000878 0.000000
# 3 -0.023906 -0.004065 0.024491 0.000000 0.028906 0.000000
# 4 0.000000 0.000000 0.000000 0.033300 0.000000 0.000774
# 5 -0.053653 0.000878 0.028906 0.000000 0.119552 0.000000
# 6 0.000000 0.000000 0.000000 0.000774 0.000000 0.029637
#
#
# Mechanical properties :
#
#
# Convention : Reuss Voigt Hill
#
# Bulk Modulus (GPa) = 18.11770 26.21167 22.16468
# Shear Modulus (GPa) = 12.92496 22.53334 17.72915
#
# Velocity S-wave (km/s) = 2.63664 3.48135 3.08802
# Velocity P-wave (km/s) = 4.36050 5.50073 4.96347
#
# Compressibility (1/GPa) = 0.05519465
#
# Stress axis : x y z
#
# Youngs Moduli (GPa) = 13.34982 47.21666 40.83094
#
# Poissons Ratio (x) = 0.22290 0.97610
# Poissons Ratio (y) = 0.06302 0.16597
# Poissons Ratio (z) = 0.31914 0.19193
#
# Static dielectric constant tensor:
#      x y z
#    x 1.617240 0.000000 0.009850 
#    y 0.000000 1.627120 0.000000 
#    z 0.009850 0.000000 1.650320 
# 
# From -- ./inp_files/49651.got.cif
#   From: 2010.05.17/outbox.cif.g08.bks.cpg/sg10_25_cif.got.tgz:49651.got - 2010.06.03 11:33:40.
