data_PCOD9152568
_publ_section_title
;
Structure prediction by ZEFSAII (Michael W. Deem and Ramdas Pophale) SiO2 
 PCOD9152568
Probable space group: P 2/M
;
_chemical_formula_sum "Si O2"
_cell_formula_units_Z 22
_cell_length_a 16.737594
_cell_length_b 8.402418
_cell_length_c 7.138344
_cell_angle_alpha 90.000000
_cell_angle_beta 54.263994
_cell_angle_gamma 90.000000
_cell_volume 814.890476
_symmetry_space_group_name_H-M "P 2/M"
_symmetry_group_IT_number 10
_symmetry_cell_setting 'monoclinic'
loop_
_space_group_symop_operation_xyz
x,y,z
-x,y,-z
-x,-y,-z
x,-y,z
loop_
_atom_site_type_symbol
_atom_site_label
_atom_site_fract_x
_atom_site_fract_y
_atom_site_fract_z
Si Si1 0.932205 0.188900 0.870366
Si Si2 0.693183 0.500000 0.048764
Si Si3 0.857587 0.181988 0.559701
Si Si4 0.844882 0.500000 0.121132
Si Si5 0.630043 0.822875 0.762017
Si Si6 0.404757 0.171586 0.760101
Si Si7 0.341040 0.500000 0.352108
O O1 0.866271 0.189610 0.772108
O O2 0.040474 0.251217 0.657468
O O3 0.930969 0.000000 0.932700
O O4 0.894302 0.325551 0.061882
O O5 0.804815 0.500000 0.961952
O O6 0.649827 0.337940 0.193615
O O7 0.674996 0.500000 0.852129
O O8 0.746979 0.212975 0.642764
O O9 0.871653 0.000000 0.487235
O O10 0.757004 0.500000 0.390719
O O11 0.601022 0.663947 0.691455
O O12 0.623399 0.000000 0.686393
O O13 0.580039 0.831214 0.034860
O O14 0.500000 0.169267 0.500000
O O15 0.351700 0.000000 0.797198
#
# Coordination Sequence:
#
# PCOD9152568 Si02
#       7
#     4   2   4   2   4   4   2
#     4   9  18  32  49  75 110 139 177 231 266 305
#     4  10  21  38  58  79 112 149 175 216 270 316
#     4   8  15  30  53  77 103 143 182 213 268 326
#     4  12  24  35  56  84 103 141 192 218 265 321
#     4   9  17  32  53  74 104 143 175 214 269 320
#     4   9  17  31  57  89 111 136 178 218 261 320
#     4  10  22  36  52  80 108 136 184 225 258 319
#
# _framework density 26.997491
#
# number of rings (size 3 to 8) (size 9 to 14) (size 15 to 20)
#    0.000    2.727    0.000    3.545    0.000    5.091 
#    0.000    1.818    0.000   12.000    0.000   11.455 
#    0.000    0.000    0.000    0.000    0.000    0.000 
#
# Total GULP energy -122862.965389 kJ/mol
# GULP energy per Si atom -5584.680245 kJ/mol
# Density = 2.693604 g / cm^3
# Si number density = 26.997491 Si / 1000 Ang^3
#
#
#
# Elastic Constant Matrix: (Units=GPa)
#
#
# Indices 1 2 3 4 5 6 
#
# 1 78.5106 20.7783 5.6712 0.0000 11.9511 0.0000
# 2 20.7783 283.3511 85.2270 0.0000 -11.9501 0.0000
# 3 5.6712 85.2270 146.7039 0.0000 -9.7717 0.0000
# 4 0.0000 0.0000 0.0000 54.9122 0.0000 -13.6917
# 5 11.9511 -11.9501 -9.7717 0.0000 39.5914 0.0000
# 6 0.0000 0.0000 0.0000 -13.6917 0.0000 6.0083
#
#
#
# Elastic Compliance Matrix: (Units=1/GPa)
#
#
# Indices 1 2 3 4 5 6 
#
# 1 0.013744 -0.001149 -0.000166 0.000000 -0.004537 0.000000
# 2 -0.001149 0.004391 -0.002435 0.000000 0.001071 0.000000
# 3 -0.000166 -0.002435 0.008329 0.000000 0.001371 0.000000
# 4 0.000000 0.000000 0.000000 0.042173 0.000000 0.096104
# 5 -0.004537 0.001071 0.001371 0.000000 0.027289 0.000000
# 6 0.000000 0.000000 0.000000 0.096104 0.000000 0.385436
#
#
# Mechanical properties :
#
#
# Convention : Reuss Voigt Hill
#
# Bulk Modulus (GPa) = 52.73364 81.32430 67.02897
# Shear Modulus (GPa) = 10.09726 46.56165 28.32946
#
# Velocity S-wave (km/s) = 1.93603 4.15742 3.24286
# Velocity P-wave (km/s) = 4.95709 7.29615 6.23725
#
# Compressibility (1/GPa) = 0.01896323
#
# Stress axis : x y z
#
# Youngs Moduli (GPa) = 72.75985 227.73233 120.06403
#
# Poissons Ratio (x) = 0.26173 0.01991
# Poissons Ratio (y) = 0.08362 0.29238
# Poissons Ratio (z) = 0.01206 0.55458
#
# Static dielectric constant tensor:
#      x y z
#    x 2.187100 0.000000 -0.067080 
#    y 0.000000 2.149380 0.000000 
#    z -0.067080 0.000000 2.073230 
# 
# From -- ./inp_files/33692.got.cif
#   From: 2010.05.17/outbox.cif.g08.bks.cpg/sg10_17_cif.got.tgz:33692.got - 2010.06.03 11:33:40.
