data_PCOD9152888
_publ_section_title
;
Structure prediction by ZEFSAII (Michael W. Deem and Ramdas Pophale) SiO2 
 PCOD9152888
Probable space group: P 2/M
;
_chemical_formula_sum "Si O2"
_cell_formula_units_Z 28
_cell_length_a 14.111136
_cell_length_b 7.997918
_cell_length_c 12.371934
_cell_angle_alpha 90.000000
_cell_angle_beta 124.740411
_cell_angle_gamma 90.000000
_cell_volume 1147.392941
_symmetry_space_group_name_H-M "P 2/M"
_symmetry_group_IT_number 10
_symmetry_cell_setting 'monoclinic'
loop_
_space_group_symop_operation_xyz
x,y,z
-x,y,-z
-x,-y,-z
x,-y,z
loop_
_atom_site_type_symbol
_atom_site_label
_atom_site_fract_x
_atom_site_fract_y
_atom_site_fract_z
Si Si1 0.778001 0.801834 0.462799
Si Si2 0.673908 0.190276 0.621296
Si Si3 0.092452 0.308112 0.144820
Si Si4 0.735029 0.298747 0.080544
Si Si5 0.019678 0.309590 0.691620
Si Si6 0.603303 0.195935 0.792637
Si Si7 0.599434 0.691542 0.187943
O O1 0.712439 0.738892 0.530018
O O2 0.721738 0.703092 0.328542
O O3 0.915383 0.776913 0.560345
O O4 0.755947 0.000000 0.437342
O O5 0.795427 0.197654 0.764878
O O6 0.593502 0.267344 0.663496
O O7 0.637039 0.000000 0.574589
O O8 0.125436 0.500000 0.135522
O O9 0.029595 0.317770 0.218669
O O10 0.000000 0.243591 0.000000
O O11 0.741490 0.500000 0.093441
O O12 0.854507 0.230876 0.207237
O O13 0.629381 0.241373 0.088308
O O14 0.705251 0.260408 0.937226
O O15 0.031279 0.500000 0.658318
O O16 0.489087 0.222140 0.788986
O O17 0.620107 0.000000 0.788809
O O18 0.560516 0.500000 0.153632
#
# Coordination Sequence:
#
# PCOD9152888 Si02
#       7
#     4   4   4   4   4   4   4
#     4  10  21  39  60  84 116 151 189 231 280 337
#     4   9  20  36  54  79 112 148 182 224 280 337
#     4   9  16  27  48  78 109 142 182 227 272 324
#     4  10  22  40  61  85 115 151 189 232 283 337
#     4   9  18  34  56  82 113 148 186 229 279 334
#     4  11  23  39  60  86 115 148 189 236 285 336
#     4  11  24  41  60  82 112 151 194 238 283 333
#
# _framework density 24.403147000000001
#
# number of rings (size 3 to 8) (size 9 to 14) (size 15 to 20)
#    0.000    2.143    0.000    2.571    0.000    7.714 
#    0.000    8.571    0.000    0.000    0.000    0.000 
#    0.000    0.000    0.000    0.000    0.000    0.000 
#
# Total GULP energy -156361.444952 kJ/mol
# GULP energy per Si atom -5584.337320 kJ/mol
# Density = 2.434760 g / cm^3
# Si number density = 24.403147 Si / 1000 Ang^3
#
#
#
# Elastic Constant Matrix: (Units=GPa)
#
#
# Indices 1 2 3 4 5 6 
#
# 1 109.7616 9.6287 6.3745 0.0000 -10.7763 0.0000
# 2 9.6287 38.5568 -1.2416 0.0000 2.4825 0.0000
# 3 6.3745 -1.2416 86.3540 0.0000 -3.5893 0.0000
# 4 0.0000 0.0000 0.0000 12.3070 0.0000 2.9767
# 5 -10.7763 2.4825 -3.5893 0.0000 44.7308 0.0000
# 6 0.0000 0.0000 0.0000 2.9767 0.0000 24.1460
#
#
#
# Elastic Compliance Matrix: (Units=1/GPa)
#
#
# Indices 1 2 3 4 5 6 
#
# 1 0.009610 -0.002576 -0.000646 0.000000 0.002406 0.000000
# 2 -0.002576 0.026728 0.000489 0.000000 -0.002065 0.000000
# 3 -0.000646 0.000489 0.011666 0.000000 0.000753 0.000000
# 4 0.000000 0.000000 0.000000 0.083752 0.000000 -0.010325
# 5 0.002406 -0.002065 0.000753 0.000000 0.023111 0.000000
# 6 0.000000 0.000000 0.000000 -0.010325 0.000000 0.042687
#
#
# Mechanical properties :
#
#
# Convention : Reuss Voigt Hill
#
# Bulk Modulus (GPa) = 23.50883 29.35508 26.43196
# Shear Modulus (GPa) = 23.02023 30.89749 26.95886
#
# Velocity S-wave (km/s) = 3.07470 3.56213 3.32735
# Velocity P-wave (km/s) = 4.71800 5.38272 5.06128
#
# Compressibility (1/GPa) = 0.04253721
#
# Stress axis : x y z
#
# Youngs Moduli (GPa) = 104.05390 37.41443 85.71703
#
# Poissons Ratio (x) = 0.09637 0.05541
# Poissons Ratio (y) = 0.26802 -0.04188
# Poissons Ratio (z) = 0.06726 -0.01828
#
# Static dielectric constant tensor:
#      x y z
#    x 2.023140 0.000000 0.016340 
#    y 0.000000 1.882140 0.000000 
#    z 0.016340 0.000000 1.957660 
# 
# From -- ./inp_files/66650.got.cif
#   From: 2010.05.17/outbox.cif.g08.bks.cpg/sg10_34_cif.got.tgz:66650.got - 2010.06.03 11:33:40.
