data_PCOD9152443
_publ_section_title
;
Structure prediction by ZEFSAII (Michael W. Deem and Ramdas Pophale) SiO2 
 PCOD9152443
Probable space group: P 2/M
;
_chemical_formula_sum "Si O2"
_cell_formula_units_Z 24
_cell_length_a 14.314603
_cell_length_b 15.162733
_cell_length_c 9.119768
_cell_angle_alpha 90.000000
_cell_angle_beta 34.225559
_cell_angle_gamma 90.000000
_cell_volume 1113.336025
_symmetry_space_group_name_H-M "P 2/M"
_symmetry_group_IT_number 10
_symmetry_cell_setting 'monoclinic'
loop_
_space_group_symop_operation_xyz
x,y,z
-x,y,-z
-x,-y,-z
x,-y,z
loop_
_atom_site_type_symbol
_atom_site_label
_atom_site_fract_x
_atom_site_fract_y
_atom_site_fract_z
Si Si1 0.866337 0.101815 0.413663
Si Si2 0.683142 0.402181 0.823657
Si Si3 0.413847 0.140833 0.469494
Si Si4 0.650753 0.207893 0.919967
Si Si5 0.121901 0.755070 0.973025
Si Si6 0.015708 0.597980 0.300505
O O1 0.725771 0.102769 0.464410
O O2 0.791346 0.152490 0.652771
O O3 0.028727 0.156785 0.154331
O O4 0.903324 0.000000 0.396904
O O5 0.707117 0.500000 0.861525
O O6 0.695946 0.309402 0.889939
O O7 0.819622 0.393903 0.518026
O O8 0.500000 0.404116 0.000000
O O9 0.500000 0.096210 0.500000
O O10 0.304407 0.221054 0.678784
O O11 0.571488 0.164987 0.165187
O O12 0.500000 0.209867 0.000000
O O13 0.111790 0.676615 0.101600
O O14 0.000000 0.726775 0.000000
O O15 0.069745 0.500000 0.186555
O O16 0.000000 0.602559 0.500000
#
# Coordination Sequence:
#
# PCOD9152443 Si02
#       6
#     4   4   4   4   4   4
#     4  10  21  41  65  85 110 152 203 242 282 349
#     4   9  17  31  57  87 113 147 196 239 276 333
#     4  10  23  37  57  87 121 155 185 237 305 345
#     4   9  18  35  59  85 112 151 194 236 277 341
#     4  10  22  39  59  87 120 158 192 237 294 350
#     4  10  21  37  60  89 119 157 199 241 288 339
#
# _framework density 21.556832
#
# number of rings (size 3 to 8) (size 9 to 14) (size 15 to 20)
#    0.000    2.333    1.667    0.000    4.667    6.667 
#    0.000    0.833    0.000    4.500    0.000    0.000 
#    0.000    0.000    0.000    0.000    0.000    0.000 
#
# Total GULP energy -133620.807884 kJ/mol
# GULP energy per Si atom -5567.533662 kJ/mol
# Density = 2.150777 g / cm^3
# Si number density = 21.556832 Si / 1000 Ang^3
#
#
#
# Elastic Constant Matrix: (Units=GPa)
#
#
# Indices 1 2 3 4 5 6 
#
# 1 74.1608 23.8575 27.6508 0.0000 9.0586 0.0000
# 2 23.8575 152.4240 40.8110 0.0000 24.6416 0.0000
# 3 27.6508 40.8110 96.6145 0.0000 15.4845 0.0000
# 4 0.0000 0.0000 0.0000 -0.6334 0.0000 3.1758
# 5 9.0586 24.6416 15.4845 0.0000 28.6685 0.0000
# 6 0.0000 0.0000 0.0000 3.1758 0.0000 -17.5051
#
#
#
# Elastic Compliance Matrix: (Units=1/GPa)
#
#
# Indices 1 2 3 4 5 6 
#
# 1 0.015439 -0.001130 -0.003629 0.000000 -0.001947 0.000000
# 2 -0.001130 0.008234 -0.002275 0.000000 -0.005492 0.000000
# 3 -0.003629 -0.002275 0.012976 0.000000 -0.003907 0.000000
# 4 0.000000 0.000000 0.000000-17.478556 0.000000 -3.171023
# 5 -0.001947 -0.005492 -0.003907 0.000000 0.042327 0.000000
# 6 0.000000 0.000000 0.000000 -3.171023 0.000000 -0.632425
#
#
# Mechanical properties :
#
#
# Convention : Reuss Voigt Hill
#
# Bulk Modulus (GPa) = 44.28419 56.42642 50.35531
# Shear Modulus (GPa) = -0.27762 17.49800 8.61019
#
# Velocity S-wave (km/s) = -0.35925 2.85215 2.00071
# Velocity P-wave (km/s) = 4.51835 6.08924 5.36164
#
# Compressibility (1/GPa) = 0.02258142
#
# Stress axis : x y z
#
# Youngs Moduli (GPa) = 64.77240 121.44105 77.06510
#
# Poissons Ratio (x) = 0.13724 0.27968
# Poissons Ratio (y) = 0.07320 0.17530
# Poissons Ratio (z) = 0.23507 0.27624
#
# Static dielectric constant tensor:
#      x y z
#    x 1.943470 0.000000 -0.042830 
#    y 0.000000 1.774580 0.000000 
#    z -0.042830 0.000000 1.789490 
# 
# From -- ./inp_files/29254.got.cif
#   From: 2010.05.17/outbox.cif.g08.bks.cpg/sg10_15_cif.got.tgz:29254.got - 2010.06.03 11:33:40.
