data_PCOD9152587
_publ_section_title
;
Structure prediction by ZEFSAII (Michael W. Deem and Ramdas Pophale) SiO2 
 PCOD9152587
Probable space group: P 2/M
;
_chemical_formula_sum "Si O2"
_cell_formula_units_Z 28
_cell_length_a 7.772524
_cell_length_b 23.867272
_cell_length_c 14.057272
_cell_angle_alpha 90.000000
_cell_angle_beta 146.034857
_cell_angle_gamma 90.000000
_cell_volume 1456.919604
_symmetry_space_group_name_H-M "P 2/M"
_symmetry_group_IT_number 10
_symmetry_cell_setting 'monoclinic'
loop_
_space_group_symop_operation_xyz
x,y,z
-x,y,-z
-x,-y,-z
x,-y,z
loop_
_atom_site_type_symbol
_atom_site_label
_atom_site_fract_x
_atom_site_fract_y
_atom_site_fract_z
Si Si1 0.307746 0.934765 0.205164
Si Si2 0.708578 0.230658 0.000000
Si Si3 0.170410 0.850630 0.309634
Si Si4 0.241507 0.149370 0.690366
Si Si5 0.256946 0.437050 0.307341
Si Si6 0.334924 0.437050 0.692659
Si Si7 0.702160 0.643663 0.000000
O O1 0.239792 0.903590 0.273622
O O2 0.581073 0.903590 0.273622
O O3 0.378954 0.000000 0.252636
O O4 0.000000 0.930471 0.000000
O O5 0.779017 0.293811 0.000000
O O6 0.006746 0.195497 0.168013
O O7 0.500000 0.232519 0.000000
O O8 0.502706 0.195497 0.831987
O O9 0.500000 0.830814 0.500000
O O10 0.944399 0.862286 0.296266
O O11 0.000000 0.169186 0.500000
O O12 0.500000 0.420704 0.500000
O O13 0.137580 0.500000 0.276145
O O14 0.446562 0.441329 0.297708
O O15 0.993260 0.392655 0.166160
O O16 0.309148 0.500000 0.723856
O O17 0.000000 0.420704 0.500000
O O18 0.494780 0.392655 0.833840
O O19 0.500000 0.651573 0.000000
#
# Coordination Sequence:
#
# PCOD9152587 Si02
#       7
#     4   4   4   4   4   4   4
#     4  11  24  42  66  97 127 161 207 254 301 366
#     4   9  22  41  61  85 120 158 205 251 296 356
#     4  11  22  42  65  90 126 166 204 252 309 364
#     4  11  22  42  65  90 126 166 204 252 309 364
#     4  10  21  38  58  84 119 156 197 246 303 362
#     4  10  21  38  58  84 119 156 197 246 303 362
#     4  11  22  38  59  88 119 152 200 252 296 360
#
# _framework density 19.218630000000001
#
# number of rings (size 3 to 8) (size 9 to 14) (size 15 to 20)
#    0.000    1.571    2.857    1.714    0.000    5.714 
#    5.143    4.286    0.000    0.000    0.000    0.000 
#    0.000    0.000    0.000    0.000    0.000    0.000 
#
# Total GULP energy -156305.673999 kJ/mol
# GULP energy per Si atom -5582.345500 kJ/mol
# Density = 1.917489 g / cm^3
# Si number density = 19.218630 Si / 1000 Ang^3
#
#
#
# Elastic Constant Matrix: (Units=GPa)
#
#
# Indices 1 2 3 4 5 6 
#
# 1 94.5004 48.6118 33.4257 0.0000 0.1482 0.0000
# 2 48.6118 169.8228 118.7026 0.0000 2.1547 0.0000
# 3 33.4257 118.7026 172.8307 0.0000 2.2596 0.0000
# 4 0.0000 0.0000 0.0000 -231.9973 0.0000 -7.7296
# 5 0.1482 2.1547 2.2596 0.0000 33.0127 0.0000
# 6 0.0000 0.0000 0.0000 -7.7296 0.0000 19.2776
#
#
#
# Elastic Compliance Matrix: (Units=1/GPa)
#
#
# Indices 1 2 3 4 5 6 
#
# 1 0.012411 -0.003607 0.000075 0.000000 0.000175 0.000000
# 2 -0.003607 0.012375 -0.007799 0.000000 -0.000258 0.000000
# 3 0.000075 -0.007799 0.011131 0.000000 -0.000253 0.000000
# 4 0.000000 0.000000 0.000000 -0.004254 0.000000 -0.001706
# 5 0.000175 -0.000258 -0.000253 0.000000 0.030325 0.000000
# 6 0.000000 0.000000 0.000000 -0.001706 0.000000 0.051190
#
#
# Mechanical properties :
#
#
# Convention : Reuss Voigt Hill
#
# Bulk Modulus (GPa) = 75.44058 93.18156 84.31107
# Shear Modulus (GPa) = 35.64853 -20.18049 7.73402
#
# Velocity S-wave (km/s) = 4.31152 -3.24396 2.00823
# Velocity P-wave (km/s) = 8.00779 5.87871 7.02438
#
# Compressibility (1/GPa) = 0.01325547
#
# Stress axis : x y z
#
# Youngs Moduli (GPa) = 80.57539 80.80581 89.83912
#
# Poissons Ratio (x) = 0.29148 -0.00673
# Poissons Ratio (y) = 0.29065 0.70062
# Poissons Ratio (z) = -0.00604 0.63017
#
# Static dielectric constant tensor:
#      x y z
#    x 1.688030 0.000000 -0.001380 
#    y 0.000000 1.694320 0.000000 
#    z -0.001380 0.000000 1.643280 
# 
# From -- ./inp_files/30480.got.cif
#   From: 2010.05.17/outbox.cif.g08.bks.cpg/sg10_16_cif.got.tgz:30480.got - 2010.06.03 11:33:40.
