data_PCOD9152979
_publ_section_title
;
Structure prediction by ZEFSAII (Michael W. Deem and Ramdas Pophale) SiO2 
 PCOD9152979
Probable space group: P 2/M
;
_chemical_formula_sum "Si O2"
_cell_formula_units_Z 28
_cell_length_a 21.696347
_cell_length_b 7.552812
_cell_length_c 24.324884
_cell_angle_alpha 90.000000
_cell_angle_beta 162.488641
_cell_angle_gamma 90.000000
_cell_volume 1199.391188
_symmetry_space_group_name_H-M "P 2/M"
_symmetry_group_IT_number 10
_symmetry_cell_setting 'monoclinic'
loop_
_space_group_symop_operation_xyz
x,y,z
-x,y,-z
-x,-y,-z
x,-y,z
loop_
_atom_site_type_symbol
_atom_site_label
_atom_site_fract_x
_atom_site_fract_y
_atom_site_fract_z
Si Si1 0.446016 0.201434 0.012902
Si Si2 0.739479 0.213779 0.539864
Si Si3 0.416084 0.799892 0.484175
Si Si4 0.577584 0.708111 0.244281
Si Si5 0.990415 0.290326 0.651575
Si Si6 0.320013 0.701906 0.119431
Si Si7 0.177846 0.283760 0.108708
O O1 0.544100 0.279168 0.151324
O O2 0.521379 0.000000 0.075203
O O3 0.500000 0.285040 0.000000
O O4 0.202889 0.205970 0.815155
O O5 0.742093 0.276449 0.605590
O O6 0.540563 0.293249 0.339412
O O7 0.930536 0.261547 0.664317
O O8 0.719021 0.000000 0.523290
O O9 0.500000 0.710180 0.500000
O O10 0.620102 0.801502 0.694349
O O11 0.349429 0.000000 0.412760
O O12 0.581437 0.500000 0.261730
O O13 0.388254 0.784522 0.119385
O O14 0.795230 0.779054 0.450794
O O15 0.013094 0.500000 0.661613
O O16 0.253697 0.500000 0.053348
O O17 0.166886 0.775950 0.035708
O O18 0.197214 0.500000 0.124971
O O19 0.000000 0.238977 0.000000
#
# Coordination Sequence:
#
# PCOD9152979 Si02
#       7
#     4   4   4   4   4   4   4
#     4  11  25  42  60  87 122 154 187 232 282 338
#     4   9  16  29  52  77 104 140 183 228 275 327
#     4   9  18  32  48  69 103 141 178 222 271 326
#     4   9  19  37  61  86 113 150 193 237 284 336
#     4  10  21  39  63  88 115 150 191 235 284 339
#     4   8  15  30  51  74 104 140 182 227 273 327
#     4   9  17  30  48  71 102 137 177 225 272 321
#
# _framework density 23.345179000000002
#
# number of rings (size 3 to 8) (size 9 to 14) (size 15 to 20)
#    0.000    2.714    0.000    2.143    0.000    5.714 
#    2.571    2.857    0.000    0.000    0.000    0.000 
#    0.000    0.000    0.000    0.000    0.000    0.000 
#
# Total GULP energy -156104.957131 kJ/mol
# GULP energy per Si atom -5575.177040 kJ/mol
# Density = 2.329204 g / cm^3
# Si number density = 23.345179 Si / 1000 Ang^3
#
#
#
# Elastic Constant Matrix: (Units=GPa)
#
#
# Indices 1 2 3 4 5 6 
#
# 1 191.5771 -11.4195 32.8516 0.0000 3.1563 0.0000
# 2 -11.4195 70.2524 -8.7406 0.0000 -3.5924 0.0000
# 3 32.8516 -8.7406 62.7677 0.0000 1.3494 0.0000
# 4 0.0000 0.0000 0.0000 18.0315 0.0000 2.3840
# 5 3.1563 -3.5924 1.3494 0.0000 32.9540 0.0000
# 6 0.0000 0.0000 0.0000 2.3840 0.0000 28.1632
#
#
#
# Elastic Compliance Matrix: (Units=1/GPa)
#
#
# Indices 1 2 3 4 5 6 
#
# 1 0.005761 0.000553 -0.002930 0.000000 -0.000372 0.000000
# 2 0.000553 0.014613 0.001714 0.000000 0.001470 0.000000
# 3 -0.002930 0.001714 0.017710 0.000000 -0.000258 0.000000
# 4 0.000000 0.000000 0.000000 0.056086 0.000000 -0.004748
# 5 -0.000372 0.001470 -0.000258 0.000000 0.030552 0.000000
# 6 0.000000 0.000000 0.000000 -0.004748 0.000000 0.035909
#
#
# Mechanical properties :
#
#
# Convention : Reuss Voigt Hill
#
# Bulk Modulus (GPa) = 27.20611 38.88670 33.04640
# Shear Modulus (GPa) = 28.70094 36.62346 32.66220
#
# Velocity S-wave (km/s) = 3.51011 3.96508 3.74451
# Velocity P-wave (km/s) = 5.30160 6.13644 5.73423
#
# Compressibility (1/GPa) = 0.03675645
#
# Stress axis : x y z
#
# Youngs Moduli (GPa) = 173.56821 68.43384 56.46617
#
# Poissons Ratio (x) = -0.03784 0.16547
# Poissons Ratio (y) = -0.09597 -0.09678
# Poissons Ratio (z) = 0.50863 -0.11729
#
# Static dielectric constant tensor:
#      x y z
#    x 1.983490 0.000000 0.029030 
#    y 0.000000 1.925100 0.000000 
#    z 0.029030 0.000000 1.866640 
# 
# From -- ./inp_files/90413.got.cif
#   From: 2010.05.17/outbox.cif.g08.bks.cpg/sg10_46_cif.got.tgz:90413.got - 2010.06.03 11:33:40.
