data_PCOD9152320
_publ_section_title
;
Structure prediction by ZEFSAII (Michael W. Deem and Ramdas Pophale) SiO2 
 PCOD9152320
Probable space group: P 2/M
;
_chemical_formula_sum "Si O2"
_cell_formula_units_Z 32
_cell_length_a 26.383794
_cell_length_b 13.708058
_cell_length_c 9.993746
_cell_angle_alpha 90.000000
_cell_angle_beta 151.569001
_cell_angle_gamma 90.000000
_cell_volume 1720.836955
_symmetry_space_group_name_H-M "P 2/M"
_symmetry_group_IT_number 10
_symmetry_cell_setting 'monoclinic'
loop_
_space_group_symop_operation_xyz
x,y,z
-x,y,-z
-x,-y,-z
x,-y,z
loop_
_atom_site_type_symbol
_atom_site_label
_atom_site_fract_x
_atom_site_fract_y
_atom_site_fract_z
Si Si1 0.298266 0.727306 0.755936
Si Si2 0.266553 0.385771 0.427138
Si Si3 0.481905 0.783388 0.598875
Si Si4 0.186514 0.114831 0.333143
Si Si5 0.676578 0.613947 0.748877
Si Si6 0.593552 0.114610 0.317009
Si Si7 0.041372 0.285379 0.944472
Si Si8 0.155120 0.384582 0.632744
O O1 0.325481 0.674829 0.678931
O O2 0.224001 0.820744 0.548145
O O3 0.234388 0.651433 0.699670
O O4 0.403815 0.760515 0.073839
O O5 0.277379 0.500000 0.478153
O O6 0.303903 0.366902 0.362901
O O7 0.144555 0.352041 0.158967
O O8 0.500000 0.836414 0.500000
O O9 0.415566 0.685227 0.416237
O O10 0.417254 0.838915 0.563055
O O11 0.289246 0.124533 0.474340
O O12 0.168023 0.000000 0.314721
O O13 0.085733 0.174428 0.041337
O O14 0.648204 0.500000 0.699076
O O15 0.782563 0.630352 0.083253
O O16 0.572759 0.000000 0.283857
O O17 0.500000 0.151859 0.000000
O O18 0.949763 0.319472 0.631202
O O19 0.000000 0.301708 0.000000
O O20 0.130980 0.500000 0.562555
#
# Coordination Sequence:
#
# PCOD9152320 Si02
#       8
#     4   4   4   4   4   4   4   4
#     4  11  21  36  58  92 115 157 202 240 301 354
#     4  10  21  37  57  84 116 151 201 254 289 345
#     4  12  23  37  60  89 126 158 198 247 298 353
#     4  10  21  39  62  92 124 150 193 249 300 360
#     4  10  24  40  56  85 123 164 201 241 301 357
#     4  10  21  39  65  89 115 155 195 239 298 357
#     4  11  21  35  60  90 114 151 206 244 300 350
#     4  11  22  39  58  83 123 161 202 249 297 350
#
# _framework density 18.595602
#
# number of rings (size 3 to 8) (size 9 to 14) (size 15 to 20)
#    0.000    1.375    5.000    2.250    0.000    2.750 
#    0.000    3.125    0.000    0.750    0.000    7.000 
#    0.000    0.000    0.000    0.000    0.000    0.000 
#
# Total GULP energy -178591.784217 kJ/mol
# GULP energy per Si atom -5580.993257 kJ/mol
# Density = 1.855328 g / cm^3
# Si number density = 18.595602 Si / 1000 Ang^3
#
#
#
# Elastic Constant Matrix: (Units=GPa)
#
#
# Indices 1 2 3 4 5 6 
#
# 1 57.2015 19.8011 7.0516 0.0000 -16.2856 0.0000
# 2 19.8011 89.1388 29.7076 0.0000 -8.1826 0.0000
# 3 7.0516 29.7076 80.1243 0.0000 -10.6907 0.0000
# 4 0.0000 0.0000 0.0000 25.8775 0.0000 3.6290
# 5 -16.2856 -8.1826 -10.6907 0.0000 30.4850 0.0000
# 6 0.0000 0.0000 0.0000 3.6290 0.0000 19.5394
#
#
#
# Elastic Compliance Matrix: (Units=1/GPa)
#
#
# Indices 1 2 3 4 5 6 
#
# 1 0.021934 -0.004233 0.001103 0.000000 0.010968 0.000000
# 2 -0.004233 0.013718 -0.004746 0.000000 -0.000244 0.000000
# 3 0.001103 -0.004746 0.014742 0.000000 0.004485 0.000000
# 4 0.000000 0.000000 0.000000 0.039677 0.000000 -0.007369
# 5 0.010968 -0.000244 0.004485 0.000000 0.040170 0.000000
# 6 0.000000 0.000000 0.000000 -0.007369 0.000000 0.052547
#
#
# Mechanical properties :
#
#
# Convention : Reuss Voigt Hill
#
# Bulk Modulus (GPa) = 28.86790 37.73170 33.29980
# Shear Modulus (GPa) = 23.79950 26.50733 25.15342
#
# Velocity S-wave (km/s) = 3.58137 3.77963 3.68183
# Velocity P-wave (km/s) = 5.71484 6.27552 6.00173
#
# Compressibility (1/GPa) = 0.03464056
#
# Stress axis : x y z
#
# Youngs Moduli (GPa) = 45.59102 72.89582 67.83466
#
# Poissons Ratio (x) = 0.30857 -0.07479
# Poissons Ratio (y) = 0.19299 0.32196
# Poissons Ratio (z) = -0.05026 0.34598
#
# Static dielectric constant tensor:
#      x y z
#    x 1.651520 0.000000 -0.005960 
#    y 0.000000 1.652750 0.000000 
#    z -0.005960 0.000000 1.645580 
# 
# From -- ./inp_files/36407.got.cif
#   From: 2010.05.17/outbox.cif.g08.bks.cpg/sg10_19_cif.got.tgz:36407.got - 2010.06.03 11:33:40.
