data_PCOD9152389
_publ_section_title
;
Structure prediction by ZEFSAII (Michael W. Deem and Ramdas Pophale) SiO2 
 PCOD9152389
Probable space group: P 2/M
;
_chemical_formula_sum "Si O2"
_cell_formula_units_Z 28
_cell_length_a 29.414031
_cell_length_b 8.689243
_cell_length_c 9.158872
_cell_angle_alpha 90.000000
_cell_angle_beta 38.939914
_cell_angle_gamma 90.000000
_cell_volume 1471.252629
_symmetry_space_group_name_H-M "P 2/M"
_symmetry_group_IT_number 10
_symmetry_cell_setting 'monoclinic'
loop_
_space_group_symop_operation_xyz
x,y,z
-x,y,-z
-x,-y,-z
x,-y,z
loop_
_atom_site_type_symbol
_atom_site_label
_atom_site_fract_x
_atom_site_fract_y
_atom_site_fract_z
Si Si1 0.784401 0.815305 0.618194
Si Si2 0.925444 0.313999 0.106682
Si Si3 0.502467 0.685730 0.663776
Si Si4 0.644889 0.684647 0.801706
Si Si5 0.926564 0.314119 0.764211
Si Si6 0.213600 0.814330 0.048102
Si Si7 0.358999 0.184659 0.514870
O O1 0.856823 0.757099 0.358997
O O2 0.714790 0.749216 0.709555
O O3 0.784341 0.765920 0.787877
O O4 0.781816 0.000000 0.619443
O O5 0.919752 0.500000 0.127283
O O6 0.927006 0.267829 0.932893
O O7 0.000000 0.269754 0.000000
O O8 0.500000 0.730719 0.500000
O O9 0.509084 0.500000 0.654313
O O10 0.570654 0.758465 0.574611
O O11 0.428064 0.729445 0.929979
O O12 0.648719 0.500000 0.788994
O O13 0.641888 0.747119 0.645045
O O14 0.924479 0.500000 0.764520
O O15 0.856473 0.250855 0.857549
O O16 0.000000 0.263693 0.500000
O O17 0.210240 0.000000 0.053042
O O18 0.286636 0.766675 0.782207
O O19 0.359562 0.000000 0.505000
#
# Coordination Sequence:
#
# PCOD9152389 Si02
#       7
#     4   4   4   4   4   4   4
#     4  11  23  39  59  84 115 150 191 236 284 338
#     4  10  21  38  60  86 116 150 190 235 284 339
#     4  10  22  40  61  86 116 151 192 237 285 338
#     4  11  23  39  60  86 116 150 190 235 284 339
#     4  10  21  37  59  86 113 146 189 234 280 333
#     4  10  23  40  57  82 115 151 189 231 281 337
#     4  11  23  39  60  86 117 152 191 235 284 339
#
# _framework density 19.031403000000001
#
# number of rings (size 3 to 8) (size 9 to 14) (size 15 to 20)
#    0.000    1.571    0.000    4.286    0.000   10.000 
#    0.000    0.000    0.000    0.000    0.000    0.000 
#    0.000    0.000    0.000    0.000    0.000    0.000 
#
# Total GULP energy -156589.306067 kJ/mol
# GULP energy per Si atom -5592.475217 kJ/mol
# Density = 1.898809 g / cm^3
# Si number density = 19.031403 Si / 1000 Ang^3
#
#
#
# Elastic Constant Matrix: (Units=GPa)
#
#
# Indices 1 2 3 4 5 6 
#
# 1 237.3379 53.3806 147.0744 0.0000 -0.0353 0.0000
# 2 53.3806 27.1721 56.7173 0.0000 -0.3233 0.0000
# 3 147.0744 56.7173 239.0939 0.0000 1.0376 0.0000
# 4 0.0000 0.0000 0.0000 35.8828 0.0000 -10.3104
# 5 -0.0353 -0.3233 1.0376 0.0000 45.6727 0.0000
# 6 0.0000 0.0000 0.0000 -10.3104 0.0000 48.2000
#
#
#
# Elastic Compliance Matrix: (Units=1/GPa)
#
#
# Indices 1 2 3 4 5 6 
#
# 1 0.008201 -0.011056 -0.002422 0.000000 -0.000017 0.000000
# 2 -0.011056 0.087840 -0.014041 0.000000 0.000932 0.000000
# 3 -0.002422 -0.014041 0.009004 0.000000 -0.000306 0.000000
# 4 0.000000 0.000000 0.000000 0.029694 0.000000 0.006352
# 5 -0.000017 0.000932 -0.000306 0.000000 0.021908 0.000000
# 6 0.000000 0.000000 0.000000 0.006352 0.000000 0.022106
#
#
# Mechanical properties :
#
#
# Convention : Reuss Voigt Hill
#
# Bulk Modulus (GPa) = 19.99649 113.10539 66.55094
# Shear Modulus (GPa) = 19.96342 42.37990 31.17166
#
# Velocity S-wave (km/s) = 3.24230 4.72406 4.05150
# Velocity P-wave (km/s) = 4.95445 9.45069 7.54527
#
# Compressibility (1/GPa) = 0.05000879
#
# Stress axis : x y z
#
# Youngs Moduli (GPa) = 121.93993 11.38435 111.05856
#
# Poissons Ratio (x) = 0.12586 0.26897
# Poissons Ratio (y) = 1.34811 1.55933
# Poissons Ratio (z) = 0.29533 0.15984
#
# Static dielectric constant tensor:
#      x y z
#    x 1.612920 0.000000 0.013390 
#    y 0.000000 1.647880 0.000000 
#    z 0.013390 0.000000 1.636490 
# 
# From -- ./inp_files/36944.got.cif
#   From: 2010.05.17/outbox.cif.g08.bks.cpg/sg10_19_cif.got.tgz:36944.got - 2010.06.03 11:33:40.
