data_PCOD9152809
_publ_section_title
;
Structure prediction by ZEFSAII (Michael W. Deem and Ramdas Pophale) SiO2 
 PCOD9152809
Probable space group: P 2/M
;
_chemical_formula_sum "Si O2"
_cell_formula_units_Z 20
_cell_length_a 6.331030
_cell_length_b 13.234865
_cell_length_c 10.879488
_cell_angle_alpha 90.000000
_cell_angle_beta 101.890920
_cell_angle_gamma 90.000000
_cell_volume 892.034519
_symmetry_space_group_name_H-M "P 2/M"
_symmetry_group_IT_number 10
_symmetry_cell_setting 'monoclinic'
loop_
_space_group_symop_operation_xyz
x,y,z
-x,y,-z
-x,-y,-z
x,-y,z
loop_
_atom_site_type_symbol
_atom_site_label
_atom_site_fract_x
_atom_site_fract_y
_atom_site_fract_z
Si Si1 0.039163 0.726156 0.719495
Si Si2 0.666040 0.115256 0.633712
Si Si3 0.647604 0.612108 0.410213
Si Si4 0.711635 0.388299 0.843946
Si Si5 0.522284 0.810938 0.130473
O O1 0.155825 0.673834 0.619050
O O2 0.231118 0.779538 0.816667
O O3 0.861100 0.805536 0.653857
O O4 0.923281 0.643317 0.792533
O O5 0.500000 0.124978 0.500000
O O6 0.552777 0.136997 0.751894
O O7 0.746545 0.000000 0.641262
O O8 0.500000 0.656699 0.500000
O O9 0.715274 0.500000 0.459462
O O10 0.482102 0.603480 0.277472
O O11 0.734450 0.500000 0.905845
O O12 0.633378 0.288539 0.906372
O O13 0.500000 0.869755 0.000000
#
# Coordination Sequence:
#
# PCOD9152809 Si02
#       5
#     4   4   4   4   4
#     4  10  21  38  63  87 120 168 210 253 310 370
#     4  10  24  45  67  93 122 156 205 261 319 383
#     4   9  18  32  53  86 125 163 207 255 303 360
#     4   9  19  34  54  85 124 166 210 251 296 358
#     4  10  23  41  62  93 129 163 206 259 311 366
#
# _framework density 22.420656999999999
#
# number of rings (size 3 to 8) (size 9 to 14) (size 15 to 20)
#    0.000    2.400    0.000    0.600    0.000   16.000 
#    0.000    7.000    0.000    6.000    0.000    0.000 
#    0.000    0.000    0.000    0.000    0.000    0.000 
#
# Total GULP energy -111722.078892 kJ/mol
# GULP energy per Si atom -5586.103945 kJ/mol
# Density = 2.236963 g / cm^3
# Si number density = 22.420657 Si / 1000 Ang^3
#
#
#
# Elastic Constant Matrix: (Units=GPa)
#
#
# Indices 1 2 3 4 5 6 
#
# 1 130.4445 30.1405 43.0396 0.0000 -7.5360 0.0000
# 2 30.1405 102.2720 16.2264 0.0000 -6.9748 0.0000
# 3 43.0396 16.2264 122.3185 0.0000 -12.8196 0.0000
# 4 0.0000 0.0000 0.0000 3.9646 0.0000 -9.8582
# 5 -7.5360 -6.9748 -12.8196 0.0000 30.5008 0.0000
# 6 0.0000 0.0000 0.0000 -9.8582 0.0000 44.5351
#
#
#
# Elastic Compliance Matrix: (Units=1/GPa)
#
#
# Indices 1 2 3 4 5 6 
#
# 1 0.009155 -0.002205 -0.002871 0.000000 0.000551 0.000000
# 2 -0.002205 0.010615 -0.000455 0.000000 0.001691 0.000000
# 3 -0.002871 -0.000455 0.009583 0.000000 0.003214 0.000000
# 4 0.000000 0.000000 0.000000 0.561035 0.000000 0.124190
# 5 0.000551 0.001691 0.003214 0.000000 0.034660 0.000000
# 6 0.000000 0.000000 0.000000 0.124190 0.000000 0.049945
#
#
# Mechanical properties :
#
#
# Convention : Reuss Voigt Hill
#
# Bulk Modulus (GPa) = 54.67227 59.31643 56.99435
# Shear Modulus (GPa) = 7.22386 33.50867 20.36627
#
# Velocity S-wave (km/s) = 1.79693 3.87013 3.01719
# Velocity P-wave (km/s) = 5.36125 6.81793 6.13299
#
# Compressibility (1/GPa) = 0.01829081
#
# Stress axis : x y z
#
# Youngs Moduli (GPa) = 109.23414 94.20455 104.35350
#
# Poissons Ratio (x) = 0.20771 0.29959
# Poissons Ratio (y) = 0.24085 0.04749
# Poissons Ratio (z) = 0.31361 0.04287
#
# Static dielectric constant tensor:
#      x y z
#    x 1.800260 0.000000 -0.013410 
#    y 0.000000 1.889680 0.000000 
#    z -0.013410 0.000000 1.861220 
# 
# From -- ./inp_files/39066.got.cif
#   From: 2010.05.17/outbox.cif.g08.bks.cpg/sg10_20_cif.got.tgz:39066.got - 2010.06.03 11:33:40.
