data_PCOD9152001
_publ_section_title
;
Structure prediction by ZEFSAII (Michael W. Deem and Ramdas Pophale) SiO2 
 PCOD9152001
Probable space group: P 2/M
;
_chemical_formula_sum "Si O2"
_cell_formula_units_Z 29
_cell_length_a 32.127840
_cell_length_b 10.332681
_cell_length_c 5.343104
_cell_angle_alpha 90.000000
_cell_angle_beta 65.432220
_cell_angle_gamma 90.000000
_cell_volume 1613.156801
_symmetry_space_group_name_H-M "P 2/M"
_symmetry_group_IT_number 10
_symmetry_cell_setting 'monoclinic'
loop_
_space_group_symop_operation_xyz
x,y,z
-x,y,-z
-x,-y,-z
x,-y,z
loop_
_atom_site_type_symbol
_atom_site_label
_atom_site_fract_x
_atom_site_fract_y
_atom_site_fract_z
Si Si1 0.447586 0.346522 0.631034
Si Si2 0.582168 0.214258 0.794580
Si Si3 0.174331 0.349692 0.314174
Si Si4 0.113367 0.649059 0.966583
Si Si5 0.739979 0.840842 0.900050
Si Si6 0.030163 0.150995 0.174593
Si Si7 0.500000 0.000000 0.000000
Si Si8 0.688246 0.849053 0.529382
O O1 0.500000 0.297100 0.500000
O O2 0.448721 0.500000 0.628198
O O3 0.424047 0.296374 0.440613
O O4 0.424047 0.296374 0.939149
O O5 0.540953 0.110904 0.897618
O O6 0.633625 0.162082 0.665938
O O7 0.191687 0.500000 0.270781
O O8 0.143872 0.334549 0.640569
O O9 0.213299 0.240285 0.216753
O O10 0.143871 0.334549 0.140075
O O11 0.096286 0.500000 0.009285
O O12 0.072470 0.751377 0.068826
O O13 0.711294 0.800007 0.726011
O O14 0.746159 0.000000 0.884601
O O15 0.711294 0.800008 0.217515
O O16 0.000000 0.171003 0.500000
O O17 0.045166 0.000000 0.137085
O O18 0.000000 0.171003 0.000000
O O19 0.699135 0.000000 0.502161
#
# Coordination Sequence:
#
# PCOD9152001 Si02
#       8
#     4   4   4   4   4   4   1   4
#     4  11  23  40  58  79 111 152 185 222 270 323
#     4  12  23  40  61  89 118 145 191 238 277 346
#     4  10  21  38  58  84 114 144 187 246 295 338
#     4  10  21  36  57  84 114 150 194 241 291 340
#     4  10  21  38  60  83 110 149 188 224 292 358
#     4  10  21  36  54  81 119 159 197 239 286 336
#     4  12  24  38  62  98 112 150 192 236 296 338
#     4  10  21  38  57  83 116 146 177 231 284 338
#
# _framework density 17.977173000000001
#
# number of rings (size 3 to 8) (size 9 to 14) (size 15 to 20)
#    0.000    1.517    2.069    2.897    0.000    3.862 
#    0.000    4.138    0.000    0.000    0.000    0.000 
#    0.000    0.000    0.000    0.000    0.000    0.000 
#
# Total GULP energy -161522.965441 kJ/mol
# GULP energy per Si atom -5569.757429 kJ/mol
# Density = 1.793626 g / cm^3
# Si number density = 17.977173 Si / 1000 Ang^3
#
#
#
# Elastic Constant Matrix: (Units=GPa)
#
#
# Indices 1 2 3 4 5 6 
#
# 1 128.6016 68.5508 75.5815 0.0000 5.4799 0.0000
# 2 68.5508 82.8061 60.1105 0.0000 -7.3087 0.0000
# 3 75.5815 60.1105 156.2545 0.0000 18.4709 0.0000
# 4 0.0000 0.0000 0.0000 6.5607 0.0000 -16.0784
# 5 5.4799 -7.3087 18.4709 0.0000 40.9237 0.0000
# 6 0.0000 0.0000 0.0000 -16.0784 0.0000 25.1267
#
#
#
# Elastic Compliance Matrix: (Units=1/GPa)
#
#
# Indices 1 2 3 4 5 6 
#
# 1 0.015412 -0.010836 -0.002972 0.000000 -0.002657 0.000000
# 2 -0.010836 0.026028 -0.005802 0.000000 0.008718 0.000000
# 3 -0.002972 -0.005802 0.010717 0.000000 -0.005475 0.000000
# 4 0.000000 0.000000 0.000000 -0.268260 0.000000 -0.171657
# 5 -0.002657 0.008718 -0.005475 0.000000 0.028820 0.000000
# 6 0.000000 0.000000 0.000000 -0.171657 0.000000 -0.070044
#
#
# Mechanical properties :
#
#
# Convention : Reuss Voigt Hill
#
# Bulk Modulus (GPa) = 77.30014 86.23862 81.76938
# Shear Modulus (GPa) = -23.38701 25.41685 1.01492
#
# Velocity S-wave (km/s) = -3.61075 3.76419 0.75219
# Velocity P-wave (km/s) = 5.07041 8.18336 6.80722
#
# Compressibility (1/GPa) = 0.01293659
#
# Stress axis : x y z
#
# Youngs Moduli (GPa) = 64.88452 38.42005 93.31077
#
# Poissons Ratio (x) = 0.41631 0.27735
# Poissons Ratio (y) = 0.70307 0.54141
# Poissons Ratio (z) = 0.19286 0.22292
#
# Static dielectric constant tensor:
#      x y z
#    x 1.596330 0.000000 0.014940 
#    y 0.000000 1.604790 0.000000 
#    z 0.014940 0.000000 1.613580 
# 
# From -- ./inp_files/13600.got.cif
#   From: 2010.05.17/outbox.cif.g08.bks.cpg/sg10_7_cif.got.tgz:13600.got - 2010.06.03 11:33:40.
