data_PCOD9152357
_publ_section_title
;
Structure prediction by ZEFSAII (Michael W. Deem and Ramdas Pophale) SiO2 
 PCOD9152357
Probable space group: P 2/M
;
_chemical_formula_sum "Si O2"
_cell_formula_units_Z 28
_cell_length_a 9.019996
_cell_length_b 23.829697
_cell_length_c 15.054421
_cell_angle_alpha 90.000000
_cell_angle_beta 150.995303
_cell_angle_gamma 90.000000
_cell_volume 1569.005168
_symmetry_space_group_name_H-M "P 2/M"
_symmetry_group_IT_number 10
_symmetry_cell_setting 'monoclinic'
loop_
_space_group_symop_operation_xyz
x,y,z
-x,y,-z
-x,-y,-z
x,-y,z
loop_
_atom_site_type_symbol
_atom_site_label
_atom_site_fract_x
_atom_site_fract_y
_atom_site_fract_z
Si Si1 0.632704 0.645988 0.303428
Si Si2 0.674586 0.433353 0.998611
Si Si3 0.155184 0.935986 0.180864
Si Si4 0.358567 0.935326 0.689131
Si Si5 0.322953 0.858789 0.998895
Si Si6 0.828006 0.739313 0.001747
Si Si7 0.267883 0.357012 0.296653
O O1 0.524746 0.595760 0.182762
O O2 0.468137 0.701628 0.177498
O O3 0.470391 0.636553 0.313634
O O4 0.000000 0.650329 0.500000
O O5 0.696349 0.500000 0.997916
O O6 0.500000 0.422097 0.000000
O O7 0.011491 0.405433 0.172926
O O8 0.502106 0.924000 0.335278
O O9 0.995357 0.892949 0.162389
O O10 0.123492 0.000000 0.195050
O O11 0.000000 0.931627 0.000000
O O12 0.000000 0.933278 0.500000
O O13 0.449814 0.000000 0.760345
O O14 0.480572 0.890822 0.823306
O O15 0.500000 0.863106 0.000000
O O16 0.262845 0.794885 0.994150
O O17 0.000000 0.754787 0.000000
O O18 0.063941 0.699272 0.178126
O O19 0.500000 0.354893 0.500000
#
# Coordination Sequence:
#
# PCOD9152357 Si02
#       7
#     4   4   4   4   4   4   4
#     4  10  21  37  59  83 109 147 186 225 275 325
#     4  10  21  37  58  85 116 148 184 227 270 318
#     4   8  15  30  51  71  96 133 169 203 252 314
#     4   9  18  34  55  76 100 134 174 215 263 320
#     4  11  21  32  51  78 105 135 172 217 266 315
#     4   9  20  38  55  75 106 143 185 226 267 321
#     4  10  21  38  60  83 110 145 183 228 278 326
#
# _framework density 17.845701999999999
#
# number of rings (size 3 to 8) (size 9 to 14) (size 15 to 20)
#    0.000    2.429    0.000    4.714    0.000    6.857 
#    0.000    3.571    0.000    2.571    0.000    0.000 
#    0.000    0.000    0.000    0.000    0.000    0.000 
#
# Total GULP energy -156103.946610 kJ/mol
# GULP energy per Si atom -5575.140950 kJ/mol
# Density = 1.780508 g / cm^3
# Si number density = 17.845702 Si / 1000 Ang^3
#
#
#
# Elastic Constant Matrix: (Units=GPa)
#
#
# Indices 1 2 3 4 5 6 
#
# 1 154.8428 107.4053 74.3920 0.0000 22.6705 0.0000
# 2 107.4053 124.8155 53.4715 0.0000 6.5943 0.0000
# 3 74.3920 53.4715 121.8846 0.0000 22.0338 0.0000
# 4 0.0000 0.0000 0.0000 6.6926 0.0000 3.4123
# 5 22.6705 6.5943 22.0338 0.0000 34.9660 0.0000
# 6 0.0000 0.0000 0.0000 3.4123 0.0000 23.3019
#
#
#
# Elastic Compliance Matrix: (Units=1/GPa)
#
#
# Indices 1 2 3 4 5 6 
#
# 1 0.019996 -0.014976 -0.004290 0.000000 -0.007437 0.000000
# 2 -0.014976 0.021112 -0.001306 0.000000 0.006551 0.000000
# 3 -0.004290 -0.001306 0.012243 0.000000 -0.004687 0.000000
# 4 0.000000 0.000000 0.000000 0.161474 0.000000 -0.023646
# 5 -0.007437 0.006551 -0.004687 0.000000 0.035139 0.000000
# 6 0.000000 0.000000 0.000000 -0.023646 0.000000 0.046378
#
#
# Mechanical properties :
#
#
# Convention : Reuss Voigt Hill
#
# Bulk Modulus (GPa) = 81.91582 96.89781 89.40681
# Shear Modulus (GPa) = 14.63891 24.07706 19.35799
#
# Velocity S-wave (km/s) = 2.86720 3.67710 3.29712
# Velocity P-wave (km/s) = 7.54739 8.51138 8.04384
#
# Compressibility (1/GPa) = 0.01220765
#
# Stress axis : x y z
#
# Youngs Moduli (GPa) = 50.00953 47.36585 81.67890
#
# Poissons Ratio (x) = 0.70936 0.35041
# Poissons Ratio (y) = 0.74895 0.10665
# Poissons Ratio (z) = 0.21455 0.06184
#
# Static dielectric constant tensor:
#      x y z
#    x 1.624830 0.000000 0.027990 
#    y 0.000000 1.594480 0.000000 
#    z 0.027990 0.000000 1.639080 
# 
# From -- ./inp_files/62623.got.cif
#   From: 2010.05.17/outbox.cif.g08.bks.cpg/sg10_32_cif.got.tgz:62623.got - 2010.06.03 11:33:40.
