data_PCOD9152742
_publ_section_title
;
Structure prediction by ZEFSAII (Michael W. Deem and Ramdas Pophale) SiO2 
 PCOD9152742
Probable space group: P 2/M
;
_chemical_formula_sum "Si O2"
_cell_formula_units_Z 11
_cell_length_a 6.053979
_cell_length_b 12.814469
_cell_length_c 7.107994
_cell_angle_alpha 90.000000
_cell_angle_beta 74.189363
_cell_angle_gamma 90.000000
_cell_volume 530.565771
_symmetry_space_group_name_H-M "P 2/M"
_symmetry_group_IT_number 10
_symmetry_cell_setting 'monoclinic'
loop_
_space_group_symop_operation_xyz
x,y,z
-x,y,-z
-x,-y,-z
x,-y,z
loop_
_atom_site_type_symbol
_atom_site_label
_atom_site_fract_x
_atom_site_fract_y
_atom_site_fract_z
Si Si1 0.500000 0.806113 0.000000
Si Si2 0.000000 0.500000 0.500000
Si Si3 0.723624 0.884514 0.316569
Si Si4 0.057957 0.305562 0.206282
O O1 0.638883 0.872290 0.120626
O O2 0.319982 0.733513 0.152049
O O3 0.015884 0.407969 0.334903
O O4 0.500000 0.875611 0.500000
O O5 0.898208 0.790448 0.309700
O O6 0.825519 0.000000 0.320831
O O7 0.000000 0.323575 0.000000
#
# Coordination Sequence:
#
# PCOD9152742 Si02
#       4
#     2   1   4   4
#     4  10  21  39  60  88 120 153 189 236 298 350
#     4  12  22  42  64  80 116 160 196 246 292 332
#     4  10  21  38  61  90 121 152 191 238 289 349
#     4  10  23  40  60  89 117 152 198 240 288 347
#
# _framework density 20.732583999999999
#
# number of rings (size 3 to 8) (size 9 to 14) (size 15 to 20)
#    0.000    1.818    0.000    3.273    0.000    8.727 
#    0.000   21.818    0.000    0.000    0.000    0.000 
#    0.000    0.000    0.000    0.000    0.000    0.000 
#
# Total GULP energy -61243.710921 kJ/mol
# GULP energy per Si atom -5567.610084 kJ/mol
# Density = 2.068540 g / cm^3
# Si number density = 20.732584 Si / 1000 Ang^3
#
#
#
# Elastic Constant Matrix: (Units=GPa)
#
#
# Indices 1 2 3 4 5 6 
#
# 1 55.6012 63.9115 15.6131 0.0000 -16.5842 0.0000
# 2 63.9115 266.9010 90.9503 0.0000 -23.6905 0.0000
# 3 15.6131 90.9503 103.9485 0.0000 1.1672 0.0000
# 4 0.0000 0.0000 0.0000 26.3415 0.0000 8.4749
# 5 -16.5842 -23.6905 1.1672 0.0000 25.5425 0.0000
# 6 0.0000 0.0000 0.0000 8.4749 0.0000 -1.1227
#
#
#
# Elastic Compliance Matrix: (Units=1/GPa)
#
#
# Indices 1 2 3 4 5 6 
#
# 1 0.028435 -0.005922 0.000765 0.000000 0.012935 0.000000
# 2 -0.005922 0.007353 -0.005580 0.000000 0.003230 0.000000
# 3 0.000765 -0.005580 0.014448 0.000000 -0.005339 0.000000
# 4 0.000000 0.000000 0.000000 0.011072 0.000000 0.083582
# 5 0.012935 0.003230 -0.005339 0.000000 0.050789 0.000000
# 6 0.000000 0.000000 0.000000 0.083582 0.000000 -0.259786
#
#
# Mechanical properties :
#
#
# Convention : Reuss Voigt Hill
#
# Bulk Modulus (GPa) = 34.76818 85.26673 60.01746
# Shear Modulus (GPa) = -42.87133 27.21733 -7.82700
#
# Velocity S-wave (km/s) = -4.55227 3.62716 -1.94510
# Velocity P-wave (km/s) = 3.29008 7.66537 4.89558
#
# Compressibility (1/GPa) = 0.02876193
#
# Stress axis : x y z
#
# Youngs Moduli (GPa) = 35.16759 135.99959 69.21465
#
# Poissons Ratio (x) = 0.80532 -0.05294
# Poissons Ratio (y) = 0.20825 0.38624
# Poissons Ratio (z) = -0.02690 0.75893
#
# Static dielectric constant tensor:
#      x y z
#    x 1.744900 0.000000 -0.003170 
#    y 0.000000 1.685120 0.000000 
#    z -0.003170 0.000000 1.756820 
# 
# From -- ./inp_files/2598.got.cif
#   From: 2010.05.17/outbox.cif.g08.bks.cpg/sg10_2_cif.got.tgz:2598.got - 2010.06.03 11:33:40.
