data_PCOD9152109
_publ_section_title
;
Structure prediction by ZEFSAII (Michael W. Deem and Ramdas Pophale) SiO2 
 PCOD9152109
Probable space group: P 2/M
;
_chemical_formula_sum "Si O2"
_cell_formula_units_Z 32
_cell_length_a 12.284929
_cell_length_b 18.777548
_cell_length_c 16.063168
_cell_angle_alpha 90.000000
_cell_angle_beta 153.765571
_cell_angle_gamma 90.000000
_cell_volume 1637.982102
_symmetry_space_group_name_H-M "P 2/M"
_symmetry_group_IT_number 10
_symmetry_cell_setting 'monoclinic'
loop_
_space_group_symop_operation_xyz
x,y,z
-x,y,-z
-x,-y,-z
x,-y,z
loop_
_atom_site_type_symbol
_atom_site_label
_atom_site_fract_x
_atom_site_fract_y
_atom_site_fract_z
Si Si1 0.461708 0.925380 0.072350
Si Si2 0.205046 0.314431 0.317006
Si Si3 0.790058 0.584264 0.100685
Si Si4 0.768235 0.632654 0.277328
Si Si5 0.696256 0.791295 0.470943
Si Si6 0.884578 0.919895 0.686463
Si Si7 0.822081 0.175996 0.804149
Si Si8 0.725408 0.785944 0.306610
O O1 0.555885 0.851021 0.169322
O O2 0.574765 0.000000 0.182598
O O3 0.500000 0.925039 0.000000
O O4 0.175147 0.927282 0.894899
O O5 0.500000 0.331877 0.500000
O O6 0.199815 0.270055 0.399287
O O7 0.116521 0.254783 0.189708
O O8 0.001071 0.375627 0.191132
O O9 0.820468 0.500000 0.112780
O O10 0.819478 0.604574 0.219234
O O11 0.502984 0.603327 0.882344
O O12 0.731602 0.718308 0.250850
O O13 0.000000 0.618753 0.500000
O O14 0.846171 0.865001 0.583515
O O15 0.439692 0.814223 0.333783
O O16 0.664160 0.761221 0.357423
O O17 0.803256 0.878545 0.714397
O O18 0.779266 0.000000 0.604337
O O19 0.000000 0.152330 0.000000
O O20 0.000000 0.815091 0.500000
#
# Coordination Sequence:
#
# PCOD9152109 Si02
#       8
#     4   4   4   4   4   4   4   4
#     4  10  22  36  52  78 115 155 191 239 296 346
#     4   9  20  39  61  86 121 158 199 249 296 361
#     4  11  24  41  66  95 124 164 198 242 317 374
#     4  10  23  40  63  95 126 158 201 253 302 364
#     4  10  21  36  57  87 112 151 201 242 300 344
#     4  10  21  37  56  80 116 156 195 246 300 349
#     4  10  21  36  58  84 114 152 197 251 295 349
#     4  11  22  35  59  87 110 150 200 243 293 352
#
# _framework density 19.536231999999998
#
# number of rings (size 3 to 8) (size 9 to 14) (size 15 to 20)
#    0.000    1.875    0.000    4.875    7.000    3.250 
#    0.000    0.000    0.000    0.375    0.000    0.000 
#    0.000    0.000    0.000    0.000    0.000    0.000 
#
# Total GULP energy -178324.974552 kJ/mol
# GULP energy per Si atom -5572.655455 kJ/mol
# Density = 1.949177 g / cm^3
# Si number density = 19.536232 Si / 1000 Ang^3
#
#
#
# Elastic Constant Matrix: (Units=GPa)
#
#
# Indices 1 2 3 4 5 6 
#
# 1 63.1830 13.0002 8.6022 0.0000 13.0377 0.0000
# 2 13.0002 110.2114 43.6711 0.0000 12.9097 0.0000
# 3 8.6022 43.6711 63.0954 0.0000 4.7959 0.0000
# 4 0.0000 0.0000 0.0000 7.6559 0.0000 4.1158
# 5 13.0377 12.9097 4.7959 0.0000 27.4366 0.0000
# 6 0.0000 0.0000 0.0000 4.1158 0.0000 27.4224
#
#
#
# Elastic Compliance Matrix: (Units=1/GPa)
#
#
# Indices 1 2 3 4 5 6 
#
# 1 0.017777 -0.000617 -0.001395 0.000000 -0.007913 0.000000
# 2 -0.000617 0.013078 -0.008637 0.000000 -0.004351 0.000000
# 3 -0.001395 -0.008637 0.021950 0.000000 0.000890 0.000000
# 4 0.000000 0.000000 0.000000 0.142082 0.000000 -0.021325
# 5 -0.007913 -0.004351 0.000890 0.000000 0.042099 0.000000
# 6 0.000000 0.000000 0.000000 -0.021325 0.000000 0.039667
#
#
# Mechanical properties :
#
#
# Convention : Reuss Voigt Hill
#
# Bulk Modulus (GPa) = 31.73989 40.78187 36.26088
# Shear Modulus (GPa) = 16.20985 23.91742 20.06364
#
# Velocity S-wave (km/s) = 2.88363 3.50274 3.20815
# Velocity P-wave (km/s) = 5.23155 6.10567 5.68543
#
# Compressibility (1/GPa) = 0.03150610
#
# Stress axis : x y z
#
# Youngs Moduli (GPa) = 56.25305 76.46192 45.55857
#
# Poissons Ratio (x) = 0.04720 0.06355
# Poissons Ratio (y) = 0.03472 0.39350
# Poissons Ratio (z) = 0.07847 0.66042
#
# Static dielectric constant tensor:
#      x y z
#    x 1.740080 0.000000 -0.092810 
#    y 0.000000 1.720610 0.000000 
#    z -0.092810 0.000000 2.013890 
# 
# From -- ./inp_files/65420.got.cif
#   From: 2010.05.17/outbox.cif.g08.bks.cpg/sg10_33_cif.got.tgz:65420.got - 2010.06.03 11:33:40.
