data_PCOD9152639
_publ_section_title
;
Structure prediction by ZEFSAII (Michael W. Deem and Ramdas Pophale) SiO2 
 PCOD9152639
Probable space group: P 2/M
;
_chemical_formula_sum "Si O2"
_cell_formula_units_Z 20
_cell_length_a 10.846728
_cell_length_b 12.434594
_cell_length_c 13.202030
_cell_angle_alpha 90.000000
_cell_angle_beta 30.344024
_cell_angle_gamma 90.000000
_cell_volume 899.552622
_symmetry_space_group_name_H-M "P 2/M"
_symmetry_group_IT_number 10
_symmetry_cell_setting 'monoclinic'
loop_
_space_group_symop_operation_xyz
x,y,z
-x,y,-z
-x,-y,-z
x,-y,z
loop_
_atom_site_type_symbol
_atom_site_label
_atom_site_fract_x
_atom_site_fract_y
_atom_site_fract_z
Si Si1 0.497147 0.231793 0.193100
Si Si2 0.473762 0.000000 0.894624
Si Si3 0.053110 0.000000 0.840769
Si Si4 0.204295 0.381612 0.268263
Si Si5 0.748521 0.375171 0.457276
Si Si6 0.938661 0.764976 0.160794
O O1 0.397832 0.295898 0.167047
O O2 0.397143 0.295138 0.363468
O O3 0.788227 0.231804 0.987935
O O4 0.416101 0.108239 0.233661
O O5 0.191249 0.000000 0.055672
O O6 0.500000 0.000000 0.000000
O O7 0.174127 0.883733 0.739005
O O8 0.000000 0.000000 0.000000
O O9 0.313167 0.500000 0.200081
O O10 0.000000 0.374291 0.500000
O O11 0.032033 0.374021 0.293673
O O12 0.666074 0.500000 0.521415
O O13 0.772270 0.325290 0.329126
O O14 0.000000 0.748118 0.000000
#
# Coordination Sequence:
#
# PCOD9152639 Si02
#       6
#     4   2   2   4   4   4
#     4  10  21  38  60  83 123 156 188 244 304 354
#     4  10  22  35  59  97 126 150 200 254 307 364
#     4   8  18  39  60  80 116 160 199 240 291 366
#     4   8  16  33  55  80 111 149 193 233 279 354
#     4  10  22  39  60  87 118 157 204 244 293 366
#     4  10  22  39  61  87 116 156 205 249 296 354
#
# _framework density 22.233274000000002
#
# number of rings (size 3 to 8) (size 9 to 14) (size 15 to 20)
#    0.000    2.600    0.000    1.800    5.600    3.600 
#    0.000    7.500    0.000    7.200    0.000    0.000 
#    0.000    0.000    0.000    0.000    0.000    0.000 
#
# Total GULP energy -111443.357427 kJ/mol
# GULP energy per Si atom -5572.167871 kJ/mol
# Density = 2.218267 g / cm^3
# Si number density = 22.233274 Si / 1000 Ang^3
#
#
#
# Elastic Constant Matrix: (Units=GPa)
#
#
# Indices 1 2 3 4 5 6 
#
# 1 64.8470 39.6944 30.0544 0.0000 12.5434 0.0000
# 2 39.6944 199.5544 59.6231 0.0000 24.7186 0.0000
# 3 30.0544 59.6231 69.6259 0.0000 18.3062 0.0000
# 4 0.0000 0.0000 0.0000 25.7835 0.0000 12.9153
# 5 12.5434 24.7186 18.3062 0.0000 43.5191 0.0000
# 6 0.0000 0.0000 0.0000 12.9153 0.0000 27.2892
#
#
#
# Elastic Compliance Matrix: (Units=1/GPa)
#
#
# Indices 1 2 3 4 5 6 
#
# 1 0.019926 -0.001752 -0.006580 0.000000 -0.001980 0.000000
# 2 -0.001752 0.006985 -0.004852 0.000000 -0.001422 0.000000
# 3 -0.006580 -0.004852 0.022638 0.000000 -0.004870 0.000000
# 4 0.000000 0.000000 0.000000 0.050836 0.000000 -0.024060
# 5 -0.001980 -0.001422 -0.004870 0.000000 0.026405 0.000000
# 6 0.000000 0.000000 0.000000 -0.024060 0.000000 0.048031
#
#
# Mechanical properties :
#
#
# Convention : Reuss Voigt Hill
#
# Bulk Modulus (GPa) = 43.13789 65.86346 54.50068
# Shear Modulus (GPa) = 23.93286 32.96205 28.44745
#
# Velocity S-wave (km/s) = 3.28448 3.85457 3.58089
# Velocity P-wave (km/s) = 5.81621 7.03551 6.45472
#
# Compressibility (1/GPa) = 0.02318148
#
# Stress axis : x y z
#
# Youngs Moduli (GPa) = 50.18517 143.15521 44.17367
#
# Poissons Ratio (x) = 0.25086 0.29066
# Poissons Ratio (y) = 0.08794 0.21431
# Poissons Ratio (z) = 0.33022 0.69454
#
# Static dielectric constant tensor:
#      x y z
#    x 2.115590 0.000000 -0.119840 
#    y 0.000000 1.849810 0.000000 
#    z -0.119840 0.000000 1.888850 
# 
# From -- ./inp_files/64596.got.cif
#   From: 2010.05.17/outbox.cif.g08.bks.cpg/sg10_33_cif.got.tgz:64596.got - 2010.06.03 11:33:40.
