data_PCOD9152486
_publ_section_title
;
Structure prediction by ZEFSAII (Michael W. Deem and Ramdas Pophale) SiO2 
 PCOD9152486
Probable space group: P 2/M
;
_chemical_formula_sum "Si O2"
_cell_formula_units_Z 18
_cell_length_a 18.474917
_cell_length_b 10.036988
_cell_length_c 5.598578
_cell_angle_alpha 90.000000
_cell_angle_beta 56.374494
_cell_angle_gamma 90.000000
_cell_volume 864.448370
_symmetry_space_group_name_H-M "P 2/M"
_symmetry_group_IT_number 10
_symmetry_cell_setting 'monoclinic'
loop_
_space_group_symop_operation_xyz
x,y,z
-x,y,-z
-x,-y,-z
x,-y,z
loop_
_atom_site_type_symbol
_atom_site_label
_atom_site_fract_x
_atom_site_fract_y
_atom_site_fract_z
Si Si1 0.901438 0.839814 0.694860
Si Si2 0.500000 0.260732 0.000000
Si Si3 0.597231 0.858120 0.209465
Si Si4 0.803533 0.161281 0.376371
Si Si5 0.659648 0.651353 0.439158
O O1 0.849376 0.805401 0.546201
O O2 0.000000 0.786878 0.500000
O O3 0.905990 0.000000 0.678337
O O4 0.859833 0.811316 0.031378
O O5 0.429425 0.164619 0.010848
O O6 0.560310 0.347849 0.719024
O O7 0.500000 0.859881 0.500000
O O8 0.651092 0.736191 0.212084
O O9 0.640392 0.000000 0.178135
O O10 0.722760 0.260548 0.487403
O O11 0.783804 0.000000 0.414321
O O12 0.688890 0.500000 0.357290
#
# Coordination Sequence:
#
# PCOD9152486 Si02
#       5
#     4   2   4   4   4
#     4   9  18  36  64  95 124 155 197 252 311 371
#     4  10  22  38  60  82 110 160 210 260 304 364
#     4   9  19  36  57  81 107 143 195 254 309 358
#     4  10  21  37  61  94 125 159 203 255 308 365
#     4  11  24  39  56  82 120 163 209 255 305 364
#
# _framework density 20.82253
#
# number of rings (size 3 to 8) (size 9 to 14) (size 15 to 20)
#    0.000    2.222    0.000    2.000    3.111   10.222 
#    0.000    0.000    0.000    4.000    0.000    0.000 
#    0.000    0.000    0.000    0.000    0.000    0.000 
#
# Total GULP energy -100247.595536 kJ/mol
# GULP energy per Si atom -5569.310863 kJ/mol
# Density = 2.077514 g / cm^3
# Si number density = 20.822530 Si / 1000 Ang^3
#
#
#
# Elastic Constant Matrix: (Units=GPa)
#
#
# Indices 1 2 3 4 5 6 
#
# 1 125.7195 55.6777 43.2033 0.0000 16.0991 0.0000
# 2 55.6777 128.0703 26.9821 0.0000 1.9878 0.0000
# 3 43.2033 26.9821 99.5170 0.0000 1.4929 0.0000
# 4 0.0000 0.0000 0.0000 -5.0379 0.0000 -23.7499
# 5 16.0991 1.9878 1.4929 0.0000 32.5994 0.0000
# 6 0.0000 0.0000 0.0000 -23.7499 0.0000 -14.6898
#
#
#
# Elastic Compliance Matrix: (Units=1/GPa)
#
#
# Indices 1 2 3 4 5 6 
#
# 1 0.011882 -0.004255 -0.003923 0.000000 -0.005429 0.000000
# 2 -0.004255 0.009810 -0.000836 0.000000 0.001541 0.000000
# 3 -0.003923 -0.000836 0.011957 0.000000 0.001441 0.000000
# 4 0.000000 0.000000 0.000000 0.029976 0.000000 -0.048464
# 5 -0.005429 0.001541 0.001441 0.000000 0.033196 0.000000
# 6 0.000000 0.000000 0.000000 -0.048464 0.000000 0.010280
#
#
# Mechanical properties :
#
#
# Convention : Reuss Voigt Hill
#
# Bulk Modulus (GPa) = 64.01607 67.22589 65.62098
# Shear Modulus (GPa) = 38.36227 17.73724 28.04975
#
# Velocity S-wave (km/s) = 4.29691 2.92178 3.67425
# Velocity P-wave (km/s) = 7.44502 6.61344 7.04152
#
# Compressibility (1/GPa) = 0.01562108
#
# Stress axis : x y z
#
# Youngs Moduli (GPa) = 84.16127 101.93565 83.63479
#
# Poissons Ratio (x) = 0.43371 0.32812
# Poissons Ratio (y) = 0.35809 0.06990
# Poissons Ratio (z) = 0.33019 0.08520
#
# Static dielectric constant tensor:
#      x y z
#    x 1.779970 0.000000 0.018190 
#    y 0.000000 1.738430 0.000000 
#    z 0.018190 0.000000 1.936510 
# 
# From -- ./inp_files/10483.got.cif
#   From: 2010.05.17/outbox.cif.g08.bks.cpg/sg10_6_cif.got.tgz:10483.got - 2010.06.03 11:33:40.
