data_PCOD9152672
_publ_section_title
;
Structure prediction by ZEFSAII (Michael W. Deem and Ramdas Pophale) SiO2 
 PCOD9152672
Probable space group: P 2/M
;
_chemical_formula_sum "Si O2"
_cell_formula_units_Z 28
_cell_length_a 7.756425
_cell_length_b 17.829343
_cell_length_c 8.529393
_cell_angle_alpha 90.000000
_cell_angle_beta 94.285330
_cell_angle_gamma 90.000000
_cell_volume 1176.248831
_symmetry_space_group_name_H-M "P 2/M"
_symmetry_group_IT_number 10
_symmetry_cell_setting 'monoclinic'
loop_
_space_group_symop_operation_xyz
x,y,z
-x,y,-z
-x,-y,-z
x,-y,z
loop_
_atom_site_type_symbol
_atom_site_label
_atom_site_fract_x
_atom_site_fract_y
_atom_site_fract_z
Si Si1 0.091337 0.081430 0.673598
Si Si2 0.089481 0.362198 0.846612
Si Si3 0.583847 0.201691 0.675385
Si Si4 0.245574 0.651953 0.360702
Si Si5 0.759962 0.085377 0.868748
Si Si6 0.731288 0.795714 0.148994
Si Si7 0.604281 0.586471 0.312313
O O1 0.209611 0.152764 0.701718
O O2 0.000000 0.083511 0.500000
O O3 0.949543 0.085510 0.803412
O O4 0.179561 0.000000 0.693680
O O5 0.145168 0.274791 0.864576
O O6 0.268101 0.403666 0.823776
O O7 0.943457 0.374072 0.703105
O O8 0.000000 0.386222 0.000000
O O9 0.500000 0.206701 0.500000
O O10 0.742794 0.259709 0.678302
O O11 0.638310 0.118048 0.724078
O O12 0.456930 0.229685 0.805741
O O13 0.407050 0.613413 0.280803
O O14 0.302397 0.634990 0.543274
O O15 0.719835 0.000000 0.912630
O O16 0.737328 0.146011 0.005169
O O17 0.604274 0.500000 0.360481
#
# Coordination Sequence:
#
# PCOD9152672 Si02
#       7
#     4   4   4   4   4   4   4
#     4  10  21  38  60  87 121 164 222 286 342 397
#     4  12  26  42  69 105 144 186 230 284 347 417
#     4  12  23  40  66  95 134 176 233 298 351 404
#     4  11  22  46  73 102 140 181 234 288 345 413
#     4  11  25  42  63  94 134 186 235 284 350 417
#     4  12  23  41  63  93 133 180 234 280 341 419
#     4  11  25  48  76 107 138 181 232 283 350 423
#
# _framework density 23.804487999999999
#
# number of rings (size 3 to 8) (size 9 to 14) (size 15 to 20)
#    0.000    0.714    2.857    6.000    0.000    6.857 
#    0.000    0.714    0.000    0.000    0.000    0.000 
#    0.000    0.000    0.000    0.000    0.000    0.000 
#
# Total GULP energy -156657.300095 kJ/mol
# GULP energy per Si atom -5594.903575 kJ/mol
# Density = 2.375031 g / cm^3
# Si number density = 23.804488 Si / 1000 Ang^3
#
#
#
# Elastic Constant Matrix: (Units=GPa)
#
#
# Indices 1 2 3 4 5 6 
#
# 1 82.2807 9.8470 6.5278 0.0000 -17.8948 0.0000
# 2 9.8470 96.4729 25.2968 0.0000 -4.7938 0.0000
# 3 6.5278 25.2968 65.3680 0.0000 -16.4181 0.0000
# 4 0.0000 0.0000 0.0000 -4.8851 0.0000 8.9985
# 5 -17.8948 -4.7938 -16.4181 0.0000 40.3528 0.0000
# 6 0.0000 0.0000 0.0000 8.9985 0.0000 15.4189
#
#
#
# Elastic Compliance Matrix: (Units=1/GPa)
#
#
# Indices 1 2 3 4 5 6 
#
# 1 0.013588 -0.001258 0.000675 0.000000 0.006151 0.000000
# 2 -0.001258 0.011662 -0.004655 0.000000 -0.001067 0.000000
# 3 0.000675 -0.004655 0.018900 0.000000 0.007436 0.000000
# 4 0.000000 0.000000 0.000000 -0.098652 0.000000 0.057573
# 5 0.006151 -0.001067 0.007436 0.000000 0.030408 0.000000
# 6 0.000000 0.000000 0.000000 0.057573 0.000000 0.031255
#
#
# Mechanical properties :
#
#
# Convention : Reuss Voigt Hill
#
# Bulk Modulus (GPa) = 29.69779 36.38498 33.04139
# Shear Modulus (GPa) = 173.23266 23.67398 98.45332
#
# Velocity S-wave (km/s) = 8.53997 3.15702 6.43808
# Velocity P-wave (km/s) = 10.47589 5.34856 8.31719
#
# Compressibility (1/GPa) = 0.03367254
#
# Stress axis : x y z
#
# Youngs Moduli (GPa) = 73.59271 85.75064 52.91072
#
# Poissons Ratio (x) = 0.10790 -0.03571
# Poissons Ratio (y) = 0.09260 0.24631
# Poissons Ratio (z) = -0.04967 0.39919
#
# Static dielectric constant tensor:
#      x y z
#    x 1.939870 0.000000 0.004750 
#    y 0.000000 1.883700 0.000000 
#    z 0.004750 0.000000 1.942750 
# 
# From -- ./inp_files/19660.got.cif
#   From: 2010.05.17/outbox.cif.g08.bks.cpg/sg10_10_cif.got.tgz:19660.got - 2010.06.03 11:33:40.
