data_PCOD9152302
_publ_section_title
;
Structure prediction by ZEFSAII (Michael W. Deem and Ramdas Pophale) SiO2 
 PCOD9152302
Probable space group: P 2/M
;
_chemical_formula_sum "Si O2"
_cell_formula_units_Z 25
_cell_length_a 21.167593
_cell_length_b 9.706153
_cell_length_c 8.694277
_cell_angle_alpha 90.000000
_cell_angle_beta 41.621907
_cell_angle_gamma 90.000000
_cell_volume 1186.475718
_symmetry_space_group_name_H-M "P 2/M"
_symmetry_group_IT_number 10
_symmetry_cell_setting 'monoclinic'
loop_
_space_group_symop_operation_xyz
x,y,z
-x,y,-z
-x,-y,-z
x,-y,z
loop_
_atom_site_type_symbol
_atom_site_label
_atom_site_fract_x
_atom_site_fract_y
_atom_site_fract_z
Si Si1 0.726668 0.342270 0.993565
Si Si2 0.788357 0.338608 0.376324
Si Si3 0.056341 0.843043 0.060869
Si Si4 0.614521 0.656501 0.510033
Si Si5 0.436093 0.152307 0.831726
Si Si6 0.100006 0.339003 0.507741
Si Si7 0.500000 0.000000 0.000000
O O1 0.713706 0.500000 0.960768
O O2 0.835851 0.308032 0.757841
O O3 0.691437 0.340273 0.232490
O O4 0.656345 0.238975 0.036539
O O5 0.804724 0.500000 0.307729
O O6 0.677238 0.311625 0.546713
O O7 0.828128 0.320926 0.476701
O O8 0.849776 0.240939 0.154277
O O9 0.988597 0.759313 0.299532
O O10 0.074702 0.000000 0.076410
O O11 0.000000 0.847759 0.000000
O O12 0.576460 0.500000 0.588844
O O13 0.530949 0.761202 0.621727
O O14 0.432919 0.000000 0.761845
O O15 0.448119 0.116949 0.988242
O O16 0.070274 0.500000 0.559462
#
# Coordination Sequence:
#
# PCOD9152302 Si02
#       7
#     4   4   4   4   4   4   1
#     4  10  21  37  57  82 110 143 183 224 269 324
#     4   9  18  32  53  77 104 137 177 221 269 320
#     4   9  17  31  50  77 104 136 174 221 272 319
#     4  10  21  37  57  82 110 143 183 224 269 324
#     4  10  22  38  56  76 112 144 178 218 271 315
#     4   9  18  32  53  77 104 137 177 221 269 320
#     4   8  24  40  52  84 112 138 184 232 264 320
#
# _framework density 21.070805
#
# number of rings (size 3 to 8) (size 9 to 14) (size 15 to 20)
#    0.480    2.080    0.000    1.440    2.240    5.760 
#    0.000    1.600    0.000    4.800    0.000    0.000 
#    0.000    0.000    0.000    0.000    0.000    0.000 
#
# Total GULP energy -139181.240068 kJ/mol
# GULP energy per Si atom -5567.249603 kJ/mol
# Density = 2.102285 g / cm^3
# Si number density = 21.070805 Si / 1000 Ang^3
#
#
#
# Elastic Constant Matrix: (Units=GPa)
#
#
# Indices 1 2 3 4 5 6 
#
# 1 47.3555 21.0191 -12.0877 0.0000 -7.7396 0.0000
# 2 21.0191 109.8267 65.3862 0.0000 -15.3379 0.0000
# 3 -12.0877 65.3862 80.9990 0.0000 -5.9017 0.0000
# 4 0.0000 0.0000 0.0000 -16.3367 0.0000 -17.5323
# 5 -7.7396 -15.3379 -5.9017 0.0000 18.0578 0.0000
# 6 0.0000 0.0000 0.0000 -17.5323 0.0000 28.9036
#
#
#
# Elastic Compliance Matrix: (Units=1/GPa)
#
#
# Indices 1 2 3 4 5 6 
#
# 1 0.035206 -0.017780 0.020084 0.000000 0.006551 0.000000
# 2 -0.017780 0.028703 -0.025203 0.000000 0.008522 0.000000
# 3 0.020084 -0.025203 0.035603 0.000000 -0.001163 0.000000
# 4 0.000000 0.000000 0.000000 -0.037076 0.000000 -0.022490
# 5 0.006551 0.008522 -0.001163 0.000000 0.065044 0.000000
# 6 0.000000 0.000000 0.000000 -0.022490 0.000000 0.020956
#
#
# Mechanical properties :
#
#
# Convention : Reuss Voigt Hill
#
# Bulk Modulus (GPa) = 18.61685 42.97960 30.79823
# Shear Modulus (GPa) = 23.56940 17.04919 20.30930
#
# Velocity S-wave (km/s) = 3.34815 2.84762 3.10798
# Velocity P-wave (km/s) = 4.87866 5.59052 5.24668
#
# Compressibility (1/GPa) = 0.05371477
#
# Stress axis : x y z
#
# Youngs Moduli (GPa) = 28.40409 34.83944 28.08720
#
# Poissons Ratio (x) = 0.61946 -0.56412
# Poissons Ratio (y) = 0.50504 0.70788
# Poissons Ratio (z) = -0.57048 0.87806
#
# Static dielectric constant tensor:
#      x y z
#    x 1.785620 0.000000 0.042430 
#    y 0.000000 1.735380 0.000000 
#    z 0.042430 0.000000 1.761410 
# 
# From -- ./inp_files/57418.got.cif
#   From: 2010.05.17/outbox.cif.g08.bks.cpg/sg10_29_cif.got.tgz:57418.got - 2010.06.03 11:33:40.
