data_PCOD9152655
_publ_section_title
;
Structure prediction by ZEFSAII (Michael W. Deem and Ramdas Pophale) SiO2 
 PCOD9152655
Probable space group: P 2/M
;
_chemical_formula_sum "Si O2"
_cell_formula_units_Z 28
_cell_length_a 29.337956
_cell_length_b 8.864144
_cell_length_c 9.133271
_cell_angle_alpha 90.000000
_cell_angle_beta 141.085354
_cell_angle_gamma 90.000000
_cell_volume 1491.985633
_symmetry_space_group_name_H-M "P 2/M"
_symmetry_group_IT_number 10
_symmetry_cell_setting 'monoclinic'
loop_
_space_group_symop_operation_xyz
x,y,z
-x,y,-z
-x,-y,-z
x,-y,z
loop_
_atom_site_type_symbol
_atom_site_label
_atom_site_fract_x
_atom_site_fract_y
_atom_site_fract_z
Si Si1 0.004309 0.181586 0.840028
Si Si2 0.710783 0.681684 0.447106
Si Si3 0.855694 0.180767 0.300952
Si Si4 0.426715 0.180700 0.731390
Si Si5 0.281231 0.318164 0.874031
Si Si6 0.571291 0.318146 0.586671
Si Si7 0.859005 0.680787 0.985793
O O1 0.929514 0.220961 0.571417
O O2 0.013294 0.000000 0.854212
O O3 0.000000 0.223913 0.000000
O O4 0.071856 0.258586 0.929527
O O5 0.702547 0.500000 0.433504
O O6 0.642778 0.756147 0.356916
O O7 0.714828 0.724999 0.286661
O O8 0.785324 0.721818 0.715586
O O9 0.786629 0.242930 0.215734
O O10 0.851798 0.000000 0.281832
O O11 0.857565 0.249579 0.143748
O O12 0.428233 0.245085 0.571474
O O13 0.423344 0.000000 0.718160
O O14 0.500000 0.225629 0.000000
O O15 0.273085 0.500000 0.861080
O O16 0.355944 0.278193 0.142713
O O17 0.500000 0.273748 0.500000
O O18 0.569975 0.500000 0.567110
O O19 0.862266 0.500000 0.004251
#
# Coordination Sequence:
#
# PCOD9152655 Si02
#       7
#     4   4   4   4   4   4   4
#     4  10  22  40  60  83 113 150 191 233 281 339
#     4  10  22  40  61  85 114 150 190 232 281 337
#     4  11  23  38  58  84 115 152 190 230 282 340
#     4  11  24  39  57  85 118 151 189 233 280 332
#     4  10  21  38  60  86 114 145 188 238 283 332
#     4  10  21  38  61  86 112 148 191 233 282 338
#     4  11  23  38  59  87 116 148 189 235 281 332
#
# _framework density 18.766935
#
# number of rings (size 3 to 8) (size 9 to 14) (size 15 to 20)
#    0.000    1.571    0.000    4.286    0.000   11.429 
#    0.000    0.000    0.000    0.000    0.000    0.000 
#    0.000    0.000    0.000    0.000    0.000    0.000 
#
# Total GULP energy -156590.417517 kJ/mol
# GULP energy per Si atom -5592.514911 kJ/mol
# Density = 1.872422 g / cm^3
# Si number density = 18.766935 Si / 1000 Ang^3
#
#
#
# Elastic Constant Matrix: (Units=GPa)
#
#
# Indices 1 2 3 4 5 6 
#
# 1 237.2230 69.3061 150.5505 0.0000 1.0395 0.0000
# 2 69.3061 33.7867 73.8515 0.0000 2.5141 0.0000
# 3 150.5505 73.8515 230.1060 0.0000 -2.4688 0.0000
# 4 0.0000 0.0000 0.0000 29.6564 0.0000 1.7150
# 5 1.0395 2.5141 -2.4688 0.0000 45.4887 0.0000
# 6 0.0000 0.0000 0.0000 1.7150 0.0000 106.5394
#
#
#
# Elastic Compliance Matrix: (Units=1/GPa)
#
#
# Indices 1 2 3 4 5 6 
#
# 1 0.010566 -0.022320 0.000261 0.000000 0.001006 0.000000
# 2 -0.022320 0.148735 -0.033235 0.000000 -0.009514 0.000000
# 3 0.000261 -0.033235 0.014870 0.000000 0.002638 0.000000
# 4 0.000000 0.000000 0.000000 0.033751 0.000000 -0.000543
# 5 0.001006 -0.009514 0.002638 0.000000 0.022629 0.000000
# 6 0.000000 0.000000 0.000000 -0.000543 0.000000 0.009395
#
#
# Mechanical properties :
#
#
# Convention : Reuss Voigt Hill
#
# Bulk Modulus (GPa) = 15.72727 120.94799 68.33763
# Shear Modulus (GPa) = 13.45070 50.16407 31.80738
#
# Velocity S-wave (km/s) = 2.68007 5.17572 4.12134
# Velocity P-wave (km/s) = 4.23976 10.01522 7.69026
#
# Compressibility (1/GPa) = 0.06358384
#
# Stress axis : x y z
#
# Youngs Moduli (GPa) = 94.64139 6.72337 67.25093
#
# Poissons Ratio (x) = 0.15007 -0.01757
# Poissons Ratio (y) = 2.11242 2.23506
# Poissons Ratio (z) = -0.02473 0.22345
#
# Static dielectric constant tensor:
#      x y z
#    x 1.596440 0.000000 -0.003000 
#    y 0.000000 1.631890 0.000000 
#    z -0.003000 0.000000 1.629940 
# 
# From -- ./inp_files/34296.got.cif
#   From: 2010.05.17/outbox.cif.g08.bks.cpg/sg10_18_cif.got.tgz:34296.got - 2010.06.03 11:33:40.
