data_PCOD9152398
_publ_section_title
;
Structure prediction by ZEFSAII (Michael W. Deem and Ramdas Pophale) SiO2 
 PCOD9152398
Probable space group: P 2/M
;
_chemical_formula_sum "Si O2"
_cell_formula_units_Z 26
_cell_length_a 20.987617
_cell_length_b 9.432071
_cell_length_c 8.068491
_cell_angle_alpha 90.000000
_cell_angle_beta 53.926040
_cell_angle_gamma 90.000000
_cell_volume 1290.958546
_symmetry_space_group_name_H-M "P 2/M"
_symmetry_group_IT_number 10
_symmetry_cell_setting 'monoclinic'
loop_
_space_group_symop_operation_xyz
x,y,z
-x,y,-z
-x,-y,-z
x,-y,z
loop_
_atom_site_type_symbol
_atom_site_label
_atom_site_fract_x
_atom_site_fract_y
_atom_site_fract_z
Si Si1 0.143218 0.830709 0.982690
Si Si2 0.005352 0.342401 0.687356
Si Si3 0.434755 0.842714 0.739676
Si Si4 0.704716 0.670388 0.170971
Si Si5 0.338582 0.332606 0.381519
Si Si6 0.500000 0.791415 0.000000
Si Si7 0.169528 0.668630 0.602768
O O1 0.211921 0.749804 0.980498
O O2 0.155243 0.770181 0.779728
O O3 0.150358 0.000000 0.982718
O O4 0.056653 0.774665 0.161524
O O5 0.984304 0.500000 0.789594
O O6 0.000000 0.350460 0.500000
O O7 0.095480 0.313282 0.597486
O O8 0.500000 0.804788 0.500000
O O9 0.364095 0.730296 0.840023
O O10 0.473417 0.853039 0.861955
O O11 0.404143 0.000000 0.741581
O O12 0.713622 0.500000 0.144961
O O13 0.675945 0.708644 0.403493
O O14 0.344945 0.500000 0.374725
O O15 0.418594 0.280363 0.180432
O O16 0.257892 0.296632 0.407312
O O17 0.170826 0.500000 0.649982
#
# Coordination Sequence:
#
# PCOD9152398 Si02
#       7
#     4   4   4   4   4   2   4
#     4  11  22  37  61  92 123 158 202 252 313 373
#     4  10  21  37  59  86 121 163 208 256 308 367
#     4  11  24  42  62  89 128 167 208 259 315 376
#     4  10  21  41  65  90 121 162 210 256 311 374
#     4   9  19  35  58  89 122 157 207 266 314 366
#     4  12  22  38  62  96 125 172 211 256 317 382
#     4   9  19  38  60  85 119 162 208 254 304 367
#
# _framework density 20.140073999999998
#
# number of rings (size 3 to 8) (size 9 to 14) (size 15 to 20)
#    0.000    1.846    1.538    3.692    0.000    5.538 
#    0.000    2.308    0.000    0.000    0.000    0.000 
#    0.000    0.000    0.000    0.000    0.000    0.000 
#
# Total GULP energy -144883.298080 kJ/mol
# GULP energy per Si atom -5572.434542 kJ/mol
# Density = 2.009423 g / cm^3
# Si number density = 20.140074 Si / 1000 Ang^3
#
#
#
# Elastic Constant Matrix: (Units=GPa)
#
#
# Indices 1 2 3 4 5 6 
#
# 1 155.2253 67.2141 46.5783 0.0000 -21.0036 0.0000
# 2 67.2141 77.4271 34.0487 0.0000 -20.4149 0.0000
# 3 46.5783 34.0487 77.4105 0.0000 -28.1755 0.0000
# 4 0.0000 0.0000 0.0000 -55.7814 0.0000 -29.4275
# 5 -21.0036 -20.4149 -28.1755 0.0000 35.5714 0.0000
# 6 0.0000 0.0000 0.0000 -29.4275 0.0000 9.7141
#
#
#
# Elastic Compliance Matrix: (Units=1/GPa)
#
#
# Indices 1 2 3 4 5 6 
#
# 1 0.010860 -0.008238 -0.003229 0.000000 -0.000873 0.000000
# 2 -0.008238 0.022941 -0.002967 0.000000 0.005951 0.000000
# 3 -0.003229 -0.002967 0.020869 0.000000 0.012920 0.000000
# 4 0.000000 0.000000 0.000000 -0.006900 0.000000 -0.020903
# 5 -0.000873 0.005951 0.012920 0.000000 0.041247 0.000000
# 6 0.000000 0.000000 0.000000 -0.020903 0.000000 0.039622
#
#
# Mechanical properties :
#
#
# Convention : Reuss Voigt Hill
#
# Bulk Modulus (GPa) = 38.75781 67.30502 53.03142
# Shear Modulus (GPa) = 30.10107 8.71560 19.40834
#
# Velocity S-wave (km/s) = 3.87018 2.08252 3.10767
# Velocity P-wave (km/s) = 6.26554 6.26686 6.26620
#
# Compressibility (1/GPa) = 0.02580125
#
# Stress axis : x y z
#
# Youngs Moduli (GPa) = 92.08033 43.59067 47.91823
#
# Poissons Ratio (x) = 0.35909 0.15472
# Poissons Ratio (y) = 0.75854 0.14220
# Poissons Ratio (z) = 0.29732 0.12936
#
# Static dielectric constant tensor:
#      x y z
#    x 1.750200 0.000000 0.000580 
#    y 0.000000 1.701420 0.000000 
#    z 0.000580 0.000000 2.007210 
# 
# From -- ./inp_files/34197.got.cif
#   From: 2010.05.17/outbox.cif.g08.bks.cpg/sg10_18_cif.got.tgz:34197.got - 2010.06.03 11:33:40.
