data_PCOD9152502
_publ_section_title
;
Structure prediction by ZEFSAII (Michael W. Deem and Ramdas Pophale) SiO2 
 PCOD9152502
Probable space group: P 2/M
;
_chemical_formula_sum "Si O2"
_cell_formula_units_Z 18
_cell_length_a 10.284925
_cell_length_b 16.795943
_cell_length_c 6.184049
_cell_angle_alpha 90.000000
_cell_angle_beta 109.134740
_cell_angle_gamma 90.000000
_cell_volume 1009.242426
_symmetry_space_group_name_H-M "P 2/M"
_symmetry_group_IT_number 10
_symmetry_cell_setting 'monoclinic'
loop_
_space_group_symop_operation_xyz
x,y,z
-x,y,-z
-x,-y,-z
x,-y,z
loop_
_atom_site_type_symbol
_atom_site_label
_atom_site_fract_x
_atom_site_fract_y
_atom_site_fract_z
Si Si1 0.354527 0.911661 0.543010
Si Si2 0.345569 0.238906 0.852897
Si Si3 0.845723 0.819074 0.859793
Si Si4 0.144509 0.330828 0.452359
Si Si5 0.927928 0.500000 0.713409
O O1 0.500000 0.911690 0.500000
O O2 0.358807 0.840178 0.714482
O O3 0.235523 0.887820 0.310370
O O4 0.332201 0.000000 0.623690
O O5 0.267997 0.308823 0.681420
O O6 0.500000 0.262678 0.000000
O O7 0.247781 0.210988 0.993980
O O8 0.859526 0.741368 0.717323
O O9 0.000000 0.844638 0.000000
O O10 0.153042 0.416708 0.343916
O O11 0.000000 0.328246 0.500000
O O12 0.000000 0.500000 0.500000
O O13 0.000000 0.500000 0.000000
#
# Coordination Sequence:
#
# PCOD9152502 Si02
#       5
#     4   4   4   4   2
#     4  10  22  38  57  86 118 156 209 257 310 379
#     4  11  22  38  60  88 119 163 205 251 314 376
#     4  11  21  37  61  85 119 156 202 255 316 370
#     4  10  21  37  62  92 121 158 206 258 304 374
#     4  10  22  38  65  99 131 167 212 261 312 375
#
# _framework density 17.835160999999999
#
# number of rings (size 3 to 8) (size 9 to 14) (size 15 to 20)
#    0.000    1.556    4.444    0.667    3.111    1.778 
#    0.000    1.667    0.000    1.333    0.000    0.000 
#    0.000    0.000    0.000    0.000    0.000    0.000 
#
# Total GULP energy -100264.904696 kJ/mol
# GULP energy per Si atom -5570.272483 kJ/mol
# Density = 1.779457 g / cm^3
# Si number density = 17.835161 Si / 1000 Ang^3
#
#
#
# Elastic Constant Matrix: (Units=GPa)
#
#
# Indices 1 2 3 4 5 6 
#
# 1 121.2820 32.6927 52.6110 0.0000 30.1259 0.0000
# 2 32.6927 114.4141 34.3621 0.0000 19.3864 0.0000
# 3 52.6110 34.3621 88.2592 0.0000 23.9096 0.0000
# 4 0.0000 0.0000 0.0000 23.4463 0.0000 16.5237
# 5 30.1259 19.3864 23.9096 0.0000 45.1804 0.0000
# 6 0.0000 0.0000 0.0000 16.5237 0.0000 24.0448
#
#
#
# Elastic Compliance Matrix: (Units=1/GPa)
#
#
# Indices 1 2 3 4 5 6 
#
# 1 0.012085 -0.000992 -0.005545 0.000000 -0.004698 0.000000
# 2 -0.000992 0.010243 -0.002784 0.000000 -0.002260 0.000000
# 3 -0.005545 -0.002784 0.016803 0.000000 -0.004000 0.000000
# 4 0.000000 0.000000 0.000000 0.082705 0.000000 -0.056835
# 5 -0.004698 -0.002260 -0.004000 0.000000 0.028353 0.000000
# 6 0.000000 0.000000 0.000000 -0.056835 0.000000 0.080646
#
#
# Mechanical properties :
#
#
# Convention : Reuss Voigt Hill
#
# Bulk Modulus (GPa) = 48.80680 62.58746 55.69713
# Shear Modulus (GPa) = 19.50783 32.15360 25.83072
#
# Velocity S-wave (km/s) = 3.31083 4.25057 3.80979
# Velocity P-wave (km/s) = 6.48385 7.69793 7.11683
#
# Compressibility (1/GPa) = 0.02048895
#
# Stress axis : x y z
#
# Youngs Moduli (GPa) = 82.74769 97.62980 59.51213
#
# Poissons Ratio (x) = 0.09683 0.32999
# Poissons Ratio (y) = 0.08207 0.16570
# Poissons Ratio (z) = 0.45883 0.27183
#
# Static dielectric constant tensor:
#      x y z
#    x 1.552000 0.000000 0.008880 
#    y 0.000000 1.587780 0.000000 
#    z 0.008880 0.000000 1.670590 
# 
# From -- ./inp_files/3716.got.cif
#   From: 2010.05.17/outbox.cif.g08.bks.cpg/sg10_2_cif.got.tgz:3716.got - 2010.06.03 11:33:40.
