data_PCOD9152095
_publ_section_title
;
Structure prediction by ZEFSAII (Michael W. Deem and Ramdas Pophale) SiO2 
 PCOD9152095
Probable space group: P 2/M
;
_chemical_formula_sum "Si O2"
_cell_formula_units_Z 20
_cell_length_a 9.311794
_cell_length_b 21.775917
_cell_length_c 5.134440
_cell_angle_alpha 90.000000
_cell_angle_beta 102.163134
_cell_angle_gamma 90.000000
_cell_volume 1017.753525
_symmetry_space_group_name_H-M "P 2/M"
_symmetry_group_IT_number 10
_symmetry_cell_setting 'monoclinic'
loop_
_space_group_symop_operation_xyz
x,y,z
-x,y,-z
-x,-y,-z
x,-y,z
loop_
_atom_site_type_symbol
_atom_site_label
_atom_site_fract_x
_atom_site_fract_y
_atom_site_fract_z
Si Si1 0.102149 0.500000 0.786738
Si Si2 0.827265 0.887403 0.455546
Si Si3 0.400665 0.699675 0.221417
Si Si4 0.350476 0.434188 0.107324
Si Si5 0.606207 0.000000 0.291976
Si Si6 0.170678 0.805803 0.042028
O O1 0.000000 0.500000 0.500000
O O2 0.213042 0.442398 0.859074
O O3 0.000000 0.500000 0.000000
O O4 0.714469 0.941492 0.349062
O O5 0.802008 0.858518 0.730768
O O6 0.000000 0.906653 0.500000
O O7 0.804469 0.834402 0.232446
O O8 0.500000 0.719474 0.500000
O O9 0.345284 0.629918 0.252269
O O10 0.271124 0.747501 0.131277
O O11 0.500000 0.698480 0.000000
O O12 0.346058 0.500000 0.257401
O O13 0.500000 0.434374 0.000000
O O14 0.500000 0.000000 0.500000
O O15 0.500000 0.000000 0.000000
O O16 0.000000 0.788750 0.000000
#
# Coordination Sequence:
#
# PCOD9152095 Si02
#       6
#     2   4   4   4   2   4
#     4  10  21  36  57  84 110 142 186 240 291 334
#     4  10  22  42  63  85 119 166 198 233 290 362
#     4  11  23  38  60  88 115 155 199 242 297 354
#     4   8  19  41  59  82 117 157 192 238 293 366
#     4  12  25  38  61  96 126 152 196 252 297 330
#     4  10  22  40  62  86 120 157 200 244 293 344
#
# _framework density 19.651122000000001
#
# number of rings (size 3 to 8) (size 9 to 14) (size 15 to 20)
#    0.600    1.400    0.000    2.700    0.000    9.200 
#    0.000    7.000    0.000    0.000    0.000    0.000 
#    0.000    0.000    0.000    0.000    0.000    0.000 
#
# Total GULP energy -111601.995486 kJ/mol
# GULP energy per Si atom -5580.099774 kJ/mol
# Density = 1.960639 g / cm^3
# Si number density = 19.651122 Si / 1000 Ang^3
#
#
#
# Elastic Constant Matrix: (Units=GPa)
#
#
# Indices 1 2 3 4 5 6 
#
# 1 92.8316 59.5767 45.7891 0.0000 29.3926 0.0000
# 2 59.5767 103.7147 16.2364 0.0000 33.2608 0.0000
# 3 45.7891 16.2364 118.2186 0.0000 21.9277 0.0000
# 4 0.0000 0.0000 0.0000 23.6856 0.0000 18.4771
# 5 29.3926 33.2608 21.9277 0.0000 37.9494 0.0000
# 6 0.0000 0.0000 0.0000 18.4771 0.0000 80.4568
#
#
#
# Elastic Compliance Matrix: (Units=1/GPa)
#
#
# Indices 1 2 3 4 5 6 
#
# 1 0.021690 -0.010085 -0.006204 0.000000 -0.004375 0.000000
# 2 -0.010085 0.018116 0.003264 0.000000 -0.009953 0.000000
# 3 -0.006204 0.003264 0.011260 0.000000 -0.004561 0.000000
# 4 0.000000 0.000000 0.000000 0.051434 0.000000 -0.011812
# 5 -0.004375 -0.009953 -0.004561 0.000000 0.041098 0.000000
# 6 0.000000 0.000000 0.000000 -0.011812 0.000000 0.015142
#
#
# Mechanical properties :
#
#
# Convention : Reuss Voigt Hill
#
# Bulk Modulus (GPa) = 39.97594 61.99661 50.98627
# Shear Modulus (GPa) = 25.88943 41.29586 33.59264
#
# Velocity S-wave (km/s) = 3.63361 4.58913 4.13904
# Velocity P-wave (km/s) = 6.16370 7.72640 6.98886
#
# Compressibility (1/GPa) = 0.02501505
#
# Stress axis : x y z
#
# Youngs Moduli (GPa) = 46.10386 55.20090 88.81133
#
# Poissons Ratio (x) = 0.55670 0.55103
# Poissons Ratio (y) = 0.46496 -0.28989
# Poissons Ratio (z) = 0.28605 -0.18018
#
# Static dielectric constant tensor:
#      x y z
#    x 1.668570 0.000000 -0.000960 
#    y 0.000000 1.694620 0.000000 
#    z -0.000960 0.000000 1.679760 
# 
# From -- ./inp_files/4842.got.cif
#   From: 2010.05.17/outbox.cif.g08.bks.cpg/sg10_3_cif.got.tgz:4842.got - 2010.06.03 11:33:40.
