data_PCOD9152964
_publ_section_title
;
Structure prediction by ZEFSAII (Michael W. Deem and Ramdas Pophale) SiO2 
 PCOD9152964
Probable space group: P 2/M
;
_chemical_formula_sum "Si O2"
_cell_formula_units_Z 28
_cell_length_a 27.654666
_cell_length_b 8.608258
_cell_length_c 9.379996
_cell_angle_alpha 90.000000
_cell_angle_beta 38.187409
_cell_angle_gamma 90.000000
_cell_volume 1380.512727
_symmetry_space_group_name_H-M "P 2/M"
_symmetry_group_IT_number 10
_symmetry_cell_setting 'monoclinic'
loop_
_space_group_symop_operation_xyz
x,y,z
-x,y,-z
-x,-y,-z
x,-y,z
loop_
_atom_site_type_symbol
_atom_site_label
_atom_site_fract_x
_atom_site_fract_y
_atom_site_fract_z
Si Si1 0.623513 0.315120 0.562557
Si Si2 0.071177 0.184762 0.239769
Si Si3 0.517630 0.187542 0.296256
Si Si4 0.201185 0.686526 0.346632
Si Si5 0.240115 0.187269 0.953649
Si Si6 0.668557 0.185960 0.767813
Si Si7 0.021073 0.679031 0.786501
O O1 0.621527 0.500000 0.579345
O O2 0.544412 0.255273 0.671712
O O3 0.692223 0.261213 0.297252
O O4 0.639700 0.243911 0.680834
O O5 0.000000 0.248954 0.500000
O O6 0.043652 0.223714 0.146122
O O7 0.073921 0.000000 0.254641
O O8 0.156134 0.242170 0.087132
O O9 0.500000 0.238732 0.500000
O O10 0.510778 0.000000 0.310348
O O11 0.603339 0.228022 0.037991
O O12 0.202940 0.500000 0.334900
O O13 0.249461 0.741318 0.372401
O O14 0.110003 0.736233 0.558833
O O15 0.241294 0.760456 0.114715
O O16 0.246096 0.000000 0.931850
O O17 0.675688 0.000000 0.747435
O O18 0.017623 0.500000 0.744040
O O19 0.000000 0.680626 0.000000
#
# Coordination Sequence:
#
# PCOD9152964 Si02
#       7
#     4   4   4   4   4   4   4
#     4  12  26  42  64  95 130 165 206 259 312 368
#     4  10  21  39  62  90 119 157 210 263 309 364
#     4  10  22  43  70  97 126 163 207 252 305 370
#     4  11  23  40  62  92 127 166 211 259 312 370
#     4  11  23  41  64  90 124 164 211 262 315 375
#     4  11  24  42  66  94 129 170 208 253 308 368
#     4  10  23  40  59  87 125 166 205 253 314 375
#
# _framework density 20.282319999999999
#
# number of rings (size 3 to 8) (size 9 to 14) (size 15 to 20)
#    0.000    1.286    1.429    3.857    2.000    6.571 
#    0.000    0.000    0.000    0.000    0.000    0.000 
#    0.000    0.000    0.000    0.000    0.000    0.000 
#
# Total GULP energy -156539.270569 kJ/mol
# GULP energy per Si atom -5590.688235 kJ/mol
# Density = 2.023616 g / cm^3
# Si number density = 20.282320 Si / 1000 Ang^3
#
#
#
# Elastic Constant Matrix: (Units=GPa)
#
#
# Indices 1 2 3 4 5 6 
#
# 1 107.5372 1.1887 4.9915 0.0000 -6.9638 0.0000
# 2 1.1887 10.4107 6.2698 0.0000 -4.6265 0.0000
# 3 4.9915 6.2698 56.3851 0.0000 0.6859 0.0000
# 4 0.0000 0.0000 0.0000 21.7293 0.0000 2.3113
# 5 -6.9638 -4.6265 0.6859 0.0000 37.4074 0.0000
# 6 0.0000 0.0000 0.0000 2.3113 0.0000 62.2387
#
#
#
# Elastic Compliance Matrix: (Units=1/GPa)
#
#
# Indices 1 2 3 4 5 6 
#
# 1 0.009455 0.000259 -0.000888 0.000000 0.001808 0.000000
# 2 0.000259 0.109630 -0.012382 0.000000 0.013834 0.000000
# 3 -0.000888 -0.012382 0.019215 0.000000 -0.002049 0.000000
# 4 0.000000 0.000000 0.000000 0.046203 0.000000 -0.001716
# 5 0.001808 0.013834 -0.002049 0.000000 0.028818 0.000000
# 6 0.000000 0.000000 0.000000 -0.001716 0.000000 0.016131
#
#
# Mechanical properties :
#
#
# Convention : Reuss Voigt Hill
#
# Bulk Modulus (GPa) = 8.90636 22.13699 15.52167
# Shear Modulus (GPa) = 17.07066 35.06728 26.06897
#
# Velocity S-wave (km/s) = 2.90427 4.16259 3.58900
# Velocity P-wave (km/s) = 3.95564 5.83446 4.98438
#
# Compressibility (1/GPa) = 0.11227929
#
# Stress axis : x y z
#
# Youngs Moduli (GPa) = 105.76907 9.12155 52.04137
#
# Poissons Ratio (x) = -0.00236 0.04620
# Poissons Ratio (y) = -0.02737 0.64436
# Poissons Ratio (z) = 0.09390 0.11294
#
# Static dielectric constant tensor:
#      x y z
#    x 1.779050 0.000000 0.019470 
#    y 0.000000 1.695420 0.000000 
#    z 0.019470 0.000000 1.721500 
# 
# From -- ./inp_files/37016.got.cif
#   From: 2010.05.17/outbox.cif.g08.bks.cpg/sg10_19_cif.got.tgz:37016.got - 2010.06.03 11:33:40.
