data_PCOD9152030
_publ_section_title
;
Structure prediction by ZEFSAII (Michael W. Deem and Ramdas Pophale) SiO2 
 PCOD9152030
Probable space group: P 2/M
;
_chemical_formula_sum "Si O2"
_cell_formula_units_Z 28
_cell_length_a 9.266085
_cell_length_b 8.961783
_cell_length_c 29.595269
_cell_angle_alpha 90.000000
_cell_angle_beta 38.436055
_cell_angle_gamma 90.000000
_cell_volume 1527.750797
_symmetry_space_group_name_H-M "P 2/M"
_symmetry_group_IT_number 10
_symmetry_cell_setting 'monoclinic'
loop_
_space_group_symop_operation_xyz
x,y,z
-x,y,-z
-x,-y,-z
x,-y,z
loop_
_atom_site_type_symbol
_atom_site_label
_atom_site_fract_x
_atom_site_fract_y
_atom_site_fract_z
Si Si1 0.822596 0.678670 0.638821
Si Si2 0.360961 0.177642 0.224700
Si Si3 0.326815 0.821271 0.501218
Si Si4 0.509589 0.677692 0.364313
Si Si5 0.998237 0.823625 0.769277
Si Si6 0.732547 0.677557 0.072008
Si Si7 0.563735 0.176406 0.932568
O O1 0.841059 0.500000 0.637696
O O2 0.706670 0.744030 0.712289
O O3 0.664862 0.714228 0.633895
O O4 0.076443 0.748987 0.570895
O O5 0.160677 0.206051 0.236064
O O6 0.598835 0.240551 0.145400
O O7 0.376200 0.000000 0.226975
O O8 0.500000 0.784590 0.500000
O O9 0.430505 0.759876 0.429176
O O10 0.304505 0.000000 0.504612
O O11 0.502492 0.500000 0.373271
O O12 0.768845 0.729392 0.288588
O O13 0.829774 0.793027 0.853162
O O14 0.056066 0.000000 0.754839
O O15 0.718887 0.500000 0.082120
O O16 0.596103 0.725770 0.060535
O O17 0.000000 0.720666 0.000000
O O18 0.525778 0.000000 0.931283
O O19 0.500000 0.201046 0.000000
#
# Coordination Sequence:
#
# PCOD9152030 Si02
#       7
#     4   4   4   4   4   4   4
#     4  11  24  40  58  85 119 149 183 228 277 331
#     4  10  21  38  60  84 110 146 192 234 277 333
#     4  11  24  41  62  87 113 145 188 232 274 327
#     4  11  24  39  57  84 116 149 185 227 277 332
#     4   9  19  36  57  82 111 144 187 234 277 330
#     4  10  21  36  55  82 115 149 187 233 284 337
#     4   9  19  36  57  82 112 147 190 237 282 333
#
# _framework density 18.327596
#
# number of rings (size 3 to 8) (size 9 to 14) (size 15 to 20)
#    0.000    1.857    0.000    4.286    0.000   14.000 
#    0.000    2.857    0.000    0.000    0.000    0.000 
#    0.000    0.000    0.000    0.000    0.000    0.000 
#
# Total GULP energy -156451.036364 kJ/mol
# GULP energy per Si atom -5587.537013 kJ/mol
# Density = 1.828588 g / cm^3
# Si number density = 18.327596 Si / 1000 Ang^3
#
#
#
# Elastic Constant Matrix: (Units=GPa)
#
#
# Indices 1 2 3 4 5 6 
#
# 1 107.3661 71.6082 94.2847 0.0000 -5.2933 0.0000
# 2 71.6082 68.0099 70.7888 0.0000 -4.0644 0.0000
# 3 94.2847 70.7888 164.9090 0.0000 -2.2083 0.0000
# 4 0.0000 0.0000 0.0000 39.0164 0.0000 1.1873
# 5 -5.2933 -4.0644 -2.2083 0.0000 36.0746 0.0000
# 6 0.0000 0.0000 0.0000 1.1873 0.0000 38.8829
#
#
#
# Elastic Compliance Matrix: (Units=1/GPa)
#
#
# Indices 1 2 3 4 5 6 
#
# 1 0.036187 -0.029825 -0.007867 0.000000 0.001468 0.000000
# 2 -0.029825 0.051353 -0.004977 0.000000 0.001105 0.000000
# 3 -0.007867 -0.004977 0.012686 0.000000 -0.000939 0.000000
# 4 0.000000 0.000000 0.000000 0.025654 0.000000 -0.000783
# 5 0.001468 0.001105 -0.000939 0.000000 0.028003 0.000000
# 6 0.000000 0.000000 0.000000 -0.000783 0.000000 0.025742
#
#
# Mechanical properties :
#
#
# Convention : Reuss Voigt Hill
#
# Bulk Modulus (GPa) = 67.17036 90.40535 78.78785
# Shear Modulus (GPa) = 18.52366 29.70167 24.11266
#
# Velocity S-wave (km/s) = 3.18260 4.03003 3.63112
# Velocity P-wave (km/s) = 7.08764 8.43145 7.78858
#
# Compressibility (1/GPa) = 0.01488752
#
# Stress axis : x y z
#
# Youngs Moduli (GPa) = 27.63443 19.47295 78.82995
#
# Poissons Ratio (x) = 0.58079 0.62015
# Poissons Ratio (y) = 0.82420 0.39233
# Poissons Ratio (z) = 0.21740 0.09691
#
# Static dielectric constant tensor:
#      x y z
#    x 1.604750 0.000000 0.001220 
#    y 0.000000 1.612280 0.000000 
#    z 0.001220 0.000000 1.613370 
# 
# From -- ./inp_files/36776.got.cif
#   From: 2010.05.17/outbox.cif.g08.bks.cpg/sg10_19_cif.got.tgz:36776.got - 2010.06.03 11:33:40.
