data_PCOD9152180
_publ_section_title
;
Structure prediction by ZEFSAII (Michael W. Deem and Ramdas Pophale) SiO2 
 PCOD9152180
Probable space group: P 2/M
;
_chemical_formula_sum "Si O2"
_cell_formula_units_Z 24
_cell_length_a 14.780135
_cell_length_b 16.148597
_cell_length_c 13.321203
_cell_angle_alpha 90.000000
_cell_angle_beta 157.284879
_cell_angle_gamma 90.000000
_cell_volume 1227.756148
_symmetry_space_group_name_H-M "P 2/M"
_symmetry_group_IT_number 10
_symmetry_cell_setting 'monoclinic'
loop_
_space_group_symop_operation_xyz
x,y,z
-x,y,-z
-x,-y,-z
x,-y,z
loop_
_atom_site_type_symbol
_atom_site_label
_atom_site_fract_x
_atom_site_fract_y
_atom_site_fract_z
Si Si1 0.597351 0.139336 0.499008
Si Si2 0.516562 0.406805 0.638551
Si Si3 0.257601 0.820624 0.813661
Si Si4 0.803020 0.000000 0.580850
Si Si5 0.130624 0.700524 0.232950
Si Si6 0.285527 0.000000 0.943046
Si Si7 0.752274 0.752623 0.979802
O O1 0.500000 0.098194 0.500000
O O2 0.774003 0.080043 0.621865
O O3 0.710132 0.226007 0.648868
O O4 0.391362 0.170934 0.214855
O O5 0.500000 0.399944 0.500000
O O6 0.584640 0.500000 0.733252
O O7 0.257234 0.379638 0.406211
O O8 0.664023 0.334251 0.841409
O O9 0.264500 0.916313 0.856916
O O10 0.000000 0.807894 0.500000
O O11 0.500000 0.806427 0.000000
O O12 0.265464 0.762908 0.920467
O O13 0.051732 0.000000 0.776566
O O14 0.552703 0.000000 0.262554
O O15 0.000000 0.671002 0.000000
O O16 0.011290 0.749858 0.201284
#
# Coordination Sequence:
#
# PCOD9152180 Si02
#       7
#     4   4   4   2   4   2   4
#     4  11  22  37  56  88 127 173 211 254 311 387
#     4  10  21  36  60  99 136 167 206 250 313 393
#     4  12  27  45  70  96 123 168 224 286 331 378
#     4  12  25  39  64  92 131 173 210 263 319 396
#     4  11  19  35  61  90 124 174 207 253 311 385
#     4  12  24  47  67  92 125 167 218 284 341 369
#     4  11  22  40  63  87 129 166 213 263 326 379
#
# _framework density 19.547855999999999
#
# number of rings (size 3 to 8) (size 9 to 14) (size 15 to 20)
#    0.000    0.833    5.000    3.750    4.667    1.000 
#    0.000    1.250    0.000    1.000    0.000    0.000 
#    0.000    0.000    0.000    0.000    0.000    0.000 
#
# Total GULP energy -133685.675991 kJ/mol
# GULP energy per Si atom -5570.236500 kJ/mol
# Density = 1.950336 g / cm^3
# Si number density = 19.547856 Si / 1000 Ang^3
#
#
#
# Elastic Constant Matrix: (Units=GPa)
#
#
# Indices 1 2 3 4 5 6 
#
# 1 132.1273 40.7108 34.4984 0.0000 16.1569 0.0000
# 2 40.7108 109.5855 19.9126 0.0000 -2.6815 0.0000
# 3 34.4984 19.9126 60.7267 0.0000 1.8574 0.0000
# 4 0.0000 0.0000 0.0000 -8.1465 0.0000 -1.3389
# 5 16.1569 -2.6815 1.8574 0.0000 35.6168 0.0000
# 6 0.0000 0.0000 0.0000 -1.3389 0.0000 7.6739
#
#
#
# Elastic Compliance Matrix: (Units=1/GPa)
#
#
# Indices 1 2 3 4 5 6 
#
# 1 0.010321 -0.003093 -0.004706 0.000000 -0.004670 0.000000
# 2 -0.003093 0.010659 -0.001808 0.000000 0.002300 0.000000
# 3 -0.004706 -0.001808 0.019704 0.000000 0.000971 0.000000
# 4 0.000000 0.000000 0.000000 -0.119330 0.000000 -0.020819
# 5 -0.004670 0.002300 0.000971 0.000000 0.030317 0.000000
# 6 0.000000 0.000000 0.000000 -0.020819 0.000000 0.126679
#
#
# Mechanical properties :
#
#
# Convention : Reuss Voigt Hill
#
# Bulk Modulus (GPa) = 46.57926 54.74256 50.66091
# Shear Modulus (GPa) = 47.74461 20.85001 34.29731
#
# Velocity S-wave (km/s) = 4.94747 3.26945 4.19326
# Velocity P-wave (km/s) = 7.51776 6.50520 7.02973
#
# Compressibility (1/GPa) = 0.02146878
#
# Stress axis : x y z
#
# Youngs Moduli (GPa) = 96.88557 93.81416 50.75096
#
# Poissons Ratio (x) = 0.29021 0.23885
# Poissons Ratio (y) = 0.29971 0.09177
# Poissons Ratio (z) = 0.45598 0.16964
#
# Static dielectric constant tensor:
#      x y z
#    x 1.741210 0.000000 0.074950 
#    y 0.000000 1.655120 0.000000 
#    z 0.074950 0.000000 1.876560 
# 
# From -- ./inp_files/47880.got.cif
#   From: 2010.05.17/outbox.cif.g08.bks.cpg/sg10_24_cif.got.tgz:47880.got - 2010.06.03 11:33:40.
