data_PCOD9152343
_publ_section_title
;
Structure prediction by ZEFSAII (Michael W. Deem and Ramdas Pophale) SiO2 
 PCOD9152343
Probable space group: P 2/M
;
_chemical_formula_sum "Si O2"
_cell_formula_units_Z 28
_cell_length_a 29.535107
_cell_length_b 8.853764
_cell_length_c 9.244863
_cell_angle_alpha 90.000000
_cell_angle_beta 39.065676
_cell_angle_gamma 90.000000
_cell_volume 1523.536295
_symmetry_space_group_name_H-M "P 2/M"
_symmetry_group_IT_number 10
_symmetry_cell_setting 'monoclinic'
loop_
_space_group_symop_operation_xyz
x,y,z
-x,y,-z
-x,-y,-z
x,-y,z
loop_
_atom_site_type_symbol
_atom_site_label
_atom_site_fract_x
_atom_site_fract_y
_atom_site_fract_z
Si Si1 0.292091 0.318193 0.932508
Si Si2 0.155008 0.179302 0.770533
Si Si3 0.427597 0.182183 0.761709
Si Si4 0.006977 0.673757 0.158157
Si Si5 0.289258 0.681313 0.603703
Si Si6 0.150870 0.317146 0.460251
Si Si7 0.426089 0.182165 0.102625
O O1 0.297600 0.500000 0.925818
O O2 0.357850 0.248002 0.857104
O O3 0.294455 0.273309 0.758927
O O4 0.216482 0.275971 0.193902
O O5 0.217808 0.251512 0.709520
O O6 0.161287 0.243596 0.591589
O O7 0.161610 0.000000 0.751433
O O8 0.076271 0.228239 0.022445
O O9 0.500000 0.231349 0.500000
O O10 0.424518 0.000000 0.762189
O O11 0.429806 0.225162 0.924805
O O12 0.019412 0.500000 0.171877
O O13 0.928087 0.725116 0.404179
O O14 0.000000 0.674514 0.000000
O O15 0.286663 0.500000 0.601869
O O16 0.358359 0.741935 0.347003
O O17 0.149595 0.500000 0.481689
O O18 0.418188 0.000000 0.130621
O O19 0.500000 0.222762 0.000000
#
# Coordination Sequence:
#
# PCOD9152343 Si02
#       7
#     4   4   4   4   4   4   4
#     4  10  22  38  56  79 106 140 182 225 267 313
#     4  11  21  33  53  81 110 141 179 222 270 322
#     4  10  21  37  58  83 110 142 177 215 264 318
#     4   8  15  30  53  78 105 139 177 219 268 319
#     4  11  23  38  55  77 108 145 184 223 266 317
#     4   9  18  35  57  80 107 139 178 224 271 320
#     4  10  21  38  60  85 112 142 177 217 264 319
#
# _framework density 18.378294
#
# number of rings (size 3 to 8) (size 9 to 14) (size 15 to 20)
#    0.000    2.143    0.000    4.286    0.000    8.857 
#    0.000    0.714    0.000    4.286    0.000    0.000 
#    0.000    0.000    0.000    0.000    0.000    0.000 
#
# Total GULP energy -156342.541564 kJ/mol
# GULP energy per Si atom -5583.662199 kJ/mol
# Density = 1.833646 g / cm^3
# Si number density = 18.378294 Si / 1000 Ang^3
#
#
#
# Elastic Constant Matrix: (Units=GPa)
#
#
# Indices 1 2 3 4 5 6 
#
# 1 160.3439 55.5503 108.0693 0.0000 -13.2241 0.0000
# 2 55.5503 39.6214 49.5655 0.0000 -5.2668 0.0000
# 3 108.0693 49.5655 189.2087 0.0000 -16.0620 0.0000
# 4 0.0000 0.0000 0.0000 38.3926 0.0000 -12.4795
# 5 -13.2241 -5.2668 -16.0620 0.0000 32.1198 0.0000
# 6 0.0000 0.0000 0.0000 -12.4795 0.0000 29.9009
#
#
#
# Elastic Compliance Matrix: (Units=1/GPa)
#
#
# Indices 1 2 3 4 5 6 
#
# 1 0.014189 -0.014456 -0.004201 0.000000 0.001371 0.000000
# 2 -0.014456 0.052321 -0.005458 0.000000 -0.000102 0.000000
# 3 -0.004201 -0.005458 0.009286 0.000000 0.002019 0.000000
# 4 0.000000 0.000000 0.000000 0.030135 0.000000 0.012577
# 5 0.001371 -0.000102 0.002019 0.000000 0.032691 0.000000
# 6 0.000000 0.000000 0.000000 0.012577 0.000000 0.038693
#
#
# Mechanical properties :
#
#
# Convention : Reuss Voigt Hill
#
# Bulk Modulus (GPa) = 36.27681 90.61603 63.44642
# Shear Modulus (GPa) = 21.30070 31.81525 26.55798
#
# Velocity S-wave (km/s) = 3.40812 4.16520 3.80554
# Velocity P-wave (km/s) = 5.93876 8.51733 7.34213
#
# Compressibility (1/GPa) = 0.02756582
#
# Stress axis : x y z
#
# Youngs Moduli (GPa) = 70.47489 19.11276 107.69043
#
# Poissons Ratio (x) = 0.27630 0.45243
# Poissons Ratio (y) = 1.01880 0.58776
# Poissons Ratio (z) = 0.29608 0.10432
#
# Static dielectric constant tensor:
#      x y z
#    x 1.601420 0.000000 -0.002310 
#    y 0.000000 1.619190 0.000000 
#    z -0.002310 0.000000 1.635250 
# 
# From -- ./inp_files/36905.got.cif
#   From: 2010.05.17/outbox.cif.g08.bks.cpg/sg10_19_cif.got.tgz:36905.got - 2010.06.03 11:33:40.
