data_PCOD9152786
_publ_section_title
;
Structure prediction by ZEFSAII (Michael W. Deem and Ramdas Pophale) SiO2 
 PCOD9152786
Probable space group: P 2/M
;
_chemical_formula_sum "Si O2"
_cell_formula_units_Z 16
_cell_length_a 5.458875
_cell_length_b 18.383851
_cell_length_c 8.467925
_cell_angle_alpha 90.000000
_cell_angle_beta 59.405449
_cell_angle_gamma 90.000000
_cell_volume 731.499572
_symmetry_space_group_name_H-M "P 2/M"
_symmetry_group_IT_number 10
_symmetry_cell_setting 'monoclinic'
loop_
_space_group_symop_operation_xyz
x,y,z
-x,y,-z
-x,-y,-z
x,-y,z
loop_
_atom_site_type_symbol
_atom_site_label
_atom_site_fract_x
_atom_site_fract_y
_atom_site_fract_z
Si Si1 0.156287 0.000000 0.613994
Si Si2 0.053917 0.711999 0.171124
Si Si3 0.277024 0.581744 0.294326
Si Si4 0.500000 0.335747 0.500000
Si Si5 0.826568 0.127620 0.893197
O O1 0.500000 0.000000 0.500000
O O2 0.000000 0.000000 0.500000
O O3 0.029574 0.927830 0.735824
O O4 0.220401 0.641075 0.178819
O O5 0.197210 0.789418 0.160101
O O6 0.773043 0.712502 0.374102
O O7 0.000000 0.706227 0.000000
O O8 0.335103 0.500000 0.221159
O O9 0.501805 0.612987 0.345060
O O10 0.000000 0.579352 0.500000
O O11 0.500000 0.099253 0.000000
O O12 0.000000 0.134434 0.000000
#
# Coordination Sequence:
#
# PCOD9152786 Si02
#       5
#     2   4   4   2   4
#     4  12  26  44  74 112 142 174 230 282 338 412
#     4  10  24  39  65  94 132 175 233 278 349 410
#     4   9  19  37  60  90 128 173 226 286 350 408
#     4  10  21  38  62  89 128 176 226 291 346 410
#     4  11  25  46  72  97 143 187 226 277 346 416
#
# _framework density 21.872879000000001
#
# number of rings (size 3 to 8) (size 9 to 14) (size 15 to 20)
#    0.000    1.750    0.000    2.625    8.750    4.500 
#    0.000    1.250    0.000    0.000    0.000    0.000 
#    0.000    0.000    0.000    0.000    0.000    0.000 
#
# Total GULP energy -89242.169662 kJ/mol
# GULP energy per Si atom -5577.635604 kJ/mol
# Density = 2.182309 g / cm^3
# Si number density = 21.872879 Si / 1000 Ang^3
#
#
#
# Elastic Constant Matrix: (Units=GPa)
#
#
# Indices 1 2 3 4 5 6 
#
# 1 113.6546 48.7079 46.6324 0.0000 -18.1503 0.0000
# 2 48.7079 172.8976 72.0420 0.0000 4.1438 0.0000
# 3 46.6324 72.0420 99.1519 0.0000 -14.0880 0.0000
# 4 0.0000 0.0000 0.0000 -16.6847 0.0000 -22.4103
# 5 -18.1503 4.1438 -14.0880 0.0000 54.9331 0.0000
# 6 0.0000 0.0000 0.0000 -22.4103 0.0000 -2.8935
#
#
#
# Elastic Compliance Matrix: (Units=1/GPa)
#
#
# Indices 1 2 3 4 5 6 
#
# 1 0.011567 -0.001781 -0.003720 0.000000 0.003002 0.000000
# 2 -0.001781 0.008847 -0.005987 0.000000 -0.002791 0.000000
# 3 -0.003720 -0.005987 0.016683 0.000000 0.003501 0.000000
# 4 0.000000 0.000000 0.000000 0.006374 0.000000 -0.049368
# 5 0.003002 -0.002791 0.003501 0.000000 0.020304 0.000000
# 6 0.000000 0.000000 0.000000 -0.049368 0.000000 0.036755
#
#
# Mechanical properties :
#
#
# Convention : Reuss Voigt Hill
#
# Bulk Modulus (GPa) = 70.81372 80.05205 75.43289
# Shear Modulus (GPa) = 38.99753 21.62577 30.31165
#
# Velocity S-wave (km/s) = 4.22704 3.14777 3.72669
# Velocity P-wave (km/s) = 7.50128 7.06325 7.28556
#
# Compressibility (1/GPa) = 0.01412156
#
# Stress axis : x y z
#
# Youngs Moduli (GPa) = 86.44939 113.03244 59.94244
#
# Poissons Ratio (x) = 0.20128 0.22298
# Poissons Ratio (y) = 0.15394 0.35889
# Poissons Ratio (z) = 0.32159 0.67675
#
# Static dielectric constant tensor:
#      x y z
#    x 1.349440 0.000000 -0.157410 
#    y 0.000000 1.947120 0.000000 
#    z -0.157410 0.000000 1.749350 
# 
# From -- ./inp_files/14660.got.cif
#   From: 2010.05.17/outbox.cif.g08.bks.cpg/sg10_8_cif.got.tgz:14660.got - 2010.06.03 11:33:40.
