data_PCOD9152296
_publ_section_title
;
Structure prediction by ZEFSAII (Michael W. Deem and Ramdas Pophale) SiO2 
 PCOD9152296
Probable space group: P 2/M
;
_chemical_formula_sum "Si O2"
_cell_formula_units_Z 24
_cell_length_a 8.302552
_cell_length_b 7.657028
_cell_length_c 14.902684
_cell_angle_alpha 90.000000
_cell_angle_beta 101.193583
_cell_angle_gamma 90.000000
_cell_volume 929.383835
_symmetry_space_group_name_H-M "P 2/M"
_symmetry_group_IT_number 10
_symmetry_cell_setting 'monoclinic'
loop_
_space_group_symop_operation_xyz
x,y,z
-x,y,-z
-x,-y,-z
x,-y,z
loop_
_atom_site_type_symbol
_atom_site_label
_atom_site_fract_x
_atom_site_fract_y
_atom_site_fract_z
Si Si1 0.603101 0.701610 0.888870
Si Si2 0.117862 0.698633 0.438083
Si Si3 0.139534 0.713949 0.947389
Si Si4 0.370218 0.796651 0.602932
Si Si5 0.745081 0.711930 0.223150
Si Si6 0.282752 0.795383 0.280638
O O1 0.566374 0.500000 0.904327
O O2 0.432851 0.774848 0.833479
O O3 0.728945 0.708436 0.818014
O O4 0.691728 0.772543 0.986168
O O5 0.061219 0.500000 0.419357
O O6 0.291323 0.704406 0.509392
O O7 0.146543 0.771191 0.342172
O O8 0.000000 0.785356 0.500000
O O9 0.138779 0.500000 0.948054
O O10 0.132436 0.766933 0.842885
O O11 0.000000 0.774355 0.000000
O O12 0.248215 0.778947 0.675137
O O13 0.545503 0.728562 0.656889
O O14 0.389771 0.000000 0.581896
O O15 0.746829 0.500000 0.229180
O O16 0.302314 0.000000 0.265390
#
# Coordination Sequence:
#
# PCOD9152296 Si02
#       6
#     4   4   4   4   4   4
#     4   9  17  31  52  76 102 135 175 217 261 309
#     4  11  24  39  56  80 108 139 176 217 262 314
#     4   9  17  29  48  75 104 134 172 219 264 305
#     4  10  21  37  57  81 108 139 176 218 265 316
#     4   9  17  31  52  76 102 135 175 217 261 309
#     4  10  21  37  57  81 108 139 176 218 265 316
#
# _framework density 25.823560000000001
#
# number of rings (size 3 to 8) (size 9 to 14) (size 15 to 20)
#    0.000    2.333    0.000    2.500    0.000    8.667 
#    0.000    4.167    0.000    5.000    0.000    0.000 
#    0.000    0.000    0.000    0.000    0.000    0.000 
#
# Total GULP energy -134198.736676 kJ/mol
# GULP energy per Si atom -5591.614028 kJ/mol
# Density = 2.576478 g / cm^3
# Si number density = 25.823560 Si / 1000 Ang^3
#
#
#
# Elastic Constant Matrix: (Units=GPa)
#
#
# Indices 1 2 3 4 5 6 
#
# 1 70.6835 -6.3860 32.5174 0.0000 -28.3380 0.0000
# 2 -6.3860 60.1578 0.9754 0.0000 -3.0176 0.0000
# 3 32.5174 0.9754 176.4252 0.0000 -31.6446 0.0000
# 4 0.0000 0.0000 0.0000 -3.1751 0.0000 -14.6433
# 5 -28.3380 -3.0176 -31.6446 0.0000 55.4822 0.0000
# 6 0.0000 0.0000 0.0000 -14.6433 0.0000 23.1279
#
#
#
# Elastic Compliance Matrix: (Units=1/GPa)
#
#
# Indices 1 2 3 4 5 6 
#
# 1 0.018694 0.002446 -0.001919 0.000000 0.008587 0.000000
# 2 0.002446 0.016990 -0.000173 0.000000 0.002075 0.000000
# 3 -0.001919 -0.000173 0.006511 0.000000 0.002724 0.000000
# 4 0.000000 0.000000 0.000000 -0.080344 0.000000 -0.050870
# 5 0.008587 0.002075 0.002724 0.000000 0.024076 0.000000
# 6 0.000000 0.000000 0.000000 -0.050870 0.000000 0.011030
#
#
# Mechanical properties :
#
#
# Convention : Reuss Voigt Hill
#
# Bulk Modulus (GPa) = 23.30768 40.16444 31.73606
# Shear Modulus (GPa) = 474.00543 33.76434 253.88488
#
# Velocity S-wave (km/s) = 13.56296 3.61986 9.92616
# Velocity P-wave (km/s) = 15.94733 5.74964 11.98698
#
# Compressibility (1/GPa) = 0.04290432
#
# Stress axis : x y z
#
# Youngs Moduli (GPa) = 53.49347 58.85979 153.57670
#
# Poissons Ratio (x) = -0.14399 0.29470
# Poissons Ratio (y) = -0.13086 0.02651
# Poissons Ratio (z) = 0.10265 0.01016
#
# Static dielectric constant tensor:
#      x y z
#    x 2.159260 0.000000 -0.018800 
#    y 0.000000 1.946860 0.000000 
#    z -0.018800 0.000000 1.976810 
# 
# From -- ./inp_files/27046.got.cif
#   From: 2010.05.17/outbox.cif.g08.bks.cpg/sg10_14_cif.got.tgz:27046.got - 2010.06.03 11:33:40.
