data_PCOD9152380
_publ_section_title
;
Structure prediction by ZEFSAII (Michael W. Deem and Ramdas Pophale) SiO2 
 PCOD9152380
Probable space group: P 2/M
;
_chemical_formula_sum "Si O2"
_cell_formula_units_Z 28
_cell_length_a 25.479462
_cell_length_b 8.519252
_cell_length_c 23.139654
_cell_angle_alpha 90.000000
_cell_angle_beta 16.891390
_cell_angle_gamma 90.000000
_cell_volume 1459.425820
_symmetry_space_group_name_H-M "P 2/M"
_symmetry_group_IT_number 10
_symmetry_cell_setting 'monoclinic'
loop_
_space_group_symop_operation_xyz
x,y,z
-x,y,-z
-x,-y,-z
x,-y,z
loop_
_atom_site_type_symbol
_atom_site_label
_atom_site_fract_x
_atom_site_fract_y
_atom_site_fract_z
Si Si1 0.068016 0.179324 0.368884
Si Si2 0.494297 0.821200 0.941993
Si Si3 0.098444 0.687970 0.676808
Si Si4 0.295116 0.808788 0.704480
Si Si5 0.952837 0.810313 0.140432
Si Si6 0.550198 0.312934 0.762864
Si Si7 0.848524 0.188558 0.840901
O O1 0.045808 0.248814 0.328264
O O2 0.000000 0.256311 0.500000
O O3 0.993993 0.000000 0.446246
O O4 0.283349 0.170324 0.148769
O O5 0.585143 0.735422 0.792621
O O6 0.565130 0.000000 0.871161
O O7 0.500000 0.749528 0.000000
O O8 0.094990 0.500000 0.679436
O O9 0.076911 0.745905 0.764621
O O10 0.287393 0.741431 0.449146
O O11 0.941752 0.751382 0.800309
O O12 0.500000 0.754070 0.500000
O O13 0.204911 0.761828 0.738388
O O14 0.299766 0.000000 0.699771
O O15 0.146616 0.762187 0.909059
O O16 0.951951 0.000000 0.143181
O O17 0.535953 0.500000 0.774848
O O18 0.358999 0.241316 0.945012
O O19 0.854677 0.000000 0.832056
#
# Coordination Sequence:
#
# PCOD9152380 Si02
#       7
#     4   4   4   4   4   4   4
#     4   8  15  28  47  74 101 125 163 223 288 337
#     4   9  18  31  51  77 102 133 179 235 286 336
#     4  11  24  39  56  80 117 160 193 230 284 338
#     4   8  15  31  56  85 117 146 177 228 282 321
#     4   9  18  33  55  85 113 143 190 234 269 322
#     4  10  22  39  55  75 112 153 186 228 285 349
#     4  10  21  37  59  82 106 141 189 242 288 337
#
# _framework density 19.185628000000001
#
# number of rings (size 3 to 8) (size 9 to 14) (size 15 to 20)
#    0.000    2.714    0.000    3.000    2.000    3.714 
#    0.000    2.857    0.000    3.000    0.000    0.000 
#    0.000    0.000    0.000    0.000    0.000    0.000 
#
# Total GULP energy -156098.225000 kJ/mol
# GULP energy per Si atom -5574.936607 kJ/mol
# Density = 1.914196 g / cm^3
# Si number density = 19.185628 Si / 1000 Ang^3
#
#
#
# Elastic Constant Matrix: (Units=GPa)
#
#
# Indices 1 2 3 4 5 6 
#
# 1 181.8271 29.0185 104.1418 0.0000 24.4454 0.0000
# 2 29.0185 23.3822 25.4676 0.0000 5.4212 0.0000
# 3 104.1418 25.4676 131.9229 0.0000 5.7162 0.0000
# 4 0.0000 0.0000 0.0000 24.9381 0.0000 28.8457
# 5 24.4454 5.4212 5.7162 0.0000 36.0814 0.0000
# 6 0.0000 0.0000 0.0000 28.8457 0.0000 95.5792
#
#
#
# Elastic Compliance Matrix: (Units=1/GPa)
#
#
# Indices 1 2 3 4 5 6 
#
# 1 0.011606 -0.004212 -0.008091 0.000000 -0.005948 0.000000
# 2 -0.004212 0.057253 -0.007530 0.000000 -0.004556 0.000000
# 3 -0.008091 -0.007530 0.015239 0.000000 0.004199 0.000000
# 4 0.000000 0.000000 0.000000 0.061605 0.000000 -0.018592
# 5 -0.005948 -0.004556 0.004199 0.000000 0.031764 0.000000
# 6 0.000000 0.000000 0.000000 -0.018592 0.000000 0.016074
#
#
# Mechanical properties :
#
#
# Convention : Reuss Voigt Hill
#
# Bulk Modulus (GPa) = 22.50654 72.70978 47.60816
# Shear Modulus (GPa) = 20.15994 43.22004 31.68999
#
# Velocity S-wave (km/s) = 3.24510 4.75144 4.06859
# Velocity P-wave (km/s) = 5.07910 8.25118 6.85125
#
# Compressibility (1/GPa) = 0.04443152
#
# Stress axis : x y z
#
# Youngs Moduli (GPa) = 86.16508 17.46641 65.62098
#
# Poissons Ratio (x) = 0.07356 0.53093
# Poissons Ratio (y) = 0.36289 0.49416
# Poissons Ratio (z) = 0.69715 0.13153
#
# Static dielectric constant tensor:
#      x y z
#    x 1.674100 0.000000 0.005920 
#    y 0.000000 1.656680 0.000000 
#    z 0.005920 0.000000 1.676420 
# 
# From -- ./inp_files/86456.got.cif
#   From: 2010.05.17/outbox.cif.g08.bks.cpg/sg10_44_cif.got.tgz:86456.got - 2010.06.03 11:33:40.
