data_PCOD9152310
_publ_section_title
;
Structure prediction by ZEFSAII (Michael W. Deem and Ramdas Pophale) SiO2 
 PCOD9152310
Probable space group: P 2/M
;
_chemical_formula_sum "Si O2"
_cell_formula_units_Z 32
_cell_length_a 15.380802
_cell_length_b 7.483222
_cell_length_c 22.956904
_cell_angle_alpha 90.000000
_cell_angle_beta 148.240034
_cell_angle_gamma 90.000000
_cell_volume 1390.802022
_symmetry_space_group_name_H-M "P 2/M"
_symmetry_group_IT_number 10
_symmetry_cell_setting 'monoclinic'
loop_
_space_group_symop_operation_xyz
x,y,z
-x,y,-z
-x,-y,-z
x,-y,z
loop_
_atom_site_type_symbol
_atom_site_label
_atom_site_fract_x
_atom_site_fract_y
_atom_site_fract_z
Si Si1 0.993058 0.785639 0.260731
Si Si2 0.818472 0.798445 0.403881
Si Si3 0.625175 0.782191 0.021149
Si Si4 0.527746 0.281319 0.582460
Si Si5 0.111661 0.292415 0.202995
Si Si6 0.232929 0.706558 0.496514
Si Si7 0.536562 0.780396 0.839378
Si Si8 0.135428 0.797011 0.032451
O O1 0.096991 0.724202 0.264062
O O2 0.070868 0.717062 0.364377
O O3 0.807823 0.724970 0.143060
O O4 0.996437 0.000000 0.264296
O O5 0.787595 0.805382 0.455027
O O6 0.649203 0.720519 0.281356
O O7 0.000000 0.713030 0.500000
O O8 0.832085 0.000000 0.386522
O O9 0.623471 0.000000 0.019428
O O10 0.500000 0.724018 0.000000
O O11 0.580855 0.726252 0.930464
O O12 0.500000 0.222937 0.500000
O O13 0.528290 0.500000 0.581587
O O14 0.705978 0.224473 0.707998
O O15 0.380771 0.223270 0.540434
O O16 0.099569 0.500000 0.180233
O O17 0.962272 0.199103 0.084709
O O18 0.267747 0.500000 0.530338
O O19 0.683433 0.720079 0.879074
O O20 0.538540 0.000000 0.837953
O O21 0.163241 0.000000 0.069268
O O22 0.000000 0.715571 0.000000
#
# Coordination Sequence:
#
# PCOD9152310 Si02
#       8
#     4   4   4   4   4   4   4   4
#     4  11  21  36  60  89 118 148 194 244 294 350
#     4  10  23  41  63  88 116 154 203 252 294 344
#     4   9  18  32  58  88 113 145 184 233 294 351
#     4   9  18  35  55  78 113 155 188 222 281 350
#     4  11  21  36  58  82 116 155 193 236 289 349
#     4  11  23  40  61  84 118 159 200 242 292 350
#     4   9  18  36  57  83 119 152 189 238 292 346
#     4  10  21  37  57  82 115 154 191 238 294 345
#
# _framework density 23.008306000000001
#
# number of rings (size 3 to 8) (size 9 to 14) (size 15 to 20)
#    0.000    2.000    2.500    1.125    3.500    0.500 
#    0.000    3.125    0.000    1.500    0.000    0.000 
#    0.000    0.000    0.000    0.000    0.000    0.000 
#
# Total GULP energy -178808.443123 kJ/mol
# GULP energy per Si atom -5587.763848 kJ/mol
# Density = 2.295594 g / cm^3
# Si number density = 23.008306 Si / 1000 Ang^3
#
#
#
# Elastic Constant Matrix: (Units=GPa)
#
#
# Indices 1 2 3 4 5 6 
#
# 1 107.9219 -0.9963 39.9180 0.0000 32.7480 0.0000
# 2 -0.9963 73.5181 -3.0062 0.0000 7.3923 0.0000
# 3 39.9180 -3.0062 146.0605 0.0000 40.3153 0.0000
# 4 0.0000 0.0000 0.0000 -52.0474 0.0000 47.8352
# 5 32.7480 7.3923 40.3153 0.0000 38.9996 0.0000
# 6 0.0000 0.0000 0.0000 47.8352 0.0000 -46.1968
#
#
#
# Elastic Compliance Matrix: (Units=1/GPa)
#
#
# Indices 1 2 3 4 5 6 
#
# 1 0.012585 0.001167 -0.000612 0.000000 -0.010156 0.000000
# 2 0.001167 0.014187 0.001379 0.000000 -0.005095 0.000000
# 3 -0.000612 0.001379 0.009756 0.000000 -0.009833 0.000000
# 4 0.000000 0.000000 0.000000 -0.397493 0.000000 -0.411590
# 5 -0.010156 -0.005095 -0.009833 0.000000 0.045299 0.000000
# 6 0.000000 0.000000 0.000000 -0.411590 0.000000 -0.447834
#
#
# Mechanical properties :
#
#
# Convention : Reuss Voigt Hill
#
# Bulk Modulus (GPa) = 24.75544 44.37017 34.56280
# Shear Modulus (GPa) = -6.63215 7.59007 0.47896
#
# Velocity S-wave (km/s) = -1.69964 1.81824 0.45675
# Velocity P-wave (km/s) = 2.63268 4.87178 3.91569
#
# Compressibility (1/GPa) = 0.04039516
#
# Stress axis : x y z
#
# Youngs Moduli (GPa) = 79.46046 70.48921 102.49922
#
# Poissons Ratio (x) = -0.08224 0.06275
# Poissons Ratio (y) = -0.09271 -0.14138
# Poissons Ratio (z) = 0.04865 -0.09723
#
# Static dielectric constant tensor:
#      x y z
#    x 1.834960 0.000000 0.037940 
#    y 0.000000 1.896550 0.000000 
#    z 0.037940 0.000000 1.848270 
# 
# From -- ./inp_files/89594.got.cif
#   From: 2010.05.17/outbox.cif.g08.bks.cpg/sg10_45_cif.got.tgz:89594.got - 2010.06.03 11:33:40.
