data_PCOD9152407
_publ_section_title
;
Structure prediction by ZEFSAII (Michael W. Deem and Ramdas Pophale) SiO2 
 PCOD9152407
Probable space group: P 2/M
;
_chemical_formula_sum "Si O2"
_cell_formula_units_Z 28
_cell_length_a 9.617703
_cell_length_b 15.293791
_cell_length_c 21.743003
_cell_angle_alpha 90.000000
_cell_angle_beta 28.576487
_cell_angle_gamma 90.000000
_cell_volume 1529.801318
_symmetry_space_group_name_H-M "P 2/M"
_symmetry_group_IT_number 10
_symmetry_cell_setting 'monoclinic'
loop_
_space_group_symop_operation_xyz
x,y,z
-x,y,-z
-x,-y,-z
x,-y,z
loop_
_atom_site_type_symbol
_atom_site_label
_atom_site_fract_x
_atom_site_fract_y
_atom_site_fract_z
Si Si1 0.658216 0.269357 0.772006
Si Si2 0.725638 0.397555 0.151484
Si Si3 0.692081 0.596933 0.864608
Si Si4 0.675091 0.102425 0.601896
Si Si5 0.345454 0.242192 0.494102
Si Si6 0.700993 0.599414 0.303883
Si Si7 0.345015 0.900263 0.857126
O O1 0.524863 0.329125 0.769325
O O2 0.604190 0.327513 0.852945
O O3 0.499559 0.176334 0.834524
O O4 0.000276 0.253123 0.634292
O O5 0.643296 0.500000 0.175148
O O6 0.798307 0.386660 0.195346
O O7 0.000000 0.380675 0.000000
O O8 0.655064 0.500000 0.850617
O O9 0.022972 0.606399 0.758422
O O10 0.500000 0.599403 0.000000
O O11 0.597225 0.162422 0.574679
O O12 0.452095 0.112953 0.745219
O O13 0.000000 0.125606 0.500000
O O14 0.682124 0.000000 0.582238
O O15 0.500000 0.230018 0.500000
O O16 0.471075 0.329547 0.414176
O O17 0.587873 0.500000 0.352019
O O18 0.431309 0.000000 0.840452
O O19 0.000000 0.893017 0.000000
#
# Coordination Sequence:
#
# PCOD9152407 Si02
#       7
#     4   4   4   4   4   4   4
#     4  12  22  37  61  90 117 162 200 254 301 357
#     4  10  21  37  59  88 118 148 198 257 306 355
#     4  10  21  38  59  84 119 165 210 249 302 369
#     4  10  21  41  68  91 118 159 201 247 307 368
#     4  12  25  40  57  87 124 161 207 250 294 362
#     4  10  22  38  56  82 121 162 198 248 305 360
#     4  10  22  41  67  98 125 154 197 251 314 373
#
# _framework density 18.303031000000001
#
# number of rings (size 3 to 8) (size 9 to 14) (size 15 to 20)
#    0.000    1.429    2.857    2.571    0.000    5.143 
#    0.000    1.429    0.000    0.429    0.000    0.000 
#    0.000    0.000    0.000    0.000    0.000    0.000 
#
# Total GULP energy -156399.206633 kJ/mol
# GULP energy per Si atom -5585.685951 kJ/mol
# Density = 1.826137 g / cm^3
# Si number density = 18.303031 Si / 1000 Ang^3
#
#
#
# Elastic Constant Matrix: (Units=GPa)
#
#
# Indices 1 2 3 4 5 6 
#
# 1 98.5333 82.8488 27.5785 0.0000 11.3408 0.0000
# 2 82.8488 151.0128 59.8616 0.0000 2.5832 0.0000
# 3 27.5785 59.8616 90.8410 0.0000 -2.3649 0.0000
# 4 0.0000 0.0000 0.0000 -80.5405 0.0000 -22.7472
# 5 11.3408 2.5832 -2.3649 0.0000 24.0637 0.0000
# 6 0.0000 0.0000 0.0000 -22.7472 0.0000 30.7670
#
#
#
# Elastic Compliance Matrix: (Units=1/GPa)
#
#
# Indices 1 2 3 4 5 6 
#
# 1 0.020510 -0.011581 0.001189 0.000000 -0.008306 0.000000
# 2 -0.011581 0.015561 -0.006657 0.000000 0.003133 0.000000
# 3 0.001189 -0.006657 0.015076 0.000000 0.001636 0.000000
# 4 0.000000 0.000000 0.000000 -0.010271 0.000000 -0.007594
# 5 -0.008306 0.003133 0.001636 0.000000 0.045295 0.000000
# 6 0.000000 0.000000 0.000000 -0.007594 0.000000 0.026888
#
#
# Mechanical properties :
#
#
# Convention : Reuss Voigt Hill
#
# Bulk Modulus (GPa) = 58.65408 75.66276 67.15842
# Shear Modulus (GPa) = 32.71401 6.19792 19.45596
#
# Velocity S-wave (km/s) = 4.23230 1.84218 3.26389
# Velocity P-wave (km/s) = 7.48323 6.77890 7.13976
#
# Compressibility (1/GPa) = 0.01704911
#
# Stress axis : x y z
#
# Youngs Moduli (GPa) = 48.75694 64.26396 66.32899
#
# Poissons Ratio (x) = 0.74427 -0.07886
# Poissons Ratio (y) = 0.56467 0.44152
# Poissons Ratio (z) = -0.05797 0.42778
#
# Static dielectric constant tensor:
#      x y z
#    x 1.624880 0.000000 -0.005760 
#    y 0.000000 1.626740 0.000000 
#    z -0.005760 0.000000 1.628100 
# 
# From -- ./inp_files/35250.got.cif
#   From: 2010.05.17/outbox.cif.g08.bks.cpg/sg10_18_cif.got.tgz:35250.got - 2010.06.03 11:33:40.
