data_PCOD9152583
_publ_section_title
;
Structure prediction by ZEFSAII (Michael W. Deem and Ramdas Pophale) SiO2 
 PCOD9152583
Probable space group: P 2/M
;
_chemical_formula_sum "Si O2"
_cell_formula_units_Z 16
_cell_length_a 14.843455
_cell_length_b 7.528434
_cell_length_c 13.958292
_cell_angle_alpha 90.000000
_cell_angle_beta 29.265619
_cell_angle_gamma 90.000000
_cell_volume 762.527661
_symmetry_space_group_name_H-M "P 2/M"
_symmetry_group_IT_number 10
_symmetry_cell_setting 'monoclinic'
loop_
_space_group_symop_operation_xyz
x,y,z
-x,y,-z
-x,-y,-z
x,-y,z
loop_
_atom_site_type_symbol
_atom_site_label
_atom_site_fract_x
_atom_site_fract_y
_atom_site_fract_z
Si Si1 0.152751 0.792825 0.576821
Si Si2 0.152135 0.500000 0.418256
Si Si3 0.273654 0.206969 0.992280
Si Si4 0.521188 0.784055 0.588317
Si Si5 0.367273 0.500000 0.056659
O O1 0.169321 0.675567 0.466880
O O2 0.293090 0.731911 0.528720
O O3 0.190550 0.000000 0.520121
O O4 0.945416 0.778183 0.806478
O O5 0.386540 0.500000 0.157176
O O6 0.889047 0.500000 0.660214
O O7 0.360130 0.265838 0.811446
O O8 0.346526 0.325976 0.011366
O O9 0.322353 0.000000 0.962647
O O10 0.500000 0.717716 0.500000
O O11 0.521941 0.000000 0.582214
#
# Coordination Sequence:
#
# PCOD9152583 Si02
#       5
#     4   2   4   4   2
#     4  10  21  38  60  85 117 152 188 236 284 334
#     4  12  22  38  58  82 115 150 194 237 279 338
#     4  10  21  38  58  83 115 149 189 233 281 339
#     4   9  19  37  61  88 116 149 190 234 285 343
#     4  12  24  38  58  82 113 152 192 238 286 331
#
# _framework density 20.982844
#
# number of rings (size 3 to 8) (size 9 to 14) (size 15 to 20)
#    0.000    1.750    2.500    1.500    0.000    3.000 
#    0.000    7.500    0.000    3.000    0.000    0.000 
#    0.000    0.000    0.000    0.000    0.000    0.000 
#
# Total GULP energy -89269.520849 kJ/mol
# GULP energy per Si atom -5579.345053 kJ/mol
# Density = 2.093509 g / cm^3
# Si number density = 20.982844 Si / 1000 Ang^3
#
#
#
# Elastic Constant Matrix: (Units=GPa)
#
#
# Indices 1 2 3 4 5 6 
#
# 1 206.3256 84.8381 101.0403 0.0000 17.4451 0.0000
# 2 84.8381 97.7535 62.1176 0.0000 10.7968 0.0000
# 3 101.0403 62.1176 150.6519 0.0000 11.4373 0.0000
# 4 0.0000 0.0000 0.0000 44.1010 0.0000 0.8234
# 5 17.4451 10.7968 11.4373 0.0000 38.7456 0.0000
# 6 0.0000 0.0000 0.0000 0.8234 0.0000 46.8525
#
#
#
# Elastic Compliance Matrix: (Units=1/GPa)
#
#
# Indices 1 2 3 4 5 6 
#
# 1 0.008952 -0.005234 -0.003734 0.000000 -0.001470 0.000000
# 2 -0.005234 0.017112 -0.003439 0.000000 -0.001397 0.000000
# 3 -0.003734 -0.003439 0.010598 0.000000 -0.000489 0.000000
# 4 0.000000 0.000000 0.000000 0.022683 0.000000 -0.000399
# 5 -0.001470 -0.001397 -0.000489 0.000000 0.027005 0.000000
# 6 0.000000 0.000000 0.000000 -0.000399 0.000000 0.021351
#
#
# Mechanical properties :
#
#
# Convention : Reuss Voigt Hill
#
# Bulk Modulus (GPa) = 84.41384 105.63589 95.02486
# Shear Modulus (GPa) = 36.64009 39.72216 38.18112
#
# Velocity S-wave (km/s) = 4.18328 4.35567 4.27035
# Velocity P-wave (km/s) = 7.97812 8.70339 8.34864
#
# Compressibility (1/GPa) = 0.01184640
#
# Stress axis : x y z
#
# Youngs Moduli (GPa) = 111.71048 58.43879 94.36137
#
# Poissons Ratio (x) = 0.30585 0.35236
# Poissons Ratio (y) = 0.58467 0.32455
# Poissons Ratio (z) = 0.41715 0.20100
#
# Static dielectric constant tensor:
#      x y z
#    x 1.537700 0.000000 0.607810 
#    y 0.000000 1.747290 0.000000 
#    z 0.607810 0.000000 -1.308300 
# 
# From -- ./inp_files/78578.got.cif
#   From: 2010.05.17/outbox.cif.g08.bks.cpg/sg10_40_cif.got.tgz:78578.got - 2010.06.03 11:33:40.
