data_PCOD9152761
_publ_section_title
;
Structure prediction by ZEFSAII (Michael W. Deem and Ramdas Pophale) SiO2 
 PCOD9152761
Probable space group: P 2/M
;
_chemical_formula_sum "Si O2"
_cell_formula_units_Z 32
_cell_length_a 11.921749
_cell_length_b 14.924356
_cell_length_c 13.976091
_cell_angle_alpha 90.000000
_cell_angle_beta 39.900536
_cell_angle_gamma 90.000000
_cell_volume 1595.102930
_symmetry_space_group_name_H-M "P 2/M"
_symmetry_group_IT_number 10
_symmetry_cell_setting 'monoclinic'
loop_
_space_group_symop_operation_xyz
x,y,z
-x,y,-z
-x,-y,-z
x,-y,z
loop_
_atom_site_type_symbol
_atom_site_label
_atom_site_fract_x
_atom_site_fract_y
_atom_site_fract_z
Si Si1 0.686795 0.711844 0.021599
Si Si2 0.394336 0.144510 0.156822
Si Si3 0.051601 0.249220 0.861561
Si Si4 0.322386 0.098836 0.411614
Si Si5 0.409141 0.394323 0.293847
Si Si6 0.820646 0.712752 0.423715
Si Si7 0.354667 0.104578 0.676440
Si Si8 0.193814 0.315285 0.254668
O O1 0.721013 0.656804 0.901665
O O2 0.860084 0.763352 0.940398
O O3 0.537227 0.784060 0.100273
O O4 0.604081 0.641978 0.148798
O O5 0.321566 0.096464 0.297541
O O6 0.237093 0.208803 0.226486
O O7 0.500000 0.099530 0.000000
O O8 0.146002 0.299594 0.711026
O O9 0.182505 0.165321 0.791563
O O10 0.000000 0.287374 0.000000
O O11 0.215736 0.182653 0.524790
O O12 0.525486 0.112531 0.307977
O O13 0.269183 0.000000 0.483750
O O14 0.399515 0.500000 0.307524
O O15 0.339657 0.343760 0.432390
O O16 0.286603 0.361818 0.283889
O O17 0.987418 0.677936 0.375467
O O18 0.500000 0.129335 0.500000
O O19 0.309321 0.000000 0.692373
#
# Coordination Sequence:
#
# PCOD9152761 Si02
#       8
#     4   4   4   4   4   4   4   4
#     4   9  19  37  58  91 122 157 201 245 302 367
#     4   9  17  34  56  79 119 167 206 239 290 352
#     4  11  23  37  63  88 116 166 204 247 315 364
#     4  11  21  35  59  87 122 164 202 248 300 350
#     4  11  22  38  66  94 123 160 197 250 313 365
#     4  11  22  38  58  91 126 157 205 258 301 366
#     4  10  21  38  61  94 123 150 206 266 308 358
#     4   9  19  34  59  89 127 158 196 250 297 356
#
# _framework density 20.061402999999999
#
# number of rings (size 3 to 8) (size 9 to 14) (size 15 to 20)
#    0.000    1.875    3.750    2.250    0.000    2.500 
#    0.000    3.750    0.000    6.750    0.000    0.000 
#    0.000    0.000    0.000    0.000    0.000    0.000 
#
# Total GULP energy -178144.408614 kJ/mol
# GULP energy per Si atom -5567.012769 kJ/mol
# Density = 2.001574 g / cm^3
# Si number density = 20.061403 Si / 1000 Ang^3
#
#
#
# Elastic Constant Matrix: (Units=GPa)
#
#
# Indices 1 2 3 4 5 6 
#
# 1 47.6851 0.5609 26.0828 0.0000 8.5676 0.0000
# 2 0.5609 77.2090 37.0276 0.0000 -1.0327 0.0000
# 3 26.0828 37.0276 121.2309 0.0000 17.6559 0.0000
# 4 0.0000 0.0000 0.0000 -3.0856 0.0000 -6.0344
# 5 8.5676 -1.0327 17.6559 0.0000 33.4279 0.0000
# 6 0.0000 0.0000 0.0000 -6.0344 0.0000 10.2255
#
#
#
# Elastic Compliance Matrix: (Units=1/GPa)
#
#
# Indices 1 2 3 4 5 6 
#
# 1 0.024570 0.002440 -0.005553 0.000000 -0.003289 0.000000
# 2 0.002440 0.015731 -0.005752 0.000000 0.002899 0.000000
# 3 -0.005553 -0.005752 0.011937 0.000000 -0.005059 0.000000
# 4 0.000000 0.000000 0.000000 -0.150451 0.000000 -0.088786
# 5 -0.003289 0.002899 -0.005059 0.000000 0.033520 0.000000
# 6 0.000000 0.000000 0.000000 -0.088786 0.000000 0.045399
#
#
# Mechanical properties :
#
#
# Convention : Reuss Voigt Hill
#
# Bulk Modulus (GPa) = 28.97686 41.49641 35.23663
# Shear Modulus (GPa) = 503.06274 20.27713 261.66993
#
# Velocity S-wave (km/s) = 15.85263 3.18268 11.43318
# Velocity P-wave (km/s) = 18.69625 5.85112 13.85254
#
# Compressibility (1/GPa) = 0.03451030
#
# Stress axis : x y z
#
# Youngs Moduli (GPa) = 40.69940 63.56684 83.77245
#
# Poissons Ratio (x) = -0.15513 0.46516
# Poissons Ratio (y) = -0.09932 0.48187
# Poissons Ratio (z) = 0.22599 0.36564
#
# Static dielectric constant tensor:
#      x y z
#    x 1.766890 0.000000 0.055690 
#    y 0.000000 1.713010 0.000000 
#    z 0.055690 0.000000 1.759530 
# 
# From -- ./inp_files/65095.got.cif
#   From: 2010.05.17/outbox.cif.g08.bks.cpg/sg10_33_cif.got.tgz:65095.got - 2010.06.03 11:33:40.
