data_PCOD9152248
_publ_section_title
;
Structure prediction by ZEFSAII (Michael W. Deem and Ramdas Pophale) SiO2 
 PCOD9152248
Probable space group: P 2/M
;
_chemical_formula_sum "Si O2"
_cell_formula_units_Z 28
_cell_length_a 25.300180
_cell_length_b 8.720070
_cell_length_c 22.998030
_cell_angle_alpha 90.000000
_cell_angle_beta 16.905082
_cell_angle_gamma 90.000000
_cell_volume 1475.398353
_symmetry_space_group_name_H-M "P 2/M"
_symmetry_group_IT_number 10
_symmetry_cell_setting 'monoclinic'
loop_
_space_group_symop_operation_xyz
x,y,z
-x,y,-z
-x,-y,-z
x,-y,z
loop_
_atom_site_type_symbol
_atom_site_label
_atom_site_fract_x
_atom_site_fract_y
_atom_site_fract_z
Si Si1 0.390414 0.185932 0.328862
Si Si2 0.636792 0.184127 0.176953
Si Si3 0.567703 0.325582 0.368188
Si Si4 0.996426 0.674420 0.939468
Si Si5 0.049538 0.815873 0.764211
Si Si6 0.544372 0.683352 0.866942
Si Si7 0.211635 0.815079 0.288368
O O1 0.541413 0.230329 0.217684
O O2 0.199590 0.230324 0.559512
O O3 0.422012 0.263655 0.234044
O O4 0.393974 0.000000 0.318179
O O5 0.534518 0.243724 0.342138
O O6 0.633695 0.000000 0.182640
O O7 0.847076 0.234615 0.958851
O O8 0.500000 0.253572 0.500000
O O9 0.496516 0.500000 0.440629
O O10 0.784502 0.331503 0.146518
O O11 0.066357 0.500000 0.870793
O O12 0.088878 0.756268 0.787780
O O13 0.000000 0.746437 0.000000
O O14 0.050040 0.000000 0.766301
O O15 0.541684 0.500000 0.875099
O O16 0.703316 0.750459 0.741236
O O17 0.352178 0.750397 0.092400
O O18 0.000000 0.773279 0.500000
O O19 0.223038 0.000000 0.276951
#
# Coordination Sequence:
#
# PCOD9152248 Si02
#       7
#     4   4   4   4   4   4   4
#     4  10  21  37  56  78 109 148 190 232 278 336
#     4   9  19  35  52  72  99 133 176 227 277 327
#     4   9  18  31  47  69  96 127 165 214 272 336
#     4   9  18  31  47  69  96 127 165 214 272 336
#     4   9  19  35  52  72  99 133 176 227 277 327
#     4  11  23  38  59  92 128 158 194 242 288 338
#     4  10  21  40  67  93 122 162 201 237 280 331
#
# _framework density 18.977927000000001
#
# number of rings (size 3 to 8) (size 9 to 14) (size 15 to 20)
#    0.000    2.429    0.000    2.571    2.000    4.000 
#    0.000    2.857    0.000    0.000    0.000    0.000 
#    0.000    0.000    0.000    0.000    0.000    0.000 
#
# Total GULP energy -156171.547214 kJ/mol
# GULP energy per Si atom -5577.555258 kJ/mol
# Density = 1.893473 g / cm^3
# Si number density = 18.977927 Si / 1000 Ang^3
#
#
#
# Elastic Constant Matrix: (Units=GPa)
#
#
# Indices 1 2 3 4 5 6 
#
# 1 171.6590 51.1135 105.2450 0.0000 26.4197 0.0000
# 2 51.1135 48.6096 46.4912 0.0000 4.3330 0.0000
# 3 105.2450 46.4912 137.1033 0.0000 5.9968 0.0000
# 4 0.0000 0.0000 0.0000 22.7692 0.0000 13.8383
# 5 26.4197 4.3330 5.9968 0.0000 38.4311 0.0000
# 6 0.0000 0.0000 0.0000 13.8383 0.0000 37.4406
#
#
#
# Elastic Compliance Matrix: (Units=1/GPa)
#
#
# Indices 1 2 3 4 5 6 
#
# 1 0.013829 -0.005966 -0.008262 0.000000 -0.007545 0.000000
# 2 -0.005966 0.033150 -0.006723 0.000000 0.001413 0.000000
# 3 -0.008262 -0.006723 0.015742 0.000000 0.003982 0.000000
# 4 0.000000 0.000000 0.000000 0.056643 0.000000 -0.020935
# 5 -0.007545 0.001413 0.003982 0.000000 0.030427 0.000000
# 6 0.000000 0.000000 0.000000 -0.020935 0.000000 0.034447
#
#
# Mechanical properties :
#
#
# Convention : Reuss Voigt Hill
#
# Bulk Modulus (GPa) = 48.03697 84.78571 66.41134
# Shear Modulus (GPa) = 21.45198 30.02967 25.74083
#
# Velocity S-wave (km/s) = 3.36574 3.98219 3.68687
# Velocity P-wave (km/s) = 6.36170 8.11891 7.29342
#
# Compressibility (1/GPa) = 0.02081730
#
# Stress axis : x y z
#
# Youngs Moduli (GPa) = 72.31169 30.16626 63.52543
#
# Poissons Ratio (x) = 0.17999 0.52487
# Poissons Ratio (y) = 0.43145 0.42706
# Poissons Ratio (z) = 0.59747 0.20280
#
# Static dielectric constant tensor:
#      x y z
#    x 1.652950 0.000000 -0.016230 
#    y 0.000000 1.656010 0.000000 
#    z -0.016230 0.000000 1.670120 
# 
# From -- ./inp_files/86430.got.cif
#   From: 2010.05.17/outbox.cif.g08.bks.cpg/sg10_44_cif.got.tgz:86430.got - 2010.06.03 11:33:40.
