data_PCOD9152355
_publ_section_title
;
Structure prediction by ZEFSAII (Michael W. Deem and Ramdas Pophale) SiO2 
 PCOD9152355
Probable space group: P 2/M
;
_chemical_formula_sum "Si O2"
_cell_formula_units_Z 20
_cell_length_a 14.122579
_cell_length_b 19.137317
_cell_length_c 10.117173
_cell_angle_alpha 90.000000
_cell_angle_beta 158.161932
_cell_angle_gamma 90.000000
_cell_volume 1017.136548
_symmetry_space_group_name_H-M "P 2/M"
_symmetry_group_IT_number 10
_symmetry_cell_setting 'monoclinic'
loop_
_space_group_symop_operation_xyz
x,y,z
-x,y,-z
-x,-y,-z
x,-y,z
loop_
_atom_site_type_symbol
_atom_site_label
_atom_site_fract_x
_atom_site_fract_y
_atom_site_fract_z
Si Si1 0.377440 0.578840 0.695401
Si Si2 0.750815 0.317232 0.084741
Si Si3 0.990761 0.707960 0.830174
Si Si4 0.312872 0.083397 0.386117
Si Si5 0.572766 0.813890 0.236707
O O1 0.299578 0.500000 0.562914
O O2 0.158891 0.636655 0.400812
O O3 0.500000 0.579962 0.000000
O O4 0.599719 0.610250 0.893321
O O5 0.000000 0.325288 0.500000
O O6 0.771292 0.296847 0.957777
O O7 0.602470 0.253338 0.960296
O O8 0.847214 0.776969 0.593548
O O9 0.000000 0.711754 0.000000
O O10 0.500000 0.099368 0.500000
O O11 0.435847 0.128372 0.662468
O O12 0.332634 0.000000 0.428701
O O13 0.000000 0.097824 0.000000
O O14 0.500000 0.842645 0.000000
#
# Coordination Sequence:
#
# PCOD9152355 Si02
#       5
#     4   4   4   4   4
#     4  10  21  37  58  85 114 155 208 257 315 385
#     4  11  20  38  60  86 119 158 206 260 317 378
#     4  11  23  38  57  86 120 156 202 262 320 376
#     4  10  24  45  68  98 136 174 212 258 317 380
#     4  11  23  37  62  92 123 160 211 262 308 376
#
# _framework density 19.663042000000001
#
# number of rings (size 3 to 8) (size 9 to 14) (size 15 to 20)
#    0.000    1.400    4.000    1.800    5.600    4.400 
#    0.000    1.000    0.000    4.200    0.000    0.000 
#    0.000    0.000    0.000    0.000    0.000    0.000 
#
# Total GULP energy -111335.542904 kJ/mol
# GULP energy per Si atom -5566.777145 kJ/mol
# Density = 1.961829 g / cm^3
# Si number density = 19.663042 Si / 1000 Ang^3
#
#
#
# Elastic Constant Matrix: (Units=GPa)
#
#
# Indices 1 2 3 4 5 6 
#
# 1 136.9043 39.0084 18.1176 0.0000 -16.3534 0.0000
# 2 39.0084 78.0812 23.5261 0.0000 -17.2597 0.0000
# 3 18.1176 23.5261 28.7951 0.0000 -9.0145 0.0000
# 4 0.0000 0.0000 0.0000 13.7468 0.0000 -14.2585
# 5 -16.3534 -17.2597 -9.0145 0.0000 31.1871 0.0000
# 6 0.0000 0.0000 0.0000 -14.2585 0.0000 26.0824
#
#
#
# Elastic Compliance Matrix: (Units=1/GPa)
#
#
# Indices 1 2 3 4 5 6 
#
# 1 0.008779 -0.003245 -0.002192 0.000000 0.002174 0.000000
# 2 -0.003245 0.019247 -0.011964 0.000000 0.005492 0.000000
# 3 -0.002192 -0.011964 0.047772 0.000000 0.006038 0.000000
# 4 0.000000 0.000000 0.000000 0.168009 0.000000 0.091846
# 5 0.002174 0.005492 0.006038 0.000000 0.037989 0.000000
# 6 0.000000 0.000000 0.000000 0.091846 0.000000 0.088550
#
#
# Mechanical properties :
#
#
# Convention : Reuss Voigt Hill
#
# Bulk Modulus (GPa) = 24.39241 45.00941 34.70091
# Shear Modulus (GPa) = 11.93849 25.07850 18.50849
#
# Velocity S-wave (km/s) = 2.46672 3.57517 3.07136
# Velocity P-wave (km/s) = 4.53267 6.32317 5.50125
#
# Compressibility (1/GPa) = 0.04099636
#
# Stress axis : x y z
#
# Youngs Moduli (GPa) = 113.91271 51.95586 20.93258
#
# Poissons Ratio (x) = 0.16858 0.04588
# Poissons Ratio (y) = 0.36962 0.25044
# Poissons Ratio (z) = 0.24968 0.62162
#
# Static dielectric constant tensor:
#      x y z
#    x 1.724950 0.000000 0.005920 
#    y 0.000000 1.642140 0.000000 
#    z 0.005920 0.000000 1.688160 
# 
# From -- ./inp_files/4194.got.cif
#   From: 2010.05.17/outbox.cif.g08.bks.cpg/sg10_3_cif.got.tgz:4194.got - 2010.06.03 11:33:40.
