data_PCOD9152015
_publ_section_title
;
Structure prediction by ZEFSAII (Michael W. Deem and Ramdas Pophale) SiO2 
 PCOD9152015
Probable space group: P 2/M
;
_chemical_formula_sum "Si O2"
_cell_formula_units_Z 32
_cell_length_a 9.878237
_cell_length_b 13.812439
_cell_length_c 25.409107
_cell_angle_alpha 90.000000
_cell_angle_beta 31.005971
_cell_angle_gamma 90.000000
_cell_volume 1785.886557
_symmetry_space_group_name_H-M "P 2/M"
_symmetry_group_IT_number 10
_symmetry_cell_setting 'monoclinic'
loop_
_space_group_symop_operation_xyz
x,y,z
-x,y,-z
-x,-y,-z
x,-y,z
loop_
_atom_site_type_symbol
_atom_site_label
_atom_site_fract_x
_atom_site_fract_y
_atom_site_fract_z
Si Si1 0.002099 0.111601 0.936670
Si Si2 0.440957 0.111455 0.081371
Si Si3 0.185427 0.387089 0.603242
Si Si4 0.917240 0.207402 0.295217
Si Si5 0.130829 0.614486 0.399403
Si Si6 0.442690 0.884824 0.392843
Si Si7 0.995623 0.113104 0.626774
Si Si8 0.466986 0.794027 0.273117
O O1 0.233726 0.179497 0.838672
O O2 0.043438 0.000000 0.903313
O O3 0.000000 0.108814 0.000000
O O4 0.712856 0.143734 0.016516
O O5 0.192379 0.175342 0.178851
O O6 0.386808 0.000000 0.116350
O O7 0.500000 0.110786 0.000000
O O8 0.500000 0.373184 0.500000
O O9 0.131025 0.500000 0.631990
O O10 0.077532 0.315907 0.683991
O O11 0.062682 0.365422 0.586167
O O12 0.684437 0.179541 0.333241
O O13 0.872654 0.144005 0.362757
O O14 0.191273 0.500000 0.377969
O O15 0.383599 0.683221 0.309506
O O16 0.000000 0.635088 0.500000
O O17 0.388205 0.854284 0.351387
O O18 0.193338 0.865467 0.513131
O O19 0.503345 0.000000 0.375810
O O20 0.721331 0.167761 0.710544
O O21 0.941291 0.000000 0.644874
#
# Coordination Sequence:
#
# PCOD9152015 Si02
#       8
#     4   4   4   4   4   4   4   4
#     4  10  21  36  55  79 109 147 196 245 284 334
#     4  10  21  38  57  79 110 150 197 244 288 335
#     4  10  22  40  62  89 118 150 193 242 291 346
#     4  12  22  36  59  83 112 154 193 238 292 342
#     4  10  22  40  62  88 118 152 193 241 290 346
#     4  11  23  35  51  82 122 155 186 224 277 354
#     4  11  21  33  51  80 116 150 185 223 278 353
#     4  12  22  36  57  81 113 156 192 234 287 340
#
# _framework density 17.918271000000001
#
# number of rings (size 3 to 8) (size 9 to 14) (size 15 to 20)
#    0.000    1.250    1.250    6.000    1.750    4.000 
#    0.000    0.000    0.000    1.500    0.000    0.000 
#    0.000    0.000    0.000    0.000    0.000    0.000 
#
# Total GULP energy -178788.014700 kJ/mol
# GULP energy per Si atom -5587.125459 kJ/mol
# Density = 1.787749 g / cm^3
# Si number density = 17.918271 Si / 1000 Ang^3
#
#
#
# Elastic Constant Matrix: (Units=GPa)
#
#
# Indices 1 2 3 4 5 6 
#
# 1 59.9176 9.0641 12.3328 0.0000 -12.9134 0.0000
# 2 9.0641 92.9625 44.4989 0.0000 -5.7177 0.0000
# 3 12.3328 44.4989 84.1483 0.0000 -6.4521 0.0000
# 4 0.0000 0.0000 0.0000 35.7447 0.0000 1.3457
# 5 -12.9134 -5.7177 -6.4521 0.0000 24.4288 0.0000
# 6 0.0000 0.0000 0.0000 1.3457 0.0000 24.3241
#
#
#
# Elastic Compliance Matrix: (Units=1/GPa)
#
#
# Indices 1 2 3 4 5 6 
#
# 1 0.019195 -0.000385 -0.001876 0.000000 0.009561 0.000000
# 2 -0.000385 0.014457 -0.007496 0.000000 0.001200 0.000000
# 3 -0.001876 -0.007496 0.016241 0.000000 0.001543 0.000000
# 4 0.000000 0.000000 0.000000 0.028035 0.000000 -0.001551
# 5 0.009561 0.001200 0.001543 0.000000 0.046678 0.000000
# 6 0.000000 0.000000 0.000000 -0.001551 0.000000 0.041197
#
#
# Mechanical properties :
#
#
# Convention : Reuss Voigt Hill
#
# Bulk Modulus (GPa) = 32.92022 40.98000 36.95011
# Shear Modulus (GPa) = 25.58274 28.30834 26.94554
#
# Velocity S-wave (km/s) = 3.78265 3.97906 3.88210
# Velocity P-wave (km/s) = 6.12293 6.63556 6.38439
#
# Compressibility (1/GPa) = 0.03037647
#
# Stress axis : x y z
#
# Youngs Moduli (GPa) = 52.09793 69.17157 61.57118
#
# Poissons Ratio (x) = 0.02665 0.11553
# Poissons Ratio (y) = 0.02007 0.46157
# Poissons Ratio (z) = 0.09775 0.51854
#
# Static dielectric constant tensor:
#      x y z
#    x 1.598590 0.000000 0.001760 
#    y 0.000000 1.620780 0.000000 
#    z 0.001760 0.000000 1.584980 
# 
# From -- ./inp_files/88228.got.cif
#   From: 2010.05.17/outbox.cif.g08.bks.cpg/sg10_45_cif.got.tgz:88228.got - 2010.06.03 11:33:40.
