data_PCOD9152911
_publ_section_title
;
Structure prediction by ZEFSAII (Michael W. Deem and Ramdas Pophale) SiO2 
 PCOD9152911
Probable space group: P 2/M
;
_chemical_formula_sum "Si O2"
_cell_formula_units_Z 18
_cell_length_a 7.969319
_cell_length_b 10.124939
_cell_length_c 19.930761
_cell_angle_alpha 90.000000
_cell_angle_beta 148.642212
_cell_angle_gamma 90.000000
_cell_volume 836.871243
_symmetry_space_group_name_H-M "P 2/M"
_symmetry_group_IT_number 10
_symmetry_cell_setting 'monoclinic'
loop_
_space_group_symop_operation_xyz
x,y,z
-x,y,-z
-x,-y,-z
x,-y,z
loop_
_atom_site_type_symbol
_atom_site_label
_atom_site_fract_x
_atom_site_fract_y
_atom_site_fract_z
Si Si1 0.656524 0.500000 0.978195
Si Si2 0.723507 0.000000 0.818850
Si Si3 0.773092 0.267075 0.212677
Si Si4 0.730630 0.500000 0.642096
Si Si5 0.456853 0.000000 0.082530
Si Si6 0.417588 0.500000 0.261558
Si Si7 0.747747 0.769939 0.353771
O O1 0.531706 0.368467 0.897568
O O2 0.500000 0.500000 0.000000
O O3 0.039349 0.500000 0.116558
O O4 0.643715 0.000000 0.872015
O O5 0.537728 0.127790 0.729308
O O6 0.098789 0.000000 0.929499
O O7 0.657410 0.133275 0.136535
O O8 0.875520 0.213928 0.321431
O O9 0.052404 0.366720 0.283419
O O10 0.500000 0.500000 0.500000
O O11 0.530430 0.500000 0.641108
O O12 0.592425 0.627402 0.295130
O O13 0.000000 0.778513 0.500000
#
# Coordination Sequence:
#
# PCOD9152911 Si02
#       7
#     2   2   4   2   2   2   4
#     4  11  21  39  58  82 118 150 202 242 295 345
#     4   9  19  36  59  86 120 154 184 240 303 353
#     4  10  21  39  61  84 120 154 193 253 295 342
#     4  11  22  39  58  82 120 167 198 234 294 349
#     4   9  18  36  61  89 113 149 200 239 301 351
#     4  12  22  35  60  84 116 152 199 243 286 349
#     4  11  22  37  59  91 119 151 197 241 291 356
#
# _framework density 21.508685
#
# number of rings (size 3 to 8) (size 9 to 14) (size 15 to 20)
#    0.000    1.556    2.222    4.667    0.000    3.556 
#    0.000    2.222    0.000    0.000    0.000    0.000 
#    0.000    0.000    0.000    0.000    0.000    0.000 
#
# Total GULP energy -100477.671597 kJ/mol
# GULP energy per Si atom -5582.092867 kJ/mol
# Density = 2.145973 g / cm^3
# Si number density = 21.508685 Si / 1000 Ang^3
#
#
#
# Elastic Constant Matrix: (Units=GPa)
#
#
# Indices 1 2 3 4 5 6 
#
# 1 38.5873 -0.8143 12.9763 0.0000 -11.9866 0.0000
# 2 -0.8143 178.0380 43.3505 0.0000 14.5056 0.0000
# 3 12.9763 43.3505 120.4776 0.0000 -11.9364 0.0000
# 4 0.0000 0.0000 0.0000 1.3537 0.0000 -6.9238
# 5 -11.9866 14.5056 -11.9364 0.0000 30.8065 0.0000
# 6 0.0000 0.0000 0.0000 -6.9238 0.0000 10.5728
#
#
#
# Elastic Compliance Matrix: (Units=1/GPa)
#
#
# Indices 1 2 3 4 5 6 
#
# 1 0.030019 -0.000261 -0.002049 0.000000 0.011009 0.000000
# 2 -0.000261 0.006646 -0.002791 0.000000 -0.004312 0.000000
# 3 -0.002049 -0.002791 0.009959 0.000000 0.004376 0.000000
# 4 0.000000 0.000000 0.000000 -0.314421 0.000000 -0.205903
# 5 0.011009 -0.004312 0.004376 0.000000 0.040470 0.000000
# 6 0.000000 0.000000 0.000000 -0.205903 0.000000 -0.040257
#
#
# Mechanical properties :
#
#
# Convention : Reuss Voigt Hill
#
# Bulk Modulus (GPa) = 27.45500 49.79199 38.62350
# Shear Modulus (GPa) = -20.38800 27.31928 3.46564
#
# Velocity S-wave (km/s) = -3.08213 3.56778 1.27074
# Velocity P-wave (km/s) = 0.35534 6.33815 4.48878
#
# Compressibility (1/GPa) = 0.03642324
#
# Stress axis : x y z
#
# Youngs Moduli (GPa) = 33.31277 150.45658 100.41563
#
# Poissons Ratio (x) = 0.03925 0.20571
# Poissons Ratio (y) = 0.00869 0.28023
# Poissons Ratio (z) = 0.06825 0.41988
#
# Static dielectric constant tensor:
#      x y z
#    x 1.803360 0.000000 -0.045800 
#    y 0.000000 1.796060 0.000000 
#    z -0.045800 0.000000 1.792640 
# 
# From -- ./inp_files/82159.got.cif
#   From: 2010.05.17/outbox.cif.g08.bks.cpg/sg10_42_cif.got.tgz:82159.got - 2010.06.03 11:33:40.
