data_PCOD9152510
_publ_section_title
;
Structure prediction by ZEFSAII (Michael W. Deem and Ramdas Pophale) SiO2 
 PCOD9152510
Probable space group: P 2/M
;
_chemical_formula_sum "Si O2"
_cell_formula_units_Z 32
_cell_length_a 16.719408
_cell_length_b 15.161993
_cell_length_c 11.627745
_cell_angle_alpha 90.000000
_cell_angle_beta 31.074145
_cell_angle_gamma 90.000000
_cell_volume 1521.409047
_symmetry_space_group_name_H-M "P 2/M"
_symmetry_group_IT_number 10
_symmetry_cell_setting 'monoclinic'
loop_
_space_group_symop_operation_xyz
x,y,z
-x,y,-z
-x,-y,-z
x,-y,z
loop_
_atom_site_type_symbol
_atom_site_label
_atom_site_fract_x
_atom_site_fract_y
_atom_site_fract_z
Si Si1 0.392898 0.282752 0.400570
Si Si2 0.144539 0.265118 0.905431
Si Si3 0.948197 0.602004 0.780045
Si Si4 0.640550 0.401380 0.007286
Si Si5 0.311227 0.902763 0.237870
Si Si6 0.620274 0.093247 0.593801
Si Si7 0.233874 0.712356 0.345869
Si Si8 0.310601 0.097698 0.739177
O O1 0.282623 0.289290 0.646590
O O2 0.470924 0.184975 0.301313
O O3 0.300978 0.286006 0.393093
O O4 0.515691 0.359318 0.245543
O O5 0.212487 0.182634 0.896762
O O6 0.094727 0.344238 0.051217
O O7 0.000000 0.242231 0.000000
O O8 0.997764 0.500000 0.741806
O O9 0.800532 0.597998 0.879188
O O10 0.076469 0.658442 0.554521
O O11 0.597833 0.500000 0.026245
O O12 0.658441 0.341013 0.873771
O O13 0.282542 0.906486 0.410013
O O14 0.229832 0.812484 0.301834
O O15 0.273841 0.000000 0.234831
O O16 0.500000 0.892090 0.000000
O O17 0.727120 0.093609 0.350702
O O18 0.531095 0.000000 0.703169
O O19 0.500000 0.108745 0.500000
O O20 0.278617 0.000000 0.827595
#
# Coordination Sequence:
#
# PCOD9152510 Si02
#       8
#     4   4   4   4   4   4   4   4
#     4  10  21  37  63  94 120 153 202 259 302 358
#     4  11  23  42  62  90 126 165 202 248 311 373
#     4  11  26  44  62  85 120 166 206 250 313 376
#     4  11  25  42  62  88 116 156 209 259 313 364
#     4   9  17  31  56  90 123 155 193 240 294 353
#     4   8  15  29  51  80 117 152 184 228 283 346
#     4  11  20  40  65  91 122 157 202 251 301 361
#     4   9  19  35  60  92 123 159 201 245 295 355
#
# _framework density 21.033134
#
# number of rings (size 3 to 8) (size 9 to 14) (size 15 to 20)
#    0.000    2.000    1.250    2.625    3.500    3.500 
#    0.000    1.875    0.000    2.250    0.000    0.000 
#    0.000    0.000    0.000    0.000    0.000    0.000 
#
# Total GULP energy -178273.847854 kJ/mol
# GULP energy per Si atom -5571.057745 kJ/mol
# Density = 2.098526 g / cm^3
# Si number density = 21.033134 Si / 1000 Ang^3
#
#
#
# Elastic Constant Matrix: (Units=GPa)
#
#
# Indices 1 2 3 4 5 6 
#
# 1 29.3548 19.1514 6.1836 0.0000 0.2520 0.0000
# 2 19.1514 204.0732 59.9611 0.0000 -8.7930 0.0000
# 3 6.1836 59.9611 90.1352 0.0000 -0.0385 0.0000
# 4 0.0000 0.0000 0.0000 12.1263 0.0000 -4.4704
# 5 0.2520 -8.7930 -0.0385 0.0000 23.4932 0.0000
# 6 0.0000 0.0000 0.0000 -4.4704 0.0000 24.0039
#
#
#
# Elastic Compliance Matrix: (Units=1/GPa)
#
#
# Indices 1 2 3 4 5 6 
#
# 1 0.036357 -0.003419 -0.000220 0.000000 -0.001670 0.000000
# 2 -0.003419 0.006536 -0.004112 0.000000 0.002476 0.000000
# 3 -0.000220 -0.004112 0.013845 0.000000 -0.001514 0.000000
# 4 0.000000 0.000000 0.000000 0.088545 0.000000 0.016490
# 5 -0.001670 0.002476 -0.001514 0.000000 0.043508 0.000000
# 6 0.000000 0.000000 0.000000 0.016490 0.000000 0.044731
#
#
# Mechanical properties :
#
#
# Convention : Reuss Voigt Hill
#
# Bulk Modulus (GPa) = 24.25175 54.90618 39.57897
# Shear Modulus (GPa) = 19.02802 27.80915 23.41858
#
# Velocity S-wave (km/s) = 3.01103 3.64010 3.34041
# Velocity P-wave (km/s) = 4.86248 6.62030 5.80827
#
# Compressibility (1/GPa) = 0.04123414
#
# Stress axis : x y z
#
# Youngs Moduli (GPa) = 27.50468 152.99664 72.23011
#
# Poissons Ratio (x) = 0.52313 0.01592
# Poissons Ratio (y) = 0.09404 0.29704
# Poissons Ratio (z) = 0.00606 0.62919
#
# Static dielectric constant tensor:
#      x y z
#    x 1.803640 0.000000 0.002230 
#    y 0.000000 1.857050 0.000000 
#    z 0.002230 0.000000 1.770320 
# 
# From -- ./inp_files/53987.got.cif
#   From: 2010.05.17/outbox.cif.g08.bks.cpg/sg10_27_cif.got.tgz:53987.got - 2010.06.03 11:33:40.
