data_PCOD9152747
_publ_section_title
;
Structure prediction by ZEFSAII (Michael W. Deem and Ramdas Pophale) SiO2 
 PCOD9152747
Probable space group: P 2/M
;
_chemical_formula_sum "Si O2"
_cell_formula_units_Z 21
_cell_length_a 14.712345
_cell_length_b 7.356771
_cell_length_c 23.007424
_cell_angle_alpha 90.000000
_cell_angle_beta 23.600337
_cell_angle_gamma 90.000000
_cell_volume 996.969252
_symmetry_space_group_name_H-M "P 2/M"
_symmetry_group_IT_number 10
_symmetry_cell_setting 'monoclinic'
loop_
_space_group_symop_operation_xyz
x,y,z
-x,y,-z
-x,-y,-z
x,-y,z
loop_
_atom_site_type_symbol
_atom_site_label
_atom_site_fract_x
_atom_site_fract_y
_atom_site_fract_z
Si Si1 0.247481 0.708781 0.365699
Si Si2 0.856946 0.218609 0.807620
Si Si3 0.432808 0.219959 0.131865
Si Si4 0.385586 0.287456 0.509247
Si Si5 0.413519 0.723723 0.732115
Si Si6 0.000000 0.000000 0.000000
O O1 0.204619 0.500000 0.407824
O O2 0.380574 0.715207 0.226840
O O3 0.403507 0.779083 0.325855
O O4 0.000000 0.793801 0.500000
O O5 0.759058 0.278148 0.802302
O O6 0.113826 0.271344 0.668943
O O7 0.848832 0.000000 0.811862
O O8 0.674188 0.277892 0.963236
O O9 0.432168 0.000000 0.133986
O O10 0.500000 0.207233 0.500000
O O11 0.442175 0.500000 0.476134
O O12 0.485731 0.222537 0.389656
O O13 0.381739 0.500000 0.753419
O O14 0.189556 0.839290 0.874695
#
# Coordination Sequence:
#
# PCOD9152747 Si02
#       6
#     4   4   4   4   4   1
#     4  10  21  38  61  90 126 164 200 254 322 377
#     4   9  19  36  57  85 124 157 195 252 308 362
#     4   9  19  35  56  88 124 157 195 248 306 370
#     4  10  22  41  63  87 118 160 207 260 318 365
#     4  10  24  45  65  94 133 164 214 274 309 380
#     4  12  26  44  68  90 120 180 226 244 330 374
#
# _framework density 21.063838000000001
#
# number of rings (size 3 to 8) (size 9 to 14) (size 15 to 20)
#    0.000    2.286    0.000    2.571    2.667    5.333 
#    3.429    5.714    0.000    0.000    0.000    0.000 
#    0.000    0.000    0.000    0.000    0.000    0.000 
#
# Total GULP energy -116963.840786 kJ/mol
# GULP energy per Si atom -5569.706704 kJ/mol
# Density = 2.101590 g / cm^3
# Si number density = 21.063838 Si / 1000 Ang^3
#
#
#
# Elastic Constant Matrix: (Units=GPa)
#
#
# Indices 1 2 3 4 5 6 
#
# 1 191.0975 14.1838 126.1161 0.0000 9.1692 0.0000
# 2 14.1838 89.6819 13.7125 0.0000 2.5999 0.0000
# 3 126.1161 13.7125 172.0778 0.0000 -13.4311 0.0000
# 4 0.0000 0.0000 0.0000 37.9136 0.0000 1.8820
# 5 9.1692 2.5999 -13.4311 0.0000 16.7805 0.0000
# 6 0.0000 0.0000 0.0000 1.8820 0.0000 11.3518
#
#
#
# Elastic Compliance Matrix: (Units=1/GPa)
#
#
# Indices 1 2 3 4 5 6 
#
# 1 0.013212 0.000045 -0.010934 0.000000 -0.015978 0.000000
# 2 0.000045 0.011398 -0.001153 0.000000 -0.002714 0.000000
# 3 -0.010934 -0.001153 0.015356 0.000000 0.018445 0.000000
# 4 0.000000 0.000000 0.000000 0.026595 0.000000 -0.004409
# 5 -0.015978 -0.002714 0.018445 0.000000 0.083507 0.000000
# 6 0.000000 0.000000 0.000000 -0.004409 0.000000 0.088823
#
#
# Mechanical properties :
#
#
# Convention : Reuss Voigt Hill
#
# Bulk Modulus (GPa) = 62.96044 84.54246 73.75145
# Shear Modulus (GPa) = 18.63795 33.13217 25.88506
#
# Velocity S-wave (km/s) = 2.97784 3.97033 3.50935
# Velocity P-wave (km/s) = 6.46363 7.82570 7.17705
#
# Compressibility (1/GPa) = 0.01588299
#
# Stress axis : x y z
#
# Youngs Moduli (GPa) = 75.68792 87.73175 65.11945
#
# Poissons Ratio (x) = -0.00399 0.71201
# Poissons Ratio (y) = -0.00344 0.07511
# Poissons Ratio (z) = 0.82757 0.10120
#
# Static dielectric constant tensor:
#      x y z
#    x 1.751190 0.000000 -0.008100 
#    y 0.000000 1.794310 0.000000 
#    z -0.008100 0.000000 1.690420 
# 
# From -- ./inp_files/89313.got.cif
#   From: 2010.05.17/outbox.cif.g08.bks.cpg/sg10_45_cif.got.tgz:89313.got - 2010.06.03 11:33:40.
