data_PCOD9152722
_publ_section_title
;
Structure prediction by ZEFSAII (Michael W. Deem and Ramdas Pophale) SiO2 
 PCOD9152722
Probable space group: P 2/M
;
_chemical_formula_sum "Si O2"
_cell_formula_units_Z 28
_cell_length_a 26.547097
_cell_length_b 8.784868
_cell_length_c 9.761982
_cell_angle_alpha 90.000000
_cell_angle_beta 142.411760
_cell_angle_gamma 90.000000
_cell_volume 1388.697580
_symmetry_space_group_name_H-M "P 2/M"
_symmetry_group_IT_number 10
_symmetry_cell_setting 'monoclinic'
loop_
_space_group_symop_operation_xyz
x,y,z
-x,y,-z
-x,-y,-z
x,-y,z
loop_
_atom_site_type_symbol
_atom_site_label
_atom_site_fract_x
_atom_site_fract_y
_atom_site_fract_z
Si Si1 0.496463 0.317656 0.835046
Si Si2 0.248971 0.817138 0.006834
Si Si3 0.867399 0.319391 0.466381
Si Si4 0.307928 0.318128 0.409340
Si Si5 0.421835 0.817014 0.240658
Si Si6 0.969193 0.827047 0.091473
Si Si7 0.800050 0.816586 0.604327
O O1 0.507369 0.500000 0.854224
O O2 0.403636 0.280818 0.586343
O O3 0.562350 0.242139 0.877569
O O4 0.500000 0.268507 0.000000
O O5 0.174337 0.750978 0.757579
O O6 0.244883 0.000000 0.001207
O O7 0.255181 0.753080 0.173001
O O8 0.334355 0.769811 0.114870
O O9 0.858743 0.500000 0.449726
O O10 0.963629 0.272837 0.686171
O O11 0.821302 0.249603 0.501007
O O12 0.299454 0.500000 0.395493
O O13 0.280217 0.249052 0.494916
O O14 0.500000 0.763123 0.500000
O O15 0.423195 0.000000 0.243306
O O16 0.969774 0.000000 0.147022
O O17 0.000000 0.834215 0.000000
O O18 0.875807 0.772541 0.869877
O O19 0.798220 0.000000 0.591297
#
# Coordination Sequence:
#
# PCOD9152722 Si02
#       7
#     4   4   4   4   4   4   4
#     4  10  23  40  58  84 118 153 188 233 290 346
#     4  11  23  40  60  83 116 155 196 241 290 346
#     4  11  22  36  59  90 120 150 191 241 287 340
#     4  11  23  39  58  85 119 155 194 239 291 343
#     4  10  21  39  61  85 110 147 197 240 281 336
#     4   8  16  34  58  84 115 151 191 232 283 343
#     4  10  21  38  61  87 118 156 193 235 287 343
#
# _framework density 20.162779
#
# number of rings (size 3 to 8) (size 9 to 14) (size 15 to 20)
#    0.000    1.857    1.429    3.429    2.000    5.429 
#    0.000    0.714    0.000    4.286    0.000    0.000 
#    0.000    0.000    0.000    0.000    0.000    0.000 
#
# Total GULP energy -156413.631866 kJ/mol
# GULP energy per Si atom -5586.201138 kJ/mol
# Density = 2.011689 g / cm^3
# Si number density = 20.162779 Si / 1000 Ang^3
#
#
#
# Elastic Constant Matrix: (Units=GPa)
#
#
# Indices 1 2 3 4 5 6 
#
# 1 39.2769 -3.0761 -16.5049 0.0000 -9.8260 0.0000
# 2 -3.0761 47.9310 23.3495 0.0000 -1.4809 0.0000
# 3 -16.5049 23.3495 76.7145 0.0000 -17.9787 0.0000
# 4 0.0000 0.0000 0.0000 26.0883 0.0000 -7.2124
# 5 -9.8260 -1.4809 -17.9787 0.0000 26.0795 0.0000
# 6 0.0000 0.0000 0.0000 -7.2124 0.0000 22.6965
#
#
#
# Elastic Compliance Matrix: (Units=1/GPa)
#
#
# Indices 1 2 3 4 5 6 
#
# 1 0.037514 -0.004161 0.015022 0.000000 0.024254 0.000000
# 2 -0.004161 0.025402 -0.010324 0.000000 -0.007242 0.000000
# 3 0.015022 -0.010324 0.024568 0.000000 0.022010 0.000000
# 4 0.000000 0.000000 0.000000 0.042023 0.000000 0.013354
# 5 0.024254 -0.007242 0.022010 0.000000 0.062245 0.000000
# 6 0.000000 0.000000 0.000000 0.013354 0.000000 0.048303
#
#
# Mechanical properties :
#
#
# Convention : Reuss Voigt Hill
#
# Bulk Modulus (GPa) = 11.29208 19.05104 15.17156
# Shear Modulus (GPa) = 18.62191 25.64977 22.13584
#
# Velocity S-wave (km/s) = 3.04234 3.57057 3.31699
# Velocity P-wave (km/s) = 4.23718 5.14468 4.71283
#
# Compressibility (1/GPa) = 0.08855763
#
# Stress axis : x y z
#
# Youngs Moduli (GPa) = 26.65641 39.36720 40.70371
#
# Poissons Ratio (x) = 0.16380 -0.61144
# Poissons Ratio (y) = 0.11091 0.42023
# Poissons Ratio (z) = -0.40042 0.40643
#
# Static dielectric constant tensor:
#      x y z
#    x 1.696930 0.000000 0.020280 
#    y 0.000000 1.669970 0.000000 
#    z 0.020280 0.000000 1.733350 
# 
# From -- ./inp_files/36997.got.cif
#   From: 2010.05.17/outbox.cif.g08.bks.cpg/sg10_19_cif.got.tgz:36997.got - 2010.06.03 11:33:40.
