data_PCOD9152294
_publ_section_title
;
Structure prediction by ZEFSAII (Michael W. Deem and Ramdas Pophale) SiO2 
 PCOD9152294
Probable space group: P 2/M
;
_chemical_formula_sum "Si O2"
_cell_formula_units_Z 28
_cell_length_a 14.110881
_cell_length_b 7.640332
_cell_length_c 13.792405
_cell_angle_alpha 90.000000
_cell_angle_beta 119.758378
_cell_angle_gamma 90.000000
_cell_volume 1290.890034
_symmetry_space_group_name_H-M "P 2/M"
_symmetry_group_IT_number 10
_symmetry_cell_setting 'monoclinic'
loop_
_space_group_symop_operation_xyz
x,y,z
-x,y,-z
-x,-y,-z
x,-y,z
loop_
_atom_site_type_symbol
_atom_site_label
_atom_site_fract_x
_atom_site_fract_y
_atom_site_fract_z
Si Si1 0.061592 0.712653 0.742395
Si Si2 0.619006 0.297687 0.579465
Si Si3 0.753935 0.204732 0.318762
Si Si4 0.822273 0.702729 0.565592
Si Si5 0.338856 0.794346 0.181914
Si Si6 0.099823 0.288214 0.983149
Si Si7 0.520275 0.785869 0.120540
O O1 0.063659 0.500000 0.739735
O O2 0.155697 0.775161 0.718330
O O3 0.083571 0.767789 0.863900
O O4 0.942128 0.776295 0.648113
O O5 0.500000 0.217325 0.500000
O O6 0.611575 0.500000 0.541340
O O7 0.721064 0.217383 0.573500
O O8 0.643559 0.293914 0.705664
O O9 0.794585 0.291144 0.438297
O O10 0.637479 0.271535 0.221044
O O11 0.740179 0.000000 0.334315
O O12 0.829835 0.500000 0.601582
O O13 0.423846 0.730355 0.143753
O O14 0.360040 0.000000 0.207277
O O15 0.215980 0.770289 0.082848
O O16 0.099029 0.500000 0.983802
O O17 0.000000 0.228223 0.000000
O O18 0.520745 0.000000 0.118794
O O19 0.500000 0.727758 0.000000
#
# Coordination Sequence:
#
# PCOD9152294 Si02
#       7
#     4   4   4   4   4   4   4
#     4  10  21  37  57  80 109 147 186 226 275 330
#     4  10  21  38  60  84 112 149 191 233 277 330
#     4  11  22  36  57  83 111 144 184 230 277 327
#     4  10  21  38  58  80 110 147 184 224 276 333
#     4  11  22  36  58  86 115 147 184 230 283 336
#     4  10  21  39  61  83 111 148 189 231 276 329
#     4   9  19  36  55  77 110 149 182 218 272 331
#
# _framework density 21.690462
#
# number of rings (size 3 to 8) (size 9 to 14) (size 15 to 20)
#    0.000    1.857    0.000    3.857    0.000    7.429 
#    0.000    3.571    0.000    5.143    0.000    0.000 
#    0.000    0.000    0.000    0.000    0.000    0.000 
#
# Total GULP energy -156550.173243 kJ/mol
# GULP energy per Si atom -5591.077616 kJ/mol
# Density = 2.164109 g / cm^3
# Si number density = 21.690462 Si / 1000 Ang^3
#
#
#
# Elastic Constant Matrix: (Units=GPa)
#
#
# Indices 1 2 3 4 5 6 
#
# 1 203.2560 -9.2043 77.1297 0.0000 9.6178 0.0000
# 2 -9.2043 42.2179 -17.7254 0.0000 3.1971 0.0000
# 3 77.1297 -17.7254 139.5673 0.0000 11.5866 0.0000
# 4 0.0000 0.0000 0.0000 101.9886 0.0000 -3.3711
# 5 9.6178 3.1971 11.5866 0.0000 48.8754 0.0000
# 6 0.0000 0.0000 0.0000 -3.3711 0.0000 18.8591
#
#
#
# Elastic Compliance Matrix: (Units=1/GPa)
#
#
# Indices 1 2 3 4 5 6 
#
# 1 0.006234 -0.000044 -0.003416 0.000000 -0.000414 0.000000
# 2 -0.000044 0.025309 0.003443 0.000000 -0.002463 0.000000
# 3 -0.003416 0.003443 0.009643 0.000000 -0.001839 0.000000
# 4 0.000000 0.000000 0.000000 0.009863 0.000000 0.001763
# 5 -0.000414 -0.002463 -0.001839 0.000000 0.021139 0.000000
# 6 0.000000 0.000000 0.000000 0.001763 0.000000 0.053340
#
#
# Mechanical properties :
#
#
# Convention : Reuss Voigt Hill
#
# Bulk Modulus (GPa) = 24.30026 53.93790 39.11908
# Shear Modulus (GPa) = 35.89908 56.26738 46.08323
#
# Velocity S-wave (km/s) = 4.07266 5.09876 4.61432
# Velocity P-wave (km/s) = 5.77433 7.71908 6.81642
#
# Compressibility (1/GPa) = 0.04115182
#
# Stress axis : x y z
#
# Youngs Moduli (GPa) = 160.41378 39.51133 103.70328
#
# Poissons Ratio (x) = 0.00173 0.35428
# Poissons Ratio (y) = 0.00704 -0.35706
# Poissons Ratio (z) = 0.54802 -0.13604
#
# Static dielectric constant tensor:
#      x y z
#    x 1.768090 0.000000 0.014070 
#    y 0.000000 1.845110 0.000000 
#    z 0.014070 0.000000 1.722330 
# 
# From -- ./inp_files/50043.got.cif
#   From: 2010.05.17/outbox.cif.g08.bks.cpg/sg10_26_cif.got.tgz:50043.got - 2010.06.03 11:33:40.
