data_PCOD9152367
_publ_section_title
;
Structure prediction by ZEFSAII (Michael W. Deem and Ramdas Pophale) SiO2 
 PCOD9152367
Probable space group: P 2/M
;
_chemical_formula_sum "Si O2"
_cell_formula_units_Z 32
_cell_length_a 24.896613
_cell_length_b 9.013823
_cell_length_c 16.360748
_cell_angle_alpha 90.000000
_cell_angle_beta 26.295762
_cell_angle_gamma 90.000000
_cell_volume 1626.525810
_symmetry_space_group_name_H-M "P 2/M"
_symmetry_group_IT_number 10
_symmetry_cell_setting 'monoclinic'
loop_
_space_group_symop_operation_xyz
x,y,z
-x,y,-z
-x,-y,-z
x,-y,z
loop_
_atom_site_type_symbol
_atom_site_label
_atom_site_fract_x
_atom_site_fract_y
_atom_site_fract_z
Si Si1 0.220307 0.823794 0.554866
Si Si2 0.557981 0.674455 0.834864
Si Si3 0.006492 0.177466 0.248642
Si Si4 0.105523 0.174553 0.423287
Si Si5 0.326332 0.672987 0.034998
Si Si6 0.577945 0.823722 0.251099
Si Si7 0.683546 0.324575 0.415601
Si Si8 0.252491 0.325221 0.856518
O O1 0.326397 0.767545 0.349958
O O2 0.092023 0.792318 0.687395
O O3 0.241710 0.742635 0.611431
O O4 0.231325 0.000000 0.551152
O O5 0.591328 0.500000 0.796025
O O6 0.500000 0.721173 0.000000
O O7 0.453346 0.687688 0.909642
O O8 0.947151 0.217613 0.416651
O O9 0.030725 0.000000 0.217499
O O10 0.129641 0.263143 0.062900
O O11 0.219679 0.269554 0.238647
O O12 0.000000 0.190075 0.500000
O O13 0.139939 0.000000 0.380159
O O14 0.308895 0.500000 0.038243
O O15 0.335236 0.769915 0.941137
O O16 0.446956 0.753679 0.412239
O O17 0.635377 0.759797 0.255394
O O18 0.570581 0.000000 0.263467
O O19 0.664930 0.500000 0.454517
O O20 0.747142 0.302839 0.241425
O O21 0.266092 0.500000 0.854063
#
# Coordination Sequence:
#
# PCOD9152367 Si02
#       8
#     4   4   4   4   4   4   4   4
#     4  11  23  39  62  91 125 168 211 258 315 372
#     4  10  21  37  58  86 121 162 205 253 307 364
#     4  10  23  42  62  91 130 168 211 263 314 370
#     4  10  21  38  60  87 122 166 211 257 311 368
#     4  11  22  36  59  90 124 162 204 252 306 367
#     4  12  24  40  65  95 128 163 203 256 318 381
#     4  11  24  43  65  92 126 162 207 263 317 375
#     4  11  25  43  66  93 122 162 209 260 319 377
#
# _framework density 19.673836000000001
#
# number of rings (size 3 to 8) (size 9 to 14) (size 15 to 20)
#    0.000    1.250    1.250    4.500    0.000    7.500 
#    0.000    2.500    0.000    0.000    0.000    0.000 
#    0.000    0.000    0.000    0.000    0.000    0.000 
#
# Total GULP energy -179045.020191 kJ/mol
# GULP energy per Si atom -5595.156881 kJ/mol
# Density = 1.962906 g / cm^3
# Si number density = 19.673836 Si / 1000 Ang^3
#
#
#
# Elastic Constant Matrix: (Units=GPa)
#
#
# Indices 1 2 3 4 5 6 
#
# 1 96.0202 44.8044 13.2976 0.0000 12.1462 0.0000
# 2 44.8044 76.9501 30.9163 0.0000 0.0152 0.0000
# 3 13.2976 30.9163 63.9088 0.0000 2.1048 0.0000
# 4 0.0000 0.0000 0.0000 24.3825 0.0000 6.6994
# 5 12.1462 0.0152 2.1048 0.0000 26.9003 0.0000
# 6 0.0000 0.0000 0.0000 6.6994 0.0000 29.7474
#
#
#
# Elastic Compliance Matrix: (Units=1/GPa)
#
#
# Indices 1 2 3 4 5 6 
#
# 1 0.015666 -0.009813 0.001725 0.000000 -0.007203 0.000000
# 2 -0.009813 0.022287 -0.008908 0.000000 0.005115 0.000000
# 3 0.001725 -0.008908 0.019674 0.000000 -0.002313 0.000000
# 4 0.000000 0.000000 0.000000 0.043718 0.000000 -0.009846
# 5 -0.007203 0.005115 -0.002313 0.000000 0.040605 0.000000
# 6 0.000000 0.000000 0.000000 -0.009846 0.000000 0.035834
#
#
# Mechanical properties :
#
#
# Convention : Reuss Voigt Hill
#
# Bulk Modulus (GPa) = 42.31202 46.10174 44.20688
# Shear Modulus (GPa) = 22.76308 26.06343 24.41325
#
# Velocity S-wave (km/s) = 3.40519 3.64370 3.52646
# Velocity P-wave (km/s) = 6.08390 6.41763 6.25299
#
# Compressibility (1/GPa) = 0.02363395
#
# Stress axis : x y z
#
# Youngs Moduli (GPa) = 63.83437 44.86914 50.82841
#
# Poissons Ratio (x) = 0.44029 -0.08766
# Poissons Ratio (y) = 0.62639 0.45279
# Poissons Ratio (z) = -0.11009 0.39970
#
# Static dielectric constant tensor:
#      x y z
#    x 1.689530 0.000000 0.019330 
#    y 0.000000 1.658080 0.000000 
#    z 0.019330 0.000000 1.664550 
# 
# From -- ./inp_files/71548.got.cif
#   From: 2010.05.17/outbox.cif.g08.bks.cpg/sg10_36_cif.got.tgz:71548.got - 2010.06.03 11:33:40.
