data_PCOD9152371
_publ_section_title
;
Structure prediction by ZEFSAII (Michael W. Deem and Ramdas Pophale) SiO2 
 PCOD9152371
Probable space group: P 2/M
;
_chemical_formula_sum "Si O2"
_cell_formula_units_Z 28
_cell_length_a 9.609248
_cell_length_b 9.249836
_cell_length_c 25.344610
_cell_angle_alpha 90.000000
_cell_angle_beta 138.416509
_cell_angle_gamma 90.000000
_cell_volume 1495.160716
_symmetry_space_group_name_H-M "P 2/M"
_symmetry_group_IT_number 10
_symmetry_cell_setting 'monoclinic'
loop_
_space_group_symop_operation_xyz
x,y,z
-x,y,-z
-x,-y,-z
x,-y,z
loop_
_atom_site_type_symbol
_atom_site_label
_atom_site_fract_x
_atom_site_fract_y
_atom_site_fract_z
Si Si1 0.878476 0.335278 0.808006
Si Si2 0.816511 0.663265 0.913939
Si Si3 0.904066 0.172939 0.368843
Si Si4 0.602625 0.165221 0.189645
Si Si5 0.650053 0.326200 0.491975
Si Si6 0.534909 0.826146 0.349678
Si Si7 0.696346 0.832122 0.092330
O O1 0.858311 0.500000 0.781912
O O2 0.881393 0.341442 0.871945
O O3 0.678895 0.240761 0.734080
O O4 0.097222 0.263168 0.854786
O O5 0.788900 0.500000 0.926752
O O6 0.597095 0.740495 0.854815
O O7 0.000000 0.735324 0.000000
O O8 0.796165 0.206317 0.281927
O O9 0.731337 0.203843 0.365701
O O10 0.116061 0.263493 0.433773
O O11 0.950247 0.000000 0.384641
O O12 0.641246 0.171870 0.138437
O O13 0.554255 0.000000 0.190790
O O14 0.500000 0.295075 0.500000
O O15 0.654690 0.500000 0.486367
O O16 0.569802 0.247872 0.416217
O O17 0.519023 0.000000 0.349956
O O18 0.741127 0.000000 0.090532
O O19 0.500000 0.785279 0.000000
#
# Coordination Sequence:
#
# PCOD9152371 Si02
#       7
#     4   4   4   4   4   4   4
#     4  11  23  38  60  90 124 161 205 253 306 363
#     4  10  21  37  58  87 122 160 203 249 301 360
#     4  10  22  41  64  92 122 159 206 249 301 359
#     4  10  21  38  60  88 120 158 206 253 298 354
#     4  11  26  44  64  95 129 159 197 242 297 362
#     4  11  23  42  67  92 122 159 203 250 302 362
#     4  10  22  39  59  87 123 165 211 256 306 361
#
# _framework density 18.727083
#
# number of rings (size 3 to 8) (size 9 to 14) (size 15 to 20)
#    0.000    1.571    1.429    2.571    2.000    6.286 
#    0.000    0.000    0.000    0.000    0.000    0.000 
#    0.000    0.000    0.000    0.000    0.000    0.000 
#
# Total GULP energy -156334.479096 kJ/mol
# GULP energy per Si atom -5583.374253 kJ/mol
# Density = 1.868446 g / cm^3
# Si number density = 18.727083 Si / 1000 Ang^3
#
#
#
# Elastic Constant Matrix: (Units=GPa)
#
#
# Indices 1 2 3 4 5 6 
#
# 1 97.5000 77.3318 78.7930 0.0000 16.4825 0.0000
# 2 77.3318 110.4068 98.0958 0.0000 24.5249 0.0000
# 3 78.7930 98.0958 194.5776 0.0000 14.5164 0.0000
# 4 0.0000 0.0000 0.0000 4.8604 0.0000 -6.7825
# 5 16.4825 24.5249 14.5164 0.0000 41.4818 0.0000
# 6 0.0000 0.0000 0.0000 -6.7825 0.0000 22.3205
#
#
#
# Elastic Compliance Matrix: (Units=1/GPa)
#
#
# Indices 1 2 3 4 5 6 
#
# 1 0.023592 -0.014559 -0.002214 0.000000 0.000008 0.000000
# 2 -0.014559 0.027633 -0.007443 0.000000 -0.007948 0.000000
# 3 -0.002214 -0.007443 0.009646 0.000000 0.001904 0.000000
# 4 0.000000 0.000000 0.000000 0.357213 0.000000 0.108545
# 5 0.000008 -0.007948 0.001904 0.000000 0.028136 0.000000
# 6 0.000000 0.000000 0.000000 0.108545 0.000000 0.077785
#
#
# Mechanical properties :
#
#
# Convention : Reuss Voigt Hill
#
# Bulk Modulus (GPa) = 80.38912 101.21398 90.80155
# Shear Modulus (GPa) = 8.67179 23.61680 16.14430
#
# Velocity S-wave (km/s) = 2.15422 3.55506 2.93931
# Velocity P-wave (km/s) = 7.01480 8.42706 7.75315
#
# Compressibility (1/GPa) = 0.01243949
#
# Stress axis : x y z
#
# Youngs Moduli (GPa) = 42.38811 36.18864 103.66937
#
# Poissons Ratio (x) = 0.52686 0.22954
# Poissons Ratio (y) = 0.61712 0.77158
# Poissons Ratio (z) = 0.09385 0.26934
#
# Static dielectric constant tensor:
#      x y z
#    x 1.945080 0.000000 -0.285610 
#    y 0.000000 1.646740 0.000000 
#    z -0.285610 0.000000 1.890120 
# 
# From -- ./inp_files/37310.got.cif
#   From: 2010.05.17/outbox.cif.g08.bks.cpg/sg10_19_cif.got.tgz:37310.got - 2010.06.03 11:33:40.
