data_PCOD9152282
_publ_section_title
;
Structure prediction by ZEFSAII (Michael W. Deem and Ramdas Pophale) SiO2 
 PCOD9152282
Probable space group: P 2/M
;
_chemical_formula_sum "Si O2"
_cell_formula_units_Z 32
_cell_length_a 20.020530
_cell_length_b 7.529554
_cell_length_c 26.285231
_cell_angle_alpha 90.000000
_cell_angle_beta 161.815916
_cell_angle_gamma 90.000000
_cell_volume 1236.545373
_symmetry_space_group_name_H-M "P 2/M"
_symmetry_group_IT_number 10
_symmetry_cell_setting 'monoclinic'
loop_
_space_group_symop_operation_xyz
x,y,z
-x,y,-z
-x,-y,-z
x,-y,z
loop_
_atom_site_type_symbol
_atom_site_label
_atom_site_fract_x
_atom_site_fract_y
_atom_site_fract_z
Si Si1 0.593569 0.217461 0.013132
Si Si2 0.719606 0.707094 0.834080
Si Si3 0.934488 0.710784 0.777276
Si Si4 0.401100 0.717462 0.143937
Si Si5 0.924595 0.788769 0.658088
Si Si6 0.811047 0.796820 0.330505
Si Si7 0.779423 0.705471 0.770197
Si Si8 0.152321 0.293235 0.507692
O O1 0.421422 0.282242 0.846872
O O2 0.591913 0.000000 0.010792
O O3 0.500000 0.272360 0.000000
O O4 0.831265 0.278948 0.172522
O O5 0.655651 0.500000 0.784864
O O6 0.627021 0.784399 0.818500
O O7 0.674833 0.785748 0.745763
O O8 0.972204 0.703614 0.031747
O O9 0.947694 0.500000 0.796388
O O10 0.845066 0.737148 0.656382
O O11 0.796111 0.781738 0.725084
O O12 0.183241 0.777158 0.958438
O O13 0.400630 0.500000 0.142932
O O14 0.647128 0.769865 0.312717
O O15 0.803807 0.726195 0.520492
O O16 0.929028 0.000000 0.659660
O O17 0.000000 0.709928 0.500000
O O18 0.932486 0.801540 0.363425
O O19 0.786137 0.000000 0.328561
O O20 0.703886 0.500000 0.711232
O O21 0.120417 0.500000 0.493654
#
# Coordination Sequence:
#
# PCOD9152282 Si02
#       8
#     4   4   4   4   4   4   4   4
#     4   9  17  34  55  72  92 121 163 209 242 278
#     4   7   9  18  38  67  98 129 159 192 240 292
#     4   9  17  31  50  77 106 129 158 205 257 295
#     4   8  16  29  47  73 107 135 159 200 252 300
#     4  11  22  36  54  73  97 133 173 207 242 293
#     4  10  21  37  57  77  98 127 163 204 248 293
#     4   7  10  18  39  69  99 125 156 198 242 289
#     4  11  22  36  52  74 105 137 165 200 249 298
#
# _framework density 25.878549
#
# number of rings (size 3 to 8) (size 9 to 14) (size 15 to 20)
#    0.000    3.000    1.250    3.000    1.750    0.250 
#    0.000    2.500    0.000    0.750    0.000   14.000 
#    0.000    0.000    0.000    0.000    0.000    0.000 
#
# Total GULP energy -178535.774825 kJ/mol
# GULP energy per Si atom -5579.242963 kJ/mol
# Density = 2.581965 g / cm^3
# Si number density = 25.878549 Si / 1000 Ang^3
#
#
#
# Elastic Constant Matrix: (Units=GPa)
#
#
# Indices 1 2 3 4 5 6 
#
# 1 98.1124 9.8515 -4.9981 0.0000 -41.3583 0.0000
# 2 9.8515 81.9184 -5.2266 0.0000 -1.4905 0.0000
# 3 -4.9981 -5.2266 83.7213 0.0000 -22.2607 0.0000
# 4 0.0000 0.0000 0.0000 3.6986 0.0000 5.9088
# 5 -41.3583 -1.4905 -22.2607 0.0000 35.0576 0.0000
# 6 0.0000 0.0000 0.0000 5.9088 0.0000 94.6068
#
#
#
# Elastic Compliance Matrix: (Units=1/GPa)
#
#
# Indices 1 2 3 4 5 6 
#
# 1 0.028628 -0.001873 0.012694 0.000000 0.041754 0.000000
# 2 -0.001873 0.012422 0.000260 0.000000 -0.001516 0.000000
# 3 0.012694 0.000260 0.020096 0.000000 0.027747 0.000000
# 4 0.000000 0.000000 0.000000 0.300342 0.000000 -0.018758
# 5 0.041754 -0.001516 0.027747 0.000000 0.095338 0.000000
# 6 0.000000 0.000000 0.000000 -0.018758 0.000000 0.011742
#
#
# Mechanical properties :
#
#
# Convention : Reuss Voigt Hill
#
# Bulk Modulus (GPa) = 12.00348 29.22287 20.61318
# Shear Modulus (GPa) = 10.54464 44.28095 27.41280
#
# Velocity S-wave (km/s) = 2.02077 4.14104 3.25820
# Velocity P-wave (km/s) = 3.17697 5.84646 4.70501
#
# Compressibility (1/GPa) = 0.08330914
#
# Stress axis : x y z
#
# Youngs Moduli (GPa) = 34.93050 80.50518 49.76047
#
# Poissons Ratio (x) = 0.15080 -0.63167
# Poissons Ratio (y) = 0.06543 -0.01296
# Poissons Ratio (z) = -0.44342 -0.02097
#
# Static dielectric constant tensor:
#      x y z
#    x 2.205520 0.000000 0.013630 
#    y 0.000000 1.957870 0.000000 
#    z 0.013630 0.000000 2.049360 
# 
# From -- ./inp_files/93777.got.cif
#   From: 2010.05.17/outbox.cif.g08.bks.cpg/sg10_47_cif.got.tgz:93777.got - 2010.06.03 11:33:40.
