data_PCOD9152719
_publ_section_title
;
Structure prediction by ZEFSAII (Michael W. Deem and Ramdas Pophale) SiO2 
 PCOD9152719
Probable space group: P 2/M
;
_chemical_formula_sum "Si O2"
_cell_formula_units_Z 28
_cell_length_a 23.496987
_cell_length_b 9.255836
_cell_length_c 20.710526
_cell_angle_alpha 90.000000
_cell_angle_beta 163.294239
_cell_angle_gamma 90.000000
_cell_volume 1294.766883
_symmetry_space_group_name_H-M "P 2/M"
_symmetry_group_IT_number 10
_symmetry_cell_setting 'monoclinic'
loop_
_space_group_symop_operation_xyz
x,y,z
-x,y,-z
-x,-y,-z
x,-y,z
loop_
_atom_site_type_symbol
_atom_site_label
_atom_site_fract_x
_atom_site_fract_y
_atom_site_fract_z
Si Si1 0.978223 0.828348 0.052214
Si Si2 0.315978 0.332896 0.871645
Si Si3 0.887962 0.332170 0.478962
Si Si4 0.321222 0.330400 0.503876
Si Si5 0.744506 0.668126 0.894181
Si Si6 0.498240 0.165310 0.814175
Si Si7 0.072827 0.835233 0.791426
O O1 0.155499 0.751193 0.283062
O O2 0.982389 0.000000 0.067218
O O3 0.000000 0.800041 0.000000
O O4 0.782181 0.759777 0.870848
O O5 0.378917 0.500000 0.939493
O O6 0.267750 0.288772 0.745808
O O7 0.102395 0.329681 0.675896
O O8 0.462165 0.240452 0.074296
O O9 0.854365 0.500000 0.460981
O O10 0.915809 0.229559 0.570425
O O11 0.277417 0.500000 0.464884
O O12 0.525233 0.319037 0.684841
O O13 0.363129 0.254756 0.617981
O O14 0.786143 0.500000 0.928166
O O15 0.889381 0.732997 0.106502
O O16 0.434155 0.000000 0.751051
O O17 0.715630 0.163204 0.016036
O O18 0.030087 0.000000 0.764348
#
# Coordination Sequence:
#
# PCOD9152719 Si02
#       7
#     4   4   4   4   4   4   4
#     4  11  25  43  63  89 120 151 184 227 281 341
#     4   8  13  21  34  56  91 135 181 229 279 329
#     4   8  13  21  34  56  91 135 181 229 279 329
#     4  10  21  38  61  87 116 152 193 236 281 333
#     4  10  21  38  61  87 116 152 193 236 281 333
#     4   9  16  26  43  69 102 140 183 231 281 333
#     4   9  16  26  43  69 102 140 183 231 281 333
#
# _framework density 21.625513999999999
#
# number of rings (size 3 to 8) (size 9 to 14) (size 15 to 20)
#    0.000    2.714    0.000    3.000    0.000    7.429 
#    0.000    5.714    0.000    0.000    0.000    1.000 
#    0.000    8.000    0.000    0.857    0.000    0.571 
#
# Total GULP energy -156611.089557 kJ/mol
# GULP energy per Si atom -5593.253198 kJ/mol
# Density = 2.157629 g / cm^3
# Si number density = 21.625514 Si / 1000 Ang^3
#
#
#
# Elastic Constant Matrix: (Units=GPa)
#
#
# Indices 1 2 3 4 5 6 
#
# 1 114.6380 67.0057 24.7074 0.0000 -8.8575 0.0000
# 2 67.0057 131.0292 36.6093 0.0000 -23.5194 0.0000
# 3 24.7074 36.6093 86.9794 0.0000 -3.2671 0.0000
# 4 0.0000 0.0000 0.0000 28.4173 0.0000 -5.2026
# 5 -8.8575 -23.5194 -3.2671 0.0000 29.9947 0.0000
# 6 0.0000 0.0000 0.0000 -5.2026 0.0000 39.2975
#
#
#
# Elastic Compliance Matrix: (Units=1/GPa)
#
#
# Indices 1 2 3 4 5 6 
#
# 1 0.012567 -0.006426 -0.000919 0.000000 -0.001428 0.000000
# 2 -0.006426 0.013366 -0.003492 0.000000 0.008203 0.000000
# 3 -0.000919 -0.003492 0.013169 0.000000 -0.001575 0.000000
# 4 0.000000 0.000000 0.000000 0.036064 0.000000 0.004775
# 5 -0.001428 0.008203 -0.001575 0.000000 0.039178 0.000000
# 6 0.000000 0.000000 0.000000 0.004775 0.000000 0.026079
#
#
# Mechanical properties :
#
#
# Convention : Reuss Voigt Hill
#
# Bulk Modulus (GPa) = 57.38016 65.47682 61.42849
# Shear Modulus (GPa) = 29.77868 33.16352 31.47110
#
# Velocity S-wave (km/s) = 3.71484 3.92029 3.81895
# Velocity P-wave (km/s) = 6.70755 7.12986 6.92192
#
# Compressibility (1/GPa) = 0.01742763
#
# Stress axis : x y z
#
# Youngs Moduli (GPa) = 79.57493 74.81620 75.93792
#
# Poissons Ratio (x) = 0.48077 0.06976
# Poissons Ratio (y) = 0.51135 0.26520
# Poissons Ratio (z) = 0.07310 0.26128
#
# Static dielectric constant tensor:
#      x y z
#    x 1.808160 0.000000 0.081610 
#    y 0.000000 1.719650 0.000000 
#    z 0.081610 0.000000 1.813400 
# 
# From -- ./inp_files/86551.got.cif
#   From: 2010.05.17/outbox.cif.g08.bks.cpg/sg10_44_cif.got.tgz:86551.got - 2010.06.03 11:33:40.
