data_PCOD9152728
_publ_section_title
;
Structure prediction by ZEFSAII (Michael W. Deem and Ramdas Pophale) SiO2 
 PCOD9152728
Probable space group: P 2/M
;
_chemical_formula_sum "Si O2"
_cell_formula_units_Z 18
_cell_length_a 8.929730
_cell_length_b 9.768067
_cell_length_c 10.114881
_cell_angle_alpha 90.000000
_cell_angle_beta 69.249417
_cell_angle_gamma 90.000000
_cell_volume 825.050383
_symmetry_space_group_name_H-M "P 2/M"
_symmetry_group_IT_number 10
_symmetry_cell_setting 'monoclinic'
loop_
_space_group_symop_operation_xyz
x,y,z
-x,y,-z
-x,-y,-z
x,-y,z
loop_
_atom_site_type_symbol
_atom_site_label
_atom_site_fract_x
_atom_site_fract_y
_atom_site_fract_z
Si Si1 0.240120 0.157974 0.056035
Si Si2 0.661269 0.150702 0.667651
Si Si3 0.000000 0.257060 0.500000
Si Si4 0.963994 0.349617 0.221130
Si Si5 0.385020 0.340993 0.783791
O O1 0.310178 0.158096 0.182694
O O2 0.067145 0.229943 0.122799
O O3 0.233097 0.000000 0.013770
O O4 0.342589 0.251925 0.926481
O O5 0.537608 0.269216 0.669943
O O6 0.836669 0.170388 0.551073
O O7 0.597210 0.000000 0.655468
O O8 0.000581 0.341822 0.634492
O O9 0.014963 0.500000 0.154772
O O10 0.776245 0.334149 0.252538
O O11 0.417136 0.500000 0.804326
#
# Coordination Sequence:
#
# PCOD9152728 Si02
#       5
#     4   4   2   4   4
#     4  10  21  38  61  88 118 153 192 233 283 343
#     4  10  22  40  61  85 116 152 192 238 285 339
#     4  10  22  42  64  82 108 152 200 240 286 340
#     4  10  22  39  60  86 117 153 192 237 285 339
#     4  11  23  37  57  89 122 150 188 237 288 341
#
# _framework density 21.816848
#
# number of rings (size 3 to 8) (size 9 to 14) (size 15 to 20)
#    0.000    1.778    0.000    3.333    0.000   14.222 
#    0.000    3.333    0.000    0.000    0.000    0.000 
#    0.000    0.000    0.000    0.000    0.000    0.000 
#
# Total GULP energy -100632.135416 kJ/mol
# GULP energy per Si atom -5590.674190 kJ/mol
# Density = 2.176719 g / cm^3
# Si number density = 21.816848 Si / 1000 Ang^3
#
#
#
# Elastic Constant Matrix: (Units=GPa)
#
#
# Indices 1 2 3 4 5 6 
#
# 1 68.8159 63.4049 15.5752 0.0000 -30.9769 0.0000
# 2 63.4049 197.2753 35.5393 0.0000 -29.7754 0.0000
# 3 15.5752 35.5393 62.9715 0.0000 -16.4348 0.0000
# 4 0.0000 0.0000 0.0000 115.2773 0.0000 103.8867
# 5 -30.9769 -29.7754 -16.4348 0.0000 38.9808 0.0000
# 6 0.0000 0.0000 0.0000 103.8867 0.0000 110.1453
#
#
#
# Elastic Compliance Matrix: (Units=1/GPa)
#
#
# Indices 1 2 3 4 5 6 
#
# 1 0.028563 -0.006697 0.001465 0.000000 0.018200 0.000000
# 2 -0.006697 0.007627 -0.002828 0.000000 -0.000688 0.000000
# 3 0.001465 -0.002828 0.018938 0.000000 0.006989 0.000000
# 4 0.000000 0.000000 0.000000 0.057825 0.000000 -0.054539
# 5 0.018200 -0.000688 0.006989 0.000000 0.042538 0.000000
# 6 0.000000 0.000000 0.000000 -0.054539 0.000000 0.060519
#
#
# Mechanical properties :
#
#
# Convention : Reuss Voigt Hill
#
# Bulk Modulus (GPa) = 25.63551 62.01127 43.82339
# Shear Modulus (GPa) = 20.39718 67.18358 43.79038
#
# Velocity S-wave (km/s) = 3.06098 5.55529 4.48502
# Velocity P-wave (km/s) = 4.92632 8.34467 6.85209
#
# Compressibility (1/GPa) = 0.03900839
#
# Stress axis : x y z
#
# Youngs Moduli (GPa) = 35.00995 131.11189 52.80479
#
# Poissons Ratio (x) = 0.87808 -0.07736
# Poissons Ratio (y) = 0.23447 0.14931
# Poissons Ratio (z) = -0.05129 0.37074
#
# Static dielectric constant tensor:
#      x y z
#    x 1.798570 0.000000 -0.009170 
#    y 0.000000 1.780100 0.000000 
#    z -0.009170 0.000000 1.806330 
# 
# From -- ./inp_files/22355.got.cif
#   From: 2010.05.17/outbox.cif.g08.bks.cpg/sg10_12_cif.got.tgz:22355.got - 2010.06.03 11:33:40.
