data_PCOD9152886
_publ_section_title
;
Structure prediction by ZEFSAII (Michael W. Deem and Ramdas Pophale) SiO2 
 PCOD9152886
Probable space group: P 2/M
;
_chemical_formula_sum "Si O2"
_cell_formula_units_Z 21
_cell_length_a 8.586400
_cell_length_b 13.983512
_cell_length_c 16.706463
_cell_angle_alpha 90.000000
_cell_angle_beta 31.108936
_cell_angle_gamma 90.000000
_cell_volume 1036.388301
_symmetry_space_group_name_H-M "P 2/M"
_symmetry_group_IT_number 10
_symmetry_cell_setting 'monoclinic'
loop_
_space_group_symop_operation_xyz
x,y,z
-x,y,-z
-x,-y,-z
x,-y,z
loop_
_atom_site_type_symbol
_atom_site_label
_atom_site_fract_x
_atom_site_fract_y
_atom_site_fract_z
Si Si1 0.747152 0.701825 0.461939
Si Si2 0.428472 0.673277 0.148954
Si Si3 0.412238 0.390415 0.743892
Si Si4 0.506379 0.105631 0.400757
Si Si5 0.982168 0.210396 0.915041
Si Si6 0.500000 0.500000 0.000000
O O1 0.500000 0.696364 0.500000
O O2 0.659079 0.622544 0.565627
O O3 0.711773 0.804906 0.520908
O O4 0.079947 0.690459 0.282234
O O5 0.454418 0.644527 0.230707
O O6 0.640643 0.765192 0.042420
O O7 0.540595 0.583921 0.049548
O O8 0.310398 0.500000 0.792691
O O9 0.150392 0.314046 0.839056
O O10 0.500000 0.100175 0.500000
O O11 0.829214 0.140011 0.224468
O O12 0.429707 0.000000 0.403454
O O13 0.000000 0.178027 0.000000
#
# Coordination Sequence:
#
# PCOD9152886 Si02
#       6
#     4   4   4   4   4   1
#     4  10  23  39  61  86 116 156 197 245 289 349
#     4  11  24  39  56  86 125 155 200 238 290 341
#     4  10  21  39  60  82 117 160 199 238 292 345
#     4   9  19  39  62  85 114 151 193 243 303 353
#     4   9  21  38  62  87 116 155 193 246 295 351
#     4  12  28  32  58  88 120 166 198 242 278 346
#
# _framework density 20.262675000000002
#
# number of rings (size 3 to 8) (size 9 to 14) (size 15 to 20)
#    0.000    2.095    0.952    0.571   10.667    2.667 
#    0.000    0.952    0.000   20.571    0.000    0.000 
#    0.000    0.000    0.000    0.000    0.000    0.000 
#
# Total GULP energy -116933.172560 kJ/mol
# GULP energy per Si atom -5568.246312 kJ/mol
# Density = 2.021656 g / cm^3
# Si number density = 20.262675 Si / 1000 Ang^3
#
#
#
# Elastic Constant Matrix: (Units=GPa)
#
#
# Indices 1 2 3 4 5 6 
#
# 1 67.9003 18.6618 39.2495 0.0000 -0.8980 0.0000
# 2 18.6618 87.5053 6.6716 0.0000 12.6204 0.0000
# 3 39.2495 6.6716 75.2217 0.0000 11.7174 0.0000
# 4 0.0000 0.0000 0.0000 8.1181 0.0000 -11.0105
# 5 -0.8980 12.6204 11.7174 0.0000 32.2603 0.0000
# 6 0.0000 0.0000 0.0000 -11.0105 0.0000 -23.0516
#
#
#
# Elastic Compliance Matrix: (Units=1/GPa)
#
#
# Indices 1 2 3 4 5 6 
#
# 1 0.023841 -0.005158 -0.013144 0.000000 0.007455 0.000000
# 2 -0.005158 0.013236 0.002487 0.000000 -0.006225 0.000000
# 3 -0.013144 0.002487 0.021348 0.000000 -0.009093 0.000000
# 4 0.000000 0.000000 0.000000 0.074754 0.000000 -0.035706
# 5 0.007455 -0.006225 -0.009093 0.000000 0.036943 0.000000
# 6 0.000000 0.000000 0.000000 -0.035706 0.000000 -0.026326
#
#
# Mechanical properties :
#
#
# Convention : Reuss Voigt Hill
#
# Bulk Modulus (GPa) = 37.31883 39.97702 38.64792
# Shear Modulus (GPa) = 27.12116 14.53498 20.82807
#
# Velocity S-wave (km/s) = 3.66249 2.68120 3.20957
# Velocity P-wave (km/s) = 6.02849 5.41824 5.73149
#
# Compressibility (1/GPa) = 0.02679613
#
# Stress axis : x y z
#
# Youngs Moduli (GPa) = 41.94382 75.55153 46.84246
#
# Poissons Ratio (x) = 0.38967 0.61570
# Poissons Ratio (y) = 0.21633 -0.11649
# Poissons Ratio (z) = 0.55131 -0.18789
#
# Static dielectric constant tensor:
#      x y z
#    x 1.751970 0.000000 0.001870 
#    y 0.000000 1.690620 0.000000 
#    z 0.001870 0.000000 1.776920 
# 
# From -- ./inp_files/75170.got.cif
#   From: 2010.05.17/outbox.cif.g08.bks.cpg/sg10_38_cif.got.tgz:75170.got - 2010.06.03 11:33:40.
