data_PCOD9152577
_publ_section_title
;
Structure prediction by ZEFSAII (Michael W. Deem and Ramdas Pophale) SiO2 
 PCOD9152577
Probable space group: P 2/M
;
_chemical_formula_sum "Si O2"
_cell_formula_units_Z 24
_cell_length_a 12.871050
_cell_length_b 19.839335
_cell_length_c 5.239909
_cell_angle_alpha 90.000000
_cell_angle_beta 56.533526
_cell_angle_gamma 90.000000
_cell_volume 1116.193569
_symmetry_space_group_name_H-M "P 2/M"
_symmetry_group_IT_number 10
_symmetry_cell_setting 'monoclinic'
loop_
_space_group_symop_operation_xyz
x,y,z
-x,y,-z
-x,-y,-z
x,-y,z
loop_
_atom_site_type_symbol
_atom_site_label
_atom_site_fract_x
_atom_site_fract_y
_atom_site_fract_z
Si Si1 0.690875 0.000000 0.682498
Si Si2 0.702659 0.282393 0.405002
Si Si3 0.857801 0.000000 0.955463
Si Si4 0.616328 0.135900 0.530133
Si Si5 0.861875 0.265422 0.679117
Si Si6 0.415334 0.427897 0.365053
Si Si7 0.100475 0.858284 0.065309
O O1 0.622362 0.072616 0.721256
O O2 0.751307 0.000000 0.880722
O O3 0.794475 0.000000 0.319594
O O4 0.610395 0.218014 0.585706
O O5 0.807720 0.274117 0.475436
O O6 0.649884 0.356191 0.527877
O O7 0.765509 0.284029 0.037550
O O8 0.937971 0.933519 0.824653
O O9 0.500000 0.121274 0.500000
O O10 0.757720 0.135825 0.229776
O O11 0.000000 0.297162 0.500000
O O12 0.880503 0.186650 0.713209
O O13 0.500000 0.430681 0.500000
O O14 0.342827 0.500000 0.455272
O O15 0.500000 0.426631 0.000000
O O16 0.000000 0.829671 0.000000
#
# Coordination Sequence:
#
# PCOD9152577 Si02
#       7
#     2   4   2   4   4   4   4
#     4  10  21  40  56  80 118 160 200 246 312 371
#     4  11  22  38  62  91 121 161 206 255 307 371
#     4  10  21  38  58  82 110 150 204 262 313 367
#     4  10  21  38  59  86 119 158 203 254 309 370
#     4  11  22  39  60  86 120 161 207 255 308 367
#     4  10  21  39  64  95 129 162 198 248 311 375
#     4  10  21  39  59  85 116 156 206 260 316 371
#
# _framework density 21.501647999999999
#
# number of rings (size 3 to 8) (size 9 to 14) (size 15 to 20)
#    0.000    1.667    0.000    5.500    0.000    2.667 
#    0.000   17.083    0.000    3.000    0.000    0.000 
#    0.000    0.000    0.000    0.000    0.000    0.000 
#
# Total GULP energy -133717.512784 kJ/mol
# GULP energy per Si atom -5571.563033 kJ/mol
# Density = 2.145271 g / cm^3
# Si number density = 21.501648 Si / 1000 Ang^3
#
#
#
# Elastic Constant Matrix: (Units=GPa)
#
#
# Indices 1 2 3 4 5 6 
#
# 1 124.9043 14.1651 4.2988 0.0000 8.5189 0.0000
# 2 14.1651 181.0099 8.8928 0.0000 -8.5145 0.0000
# 3 4.2988 8.8928 87.7488 0.0000 -4.4729 0.0000
# 4 0.0000 0.0000 0.0000 34.0585 0.0000 5.0908
# 5 8.5189 -8.5145 -4.4729 0.0000 21.2847 0.0000
# 6 0.0000 0.0000 0.0000 5.0908 0.0000 12.4646
#
#
#
# Elastic Compliance Matrix: (Units=1/GPa)
#
#
# Indices 1 2 3 4 5 6 
#
# 1 0.008374 -0.000808 -0.000521 0.000000 -0.003784 0.000000
# 2 -0.000808 0.005727 -0.000412 0.000000 0.002528 0.000000
# 3 -0.000521 -0.000412 0.011590 0.000000 0.002479 0.000000
# 4 0.000000 0.000000 0.000000 0.031270 0.000000 -0.012771
# 5 -0.003784 0.002528 0.002479 0.000000 0.050029 0.000000
# 6 0.000000 0.000000 0.000000 -0.012771 0.000000 0.085443
#
#
# Mechanical properties :
#
#
# Convention : Reuss Voigt Hill
#
# Bulk Modulus (GPa) = 45.02752 49.81960 47.42356
# Shear Modulus (GPa) = 24.59207 37.98198 31.28703
#
# Velocity S-wave (km/s) = 3.38558 4.20750 3.81871
# Velocity P-wave (km/s) = 6.02244 6.84284 6.44570
#
# Compressibility (1/GPa) = 0.02220864
#
# Stress axis : x y z
#
# Youngs Moduli (GPa) = 119.42071 174.61443 86.28249
#
# Poissons Ratio (x) = 0.14103 0.04498
# Poissons Ratio (y) = 0.09645 0.03555
# Poissons Ratio (z) = 0.06225 0.07194
#
# Static dielectric constant tensor:
#      x y z
#    x 1.790070 0.000000 -0.047130 
#    y 0.000000 1.904680 0.000000 
#    z -0.047130 0.000000 1.874750 
# 
# From -- ./inp_files/7494.got.cif
#   From: 2010.05.17/outbox.cif.g08.bks.cpg/sg10_4_cif.got.tgz:7494.got - 2010.06.03 11:33:40.
