data_PCOD9152045
_publ_section_title
;
Structure prediction by ZEFSAII (Michael W. Deem and Ramdas Pophale) SiO2 
 PCOD9152045
Probable space group: P 2/M
;
_chemical_formula_sum "Si O2"
_cell_formula_units_Z 28
_cell_length_a 9.361106
_cell_length_b 11.714439
_cell_length_c 15.572895
_cell_angle_alpha 90.000000
_cell_angle_beta 59.073369
_cell_angle_gamma 90.000000
_cell_volume 1464.931371
_symmetry_space_group_name_H-M "P 2/M"
_symmetry_group_IT_number 10
_symmetry_cell_setting 'monoclinic'
loop_
_space_group_symop_operation_xyz
x,y,z
-x,y,-z
-x,-y,-z
x,-y,z
loop_
_atom_site_type_symbol
_atom_site_label
_atom_site_fract_x
_atom_site_fract_y
_atom_site_fract_z
Si Si1 0.964580 0.000000 0.659503
Si Si2 0.976287 0.630958 0.908292
Si Si3 0.474073 0.795708 0.606550
Si Si4 0.273797 0.000000 0.429419
Si Si5 0.570736 0.635990 0.727555
Si Si6 0.959841 0.363363 0.609540
Si Si7 0.093473 0.787036 0.715624
Si Si8 0.411486 0.631685 0.948869
O O1 0.978305 0.109869 0.717069
O O2 0.812248 0.000000 0.638311
O O3 0.127240 0.000000 0.546248
O O4 0.043341 0.500000 0.876662
O O5 0.041736 0.718031 0.817054
O O6 0.777929 0.625489 0.965090
O O7 0.000000 0.665632 0.000000
O O8 0.500000 0.763422 0.500000
O O9 0.606564 0.892341 0.591535
O O10 0.509592 0.692998 0.659780
O O11 0.280774 0.831610 0.671678
O O12 0.558123 0.500000 0.721865
O O13 0.764895 0.662255 0.686854
O O14 0.455535 0.677872 0.841840
O O15 0.981549 0.500000 0.607275
O O16 0.000000 0.325168 0.500000
O O17 0.077123 0.302815 0.642116
O O18 0.475563 0.500000 0.923415
O O19 0.500000 0.693306 0.000000
#
# Coordination Sequence:
#
# PCOD9152045 Si02
#       8
#     2   4   4   2   4   4   4   4
#     4  11  25  42  68  87 112 153 207 254 304 355
#     4  10  21  38  60  89 125 162 198 241 297 361
#     4  12  23  38  59  86 121 156 196 245 293 358
#     4  11  24  45  64  84 114 156 204 255 293 358
#     4  10  21  36  56  87 125 163 201 244 299 356
#     4  10  21  36  55  86 128 167 203 245 298 362
#     4  12  23  37  62  91 119 158 202 251 304 360
#     4   9  17  32  55  81 111 152 201 246 285 337
#
# _framework density 19.113523000000001
#
# number of rings (size 3 to 8) (size 9 to 14) (size 15 to 20)
#    0.000    1.429    1.429    4.500    2.000    4.857 
#    0.000    0.357    0.000    0.857    0.000    6.000 
#    0.000    0.000    0.000    0.000    0.000    0.000 
#
# Total GULP energy -156265.743126 kJ/mol
# GULP energy per Si atom -5580.919397 kJ/mol
# Density = 1.907002 g / cm^3
# Si number density = 19.113523 Si / 1000 Ang^3
#
#
#
# Elastic Constant Matrix: (Units=GPa)
#
#
# Indices 1 2 3 4 5 6 
#
# 1 107.1162 29.6138 36.0493 0.0000 24.5317 0.0000
# 2 29.6138 50.1958 46.9284 0.0000 23.0191 0.0000
# 3 36.0493 46.9284 119.3881 0.0000 23.6339 0.0000
# 4 0.0000 0.0000 0.0000 18.6148 0.0000 15.5323
# 5 24.5317 23.0191 23.6339 0.0000 31.3547 0.0000
# 6 0.0000 0.0000 0.0000 15.5323 0.0000 35.8997
#
#
#
# Elastic Compliance Matrix: (Units=1/GPa)
#
#
# Indices 1 2 3 4 5 6 
#
# 1 0.012022 -0.003161 -0.001158 0.000000 -0.006212 0.000000
# 2 -0.003161 0.041344 -0.011493 0.000000 -0.019217 0.000000
# 3 -0.001158 -0.011493 0.013392 0.000000 -0.000751 0.000000
# 4 0.000000 0.000000 0.000000 0.084072 0.000000 -0.036374
# 5 -0.006212 -0.019217 -0.000751 0.000000 0.051428 0.000000
# 6 0.000000 0.000000 0.000000 -0.036374 0.000000 0.043593
#
#
# Mechanical properties :
#
#
# Convention : Reuss Voigt Hill
#
# Bulk Modulus (GPa) = 28.46193 55.76478 42.11335
# Shear Modulus (GPa) = 17.28996 28.11441 22.70219
#
# Velocity S-wave (km/s) = 3.01091 3.83941 3.45012
# Velocity P-wave (km/s) = 5.19719 6.99240 6.16054
#
# Compressibility (1/GPa) = 0.03513465
#
# Stress axis : x y z
#
# Youngs Moduli (GPa) = 83.18069 24.18730 74.67299
#
# Poissons Ratio (x) = 0.07647 0.08644
# Poissons Ratio (y) = 0.26297 0.85819
# Poissons Ratio (z) = 0.09629 0.27797
#
# Static dielectric constant tensor:
#      x y z
#    x 1.675300 0.000000 -0.003830 
#    y 0.000000 1.681730 0.000000 
#    z -0.003830 0.000000 1.679040 
# 
# From -- ./inp_files/28538.got.cif
#   From: 2010.05.17/outbox.cif.g08.bks.cpg/sg10_15_cif.got.tgz:28538.got - 2010.06.03 11:33:40.
