data_PCOD9152813
_publ_section_title
;
Structure prediction by ZEFSAII (Michael W. Deem and Ramdas Pophale) SiO2 
 PCOD9152813
Probable space group: P 2/M
;
_chemical_formula_sum "Si O2"
_cell_formula_units_Z 32
_cell_length_a 23.265079
_cell_length_b 7.618767
_cell_length_c 15.265604
_cell_angle_alpha 90.000000
_cell_angle_beta 31.647418
_cell_angle_gamma 90.000000
_cell_volume 1419.732463
_symmetry_space_group_name_H-M "P 2/M"
_symmetry_group_IT_number 10
_symmetry_cell_setting 'monoclinic'
loop_
_space_group_symop_operation_xyz
x,y,z
-x,y,-z
-x,-y,-z
x,-y,z
loop_
_atom_site_type_symbol
_atom_site_label
_atom_site_fract_x
_atom_site_fract_y
_atom_site_fract_z
Si Si1 0.271804 0.710682 0.643812
Si Si2 0.060303 0.204666 0.009027
Si Si3 0.024883 0.701436 0.693844
Si Si4 0.485221 0.792908 0.617352
Si Si5 0.243337 0.285696 0.486767
Si Si6 0.096905 0.800173 0.314649
Si Si7 0.514958 0.712684 0.880651
Si Si8 0.335854 0.792398 0.967199
O O1 0.272814 0.500000 0.644508
O O2 0.395922 0.772981 0.492498
O O3 0.224255 0.769130 0.611643
O O4 0.189750 0.777212 0.824238
O O5 0.024562 0.294542 0.144600
O O6 0.031810 0.000000 0.053986
O O7 0.000000 0.276272 0.000000
O O8 0.030090 0.500000 0.656891
O O9 0.147770 0.773604 0.546259
O O10 0.951241 0.801901 0.720660
O O11 0.500000 0.717736 0.500000
O O12 0.393398 0.720653 0.803586
O O13 0.461208 0.000000 0.638398
O O14 0.239970 0.500000 0.489594
O O15 0.364660 0.229774 0.304900
O O16 0.000000 0.719900 0.500000
O O17 0.111938 0.000000 0.328808
O O18 0.217956 0.718132 0.149572
O O19 0.512730 0.500000 0.881401
O O20 0.422664 0.773464 0.933022
O O21 0.500000 0.769209 0.000000
O O22 0.318010 0.000000 0.974557
#
# Coordination Sequence:
#
# PCOD9152813 Si02
#       8
#     4   4   4   4   4   4   4   4
#     4  11  21  37  60  86 122 159 198 251 307 362
#     4  11  23  38  58  87 123 162 202 242 295 366
#     4  11  23  40  63  91 123 160 207 255 309 367
#     4  10  22  39  59  85 118 161 204 250 307 365
#     4   9  19  36  57  87 124 155 189 248 312 360
#     4  10  24  45  64  86 122 167 212 260 311 361
#     4  10  21  38  63  91 120 156 196 245 306 368
#     4  10  22  41  62  87 122 159 202 255 305 361
#
# _framework density 22.539456999999999
#
# number of rings (size 3 to 8) (size 9 to 14) (size 15 to 20)
#    0.000    1.750    2.500    1.125    3.500    1.750 
#    0.000    1.250    0.000    0.000    0.000    0.000 
#    0.000    0.000    0.000    0.000    0.000    0.000 
#
# Total GULP energy -178797.632040 kJ/mol
# GULP energy per Si atom -5587.426001 kJ/mol
# Density = 2.248816 g / cm^3
# Si number density = 22.539457 Si / 1000 Ang^3
#
#
#
# Elastic Constant Matrix: (Units=GPa)
#
#
# Indices 1 2 3 4 5 6 
#
# 1 73.6856 -3.9966 59.8818 0.0000 -0.0443 0.0000
# 2 -3.9966 51.9665 5.7576 0.0000 6.3066 0.0000
# 3 59.8818 5.7576 184.8898 0.0000 -16.5509 0.0000
# 4 0.0000 0.0000 0.0000 2.1890 0.0000 0.4895
# 5 -0.0443 6.3066 -16.5509 0.0000 38.2815 0.0000
# 6 0.0000 0.0000 0.0000 0.4895 0.0000 -6.1851
#
#
#
# Elastic Compliance Matrix: (Units=1/GPa)
#
#
# Indices 1 2 3 4 5 6 
#
# 1 0.019013 0.002577 -0.006527 0.000000 -0.003224 0.000000
# 2 0.002577 0.020142 -0.001829 0.000000 -0.004106 0.000000
# 3 -0.006527 -0.001829 0.007912 0.000000 0.003715 0.000000
# 4 0.000000 0.000000 0.000000 0.448893 0.000000 0.035527
# 5 -0.003224 -0.004106 0.003715 0.000000 0.028401 0.000000
# 6 0.000000 0.000000 0.000000 0.035527 0.000000 -0.158867
#
#
# Mechanical properties :
#
#
# Convention : Reuss Voigt Hill
#
# Bulk Modulus (GPa) = 28.16226 48.20305 38.18266
# Shear Modulus (GPa) = 12.85712 23.45035 18.15373
#
# Velocity S-wave (km/s) = 2.39095 3.22904 2.84107
# Velocity P-wave (km/s) = 4.48820 5.94431 5.26682
#
# Compressibility (1/GPa) = 0.03550852
#
# Stress axis : x y z
#
# Youngs Moduli (GPa) = 52.59529 49.64661 126.39025
#
# Poissons Ratio (x) = -0.12792 0.82492
# Poissons Ratio (y) = -0.13552 0.23121
# Poissons Ratio (z) = 0.34328 0.09082
#
# Static dielectric constant tensor:
#      x y z
#    x 1.795800 0.000000 0.007750 
#    y 0.000000 1.849760 0.000000 
#    z 0.007750 0.000000 1.864340 
# 
# From -- ./inp_files/71425.got.cif
#   From: 2010.05.17/outbox.cif.g08.bks.cpg/sg10_36_cif.got.tgz:71425.got - 2010.06.03 11:33:40.
