data_PCOD9152891
_publ_section_title
;
Structure prediction by ZEFSAII (Michael W. Deem and Ramdas Pophale) SiO2 
 PCOD9152891
Probable space group: P 2/M
;
_chemical_formula_sum "Si O2"
_cell_formula_units_Z 24
_cell_length_a 9.686289
_cell_length_b 7.898396
_cell_length_c 12.768336
_cell_angle_alpha 90.000000
_cell_angle_beta 100.046768
_cell_angle_gamma 90.000000
_cell_volume 961.876760
_symmetry_space_group_name_H-M "P 2/M"
_symmetry_group_IT_number 10
_symmetry_cell_setting 'monoclinic'
loop_
_space_group_symop_operation_xyz
x,y,z
-x,y,-z
-x,-y,-z
x,-y,z
loop_
_atom_site_type_symbol
_atom_site_label
_atom_site_fract_x
_atom_site_fract_y
_atom_site_fract_z
Si Si1 0.778472 0.703651 0.776676
Si Si2 0.008907 0.809238 0.661011
Si Si3 0.842682 0.704477 0.010018
Si Si4 0.781691 0.695009 0.468114
Si Si5 0.404819 0.199219 0.890084
Si Si6 0.489951 0.699455 0.670326
O O1 0.774779 0.500000 0.773891
O O2 0.930297 0.755695 0.755450
O O3 0.758405 0.755791 0.893744
O O4 0.647915 0.768434 0.691048
O O5 0.881395 0.794118 0.560187
O O6 0.132252 0.697007 0.630046
O O7 0.060607 0.000000 0.673848
O O8 0.844140 0.500000 0.020356
O O9 0.756618 0.775685 0.095937
O O10 0.000000 0.757422 0.000000
O O11 0.773750 0.500000 0.504569
O O12 0.629216 0.767779 0.422517
O O13 0.438698 0.283090 0.783630
O O14 0.432757 0.000000 0.881993
O O15 0.500000 0.265288 0.000000
O O16 0.496862 0.500000 0.646232
#
# Coordination Sequence:
#
# PCOD9152891 Si02
#       6
#     4   4   4   4   4   4
#     4  10  21  39  60  85 118 153 195 244 286 335
#     4  11  23  39  60  87 121 155 187 232 294 353
#     4  10  22  39  61  87 115 154 202 243 281 335
#     4  10  21  40  64  88 113 148 197 243 286 342
#     4  11  23  38  58  86 122 158 190 234 292 349
#     4  10  22  39  63  88 112 152 200 243 287 338
#
# _framework density 24.951222000000001
#
# number of rings (size 3 to 8) (size 9 to 14) (size 15 to 20)
#    0.000    1.667    1.667    3.500    2.333    4.333 
#    0.000    3.333    0.000    0.000    0.000    0.000 
#    0.000    0.000    0.000    0.000    0.000    0.000 
#
# Total GULP energy -134262.350666 kJ/mol
# GULP energy per Si atom -5594.264611 kJ/mol
# Density = 2.489443 g / cm^3
# Si number density = 24.951222 Si / 1000 Ang^3
#
#
#
# Elastic Constant Matrix: (Units=GPa)
#
#
# Indices 1 2 3 4 5 6 
#
# 1 114.0764 -4.2647 9.0828 0.0000 -2.5517 0.0000
# 2 -4.2647 38.9042 -6.5458 0.0000 5.7675 0.0000
# 3 9.0828 -6.5458 51.5834 0.0000 -4.5438 0.0000
# 4 0.0000 0.0000 0.0000 15.3564 0.0000 9.7349
# 5 -2.5517 5.7675 -4.5438 0.0000 52.3328 0.0000
# 6 0.0000 0.0000 0.0000 9.7349 0.0000 -40.2967
#
#
#
# Elastic Compliance Matrix: (Units=1/GPa)
#
#
# Indices 1 2 3 4 5 6 
#
# 1 0.008914 0.000697 -0.001461 0.000000 0.000231 0.000000
# 2 0.000697 0.026682 0.003030 0.000000 -0.002643 0.000000
# 3 -0.001461 0.003030 0.020146 0.000000 0.001344 0.000000
# 4 0.000000 0.000000 0.000000 0.056471 0.000000 0.013642
# 5 0.000231 -0.002643 0.001344 0.000000 0.019528 0.000000
# 6 0.000000 0.000000 0.000000 0.013642 0.000000 -0.021520
#
#
# Mechanical properties :
#
#
# Convention : Reuss Voigt Hill
#
# Bulk Modulus (GPa) = 16.59046 22.34540 19.46793
# Shear Modulus (GPa) = 39.75220 19.23128 29.49174
#
# Velocity S-wave (km/s) = 3.99582 2.77926 3.44172
# Velocity P-wave (km/s) = 5.28700 4.39023 4.85934
#
# Compressibility (1/GPa) = 0.06027559
#
# Stress axis : x y z
#
# Youngs Moduli (GPa) = 112.18839 37.47799 49.63709
#
# Poissons Ratio (x) = -0.02613 0.07250
# Poissons Ratio (y) = -0.07821 -0.15042
# Poissons Ratio (z) = 0.16387 -0.11357
#
# Static dielectric constant tensor:
#      x y z
#    x 1.989990 0.000000 0.033160 
#    y 0.000000 1.879230 0.000000 
#    z 0.033160 0.000000 2.046760 
# 
# From -- ./inp_files/60274.got.cif
#   From: 2010.05.17/outbox.cif.g08.bks.cpg/sg10_31_cif.got.tgz:60274.got - 2010.06.03 11:33:40.
