data_PCOD9152374
_publ_section_title
;
Structure prediction by ZEFSAII (Michael W. Deem and Ramdas Pophale) SiO2 
 PCOD9152374
Probable space group: P 2/M
;
_chemical_formula_sum "Si O2"
_cell_formula_units_Z 32
_cell_length_a 15.186003
_cell_length_b 8.998839
_cell_length_c 24.263233
_cell_angle_alpha 90.000000
_cell_angle_beta 151.430305
_cell_angle_gamma 90.000000
_cell_volume 1585.671035
_symmetry_space_group_name_H-M "P 2/M"
_symmetry_group_IT_number 10
_symmetry_cell_setting 'monoclinic'
loop_
_space_group_symop_operation_xyz
x,y,z
-x,y,-z
-x,-y,-z
x,-y,z
loop_
_atom_site_type_symbol
_atom_site_label
_atom_site_fract_x
_atom_site_fract_y
_atom_site_fract_z
Si Si1 0.354081 0.165134 0.371598
Si Si2 0.404169 0.332103 0.295599
Si Si3 0.984849 0.678264 0.754982
Si Si4 0.261202 0.177482 0.987505
Si Si5 0.968840 0.677815 0.616898
Si Si6 0.025957 0.671322 0.953288
Si Si7 0.328876 0.822387 0.629300
Si Si8 0.315271 0.822094 0.750753
O O1 0.500000 0.152537 0.500000
O O2 0.461583 0.244116 0.381202
O O3 0.182677 0.256190 0.301288
O O4 0.291919 0.000000 0.319859
O O5 0.474144 0.500000 0.332878
O O6 0.475990 0.246480 0.281822
O O7 0.184894 0.335791 0.181723
O O8 0.989053 0.500000 0.762565
O O9 0.169148 0.746351 0.883516
O O10 0.955979 0.716778 0.674771
O O11 0.150343 0.239320 0.979510
O O12 0.239384 0.000000 0.971844
O O13 0.476779 0.210142 0.115347
O O14 0.952464 0.500000 0.603246
O O15 0.165754 0.733165 0.703174
O O16 0.817982 0.753820 0.494124
O O17 0.095690 0.500000 0.996564
O O18 0.000000 0.736204 0.000000
O O19 0.292211 0.786648 0.673028
O O20 0.330812 0.000000 0.624900
O O21 0.284586 0.000000 0.739846
#
# Coordination Sequence:
#
# PCOD9152374 Si02
#       8
#     4   4   4   4   4   4   4   4
#     4  11  23  38  59  88 121 161 206 250 303 367
#     4  11  22  36  58  89 124 162 201 244 298 360
#     4  11  24  42  62  89 127 166 209 261 317 374
#     4  11  23  40  64  92 125 166 213 261 311 373
#     4  11  25  43  66  94 123 162 211 265 322 379
#     4  10  21  37  58  87 124 164 203 247 302 364
#     4  11  23  41  65  93 129 166 206 260 317 379
#     4  10  24  44  65  93 126 164 208 261 323 377
#
# _framework density 20.180728999999999
#
# number of rings (size 3 to 8) (size 9 to 14) (size 15 to 20)
#    0.000    1.250    1.250    4.125    0.000    9.750 
#    0.000    2.500    0.000    0.000    0.000    0.000 
#    0.000    0.000    0.000    0.000    0.000    0.000 
#
# Total GULP energy -178831.137018 kJ/mol
# GULP energy per Si atom -5588.473032 kJ/mol
# Density = 2.013480 g / cm^3
# Si number density = 20.180729 Si / 1000 Ang^3
#
#
#
# Elastic Constant Matrix: (Units=GPa)
#
#
# Indices 1 2 3 4 5 6 
#
# 1 102.4090 44.1035 27.0285 0.0000 -2.2743 0.0000
# 2 44.1035 75.0402 33.8060 0.0000 -3.0002 0.0000
# 3 27.0285 33.8060 84.1106 0.0000 -3.1167 0.0000
# 4 0.0000 0.0000 0.0000 23.0608 0.0000 -1.9408
# 5 -2.2743 -3.0002 -3.1167 0.0000 36.6648 0.0000
# 6 0.0000 0.0000 0.0000 -1.9408 0.0000 30.0981
#
#
#
# Elastic Compliance Matrix: (Units=1/GPa)
#
#
# Indices 1 2 3 4 5 6 
#
# 1 0.013203 -0.007138 -0.001369 0.000000 0.000118 0.000000
# 2 -0.007138 0.020154 -0.005780 0.000000 0.000715 0.000000
# 3 -0.001369 -0.005780 0.014678 0.000000 0.000690 0.000000
# 4 0.000000 0.000000 0.000000 0.043600 0.000000 0.002812
# 5 0.000118 0.000715 0.000690 0.000000 0.027399 0.000000
# 6 0.000000 0.000000 0.000000 0.002812 0.000000 0.033406
#
#
# Mechanical properties :
#
#
# Convention : Reuss Voigt Hill
#
# Bulk Modulus (GPa) = 51.38820 52.38176 51.88498
# Shear Modulus (GPa) = 26.66650 28.40621 27.53636
#
# Velocity S-wave (km/s) = 3.63903 3.75586 3.69790
# Velocity P-wave (km/s) = 6.57084 6.69487 6.63315
#
# Compressibility (1/GPa) = 0.01945972
#
# Stress axis : x y z
#
# Youngs Moduli (GPa) = 75.74095 49.61787 68.12996
#
# Poissons Ratio (x) = 0.35418 0.09329
# Poissons Ratio (y) = 0.54065 0.39380
# Poissons Ratio (z) = 0.10371 0.28680
#
# Static dielectric constant tensor:
#      x y z
#    x 1.697680 0.000000 -0.013510 
#    y 0.000000 1.711390 0.000000 
#    z -0.013510 0.000000 1.772550 
# 
# From -- ./inp_files/89470.got.cif
#   From: 2010.05.17/outbox.cif.g08.bks.cpg/sg10_45_cif.got.tgz:89470.got - 2010.06.03 11:33:40.
