data_PCOD9152862
_publ_section_title
;
Structure prediction by ZEFSAII (Michael W. Deem and Ramdas Pophale) SiO2 
 PCOD9152862
Probable space group: P 2/M
;
_chemical_formula_sum "Si O2"
_cell_formula_units_Z 28
_cell_length_a 20.666810
_cell_length_b 14.737014
_cell_length_c 9.638631
_cell_angle_alpha 90.000000
_cell_angle_beta 28.809006
_cell_angle_gamma 90.000000
_cell_volume 1414.645042
_symmetry_space_group_name_H-M "P 2/M"
_symmetry_group_IT_number 10
_symmetry_cell_setting 'monoclinic'
loop_
_space_group_symop_operation_xyz
x,y,z
-x,y,-z
-x,-y,-z
x,-y,z
loop_
_atom_site_type_symbol
_atom_site_label
_atom_site_fract_x
_atom_site_fract_y
_atom_site_fract_z
Si Si1 0.391537 0.603281 0.586804
Si Si2 0.249260 0.104939 0.622930
Si Si3 0.134333 0.315880 0.173793
Si Si4 0.535531 0.259563 0.787066
Si Si5 0.339340 0.000000 0.990494
Si Si6 0.752998 0.196934 0.784986
Si Si7 0.631568 0.000000 0.389903
Si Si8 0.012456 0.236225 0.120778
O O1 0.500000 0.629804 0.500000
O O2 0.419385 0.500000 0.490924
O O3 0.396682 0.672776 0.449375
O O4 0.248284 0.611531 0.929610
O O5 0.364703 0.175587 0.360388
O O6 0.288287 0.087445 0.710278
O O7 0.251042 0.000000 0.561688
O O8 0.105143 0.151587 0.897384
O O9 0.196879 0.242367 0.165071
O O10 0.089894 0.277018 0.107711
O O11 0.000000 0.351042 0.500000
O O12 0.500000 0.305221 0.000000
O O13 0.395845 0.229323 0.977884
O O14 0.496280 0.000000 0.738359
O O15 0.368130 0.000000 0.772802
O O16 0.260806 0.910779 0.177094
O O17 0.864656 0.216889 0.458670
O O18 0.000000 0.292103 0.000000
#
# Coordination Sequence:
#
# PCOD9152862 Si02
#       8
#     4   4   4   4   2   4   2   4
#     4  11  24  44  74 102 124 159 208 261 324 390
#     4  10  21  39  57  89 124 175 219 256 308 368
#     4  10  22  42  66  94 128 164 210 260 320 384
#     4  12  24  42  66  94 133 169 204 267 320 376
#     4  11  20  33  56  87 127 163 219 261 308 362
#     4  11  23  38  59  94 124 170 215 262 309 373
#     4   9  20  33  54  83 119 161 215 258 310 368
#     4  11  23  40  59  87 127 176 218 259 315 365
#
# _framework density 19.792950000000001
#
# number of rings (size 3 to 8) (size 9 to 14) (size 15 to 20)
#    0.429    0.857    4.286    1.714    1.000    1.143 
#    2.571    1.786    0.000    0.429    0.000    0.000 
#    0.000    0.000    0.000    0.000    0.000    0.000 
#
# Total GULP energy -155979.969321 kJ/mol
# GULP energy per Si atom -5570.713190 kJ/mol
# Density = 1.974790 g / cm^3
# Si number density = 19.792950 Si / 1000 Ang^3
#
#
#
# Elastic Constant Matrix: (Units=GPa)
#
#
# Indices 1 2 3 4 5 6 
#
# 1 79.4961 15.0750 43.4484 0.0000 8.8635 0.0000
# 2 15.0750 44.9420 29.9606 0.0000 7.1937 0.0000
# 3 43.4484 29.9606 114.2777 0.0000 -7.5697 0.0000
# 4 0.0000 0.0000 0.0000 2.4369 0.0000 -0.4449
# 5 8.8635 7.1937 -7.5697 0.0000 39.4918 0.0000
# 6 0.0000 0.0000 0.0000 -0.4449 0.0000 10.0070
#
#
#
# Elastic Compliance Matrix: (Units=1/GPa)
#
#
# Indices 1 2 3 4 5 6 
#
# 1 0.016830 -0.000443 -0.006611 0.000000 -0.004964 0.000000
# 2 -0.000443 0.028643 -0.007779 0.000000 -0.006609 0.000000
# 3 -0.006611 -0.007779 0.013669 0.000000 0.005521 0.000000
# 4 0.000000 0.000000 0.000000 0.413712 0.000000 0.018395
# 5 -0.004964 -0.006609 0.005521 0.000000 0.028698 0.000000
# 6 0.000000 0.000000 0.000000 0.018395 0.000000 0.100748
#
#
# Mechanical properties :
#
#
# Convention : Reuss Voigt Hill
#
# Bulk Modulus (GPa) = 33.92614 46.18709 40.05662
# Shear Modulus (GPa) = 7.79067 20.40258 14.09663
#
# Velocity S-wave (km/s) = 1.98611 3.21409 2.67161
# Velocity P-wave (km/s) = 4.73680 6.09587 5.45879
#
# Compressibility (1/GPa) = 0.02947579
#
# Stress axis : x y z
#
# Youngs Moduli (GPa) = 59.41692 34.91236 73.15638
#
# Poissons Ratio (x) = 0.01548 0.48367
# Poissons Ratio (y) = 0.02634 0.56906
# Poissons Ratio (z) = 0.39283 0.27157
#
# Static dielectric constant tensor:
#      x y z
#    x 1.913160 0.000000 -0.137360 
#    y 0.000000 1.707130 0.000000 
#    z -0.137360 0.000000 1.786050 
# 
# From -- ./inp_files/35283.got.cif
#   From: 2010.05.17/outbox.cif.g08.bks.cpg/sg10_18_cif.got.tgz:35283.got - 2010.06.03 11:33:40.
