data_PCOD9152297
_publ_section_title
;
Structure prediction by ZEFSAII (Michael W. Deem and Ramdas Pophale) SiO2 
 PCOD9152297
Probable space group: P 2/M
;
_chemical_formula_sum "Si O2"
_cell_formula_units_Z 28
_cell_length_a 19.787777
_cell_length_b 9.158761
_cell_length_c 14.892968
_cell_angle_alpha 90.000000
_cell_angle_beta 33.210211
_cell_angle_gamma 90.000000
_cell_volume 1478.316809
_symmetry_space_group_name_H-M "P 2/M"
_symmetry_group_IT_number 10
_symmetry_cell_setting 'monoclinic'
loop_
_space_group_symop_operation_xyz
x,y,z
-x,y,-z
-x,-y,-z
x,-y,z
loop_
_atom_site_type_symbol
_atom_site_label
_atom_site_fract_x
_atom_site_fract_y
_atom_site_fract_z
Si Si1 0.228585 0.326079 0.445516
Si Si2 0.194050 0.826365 0.921574
Si Si3 0.279803 0.825596 0.025216
Si Si4 0.056381 0.668584 0.799874
Si Si5 0.143253 0.675711 0.341588
Si Si6 0.437136 0.825613 0.329745
Si Si7 0.690814 0.671160 0.367515
O O1 0.256073 0.500000 0.420786
O O2 0.108297 0.303615 0.641939
O O3 0.201629 0.286066 0.373162
O O4 0.339215 0.237137 0.367326
O O5 0.219341 0.786596 0.996846
O O6 0.289816 0.747369 0.749217
O O7 0.205339 0.000000 0.898892
O O8 0.056228 0.772730 0.052226
O O9 0.424813 0.792019 0.855438
O O10 0.266929 0.000000 0.051287
O O11 0.216031 0.745439 0.178500
O O12 0.014060 0.500000 0.853761
O O13 0.176163 0.684320 0.729756
O O14 0.146872 0.500000 0.329564
O O15 0.000000 0.720848 0.500000
O O16 0.405041 0.750631 0.460366
O O17 0.423958 0.000000 0.352991
O O18 0.662536 0.500000 0.390655
#
# Coordination Sequence:
#
# PCOD9152297 Si02
#       7
#     4   4   4   4   4   4   4
#     4   9  19  36  58  84 113 143 179 227 276 319
#     4  11  22  35  53  79 111 146 185 227 273 324
#     4  10  24  41  55  78 113 149 183 226 274 321
#     4   9  18  34  55  80 112 144 176 221 276 330
#     4  10  21  38  61  87 113 144 181 221 270 327
#     4  10  21  39  59  79 108 146 187 225 269 325
#     4  10  21  37  57  81 110 143 181 227 277 326
#
# _framework density 18.940460000000002
#
# number of rings (size 3 to 8) (size 9 to 14) (size 15 to 20)
#    0.000    2.143    0.000    3.429    0.000   10.000 
#    0.000    5.714    0.000    0.000    0.000    0.000 
#    0.000    0.000    0.000    0.000    0.000    0.000 
#
# Total GULP energy -156439.852978 kJ/mol
# GULP energy per Si atom -5587.137606 kJ/mol
# Density = 1.889735 g / cm^3
# Si number density = 18.940460 Si / 1000 Ang^3
#
#
#
# Elastic Constant Matrix: (Units=GPa)
#
#
# Indices 1 2 3 4 5 6 
#
# 1 43.5084 29.6767 39.8167 0.0000 24.7431 0.0000
# 2 29.6767 57.9751 57.9470 0.0000 12.5580 0.0000
# 3 39.8167 57.9470 120.7713 0.0000 24.2727 0.0000
# 4 0.0000 0.0000 0.0000 36.5205 0.0000 6.5378
# 5 24.7431 12.5580 24.2727 0.0000 36.3213 0.0000
# 6 0.0000 0.0000 0.0000 6.5378 0.0000 27.6031
#
#
#
# Elastic Compliance Matrix: (Units=1/GPa)
#
#
# Indices 1 2 3 4 5 6 
#
# 1 0.055270 -0.018494 -0.003542 0.000000 -0.028890 0.000000
# 2 -0.018494 0.039361 -0.014538 0.000000 0.008705 0.000000
# 3 -0.003542 -0.014538 0.017244 0.000000 -0.004085 0.000000
# 4 0.000000 0.000000 0.000000 0.028594 0.000000 -0.006773
# 5 -0.028890 0.008705 -0.004085 0.000000 0.046933 0.000000
# 6 0.000000 0.000000 0.000000 -0.006773 0.000000 0.037832
#
#
# Mechanical properties :
#
#
# Convention : Reuss Voigt Hill
#
# Bulk Modulus (GPa) = 25.82153 53.01507 39.41830
# Shear Modulus (GPa) = 16.06217 26.40994 21.23606
#
# Velocity S-wave (km/s) = 2.91526 3.73817 3.35207
# Velocity P-wave (km/s) = 4.99943 6.83250 5.98654
#
# Compressibility (1/GPa) = 0.03872737
#
# Stress axis : x y z
#
# Youngs Moduli (GPa) = 18.09310 25.40589 57.99053
#
# Poissons Ratio (x) = 0.46985 0.20539
# Poissons Ratio (y) = 0.33461 0.84307
# Poissons Ratio (z) = 0.06408 0.36935
#
# Static dielectric constant tensor:
#      x y z
#    x 1.665660 0.000000 0.000270 
#    y 0.000000 1.631240 0.000000 
#    z 0.000270 0.000000 1.633280 
# 
# From -- ./inp_files/49392.got.cif
#   From: 2010.05.17/outbox.cif.g08.bks.cpg/sg10_25_cif.got.tgz:49392.got - 2010.06.03 11:33:40.
