data_PCOD9152751
_publ_section_title
;
Structure prediction by ZEFSAII (Michael W. Deem and Ramdas Pophale) SiO2 
 PCOD9152751
Probable space group: P 2/M
;
_chemical_formula_sum "Si O2"
_cell_formula_units_Z 28
_cell_length_a 9.169681
_cell_length_b 8.341390
_cell_length_c 24.849033
_cell_angle_alpha 90.000000
_cell_angle_beta 44.215607
_cell_angle_gamma 90.000000
_cell_volume 1325.437958
_symmetry_space_group_name_H-M "P 2/M"
_symmetry_group_IT_number 10
_symmetry_cell_setting 'monoclinic'
loop_
_space_group_symop_operation_xyz
x,y,z
-x,y,-z
-x,-y,-z
x,-y,z
loop_
_atom_site_type_symbol
_atom_site_label
_atom_site_fract_x
_atom_site_fract_y
_atom_site_fract_z
Si Si1 0.418392 0.317260 0.264202
Si Si2 0.717531 0.172155 0.317745
Si Si3 0.721677 0.691215 0.916282
Si Si4 0.152983 0.500000 0.571499
Si Si5 0.938046 0.816953 0.579374
Si Si6 0.856237 0.179951 0.156762
Si Si7 0.184118 0.818219 0.227413
Si Si8 0.586119 0.500000 0.394467
O O1 0.411428 0.500000 0.284849
O O2 0.305867 0.206454 0.339120
O O3 0.656187 0.271813 0.186987
O O4 0.284790 0.293955 0.245375
O O5 0.795221 0.170359 0.236027
O O6 0.594802 0.334860 0.359791
O O7 0.932375 0.181697 0.295010
O O8 0.612858 0.000000 0.357687
O O9 0.726181 0.500000 0.908122
O O10 0.751565 0.769744 0.849868
O O11 0.916545 0.739972 0.902632
O O12 0.500000 0.738855 0.000000
O O13 0.373893 0.500000 0.483123
O O14 0.215780 0.500000 0.617401
O O15 0.041585 0.664586 0.582238
O O16 0.000000 0.802169 0.500000
O O17 0.997754 0.000000 0.580051
O O18 0.868238 0.000000 0.131748
O O19 0.254412 0.000000 0.220227
#
# Coordination Sequence:
#
# PCOD9152751 Si02
#       8
#     4   4   4   2   4   4   4   2
#     4  12  24  38  64  93 123 158 203 263 313 366
#     4   9  21  37  59  87 115 154 205 255 305 365
#     4  10  21  39  64  94 128 164 203 247 300 366
#     4  11  25  42  54  88 117 152 203 251 314 377
#     4  11  25  43  63  85 119 164 208 256 314 378
#     4  10  22  38  59  91 122 156 203 251 302 360
#     4  10  21  38  61  91 124 162 207 251 304 369
#     4  11  24  36  62  82 115 157 197 256 312 371
#
# _framework density 21.125094000000001
#
# number of rings (size 3 to 8) (size 9 to 14) (size 15 to 20)
#    0.000    1.571    0.714    4.500    8.000    3.429 
#    0.000    2.143    0.000    4.286    0.000    0.000 
#    0.000    0.000    0.000    0.000    0.000    0.000 
#
# Total GULP energy -156364.829952 kJ/mol
# GULP energy per Si atom -5584.458213 kJ/mol
# Density = 2.107701 g / cm^3
# Si number density = 21.125094 Si / 1000 Ang^3
#
#
#
# Elastic Constant Matrix: (Units=GPa)
#
#
# Indices 1 2 3 4 5 6 
#
# 1 61.3956 13.0469 -3.8474 0.0000 -12.3021 0.0000
# 2 13.0469 144.4585 24.8318 0.0000 -3.3600 0.0000
# 3 -3.8474 24.8318 62.6642 0.0000 -10.4844 0.0000
# 4 0.0000 0.0000 0.0000 20.4266 0.0000 17.8755
# 5 -12.3021 -3.3600 -10.4844 0.0000 25.8149 0.0000
# 6 0.0000 0.0000 0.0000 17.8755 0.0000 20.8546
#
#
#
# Elastic Compliance Matrix: (Units=1/GPa)
#
#
# Indices 1 2 3 4 5 6 
#
# 1 0.019040 -0.002122 0.003735 0.000000 0.010314 0.000000
# 2 -0.002122 0.007666 -0.003402 0.000000 -0.001395 0.000000
# 3 0.003735 -0.003402 0.019054 0.000000 0.009076 0.000000
# 4 0.000000 0.000000 0.000000 0.195902 0.000000 -0.167917
# 5 0.010314 -0.001395 0.009076 0.000000 0.047157 0.000000
# 6 0.000000 0.000000 0.000000 -0.167917 0.000000 0.191881
#
#
# Mechanical properties :
#
#
# Convention : Reuss Voigt Hill
#
# Bulk Modulus (GPa) = 23.70574 37.39786 30.55180
# Shear Modulus (GPa) = 10.03337 29.05167 19.54252
#
# Velocity S-wave (km/s) = 2.18170 3.71242 3.04482
# Velocity P-wave (km/s) = 4.19433 6.00979 5.18218
#
# Compressibility (1/GPa) = 0.04218388
#
# Stress axis : x y z
#
# Youngs Moduli (GPa) = 52.52238 130.44104 52.48290
#
# Poissons Ratio (x) = 0.27677 -0.19605
# Poissons Ratio (y) = 0.11144 0.17852
# Poissons Ratio (z) = -0.19619 0.44370
#
# Static dielectric constant tensor:
#      x y z
#    x 1.802700 0.000000 -0.027960 
#    y 0.000000 1.793660 0.000000 
#    z -0.027960 0.000000 1.737880 
# 
# From -- ./inp_files/92005.got.cif
#   From: 2010.05.17/outbox.cif.g08.bks.cpg/sg10_47_cif.got.tgz:92005.got - 2010.06.03 11:33:40.
