data_PCOD9152081
_publ_section_title
;
Structure prediction by ZEFSAII (Michael W. Deem and Ramdas Pophale) SiO2 
 PCOD9152081
Probable space group: P 2/M
;
_chemical_formula_sum "Si O2"
_cell_formula_units_Z 16
_cell_length_a 19.234396
_cell_length_b 7.812824
_cell_length_c 8.199186
_cell_angle_alpha 90.000000
_cell_angle_beta 143.440744
_cell_angle_gamma 90.000000
_cell_volume 733.924303
_symmetry_space_group_name_H-M "P 2/M"
_symmetry_group_IT_number 10
_symmetry_cell_setting 'monoclinic'
loop_
_space_group_symop_operation_xyz
x,y,z
-x,y,-z
-x,-y,-z
x,-y,z
loop_
_atom_site_type_symbol
_atom_site_label
_atom_site_fract_x
_atom_site_fract_y
_atom_site_fract_z
Si Si1 0.335483 0.306396 0.328994
Si Si2 0.208508 0.196488 0.777079
Si Si3 0.936661 0.500000 0.616305
Si Si4 0.821105 0.500000 0.754218
Si Si5 0.554178 0.795919 0.935828
O O1 0.348242 0.500000 0.285939
O O2 0.539223 0.238756 0.382314
O O3 0.263530 0.201975 0.061574
O O4 0.258629 0.337166 0.347850
O O5 0.105405 0.331022 0.557458
O O6 0.177337 0.000000 0.678019
O O7 0.316995 0.261160 0.869995
O O8 0.072602 0.500000 0.916169
O O9 0.872466 0.500000 0.671855
O O10 0.563892 0.000000 0.972362
O O11 0.500000 0.722408 0.000000
#
# Coordination Sequence:
#
# PCOD9152081 Si02
#       5
#     4   4   2   2   4
#     4  10  21  37  58  86 119 153 195 235 295 346
#     4  11  23  38  62  91 120 157 196 240 296 354
#     4  11  21  44  65  82 121 151 201 251 294 341
#     4   9  23  40  63  88 113 157 199 251 290 349
#     4  10  21  36  56  88 123 154 196 242 288 352
#
# _framework density 21.800612999999998
#
# number of rings (size 3 to 8) (size 9 to 14) (size 15 to 20)
#    0.750    1.000    1.250    3.000    1.750    5.500 
#    0.000    7.500    0.000    0.000    0.000    0.000 
#    0.000    0.000    0.000    0.000    0.000    0.000 
#
# Total GULP energy -89350.419444 kJ/mol
# GULP energy per Si atom -5584.401215 kJ/mol
# Density = 2.175099 g / cm^3
# Si number density = 21.800613 Si / 1000 Ang^3
#
#
#
# Elastic Constant Matrix: (Units=GPa)
#
#
# Indices 1 2 3 4 5 6 
#
# 1 64.7129 -3.4302 -5.8710 0.0000 -4.9821 0.0000
# 2 -3.4302 43.6938 13.7551 0.0000 3.5534 0.0000
# 3 -5.8710 13.7551 104.5336 0.0000 4.8321 0.0000
# 4 0.0000 0.0000 0.0000 -18.2250 0.0000 -23.6418
# 5 -4.9821 3.5534 4.8321 0.0000 34.2877 0.0000
# 6 0.0000 0.0000 0.0000 -23.6418 0.0000 10.5229
#
#
#
# Elastic Compliance Matrix: (Units=1/GPa)
#
#
# Indices 1 2 3 4 5 6 
#
# 1 0.015721 0.000851 0.000674 0.000000 0.002101 0.000000
# 2 0.000851 0.024065 -0.003029 0.000000 -0.001943 0.000000
# 3 0.000674 -0.003029 0.010049 0.000000 -0.001004 0.000000
# 4 0.000000 0.000000 0.000000 -0.014017 0.000000 -0.031492
# 5 0.002101 -0.001943 -0.001004 0.000000 0.029813 0.000000
# 6 0.000000 0.000000 0.000000 -0.031492 0.000000 0.024277
#
#
# Mechanical properties :
#
#
# Convention : Reuss Voigt Hill
#
# Bulk Modulus (GPa) = 21.35516 24.64978 23.00247
# Shear Modulus (GPa) = 46.07243 19.21623 32.64433
#
# Velocity S-wave (km/s) = 4.60211 2.97215 3.87383
# Velocity P-wave (km/s) = 6.16897 4.80725 5.53018
#
# Compressibility (1/GPa) = 0.04682708
#
# Stress axis : x y z
#
# Youngs Moduli (GPa) = 63.60967 41.55421 99.51100
#
# Poissons Ratio (x) = -0.03537 -0.06705
# Poissons Ratio (y) = -0.05414 0.30141
# Poissons Ratio (z) = -0.04286 0.12587
#
# Static dielectric constant tensor:
#      x y z
#    x 1.872240 0.000000 -0.031170 
#    y 0.000000 1.786690 0.000000 
#    z -0.031170 0.000000 1.742210 
# 
# From -- ./inp_files/33250.got.cif
#   From: 2010.05.17/outbox.cif.g08.bks.cpg/sg10_17_cif.got.tgz:33250.got - 2010.06.03 11:33:40.
