data_PCOD9152039
_publ_section_title
;
Structure prediction by ZEFSAII (Michael W. Deem and Ramdas Pophale) SiO2 
 PCOD9152039
Probable space group: P 2/M
;
_chemical_formula_sum "Si O2"
_cell_formula_units_Z 32
_cell_length_a 28.448365
_cell_length_b 9.143335
_cell_length_c 22.096830
_cell_angle_alpha 90.000000
_cell_angle_beta 18.422184
_cell_angle_gamma 90.000000
_cell_volume 1816.358385
_symmetry_space_group_name_H-M "P 2/M"
_symmetry_group_IT_number 10
_symmetry_cell_setting 'monoclinic'
loop_
_space_group_symop_operation_xyz
x,y,z
-x,y,-z
-x,-y,-z
x,-y,z
loop_
_atom_site_type_symbol
_atom_site_label
_atom_site_fract_x
_atom_site_fract_y
_atom_site_fract_z
Si Si1 0.667533 0.174771 0.276117
Si Si2 0.189481 0.325725 0.152700
Si Si3 0.944850 0.323949 0.000425
Si Si4 0.314363 0.826856 0.336811
Si Si5 0.118559 0.671987 0.668909
Si Si6 0.795254 0.672603 0.005458
Si Si7 0.837516 0.325668 0.592174
Si Si8 0.665940 0.173447 0.911401
O O1 0.500000 0.212809 0.500000
O O2 0.791962 0.247509 0.167226
O O3 0.701717 0.234538 0.167279
O O4 0.684026 0.000000 0.257655
O O5 0.214440 0.500000 0.130395
O O6 0.282674 0.235325 0.086959
O O7 0.014213 0.298567 0.377352
O O8 0.225770 0.288825 0.038799
O O9 0.923381 0.500000 0.023872
O O10 0.000000 0.285020 0.000000
O O11 0.067482 0.288130 0.799138
O O12 0.246739 0.766350 0.481930
O O13 0.232513 0.743895 0.382365
O O14 0.287523 0.000000 0.364661
O O15 0.490366 0.800789 0.117486
O O16 0.158059 0.500000 0.619251
O O17 0.968692 0.690644 0.811846
O O18 0.762094 0.500000 0.054013
O O19 0.815034 0.500000 0.619030
O O20 0.758351 0.255223 0.746670
O O21 0.692877 0.000000 0.874528
#
# Coordination Sequence:
#
# PCOD9152039 Si02
#       8
#     4   4   4   4   4   4   4   4
#     4  10  21  36  55  84 119 151 185 226 274 332
#     4  10  21  39  60  84 111 142 185 234 281 328
#     4   9  19  37  60  85 113 145 187 234 277 325
#     4  11  23  38  56  81 115 150 185 227 275 332
#     4   9  17  34  59  84 110 142 186 234 273 324
#     4   9  18  36  60  84 110 143 189 236 272 323
#     4  11  22  39  63  85 107 141 188 236 279 329
#     4  11  25  40  53  81 119 150 183 226 278 335
#
# _framework density 17.617667000000001
#
# number of rings (size 3 to 8) (size 9 to 14) (size 15 to 20)
#    0.000    2.000    1.250    3.000    0.000    9.750 
#    2.250    0.000    0.000    0.000    0.000    0.000 
#    0.000    0.000    0.000    0.000    0.000    0.000 
#
# Total GULP energy -178695.309749 kJ/mol
# GULP energy per Si atom -5584.228430 kJ/mol
# Density = 1.757757 g / cm^3
# Si number density = 17.617667 Si / 1000 Ang^3
#
#
#
# Elastic Constant Matrix: (Units=GPa)
#
#
# Indices 1 2 3 4 5 6 
#
# 1 59.3199 4.6296 -1.7005 0.0000 12.7048 0.0000
# 2 4.6296 25.6685 20.9145 0.0000 -1.0517 0.0000
# 3 -1.7005 20.9145 47.4204 0.0000 12.5830 0.0000
# 4 0.0000 0.0000 0.0000 30.8817 0.0000 -4.3917
# 5 12.7048 -1.0517 12.5830 0.0000 22.0752 0.0000
# 6 0.0000 0.0000 0.0000 -4.3917 0.0000 11.4499
#
#
#
# Elastic Compliance Matrix: (Units=1/GPa)
#
#
# Indices 1 2 3 4 5 6 
#
# 1 0.023301 -0.016528 0.014012 0.000000 -0.022184 0.000000
# 2 -0.016528 0.082553 -0.047799 0.000000 0.040691 0.000000
# 3 0.014012 -0.047799 0.053510 0.000000 -0.040842 0.000000
# 4 0.000000 0.000000 0.000000 0.034250 0.000000 0.013137
# 5 -0.022184 0.040691 -0.040842 0.000000 0.083286 0.000000
# 6 0.000000 0.000000 0.000000 0.013137 0.000000 0.092376
#
#
# Mechanical properties :
#
#
# Convention : Reuss Voigt Hill
#
# Bulk Modulus (GPa) = 17.02665 20.01067 18.51866
# Shear Modulus (GPa) = 10.21485 20.11904 15.16694
#
# Velocity S-wave (km/s) = 2.41053 3.38299 2.93728
# Velocity P-wave (km/s) = 4.17529 5.16163 4.69444
#
# Compressibility (1/GPa) = 0.05873146
#
# Stress axis : x y z
#
# Youngs Moduli (GPa) = 42.91738 12.11346 18.68826
#
# Poissons Ratio (x) = 0.20021 -0.26185
# Poissons Ratio (y) = 0.70934 0.89329
# Poissons Ratio (z) = -0.60134 0.57902
#
# Static dielectric constant tensor:
#      x y z
#    x 1.589020 0.000000 0.012000 
#    y 0.000000 1.585460 0.000000 
#    z 0.012000 0.000000 1.581600 
# 
# From -- ./inp_files/86900.got.cif
#   From: 2010.05.17/outbox.cif.g08.bks.cpg/sg10_44_cif.got.tgz:86900.got - 2010.06.03 11:33:40.
