data_PCOD9152382
_publ_section_title
;
Structure prediction by ZEFSAII (Michael W. Deem and Ramdas Pophale) SiO2 
 PCOD9152382
Probable space group: P 2/M
;
_chemical_formula_sum "Si O2"
_cell_formula_units_Z 25
_cell_length_a 21.887929
_cell_length_b 10.096015
_cell_length_c 9.943748
_cell_angle_alpha 90.000000
_cell_angle_beta 147.588566
_cell_angle_gamma 90.000000
_cell_volume 1177.784224
_symmetry_space_group_name_H-M "P 2/M"
_symmetry_group_IT_number 10
_symmetry_cell_setting 'monoclinic'
loop_
_space_group_symop_operation_xyz
x,y,z
-x,y,-z
-x,-y,-z
x,-y,z
loop_
_atom_site_type_symbol
_atom_site_label
_atom_site_fract_x
_atom_site_fract_y
_atom_site_fract_z
Si Si1 0.206896 0.350190 0.355136
Si Si2 0.397344 0.152264 0.638763
Si Si3 0.660611 0.241471 0.766386
Si Si4 0.647356 0.848886 0.031667
Si Si5 0.143741 0.654674 0.531512
Si Si6 0.895583 0.655938 0.131927
Si Si7 0.500000 0.500000 0.500000
O O1 0.254097 0.500000 0.440867
O O2 0.310737 0.247715 0.553928
O O3 0.129310 0.339523 0.342711
O O4 0.140577 0.331694 0.092426
O O5 0.364298 0.169701 0.420142
O O6 0.383409 0.000000 0.653413
O O7 0.531016 0.186894 0.893090
O O8 0.595441 0.382345 0.646105
O O9 0.622060 0.161790 0.825392
O O10 0.796585 0.268360 0.026152
O O11 0.747719 0.745089 0.240234
O O12 0.678606 0.000000 0.123041
O O13 0.165915 0.500000 0.606832
O O14 0.026982 0.697964 0.385724
O O15 0.891306 0.500000 0.158174
#
# Coordination Sequence:
#
# PCOD9152382 Si02
#       7
#     4   4   4   4   4   4   1
#     4   9  19  36  61  86 110 140 186 240 285 330
#     4  10  21  37  59  83 111 147 188 231 282 337
#     4  11  21  35  60  89 117 142 183 233 284 331
#     4  11  24  39  55  78 118 158 187 227 278 340
#     4  10  22  38  57  82 112 151 190 230 278 332
#     4   9  18  35  59  86 113 142 182 233 285 333
#     4  12  20  32  62  98 116 140 180 246 282 328
#
# _framework density 21.226299999999998
#
# number of rings (size 3 to 8) (size 9 to 14) (size 15 to 20)
#    0.000    1.920    2.400    0.960    2.240    5.760 
#    0.000    9.600    0.000    4.800    0.000    0.000 
#    0.000    0.000    0.000    0.000    0.000    0.000 
#
# Total GULP energy -139452.219939 kJ/mol
# GULP energy per Si atom -5578.088798 kJ/mol
# Density = 2.117799 g / cm^3
# Si number density = 21.226300 Si / 1000 Ang^3
#
#
#
# Elastic Constant Matrix: (Units=GPa)
#
#
# Indices 1 2 3 4 5 6 
#
# 1 90.4471 25.8283 28.0677 0.0000 23.0765 0.0000
# 2 25.8283 82.1467 48.9142 0.0000 32.2179 0.0000
# 3 28.0677 48.9142 90.7683 0.0000 39.6217 0.0000
# 4 0.0000 0.0000 0.0000 -6.9044 0.0000 -5.9625
# 5 23.0765 32.2179 39.6217 0.0000 52.6952 0.0000
# 6 0.0000 0.0000 0.0000 -5.9625 0.0000 4.0942
#
#
#
# Elastic Compliance Matrix: (Units=1/GPa)
#
#
# Indices 1 2 3 4 5 6 
#
# 1 0.012917 -0.001817 -0.001534 0.000000 -0.003392 0.000000
# 2 -0.001817 0.019321 -0.007504 0.000000 -0.005375 0.000000
# 3 -0.001534 -0.007504 0.019708 0.000000 -0.009559 0.000000
# 4 0.000000 0.000000 0.000000 -0.064152 0.000000 -0.093428
# 5 -0.003392 -0.005375 -0.009559 0.000000 0.030936 0.000000
# 6 0.000000 0.000000 0.000000 -0.093428 0.000000 0.108186
#
#
# Mechanical properties :
#
#
# Convention : Reuss Voigt Hill
#
# Bulk Modulus (GPa) = 33.07464 52.10916 42.59190
# Shear Modulus (GPa) = 31.50537 20.68045 26.09291
#
# Velocity S-wave (km/s) = 3.85679 3.12474 3.50990
# Velocity P-wave (km/s) = 5.95389 6.13362 6.04442
#
# Compressibility (1/GPa) = 0.03023465
#
# Stress axis : x y z
#
# Youngs Moduli (GPa) = 77.41958 51.75758 50.74186
#
# Poissons Ratio (x) = 0.09407 0.07785
# Poissons Ratio (y) = 0.14070 0.38075
# Poissons Ratio (z) = 0.11878 0.38837
#
# Static dielectric constant tensor:
#      x y z
#    x 1.789610 0.000000 -0.049260 
#    y 0.000000 1.707710 0.000000 
#    z -0.049260 0.000000 1.800470 
# 
# From -- ./inp_files/45224.got.cif
#   From: 2010.05.17/outbox.cif.g08.bks.cpg/sg10_23_cif.got.tgz:45224.got - 2010.06.03 11:33:40.
