data_PCOD9152246
_publ_section_title
;
Structure prediction by ZEFSAII (Michael W. Deem and Ramdas Pophale) SiO2 
 PCOD9152246
Probable space group: P 2/M
;
_chemical_formula_sum "Si O2"
_cell_formula_units_Z 32
_cell_length_a 32.525827
_cell_length_b 7.582676
_cell_length_c 13.046184
_cell_angle_alpha 90.000000
_cell_angle_beta 152.672349
_cell_angle_gamma 90.000000
_cell_volume 1477.138295
_symmetry_space_group_name_H-M "P 2/M"
_symmetry_group_IT_number 10
_symmetry_cell_setting 'monoclinic'
loop_
_space_group_symop_operation_xyz
x,y,z
-x,y,-z
-x,-y,-z
x,-y,z
loop_
_atom_site_type_symbol
_atom_site_label
_atom_site_fract_x
_atom_site_fract_y
_atom_site_fract_z
Si Si1 0.285783 0.795207 0.085297
Si Si2 0.645479 0.288037 0.410756
Si Si3 0.440682 0.793751 0.574753
Si Si4 0.361281 0.702234 0.035934
Si Si5 0.711783 0.283857 0.342055
Si Si6 0.154960 0.287115 0.073009
Si Si7 0.090782 0.714809 0.148371
Si Si8 0.097841 0.799270 0.723456
O O1 0.355099 0.719846 0.322576
O O2 0.329263 0.788630 0.069893
O O3 0.273344 0.000000 0.087716
O O4 0.185740 0.716916 0.865282
O O5 0.637930 0.500000 0.391950
O O6 0.574578 0.224227 0.337257
O O7 0.650647 0.227981 0.303884
O O8 0.742865 0.241230 0.672797
O O9 0.532007 0.707704 0.739910
O O10 0.448301 0.000000 0.566166
O O11 0.331223 0.500000 0.976658
O O12 0.321710 0.777796 0.842446
O O13 0.709083 0.500000 0.336313
O O14 0.814700 0.231344 0.591625
O O15 0.151344 0.500000 0.053592
O O16 0.123649 0.201163 0.899770
O O17 0.096366 0.236280 0.041516
O O18 0.090819 0.500000 0.152394
O O19 0.000000 0.777451 0.000000
O O20 0.000000 0.713850 0.500000
O O21 0.087752 0.000000 0.660415
#
# Coordination Sequence:
#
# PCOD9152246 Si02
#       8
#     4   4   4   4   4   4   4   4
#     4  10  22  40  57  76 108 147 184 226 275 325
#     4   9  17  33  57  80 106 140 179 223 270 324
#     4  11  22  37  58  81 107 144 187 228 273 326
#     4  11  23  37  56  82 112 146 182 225 274 329
#     4   8  17  33  50  75 111 145 175 216 276 328
#     4   9  17  30  52  80 106 134 175 227 269 310
#     4   8  14  27  50  78 107 140 175 213 265 327
#     4  10  21  37  56  78 107 146 183 218 272 332
#
# _framework density 21.663511
#
# number of rings (size 3 to 8) (size 9 to 14) (size 15 to 20)
#    0.000    2.500    1.250    2.625    0.000    4.750 
#    0.000    5.000    0.000    1.875    0.000    0.000 
#    0.000    0.000    0.000    0.000    0.000    0.000 
#
# Total GULP energy -178600.900076 kJ/mol
# GULP energy per Si atom -5581.278127 kJ/mol
# Density = 2.161420 g / cm^3
# Si number density = 21.663511 Si / 1000 Ang^3
#
#
#
# Elastic Constant Matrix: (Units=GPa)
#
#
# Indices 1 2 3 4 5 6 
#
# 1 159.0816 -4.4831 54.2311 0.0000 16.7485 0.0000
# 2 -4.4831 45.2516 2.5444 0.0000 -1.2411 0.0000
# 3 54.2311 2.5444 71.4817 0.0000 9.5832 0.0000
# 4 0.0000 0.0000 0.0000 9.1679 0.0000 -9.3969
# 5 16.7485 -1.2411 9.5832 0.0000 35.9218 0.0000
# 6 0.0000 0.0000 0.0000 -9.3969 0.0000 19.8090
#
#
#
# Elastic Compliance Matrix: (Units=1/GPa)
#
#
# Indices 1 2 3 4 5 6 
#
# 1 0.008730 0.001158 -0.006351 0.000000 -0.002336 0.000000
# 2 0.001158 0.022332 -0.001768 0.000000 0.000703 0.000000
# 3 -0.006351 -0.001768 0.019168 0.000000 -0.002213 0.000000
# 4 0.000000 0.000000 0.000000 0.212303 0.000000 0.100711
# 5 -0.002336 0.000703 -0.002213 0.000000 0.029542 0.000000
# 6 0.000000 0.000000 0.000000 0.100711 0.000000 0.098257
#
#
# Mechanical properties :
#
#
# Convention : Reuss Voigt Hill
#
# Bulk Modulus (GPa) = 27.54229 42.26663 34.90446
# Shear Modulus (GPa) = 12.00897 27.88126 19.94511
#
# Velocity S-wave (km/s) = 2.35700 3.59139 3.03756
# Velocity P-wave (km/s) = 4.48871 6.06220 5.33380
#
# Compressibility (1/GPa) = 0.03630780
#
# Stress axis : x y z
#
# Youngs Moduli (GPa) = 114.55127 44.77869 52.17136
#
# Poissons Ratio (x) = -0.05185 0.33134
# Poissons Ratio (y) = -0.13264 0.09222
# Poissons Ratio (z) = 0.72752 0.07915
#
# Static dielectric constant tensor:
#      x y z
#    x 1.765340 0.000000 0.014340 
#    y 0.000000 1.845080 0.000000 
#    z 0.014340 0.000000 1.787730 
# 
# From -- ./inp_files/58304.got.cif
#   From: 2010.05.17/outbox.cif.g08.bks.cpg/sg10_30_cif.got.tgz:58304.got - 2010.06.03 11:33:40.
