data_PCOD9152447
_publ_section_title
;
Structure prediction by ZEFSAII (Michael W. Deem and Ramdas Pophale) SiO2 
 PCOD9152447
Probable space group: P 2/M
;
_chemical_formula_sum "Si O2"
_cell_formula_units_Z 28
_cell_length_a 14.324653
_cell_length_b 13.598107
_cell_length_c 10.014627
_cell_angle_alpha 90.000000
_cell_angle_beta 131.494322
_cell_angle_gamma 90.000000
_cell_volume 1461.139088
_symmetry_space_group_name_H-M "P 2/M"
_symmetry_group_IT_number 10
_symmetry_cell_setting 'monoclinic'
loop_
_space_group_symop_operation_xyz
x,y,z
-x,y,-z
-x,-y,-z
x,-y,z
loop_
_atom_site_type_symbol
_atom_site_label
_atom_site_fract_x
_atom_site_fract_y
_atom_site_fract_z
Si Si1 0.990765 0.618094 0.652617
Si Si2 0.631656 0.610851 0.198281
Si Si3 0.406148 0.887541 0.532615
Si Si4 0.415242 0.113353 0.041444
Si Si5 0.739662 0.697758 0.547669
Si Si6 0.247513 0.288910 0.935717
Si Si7 0.629748 0.385625 0.694587
O O1 0.995211 0.500000 0.686896
O O2 0.866103 0.669105 0.591591
O O3 0.000000 0.627122 0.500000
O O4 0.106076 0.678370 0.825988
O O5 0.671807 0.500000 0.267770
O O6 0.634236 0.667909 0.339338
O O7 0.720225 0.655871 0.171123
O O8 0.500000 0.608674 0.000000
O O9 0.500000 0.864578 0.500000
O O10 0.295186 0.809005 0.443583
O O11 0.360850 0.000000 0.471643
O O12 0.493840 0.885199 0.745689
O O13 0.292896 0.177864 0.952417
O O14 0.382945 0.000000 0.980040
O O15 0.500000 0.153418 0.000000
O O16 0.728749 0.633766 0.671101
O O17 0.331566 0.326966 0.137797
O O18 0.500000 0.357810 0.500000
O O19 0.621563 0.500000 0.723586
#
# Coordination Sequence:
#
# PCOD9152447 Si02
#       7
#     4   4   4   4   4   4   4
#     4  11  24  41  60  84 120 169 217 251 283 346
#     4  11  21  33  55  84 113 152 199 248 303 364
#     4  10  21  39  64  92 121 155 197 248 311 374
#     4  10  21  37  60  90 119 149 195 257 315 362
#     4  12  22  38  60  85 121 160 203 249 299 351
#     4  12  22  38  60  83 119 163 204 245 300 363
#     4  11  23  37  57  90 125 152 190 253 318 369
#
# _framework density 19.163131
#
# number of rings (size 3 to 8) (size 9 to 14) (size 15 to 20)
#    0.000    1.000    1.429    7.714    0.000    2.857 
#    0.000    2.143    0.000    0.857    0.000    5.000 
#    0.000    0.000    0.000    0.000    0.000    0.000 
#
# Total GULP energy -156390.642000 kJ/mol
# GULP energy per Si atom -5585.380071 kJ/mol
# Density = 1.911952 g / cm^3
# Si number density = 19.163131 Si / 1000 Ang^3
#
#
#
# Elastic Constant Matrix: (Units=GPa)
#
#
# Indices 1 2 3 4 5 6 
#
# 1 78.7488 38.8702 21.6848 0.0000 -1.3953 0.0000
# 2 38.8702 131.4981 25.0901 0.0000 10.0069 0.0000
# 3 21.6848 25.0901 69.9537 0.0000 -7.6218 0.0000
# 4 0.0000 0.0000 0.0000 -15.0691 0.0000 -29.7762
# 5 -1.3953 10.0069 -7.6218 0.0000 41.4194 0.0000
# 6 0.0000 0.0000 0.0000 -29.7762 0.0000 22.5778
#
#
#
# Elastic Compliance Matrix: (Units=1/GPa)
#
#
# Indices 1 2 3 4 5 6 
#
# 1 0.015624 -0.004059 -0.003289 0.000000 0.000902 0.000000
# 2 -0.004059 0.009494 -0.002461 0.000000 -0.002883 0.000000
# 3 -0.003289 -0.002461 0.016582 0.000000 0.003535 0.000000
# 4 0.000000 0.000000 0.000000 -0.018403 0.000000 -0.024270
# 5 0.000902 -0.002883 0.003535 0.000000 0.025521 0.000000
# 6 0.000000 0.000000 0.000000 -0.024270 0.000000 0.012283
#
#
# Mechanical properties :
#
#
# Convention : Reuss Voigt Hill
#
# Bulk Modulus (GPa) = 45.28661 50.16564 47.72613
# Shear Modulus (GPa) = 56.76690 22.75598 39.76144
#
# Velocity S-wave (km/s) = 5.44860 3.44973 4.56004
# Velocity P-wave (km/s) = 7.95402 6.48865 7.25841
#
# Compressibility (1/GPa) = 0.02208158
#
# Stress axis : x y z
#
# Youngs Moduli (GPa) = 64.00413 105.33456 60.30457
#
# Poissons Ratio (x) = 0.42760 0.19834
# Poissons Ratio (y) = 0.25982 0.14840
# Poissons Ratio (z) = 0.21051 0.25921
#
# Static dielectric constant tensor:
#      x y z
#    x 1.724520 0.000000 0.028350 
#    y 0.000000 1.696490 0.000000 
#    z 0.028350 0.000000 1.669370 
# 
# From -- ./inp_files/25419.got.cif
#   From: 2010.05.17/outbox.cif.g08.bks.cpg/sg10_13_cif.got.tgz:25419.got - 2010.06.03 11:33:40.
