data_PCOD9152194
_publ_section_title
;
Structure prediction by ZEFSAII (Michael W. Deem and Ramdas Pophale) SiO2 
 PCOD9152194
Probable space group: P 2/M
;
_chemical_formula_sum "Si O2"
_cell_formula_units_Z 28
_cell_length_a 7.492247
_cell_length_b 33.525089
_cell_length_c 5.330686
_cell_angle_alpha 90.000000
_cell_angle_beta 75.735067
_cell_angle_gamma 90.000000
_cell_volume 1297.668077
_symmetry_space_group_name_H-M "P 2/M"
_symmetry_group_IT_number 10
_symmetry_cell_setting 'monoclinic'
loop_
_space_group_symop_operation_xyz
x,y,z
-x,y,-z
-x,-y,-z
x,-y,z
loop_
_atom_site_type_symbol
_atom_site_label
_atom_site_fract_x
_atom_site_fract_y
_atom_site_fract_z
Si Si1 0.202654 0.167573 0.030806
Si Si2 0.775926 0.672613 0.064980
Si Si3 0.218542 0.370747 0.432219
Si Si4 0.373119 0.000000 0.792585
Si Si5 0.000000 0.793836 0.500000
Si Si6 0.623827 0.543742 0.707020
Si Si7 0.375407 0.086410 0.794719
Si Si8 0.315223 0.757874 0.721344
O O1 0.257240 0.125123 0.901570
O O2 0.330666 0.202252 0.882334
O O3 0.158865 0.176114 0.336061
O O4 0.000000 0.176457 0.000000
O O5 0.713109 0.645905 0.324670
O O6 0.713762 0.718015 0.112203
O O7 0.708549 0.654356 0.827712
O O8 0.000000 0.672123 0.000000
O O9 0.254840 0.417144 0.369312
O O10 0.000000 0.364694 0.500000
O O11 0.500000 0.000000 0.500000
O O12 0.275021 0.956838 0.814106
O O13 0.500000 0.000000 0.000000
O O14 0.871767 0.764785 0.377058
O O15 0.500000 0.542774 0.500000
O O16 0.717376 0.500000 0.693644
O O17 0.500000 0.548058 0.000000
O O18 0.500000 0.091631 0.500000
O O19 0.500000 0.083441 0.000000
O O20 0.500000 0.753764 0.500000
#
# Coordination Sequence:
#
# PCOD9152194 Si02
#       8
#     4   4   4   2   2   4   4   4
#     4  10  23  39  58  86 123 161 207 258 320 367
#     4  10  22  40  62  87 122 163 197 256 313 366
#     4  10  22  39  63  88 122 159 201 249 307 362
#     4   8  16  34  55  87 118 154 196 253 314 366
#     4  10  24  42  62  83 130 168 201 276 312 374
#     4  10  21  38  61  88 123 162 201 253 308 363
#     4  10  21  36  63  89 120 157 207 258 309 378
#     4  11  25  41  63  91 121 165 221 256 320 381
#
# _framework density 21.577168
#
# number of rings (size 3 to 8) (size 9 to 14) (size 15 to 20)
#    0.000    2.000    0.000    2.571   11.000    2.000 
#    0.000    0.357    0.000    5.571    0.000    0.000 
#    0.000    0.000    0.000    0.000    0.000    0.000 
#
# Total GULP energy -156163.553458 kJ/mol
# GULP energy per Si atom -5577.269766 kJ/mol
# Density = 2.152806 g / cm^3
# Si number density = 21.577168 Si / 1000 Ang^3
#
#
#
# Elastic Constant Matrix: (Units=GPa)
#
#
# Indices 1 2 3 4 5 6 
#
# 1 45.0517 13.4207 26.2251 0.0000 1.1813 0.0000
# 2 13.4207 178.1563 63.9003 0.0000 -9.6691 0.0000
# 3 26.2251 63.9003 140.2617 0.0000 8.1743 0.0000
# 4 0.0000 0.0000 0.0000 49.0173 0.0000 -7.2582
# 5 1.1813 -9.6691 8.1743 0.0000 22.8481 0.0000
# 6 0.0000 0.0000 0.0000 -7.2582 0.0000 29.8012
#
#
#
# Elastic Compliance Matrix: (Units=1/GPa)
#
#
# Indices 1 2 3 4 5 6 
#
# 1 0.024918 -0.000224 -0.004572 0.000000 0.000253 0.000000
# 2 -0.000224 0.007093 -0.003437 0.000000 0.004243 0.000000
# 3 -0.004572 -0.003437 0.009826 0.000000 -0.004733 0.000000
# 4 0.000000 0.000000 0.000000 0.021164 0.000000 0.005155
# 5 0.000253 0.004243 -0.004733 0.000000 0.047243 0.000000
# 6 0.000000 0.000000 0.000000 0.005155 0.000000 0.034811
#
#
# Mechanical properties :
#
#
# Convention : Reuss Voigt Hill
#
# Bulk Modulus (GPa) = 39.41305 63.39579 51.40442
# Shear Modulus (GPa) = 29.41568 37.66156 33.53862
#
# Velocity S-wave (km/s) = 3.69627 4.18237 3.94681
# Velocity P-wave (km/s) = 6.04336 7.26414 6.68169
#
# Compressibility (1/GPa) = 0.02537231
#
# Stress axis : x y z
#
# Youngs Moduli (GPa) = 40.13160 140.98677 101.77126
#
# Poissons Ratio (x) = 0.03152 0.46529
# Poissons Ratio (y) = 0.00897 0.34977
# Poissons Ratio (z) = 0.18348 0.48455
#
# Static dielectric constant tensor:
#      x y z
#    x 1.789790 0.000000 0.088640 
#    y 0.000000 1.830320 0.000000 
#    z 0.088640 0.000000 2.178380 
# 
# From -- ./inp_files/5506.got.cif
#   From: 2010.05.17/outbox.cif.g08.bks.cpg/sg10_3_cif.got.tgz:5506.got - 2010.06.03 11:33:40.
