data_PCOD9152995
_publ_section_title
;
Structure prediction by ZEFSAII (Michael W. Deem and Ramdas Pophale) SiO2 
 PCOD9152995
Probable space group: P 2/M
;
_chemical_formula_sum "Si O2"
_cell_formula_units_Z 26
_cell_length_a 8.415657
_cell_length_b 7.790280
_cell_length_c 19.724143
_cell_angle_alpha 90.000000
_cell_angle_beta 121.413537
_cell_angle_gamma 90.000000
_cell_volume 1103.585434
_symmetry_space_group_name_H-M "P 2/M"
_symmetry_group_IT_number 10
_symmetry_cell_setting 'monoclinic'
loop_
_space_group_symop_operation_xyz
x,y,z
-x,y,-z
-x,-y,-z
x,-y,z
loop_
_atom_site_type_symbol
_atom_site_label
_atom_site_fract_x
_atom_site_fract_y
_atom_site_fract_z
Si Si1 0.622468 0.794480 0.461127
Si Si2 0.716586 0.702674 0.049619
Si Si3 0.263892 0.199729 0.166978
Si Si4 0.980413 0.795075 0.223608
Si Si5 0.000000 0.253053 0.000000
Si Si6 0.624305 0.696002 0.316578
Si Si7 0.970718 0.198143 0.615772
O O1 0.500000 0.760700 0.500000
O O2 0.549553 0.710338 0.376479
O O3 0.827847 0.731137 0.528780
O O4 0.619809 0.000000 0.447780
O O5 0.729076 0.500000 0.033563
O O6 0.803416 0.722439 0.143870
O O7 0.854599 0.803385 0.028551
O O8 0.500000 0.754610 0.000000
O O9 0.477898 0.232707 0.230163
O O10 0.154286 0.230489 0.212388
O O11 0.235878 0.000000 0.140173
O O12 0.162994 0.312268 0.087593
O O13 0.024885 0.724544 0.307837
O O14 0.949133 0.000000 0.223186
O O15 0.663802 0.500000 0.308626
O O16 0.817783 0.795960 0.360904
O O17 0.908616 0.000000 0.610045
#
# Coordination Sequence:
#
# PCOD9152995 Si02
#       7
#     4   4   4   4   2   4   4
#     4  10  21  41  68  92 118 156 204 254 304 358
#     4  10  22  38  58  86 124 166 205 250 311 381
#     4  10  21  41  66  90 119 155 205 259 313 368
#     4   9  20  39  62  89 115 150 201 256 306 359
#     4  10  22  40  64  92 122 160 212 270 314 372
#     4  12  26  39  57  90 128 164 201 244 301 367
#     4  10  21  39  63  90 121 159 202 251 304 358
#
# _framework density 23.559570999999998
#
# number of rings (size 3 to 8) (size 9 to 14) (size 15 to 20)
#    0.000    1.846    0.000    3.231    2.154    9.846 
#    0.000    1.538    0.000    0.000    0.000    0.000 
#    0.000    0.000    0.000    0.000    0.000    0.000 
#
# Total GULP energy -145011.625444 kJ/mol
# GULP energy per Si atom -5577.370209 kJ/mol
# Density = 2.350595 g / cm^3
# Si number density = 23.559571 Si / 1000 Ang^3
#
#
#
# Elastic Constant Matrix: (Units=GPa)
#
#
# Indices 1 2 3 4 5 6 
#
# 1 55.0896 7.0552 33.2514 0.0000 12.3380 0.0000
# 2 7.0552 62.4318 20.4448 0.0000 0.6839 0.0000
# 3 33.2514 20.4448 155.8908 0.0000 18.0608 0.0000
# 4 0.0000 0.0000 0.0000 -124.3046 0.0000 -48.1531
# 5 12.3380 0.6839 18.0608 0.0000 54.1281 0.0000
# 6 0.0000 0.0000 0.0000 -48.1531 0.0000 -22.9653
#
#
#
# Elastic Compliance Matrix: (Units=1/GPa)
#
#
# Indices 1 2 3 4 5 6 
#
# 1 0.021521 -0.001070 -0.004039 0.000000 -0.003544 0.000000
# 2 -0.001070 0.016805 -0.002059 0.000000 0.000719 0.000000
# 3 -0.004039 -0.002059 0.007736 0.000000 -0.001634 0.000000
# 4 0.000000 0.000000 0.000000 -0.042848 0.000000 0.089844
# 5 -0.003544 0.000719 -0.001634 0.000000 0.019819 0.000000
# 6 0.000000 0.000000 0.000000 0.089844 0.000000 -0.231927
#
#
# Mechanical properties :
#
#
# Convention : Reuss Voigt Hill
#
# Bulk Modulus (GPa) = 31.52152 43.87943 37.70048
# Shear Modulus (GPa) = -27.17651 -4.45096 -15.81373
#
# Velocity S-wave (km/s) = -3.40004 -1.37599 -2.59361
# Velocity P-wave (km/s) = 1.41604 4.01757 2.65854
#
# Compressibility (1/GPa) = 0.03172436
#
# Stress axis : x y z
#
# Youngs Moduli (GPa) = 46.46566 59.50680 129.27022
#
# Poissons Ratio (x) = 0.06370 0.52218
# Poissons Ratio (y) = 0.04974 0.26615
# Poissons Ratio (z) = 0.18770 0.12252
#
# Static dielectric constant tensor:
#      x y z
#    x 1.910160 0.000000 -0.001810 
#    y 0.000000 1.964010 0.000000 
#    z -0.001810 0.000000 1.856500 
# 
# From -- ./inp_files/34226.got.cif
#   From: 2010.05.17/outbox.cif.g08.bks.cpg/sg10_18_cif.got.tgz:34226.got - 2010.06.03 11:33:40.
