data_PCOD9152498
_publ_section_title
;
Structure prediction by ZEFSAII (Michael W. Deem and Ramdas Pophale) SiO2 
 PCOD9152498
Probable space group: P 2/M
;
_chemical_formula_sum "Si O2"
_cell_formula_units_Z 28
_cell_length_a 12.083916
_cell_length_b 7.236708
_cell_length_c 15.185526
_cell_angle_alpha 90.000000
_cell_angle_beta 104.256204
_cell_angle_gamma 90.000000
_cell_volume 1287.045489
_symmetry_space_group_name_H-M "P 2/M"
_symmetry_group_IT_number 10
_symmetry_cell_setting 'monoclinic'
loop_
_space_group_symop_operation_xyz
x,y,z
-x,y,-z
-x,-y,-z
x,-y,z
loop_
_atom_site_type_symbol
_atom_site_label
_atom_site_fract_x
_atom_site_fract_y
_atom_site_fract_z
Si Si1 0.361366 0.000000 0.067503
Si Si2 0.995441 0.723339 0.100201
Si Si3 0.343301 0.724726 0.543414
Si Si4 0.181207 0.722520 0.786732
Si Si5 0.374189 0.000000 0.859156
Si Si6 0.894306 0.724374 0.419698
Si Si7 0.589611 0.275671 0.639415
Si Si8 0.749449 0.721238 0.830364
O O1 0.490645 0.000000 0.131124
O O2 0.294130 0.176740 0.091390
O O3 0.365328 0.000000 0.963572
O O4 0.986822 0.500000 0.095644
O O5 0.119371 0.768534 0.163794
O O6 0.892034 0.782155 0.142296
O O7 0.000000 0.787505 0.000000
O O8 0.342073 0.500000 0.544247
O O9 0.225232 0.785902 0.561644
O O10 0.360237 0.780429 0.445319
O O11 0.457673 0.782540 0.616976
O O12 0.195940 0.500000 0.790801
O O13 0.110839 0.771834 0.684507
O O14 0.302888 0.824078 0.810447
O O15 0.896613 0.500000 0.422914
O O16 0.000000 0.787521 0.500000
O O17 0.590023 0.500000 0.639628
O O18 0.667742 0.218678 0.735177
O O19 0.742789 0.500000 0.840177
#
# Coordination Sequence:
#
# PCOD9152498 Si02
#       8
#     2   4   4   4   2   4   4   4
#     4  11  26  43  61  89 120 153 206 261 311 370
#     4   9  18  34  59  89 117 150 198 251 304 361
#     4   8  14  26  46  77 114 151 195 236 286 350
#     4  10  22  40  64  92 124 164 207 248 302 371
#     4  11  26  45  62  86 121 161 203 255 312 371
#     4   9  18  30  52  86 123 159 197 243 294 356
#     4   8  15  27  49  80 112 151 194 239 289 350
#     4  10  21  37  62  90 120 156 198 252 310 364
#
# _framework density 21.755253
#
# number of rings (size 3 to 8) (size 9 to 14) (size 15 to 20)
#    0.000    2.714    0.000    1.714    4.000    2.857 
#    0.000    3.214    0.000    2.571    0.000    0.000 
#    0.000    0.000    0.000    0.000    0.000    0.000 
#
# Total GULP energy -156437.415913 kJ/mol
# GULP energy per Si atom -5587.050568 kJ/mol
# Density = 2.170574 g / cm^3
# Si number density = 21.755253 Si / 1000 Ang^3
#
#
#
# Elastic Constant Matrix: (Units=GPa)
#
#
# Indices 1 2 3 4 5 6 
#
# 1 110.4795 12.5830 27.4999 0.0000 4.1763 0.0000
# 2 12.5830 107.6196 5.5855 0.0000 4.5934 0.0000
# 3 27.4999 5.5855 92.5814 0.0000 15.8753 0.0000
# 4 0.0000 0.0000 0.0000 15.3906 0.0000 -14.8552
# 5 4.1763 4.5934 15.8753 0.0000 30.6226 0.0000
# 6 0.0000 0.0000 0.0000 -14.8552 0.0000 16.5014
#
#
#
# Elastic Compliance Matrix: (Units=1/GPa)
#
#
# Indices 1 2 3 4 5 6 
#
# 1 0.009884 -0.001017 -0.002930 0.000000 0.000324 0.000000
# 2 -0.001017 0.009467 -0.000054 0.000000 -0.001253 0.000000
# 3 -0.002930 -0.000054 0.012737 0.000000 -0.006196 0.000000
# 4 0.000000 0.000000 0.000000 0.495691 0.000000 0.446240
# 5 0.000324 -0.001253 -0.006196 0.000000 0.036011 0.000000
# 6 0.000000 0.000000 0.000000 0.446240 0.000000 0.462323
#
#
# Mechanical properties :
#
#
# Convention : Reuss Voigt Hill
#
# Bulk Modulus (GPa) = 41.51832 44.66860 43.09346
# Shear Modulus (GPa) = 4.79779 30.17040 17.48409
#
# Velocity S-wave (km/s) = 1.48665 3.72803 2.83799
# Velocity P-wave (km/s) = 4.69814 6.25363 5.53084
#
# Compressibility (1/GPa) = 0.02408575
#
# Stress axis : x y z
#
# Youngs Moduli (GPa) = 101.16897 105.62735 78.50964
#
# Poissons Ratio (x) = 0.10747 0.23004
# Poissons Ratio (y) = 0.10293 0.00424
# Poissons Ratio (z) = 0.29644 0.00571
#
# Static dielectric constant tensor:
#      x y z
#    x 1.741300 0.000000 0.006770 
#    y 0.000000 1.817800 0.000000 
#    z 0.006770 0.000000 1.774980 
# 
# From -- ./inp_files/63533.got.cif
#   From: 2010.05.17/outbox.cif.g08.bks.cpg/sg10_32_cif.got.tgz:63533.got - 2010.06.03 11:33:40.
