data_PCOD9152002
_publ_section_title
;
Structure prediction by ZEFSAII (Michael W. Deem and Ramdas Pophale) SiO2 
 PCOD9152002
Probable space group: P 2/M
;
_chemical_formula_sum "Si O2"
_cell_formula_units_Z 16
_cell_length_a 5.190081
_cell_length_b 13.737533
_cell_length_c 10.354436
_cell_angle_alpha 90.000000
_cell_angle_beta 115.988711
_cell_angle_gamma 90.000000
_cell_volume 663.607436
_symmetry_space_group_name_H-M "P 2/M"
_symmetry_group_IT_number 10
_symmetry_cell_setting 'monoclinic'
loop_
_space_group_symop_operation_xyz
x,y,z
-x,y,-z
-x,-y,-z
x,-y,z
loop_
_atom_site_type_symbol
_atom_site_label
_atom_site_fract_x
_atom_site_fract_y
_atom_site_fract_z
Si Si1 0.373665 0.888521 0.183227
Si Si2 0.679431 0.315684 0.918992
Si Si3 0.956480 0.889578 0.631164
Si Si4 0.339035 0.383440 0.592762
O O1 0.292776 0.801746 0.070755
O O2 0.717283 0.892391 0.250023
O O3 0.250919 0.857478 0.298394
O O4 0.273288 0.000000 0.138908
O O5 0.494566 0.338730 0.751242
O O6 0.500000 0.351808 0.000000
O O7 0.000000 0.356426 0.000000
O O8 0.000000 0.841225 0.500000
O O9 0.851750 0.000000 0.581087
O O10 0.500000 0.348216 0.500000
O O11 0.379984 0.500000 0.612023
O O12 0.000000 0.367893 0.500000
#
# Coordination Sequence:
#
# PCOD9152002 Si02
#       4
#     4   4   4   4
#     4  10  21  36  54  81 122 171 218 261 308 368
#     4  12  26  42  64  98 135 172 217 268 323 380
#     4   9  17  31  52  79 112 155 211 269 319 366
#     4  10  23  46  74 101 130 167 211 262 326 397
#
# _framework density 24.110638999999999
#
# number of rings (size 3 to 8) (size 9 to 14) (size 15 to 20)
#    0.000    1.750    0.000    3.750    0.000    8.000 
#    0.000    0.000    0.000    0.000    0.000    0.000 
#    0.000    0.000    0.000    0.000    0.000    0.000 
#
# Total GULP energy -89408.198926 kJ/mol
# GULP energy per Si atom -5588.012433 kJ/mol
# Density = 2.405576 g / cm^3
# Si number density = 24.110639 Si / 1000 Ang^3
#
#
#
# Elastic Constant Matrix: (Units=GPa)
#
#
# Indices 1 2 3 4 5 6 
#
# 1 211.3727 20.2715 88.3560 0.0000 -11.0997 0.0000
# 2 20.2715 62.4473 18.2188 0.0000 5.2254 0.0000
# 3 88.3560 18.2188 146.6836 0.0000 6.2515 0.0000
# 4 0.0000 0.0000 0.0000 22.8932 0.0000 25.4908
# 5 -11.0997 5.2254 6.2515 0.0000 53.5388 0.0000
# 6 0.0000 0.0000 0.0000 25.4908 0.0000 -30.1534
#
#
#
# Elastic Compliance Matrix: (Units=1/GPa)
#
#
# Indices 1 2 3 4 5 6 
#
# 1 0.006573 -0.001158 -0.003898 0.000000 0.001931 0.000000
# 2 -0.001158 0.016923 -0.001330 0.000000 -0.001736 0.000000
# 3 -0.003898 -0.001330 0.009406 0.000000 -0.001776 0.000000
# 4 0.000000 0.000000 0.000000 0.022501 0.000000 0.019022
# 5 0.001931 -0.001736 -0.001776 0.000000 0.019455 0.000000
# 6 0.000000 0.000000 0.000000 0.019022 0.000000 -0.017083
#
#
# Mechanical properties :
#
#
# Convention : Reuss Voigt Hill
#
# Bulk Modulus (GPa) = 49.67784 74.91068 62.29426
# Shear Modulus (GPa) = 64.71971 28.83288 46.77629
#
# Velocity S-wave (km/s) = 5.18662 3.46187 4.40940
# Velocity P-wave (km/s) = 7.51778 6.86414 7.19838
#
# Compressibility (1/GPa) = 0.02012970
#
# Stress axis : x y z
#
# Youngs Moduli (GPa) = 152.14580 59.09171 106.31461
#
# Poissons Ratio (x) = 0.06843 0.41436
# Poissons Ratio (y) = 0.17619 0.14143
# Poissons Ratio (z) = 0.59299 0.07861
#
# Static dielectric constant tensor:
#      x y z
#    x 1.911280 0.000000 0.033280 
#    y 0.000000 1.948730 0.000000 
#    z 0.033280 0.000000 2.010760 
# 
# From -- ./inp_files/14839.got.cif
#   From: 2010.05.17/outbox.cif.g08.bks.cpg/sg10_8_cif.got.tgz:14839.got - 2010.06.03 11:33:40.
