data_PCOD9152104
_publ_section_title
;
Structure prediction by ZEFSAII (Michael W. Deem and Ramdas Pophale) SiO2 
 PCOD9152104
Probable space group: P 2/M
;
_chemical_formula_sum "Si O2"
_cell_formula_units_Z 24
_cell_length_a 22.243355
_cell_length_b 7.817822
_cell_length_c 11.129414
_cell_angle_alpha 90.000000
_cell_angle_beta 32.793916
_cell_angle_gamma 90.000000
_cell_volume 1048.219467
_symmetry_space_group_name_H-M "P 2/M"
_symmetry_group_IT_number 10
_symmetry_cell_setting 'monoclinic'
loop_
_space_group_symop_operation_xyz
x,y,z
-x,y,-z
-x,-y,-z
x,-y,z
loop_
_atom_site_type_symbol
_atom_site_label
_atom_site_fract_x
_atom_site_fract_y
_atom_site_fract_z
Si Si1 0.747638 0.200504 0.365706
Si Si2 0.619053 0.703016 0.343670
Si Si3 0.156112 0.702979 0.162660
Si Si4 0.378301 0.698971 0.188840
Si Si5 0.825824 0.702649 0.604882
Si Si6 0.963640 0.803911 0.876594
O O1 0.670762 0.215936 0.376427
O O2 0.686875 0.292934 0.576166
O O3 0.758664 0.000000 0.377607
O O4 0.870215 0.268865 0.123328
O O5 0.500000 0.768294 0.500000
O O6 0.607490 0.500000 0.388768
O O7 0.712727 0.720054 0.083907
O O8 0.126589 0.500000 0.202703
O O9 0.133117 0.768221 0.335032
O O10 0.094910 0.792806 0.155758
O O11 0.395034 0.500000 0.126000
O O12 0.292298 0.776025 0.237604
O O13 0.500000 0.777513 0.000000
O O14 0.811768 0.500000 0.647151
O O15 0.916709 0.724582 0.348108
O O16 0.981352 0.000000 0.880341
#
# Coordination Sequence:
#
# PCOD9152104 Si02
#       6
#     4   4   4   4   4   4
#     4  10  22  39  57  80 115 151 187 233 281 333
#     4   9  18  32  57  85 110 147 190 232 280 333
#     4   9  18  33  54  84 117 145 181 231 283 334
#     4  10  23  41  62  84 111 147 190 238 281 332
#     4  10  21  36  57  85 114 147 186 233 284 331
#     4  10  21  37  57  83 115 150 187 229 279 335
#
# _framework density 22.895969000000001
#
# number of rings (size 3 to 8) (size 9 to 14) (size 15 to 20)
#    0.000    2.333    0.000    1.500    2.333    6.667 
#    0.000    3.333    0.000    0.000    0.000    0.000 
#    0.000    0.000    0.000    0.000    0.000    0.000 
#
# Total GULP energy -134042.791438 kJ/mol
# GULP energy per Si atom -5585.116310 kJ/mol
# Density = 2.284386 g / cm^3
# Si number density = 22.895969 Si / 1000 Ang^3
#
#
#
# Elastic Constant Matrix: (Units=GPa)
#
#
# Indices 1 2 3 4 5 6 
#
# 1 64.3645 -3.4091 29.4081 0.0000 -4.4266 0.0000
# 2 -3.4091 33.3494 -1.4600 0.0000 -3.8170 0.0000
# 3 29.4081 -1.4600 85.0654 0.0000 -10.0781 0.0000
# 4 0.0000 0.0000 0.0000 -16.2863 0.0000 -2.0430
# 5 -4.4266 -3.8170 -10.0781 0.0000 37.9532 0.0000
# 6 0.0000 0.0000 0.0000 -2.0430 0.0000 36.3486
#
#
#
# Elastic Compliance Matrix: (Units=1/GPa)
#
#
# Indices 1 2 3 4 5 6 
#
# 1 0.018553 0.001696 -0.006307 0.000000 0.000660 0.000000
# 2 0.001696 0.030558 0.000336 0.000000 0.003360 0.000000
# 3 -0.006307 0.000336 0.014309 0.000000 0.003098 0.000000
# 4 0.000000 0.000000 0.000000 -0.060972 0.000000 -0.003427
# 5 0.000660 0.003360 0.003098 0.000000 0.027586 0.000000
# 6 0.000000 0.000000 0.000000 -0.003427 0.000000 0.027319
#
#
# Mechanical properties :
#
#
# Convention : Reuss Voigt Hill
#
# Bulk Modulus (GPa) = 18.22449 25.76192 21.99321
# Shear Modulus (GPa) = 59.38753 22.15247 40.77000
#
# Velocity S-wave (km/s) = 5.09846 3.11388 4.22437
# Velocity P-wave (km/s) = 6.52963 4.91981 5.78103
#
# Compressibility (1/GPa) = 0.05487122
#
# Stress axis : x y z
#
# Youngs Moduli (GPa) = 53.89875 32.72440 69.88713
#
# Poissons Ratio (x) = -0.05550 0.44077
# Poissons Ratio (y) = -0.09141 -0.02350
# Poissons Ratio (z) = 0.33993 -0.01100
#
# Static dielectric constant tensor:
#      x y z
#    x 1.883500 0.000000 -0.019460 
#    y 0.000000 1.846150 0.000000 
#    z -0.019460 0.000000 1.852330 
# 
# From -- ./inp_files/45313.got.cif
#   From: 2010.05.17/outbox.cif.g08.bks.cpg/sg10_23_cif.got.tgz:45313.got - 2010.06.03 11:33:40.
