data_PCOD9152919
_publ_section_title
;
Structure prediction by ZEFSAII (Michael W. Deem and Ramdas Pophale) SiO2 
 PCOD9152919
Probable space group: P 2/M
;
_chemical_formula_sum "Si O2"
_cell_formula_units_Z 32
_cell_length_a 15.714966
_cell_length_b 8.147914
_cell_length_c 12.142799
_cell_angle_alpha 90.000000
_cell_angle_beta 91.161678
_cell_angle_gamma 90.000000
_cell_volume 1554.495315
_symmetry_space_group_name_H-M "P 2/M"
_symmetry_group_IT_number 10
_symmetry_cell_setting 'monoclinic'
loop_
_space_group_symop_operation_xyz
x,y,z
-x,y,-z
-x,-y,-z
x,-y,z
loop_
_atom_site_type_symbol
_atom_site_label
_atom_site_fract_x
_atom_site_fract_y
_atom_site_fract_z
Si Si1 0.255028 0.303183 0.416216
Si Si2 0.902098 0.800363 0.996437
Si Si3 0.251894 0.801043 0.162068
Si Si4 0.405420 0.809937 0.012453
Si Si5 0.828344 0.806915 0.232203
Si Si6 0.583073 0.195212 0.437837
Si Si7 0.647246 0.684747 0.215083
Si Si8 0.089971 0.301595 0.551024
O O1 0.259487 0.500000 0.420889
O O2 0.255906 0.249399 0.289132
O O3 0.334379 0.233551 0.486711
O O4 0.167991 0.250460 0.474541
O O5 0.835676 0.744856 0.900418
O O6 0.905491 0.000000 0.989202
O O7 0.861081 0.758954 0.112944
O O8 0.000000 0.741603 0.000000
O O9 0.252327 0.000000 0.155448
O O10 0.335363 0.741371 0.095935
O O11 0.365296 0.800267 0.889978
O O12 0.418170 0.000000 0.046165
O O13 0.500000 0.735290 0.000000
O O14 0.743629 0.707528 0.258062
O O15 0.896135 0.770973 0.328021
O O16 0.807842 0.000000 0.230854
O O17 0.500000 0.253857 0.500000
O O18 0.589736 0.273778 0.317745
O O19 0.577370 0.000000 0.422208
O O20 0.632670 0.500000 0.176912
O O21 0.091235 0.500000 0.558548
O O22 0.000000 0.250145 0.500000
#
# Coordination Sequence:
#
# PCOD9152919 Si02
#       8
#     4   4   4   4   4   4   4   4
#     4  11  24  41  61  89 127 165 201 250 307 365
#     4   9  19  36  59  89 121 153 196 253 304 348
#     4  10  21  39  61  86 121 161 202 249 299 355
#     4  10  22  41  64  89 119 160 207 251 297 355
#     4  11  21  38  65  91 118 158 209 257 303 361
#     4  11  25  44  67  92 120 160 207 253 304 365
#     4  12  24  40  64  92 125 160 199 254 313 364
#     4  10  23  42  61  86 125 167 204 251 311 367
#
# _framework density 20.585459
#
# number of rings (size 3 to 8) (size 9 to 14) (size 15 to 20)
#    0.000    1.500    2.500    2.250    3.500    2.500 
#    0.000    0.000    0.000    1.875    0.000    0.000 
#    0.000    0.000    0.000    0.000    0.000    0.000 
#
# Total GULP energy -178792.363967 kJ/mol
# GULP energy per Si atom -5587.261374 kJ/mol
# Density = 2.053861 g / cm^3
# Si number density = 20.585459 Si / 1000 Ang^3
#
#
#
# Elastic Constant Matrix: (Units=GPa)
#
#
# Indices 1 2 3 4 5 6 
#
# 1 81.6661 2.9510 -7.7780 0.0000 -5.9905 0.0000
# 2 2.9510 20.0308 -8.0649 0.0000 -7.5885 0.0000
# 3 -7.7780 -8.0649 73.2262 0.0000 -3.3387 0.0000
# 4 0.0000 0.0000 0.0000 -7.2410 0.0000 3.2684
# 5 -5.9905 -7.5885 -3.3387 0.0000 33.5162 0.0000
# 6 0.0000 0.0000 0.0000 3.2684 0.0000 13.5035
#
#
#
# Elastic Compliance Matrix: (Units=1/GPa)
#
#
# Indices 1 2 3 4 5 6 
#
# 1 0.012561 -0.000423 0.001392 0.000000 0.002288 0.000000
# 2 -0.000423 0.058001 0.006970 0.000000 0.013751 0.000000
# 3 0.001392 0.006970 0.014722 0.000000 0.003293 0.000000
# 4 0.000000 0.000000 0.000000 -0.124500 0.000000 0.030134
# 5 0.002288 0.013751 0.003293 0.000000 0.033687 0.000000
# 6 0.000000 0.000000 0.000000 0.030134 0.000000 0.066761
#
#
# Mechanical properties :
#
#
# Convention : Reuss Voigt Hill
#
# Bulk Modulus (GPa) = 9.88519 16.57103 13.22811
# Shear Modulus (GPa) = 63.23092 20.47672 41.85382
#
# Velocity S-wave (km/s) = 5.54824 3.15734 4.51396
# Velocity P-wave (km/s) = 6.77174 4.62158 5.79722
#
# Compressibility (1/GPa) = 0.10116139
#
# Stress axis : x y z
#
# Youngs Moduli (GPa) = 79.61360 17.24094 67.92555
#
# Poissons Ratio (x) = 0.00730 -0.09454
# Poissons Ratio (y) = 0.03371 -0.47345
# Poissons Ratio (z) = -0.11081 -0.12017
#
# Static dielectric constant tensor:
#      x y z
#    x 1.760810 0.000000 0.003450 
#    y 0.000000 1.737740 0.000000 
#    z 0.003450 0.000000 1.692810 
# 
# From -- ./inp_files/49925.got.cif
#   From: 2010.05.17/outbox.cif.g08.bks.cpg/sg10_25_cif.got.tgz:49925.got - 2010.06.03 11:33:40.
