data_PCOD9152625
_publ_section_title
;
Structure prediction by ZEFSAII (Michael W. Deem and Ramdas Pophale) SiO2 
 PCOD9152625
Probable space group: P 2/M
;
_chemical_formula_sum "Si O2"
_cell_formula_units_Z 28
_cell_length_a 26.809294
_cell_length_b 8.862707
_cell_length_c 10.226098
_cell_angle_alpha 90.000000
_cell_angle_beta 37.966864
_cell_angle_gamma 90.000000
_cell_volume 1494.796348
_symmetry_space_group_name_H-M "P 2/M"
_symmetry_group_IT_number 10
_symmetry_cell_setting 'monoclinic'
loop_
_space_group_symop_operation_xyz
x,y,z
-x,y,-z
-x,-y,-z
x,-y,z
loop_
_atom_site_type_symbol
_atom_site_label
_atom_site_fract_x
_atom_site_fract_y
_atom_site_fract_z
Si Si1 0.267522 0.180652 0.983489
Si Si2 0.567700 0.320658 0.251448
Si Si3 0.746576 0.817916 0.521898
Si Si4 0.982462 0.318293 0.685843
Si Si5 0.200833 0.680964 0.861883
Si Si6 0.140076 0.818503 0.470035
Si Si7 0.562992 0.181337 0.984283
O O1 0.349882 0.237601 0.878520
O O2 0.253743 0.253879 0.871179
O O3 0.268747 0.000000 0.970384
O O4 0.193910 0.224202 0.232352
O O5 0.500000 0.288220 0.500000
O O6 0.581362 0.500000 0.219548
O O7 0.541648 0.261974 0.163434
O O8 0.769933 0.744558 0.336600
O O9 0.809862 0.772830 0.504640
O O10 0.655024 0.778143 0.753833
O O11 0.749465 0.000000 0.504040
O O12 0.986957 0.500000 0.678645
O O13 0.052064 0.252633 0.634614
O O14 0.000000 0.268470 0.500000
O O15 0.892470 0.273683 0.916290
O O16 0.205244 0.500000 0.853332
O O17 0.133364 0.000000 0.485554
O O18 0.560614 0.000000 0.008590
O O19 0.500000 0.219488 0.000000
#
# Coordination Sequence:
#
# PCOD9152625 Si02
#       7
#     4   4   4   4   4   4   4
#     4  11  22  40  65  91 120 160 206 252 300 357
#     4  11  25  42  62  94 129 160 200 251 303 360
#     4  10  22  42  61  88 124 160 205 250 301 363
#     4  10  21  38  59  86 123 161 201 248 302 362
#     4  11  24  40  60  91 125 161 203 250 305 364
#     4  10  21  38  63  89 118 156 204 254 300 356
#     4  10  22  42  66  91 122 163 207 249 298 361
#
# _framework density 18.731648
#
# number of rings (size 3 to 8) (size 9 to 14) (size 15 to 20)
#    0.000    1.571    2.857    1.286    2.000    5.143 
#    0.000    2.857    0.000    0.000    0.000    0.000 
#    0.000    0.000    0.000    0.000    0.000    0.000 
#
# Total GULP energy -156499.001955 kJ/mol
# GULP energy per Si atom -5589.250070 kJ/mol
# Density = 1.868901 g / cm^3
# Si number density = 18.731648 Si / 1000 Ang^3
#
#
#
# Elastic Constant Matrix: (Units=GPa)
#
#
# Indices 1 2 3 4 5 6 
#
# 1 132.3474 29.3802 38.2029 0.0000 17.0928 0.0000
# 2 29.3802 22.7434 34.6283 0.0000 7.3679 0.0000
# 3 38.2029 34.6283 90.9852 0.0000 25.1831 0.0000
# 4 0.0000 0.0000 0.0000 25.5261 0.0000 0.4620
# 5 17.0928 7.3679 25.1831 0.0000 36.4568 0.0000
# 6 0.0000 0.0000 0.0000 0.4620 0.0000 -378.9413
#
#
#
# Elastic Compliance Matrix: (Units=1/GPa)
#
#
# Indices 1 2 3 4 5 6 
#
# 1 0.011129 -0.018155 0.003296 0.000000 -0.003825 0.000000
# 2 -0.018155 0.136029 -0.048090 0.000000 0.014240 0.000000
# 3 0.003296 -0.048090 0.031710 0.000000 -0.013730 0.000000
# 4 0.000000 0.000000 0.000000 0.039175 0.000000 0.000048
# 5 -0.003825 0.014240 -0.013730 0.000000 0.035830 0.000000
# 6 0.000000 0.000000 0.000000 0.000048 0.000000 -0.002639
#
#
# Mechanical properties :
#
#
# Convention : Reuss Voigt Hill
#
# Bulk Modulus (GPa) = 18.87893 50.05544 34.46718
# Shear Modulus (GPa) = 12.66500 -53.80071 -20.56786
#
# Velocity S-wave (km/s) = 2.60307 -5.36509 -3.31724
# Velocity P-wave (km/s) = 4.37437 3.40566 1.94121
#
# Compressibility (1/GPa) = 0.05296911
#
# Stress axis : x y z
#
# Youngs Moduli (GPa) = 89.85609 7.35138 31.53575
#
# Poissons Ratio (x) = 0.13347 -0.10393
# Poissons Ratio (y) = 1.63135 1.51655
# Poissons Ratio (z) = -0.29613 0.35353
#
# Static dielectric constant tensor:
#      x y z
#    x 1.623540 0.000000 -0.003180 
#    y 0.000000 1.627810 0.000000 
#    z -0.003180 0.000000 1.629930 
# 
# From -- ./inp_files/37003.got.cif
#   From: 2010.05.17/outbox.cif.g08.bks.cpg/sg10_19_cif.got.tgz:37003.got - 2010.06.03 11:33:40.
