data_PCOD9152640
_publ_section_title
;
Structure prediction by ZEFSAII (Michael W. Deem and Ramdas Pophale) SiO2 
 PCOD9152640
Probable space group: P 2/M
;
_chemical_formula_sum "Si O2"
_cell_formula_units_Z 32
_cell_length_a 20.927432
_cell_length_b 8.472553
_cell_length_c 25.964646
_cell_angle_alpha 90.000000
_cell_angle_beta 22.805414
_cell_angle_gamma 90.000000
_cell_volume 1784.429630
_symmetry_space_group_name_H-M "P 2/M"
_symmetry_group_IT_number 10
_symmetry_cell_setting 'monoclinic'
loop_
_space_group_symop_operation_xyz
x,y,z
-x,y,-z
-x,-y,-z
x,-y,z
loop_
_atom_site_type_symbol
_atom_site_label
_atom_site_fract_x
_atom_site_fract_y
_atom_site_fract_z
Si Si1 0.663277 0.816575 0.342351
Si Si2 0.135838 0.191218 0.713727
Si Si3 0.833769 0.311027 0.875503
Si Si4 0.448671 0.191484 0.411370
Si Si5 0.477051 0.189091 0.171194
Si Si6 0.977420 0.309565 0.659060
Si Si7 0.641021 0.689147 0.631790
Si Si8 0.153356 0.809392 0.350325
O O1 0.500000 0.816708 0.500000
O O2 0.805287 0.749351 0.273695
O O3 0.599025 0.750051 0.335940
O O4 0.706054 0.000000 0.301046
O O5 0.278086 0.238088 0.566931
O O6 0.961855 0.251038 0.823171
O O7 0.135657 0.000000 0.715387
O O8 0.835701 0.500000 0.874076
O O9 0.900512 0.255162 0.770223
O O10 0.650602 0.252299 0.022361
O O11 0.445750 0.254184 0.355961
O O12 0.452975 0.000000 0.407839
O O13 0.441470 0.244779 0.255589
O O14 0.324097 0.243562 0.249251
O O15 0.479500 0.000000 0.168420
O O16 0.977677 0.500000 0.658872
O O17 0.167594 0.256444 0.512703
O O18 0.876492 0.251074 0.684884
O O19 0.639713 0.500000 0.634571
O O20 0.000000 0.757085 0.500000
O O21 0.152214 0.000000 0.350383
#
# Coordination Sequence:
#
# PCOD9152640 Si02
#       8
#     4   4   4   4   4   4   4   4
#     4   7  12  24  44  75 110 141 179 224 270 316
#     4   9  16  29  52  79 109 147 186 225 269 318
#     4  11  23  39  55  80 116 150 184 223 270 328
#     4   9  16  28  51  81 111 144 183 229 271 315
#     4  11  24  41  59  82 108 141 184 228 278 331
#     4  10  22  37  57  82 111 147 183 217 266 330
#     4  11  21  35  55  82 113 146 183 225 271 324
#     4  10  21  38  60  84 109 136 177 232 278 318
#
# _framework density 17.932901000000001
#
# number of rings (size 3 to 8) (size 9 to 14) (size 15 to 20)
#    0.000    2.250    2.500    2.625    0.000    3.250 
#    0.000    3.125    0.000    3.000    0.000    5.250 
#    0.000    0.000    0.000    0.000    0.000    0.000 
#
# Total GULP energy -178487.373718 kJ/mol
# GULP energy per Si atom -5577.730429 kJ/mol
# Density = 1.789209 g / cm^3
# Si number density = 17.932901 Si / 1000 Ang^3
#
#
#
# Elastic Constant Matrix: (Units=GPa)
#
#
# Indices 1 2 3 4 5 6 
#
# 1 153.1051 14.0889 55.2255 0.0000 -21.5335 0.0000
# 2 14.0889 15.7343 15.7119 0.0000 -3.3765 0.0000
# 3 55.2255 15.7119 100.4853 0.0000 -8.7016 0.0000
# 4 0.0000 0.0000 0.0000 -36.1004 0.0000 124.0567
# 5 -21.5335 -3.3765 -8.7016 0.0000 25.1157 0.0000
# 6 0.0000 0.0000 0.0000 124.0567 0.0000 -282.3408
#
#
#
# Elastic Compliance Matrix: (Units=1/GPa)
#
#
# Indices 1 2 3 4 5 6 
#
# 1 0.009093 -0.002821 -0.004035 0.000000 0.006019 0.000000
# 2 -0.002821 0.077149 -0.010128 0.000000 0.004444 0.000000
# 3 -0.004035 -0.010128 0.013748 0.000000 -0.000058 0.000000
# 4 0.000000 0.000000 0.000000 0.054323 0.000000 0.023869
# 5 0.006019 0.004444 -0.000058 0.000000 0.045554 0.000000
# 6 0.000000 0.000000 0.000000 0.023869 0.000000 0.006946
#
#
# Mechanical properties :
#
#
# Convention : Reuss Voigt Hill
#
# Bulk Modulus (GPa) = 15.14651 48.81968 31.98310
# Shear Modulus (GPa) = 19.02681 -46.37854 -13.67586
#
# Velocity S-wave (km/s) = 3.26083 -5.09101 -2.76454
# Velocity P-wave (km/s) = 4.75835 2.69727 2.77188
#
# Compressibility (1/GPa) = 0.06602181
#
# Stress axis : x y z
#
# Youngs Moduli (GPa) = 109.97377 12.96198 72.73848
#
# Poissons Ratio (x) = 0.03657 0.29351
# Poissons Ratio (y) = 0.31026 0.73667
# Poissons Ratio (z) = 0.44376 0.13127
#
# Static dielectric constant tensor:
#      x y z
#    x 1.624620 0.000000 -0.015860 
#    y 0.000000 1.613310 0.000000 
#    z -0.015860 0.000000 1.591660 
# 
# From -- ./inp_files/93687.got.cif
#   From: 2010.05.17/outbox.cif.g08.bks.cpg/sg10_47_cif.got.tgz:93687.got - 2010.06.03 11:33:40.
