data_PCOD9152476
_publ_section_title
;
Structure prediction by ZEFSAII (Michael W. Deem and Ramdas Pophale) SiO2 
 PCOD9152476
Probable space group: P 2/M
;
_chemical_formula_sum "Si O2"
_cell_formula_units_Z 30
_cell_length_a 9.043048
_cell_length_b 22.967597
_cell_length_c 11.760722
_cell_angle_alpha 90.000000
_cell_angle_beta 141.669154
_cell_angle_gamma 90.000000
_cell_volume 1514.945984
_symmetry_space_group_name_H-M "P 2/M"
_symmetry_group_IT_number 10
_symmetry_cell_setting 'monoclinic'
loop_
_space_group_symop_operation_xyz
x,y,z
-x,y,-z
-x,-y,-z
x,-y,z
loop_
_atom_site_type_symbol
_atom_site_label
_atom_site_fract_x
_atom_site_fract_y
_atom_site_fract_z
Si Si1 0.579879 0.127444 0.210583
Si Si2 0.200908 0.934590 0.871960
Si Si3 0.261963 0.434211 0.778126
Si Si4 0.342933 0.066926 0.509889
Si Si5 0.047500 0.333641 0.789094
Si Si6 0.500000 0.339403 0.500000
Si Si7 0.250215 0.257061 0.716622
Si Si8 0.551443 0.641150 0.788301
O O1 0.710931 0.085222 0.199448
O O2 0.647585 0.109005 0.377192
O O3 0.643936 0.192702 0.217190
O O4 0.305604 0.111557 0.023089
O O5 0.921202 0.934946 0.697046
O O6 0.281603 0.000000 0.948684
O O7 0.174387 0.500000 0.715736
O O8 0.074193 0.390041 0.721968
O O9 0.374651 0.407730 0.732325
O O10 0.500000 0.433954 0.000000
O O11 0.500000 0.087274 0.500000
O O12 0.412349 0.000000 0.583789
O O13 0.196307 0.284984 0.807942
O O14 0.771552 0.314226 0.639216
O O15 0.194937 0.352756 0.991561
O O16 0.439963 0.367720 0.341362
O O17 0.420113 0.299123 0.746161
O O18 0.000000 0.254610 0.500000
#
# Coordination Sequence:
#
# PCOD9152476 Si02
#       8
#     4   4   4   4   4   2   4   4
#     4  11  22  36  60  89 116 150 195 253 294 346
#     4  10  21  37  61  91 117 150 195 244 297 350
#     4   8  16  36  64  93 122 159 211 259 297 351
#     4  10  21  39  61  85 122 162 191 230 292 364
#     4  10  22  39  65  89 119 165 206 248 312 361
#     4  12  22  42  61  86 132 162 203 246 304 376
#     4  11  21  40  63  86 116 154 207 259 302 352
#     4  10  22  39  63  89 118 167 201 250 309 360
#
# _framework density 19.802686000000001
#
# number of rings (size 3 to 8) (size 9 to 14) (size 15 to 20)
#    0.000    1.867    1.333    4.400    3.733    1.600 
#    1.200    4.667    2.933    3.200    0.000    0.000 
#    0.000    0.000    0.000    0.000    0.000    0.000 
#
# Total GULP energy -167184.418127 kJ/mol
# GULP energy per Si atom -5572.813938 kJ/mol
# Density = 1.975761 g / cm^3
# Si number density = 19.802686 Si / 1000 Ang^3
#
#
#
# Elastic Constant Matrix: (Units=GPa)
#
#
# Indices 1 2 3 4 5 6 
#
# 1 157.7091 85.2966 44.0317 0.0000 -71.8149 0.0000
# 2 85.2966 146.4520 31.2887 0.0000 -45.5058 0.0000
# 3 44.0317 31.2887 100.9261 0.0000 -15.4647 0.0000
# 4 0.0000 0.0000 0.0000 11.8526 0.0000 1.2004
# 5 -71.8149 -45.5058 -15.4647 0.0000 92.0666 0.0000
# 6 0.0000 0.0000 0.0000 1.2004 0.0000 10.2737
#
#
#
# Elastic Compliance Matrix: (Units=1/GPa)
#
#
# Indices 1 2 3 4 5 6 
#
# 1 0.013106 -0.004666 -0.003139 0.000000 0.007389 0.000000
# 2 -0.004666 0.010117 -0.000916 0.000000 0.001206 0.000000
# 3 -0.003139 -0.000916 0.011411 0.000000 -0.000984 0.000000
# 4 0.000000 0.000000 0.000000 0.085380 0.000000 -0.009976
# 5 0.007389 0.001206 -0.000984 0.000000 0.017056 0.000000
# 6 0.000000 0.000000 0.000000 -0.009976 0.000000 0.098502
#
#
# Mechanical properties :
#
#
# Convention : Reuss Voigt Hill
#
# Bulk Modulus (GPa) = 58.16917 80.70234 69.43576
# Shear Modulus (GPa) = 19.32421 39.13661 29.23041
#
# Velocity S-wave (km/s) = 3.12723 4.45041 3.84615
# Velocity P-wave (km/s) = 6.51748 8.20061 7.40701
#
# Compressibility (1/GPa) = 0.01719124
#
# Stress axis : x y z
#
# Youngs Moduli (GPa) = 76.30247 98.84825 87.63748
#
# Poissons Ratio (x) = 0.46127 0.27508
# Poissons Ratio (y) = 0.35606 0.08023
# Poissons Ratio (z) = 0.23950 0.09050
#
# Static dielectric constant tensor:
#      x y z
#    x 1.699990 0.000000 0.016940 
#    y 0.000000 1.687100 0.000000 
#    z 0.016940 0.000000 1.773010 
# 
# From -- ./inp_files/43713.got.cif
#   From: 2010.05.17/outbox.cif.g08.bks.cpg/sg10_22_cif.got.tgz:43713.got - 2010.06.03 11:33:40.
