data_PCOD9152318
_publ_section_title
;
Structure prediction by ZEFSAII (Michael W. Deem and Ramdas Pophale) SiO2 
 PCOD9152318
Probable space group: P 2/M
;
_chemical_formula_sum "Si O2"
_cell_formula_units_Z 32
_cell_length_a 15.285070
_cell_length_b 17.813853
_cell_length_c 12.295572
_cell_angle_alpha 90.000000
_cell_angle_beta 28.629893
_cell_angle_gamma 90.000000
_cell_volume 1604.151577
_symmetry_space_group_name_H-M "P 2/M"
_symmetry_group_IT_number 10
_symmetry_cell_setting 'monoclinic'
loop_
_space_group_symop_operation_xyz
x,y,z
-x,y,-z
-x,-y,-z
x,-y,z
loop_
_atom_site_type_symbol
_atom_site_label
_atom_site_fract_x
_atom_site_fract_y
_atom_site_fract_z
Si Si1 0.043455 0.585544 0.829781
Si Si2 0.820511 0.086756 0.771827
Si Si3 0.888393 0.166909 0.926294
Si Si4 0.399599 0.234030 0.005370
Si Si5 0.219331 0.680927 0.027929
Si Si6 0.702649 0.211574 0.490246
Si Si7 0.574903 0.363676 0.538803
Si Si8 0.295636 0.083462 0.676782
O O1 0.974989 0.500000 0.896995
O O2 0.262015 0.586822 0.592158
O O3 0.949511 0.635447 0.838764
O O4 0.000000 0.614368 0.000000
O O5 0.862083 0.113329 0.850546
O O6 0.000000 0.089487 0.500000
O O7 0.754530 0.000000 0.843342
O O8 0.684877 0.151941 0.878420
O O9 0.760636 0.240322 0.059671
O O10 0.087502 0.204821 0.702762
O O11 0.837381 0.122824 0.090796
O O12 0.560070 0.222912 0.742147
O O13 0.500000 0.266735 0.000000
O O14 0.241539 0.287138 0.126080
O O15 0.398469 0.633170 0.807184
O O16 0.663070 0.279927 0.450742
O O17 0.679563 0.132922 0.456320
O O18 0.500000 0.380329 0.500000
O O19 0.500000 0.079471 0.500000
O O20 0.229858 0.000000 0.724450
#
# Coordination Sequence:
#
# PCOD9152318 Si02
#       8
#     4   4   4   4   4   4   4   4
#     4  11  23  37  59  94 129 166 201 236 301 377
#     4  10  21  37  57  83 119 162 209 268 329 375
#     4  11  21  36  58  81 115 160 210 257 307 376
#     4  10  22  40  62  90 116 157 217 266 319 369
#     4  10  21  38  60  86 121 162 201 251 304 357
#     4  11  22  35  58  83 113 155 208 258 310 367
#     4  11  20  34  57  84 122 161 199 241 295 363
#     4  11  23  36  50  76 114 157 203 253 308 371
#
# _framework density 19.948239000000001
#
# number of rings (size 3 to 8) (size 9 to 14) (size 15 to 20)
#    0.000    1.375    2.500    4.875    0.000    4.000 
#    0.000    0.000    0.000    0.375    0.000    3.500 
#    0.000    0.000    0.000    0.000    0.000    0.000 
#
# Total GULP energy -178467.841270 kJ/mol
# GULP energy per Si atom -5577.120040 kJ/mol
# Density = 1.990284 g / cm^3
# Si number density = 19.948239 Si / 1000 Ang^3
#
#
#
# Elastic Constant Matrix: (Units=GPa)
#
#
# Indices 1 2 3 4 5 6 
#
# 1 100.3184 46.8605 7.5411 0.0000 -4.9285 0.0000
# 2 46.8605 80.4737 15.4445 0.0000 -4.1924 0.0000
# 3 7.5411 15.4445 60.5281 0.0000 -2.9231 0.0000
# 4 0.0000 0.0000 0.0000 10.2285 0.0000 -4.9409
# 5 -4.9285 -4.1924 -2.9231 0.0000 31.6502 0.0000
# 6 0.0000 0.0000 0.0000 -4.9409 0.0000 17.4325
#
#
#
# Elastic Compliance Matrix: (Units=1/GPa)
#
#
# Indices 1 2 3 4 5 6 
#
# 1 0.013738 -0.008016 0.000388 0.000000 0.001113 0.000000
# 2 -0.008016 0.017809 -0.003507 0.000000 0.000787 0.000000
# 3 0.000388 -0.003507 0.017426 0.000000 0.001205 0.000000
# 4 0.000000 0.000000 0.000000 0.113275 0.000000 0.032106
# 5 0.001113 0.000787 0.001205 0.000000 0.031984 0.000000
# 6 0.000000 0.000000 0.000000 0.032106 0.000000 0.066464
#
#
# Mechanical properties :
#
#
# Convention : Reuss Voigt Hill
#
# Bulk Modulus (GPa) = 37.45202 42.33469 39.89336
# Shear Modulus (GPa) = 17.13100 23.29385 20.21243
#
# Velocity S-wave (km/s) = 2.93366 3.42089 3.18660
# Velocity P-wave (km/s) = 5.50368 6.07220 5.79492
#
# Compressibility (1/GPa) = 0.02670083
#
# Stress axis : x y z
#
# Youngs Moduli (GPa) = 72.78863 56.15286 57.38524
#
# Poissons Ratio (x) = 0.45014 -0.02224
# Poissons Ratio (y) = 0.58350 0.20127
# Poissons Ratio (z) = -0.02821 0.19695
#
# Static dielectric constant tensor:
#      x y z
#    x 1.492890 0.000000 0.157100 
#    y 0.000000 1.718780 0.000000 
#    z 0.157100 0.000000 1.575420 
# 
# From -- ./inp_files/51954.got.cif
#   From: 2010.05.17/outbox.cif.g08.bks.cpg/sg10_26_cif.got.tgz:51954.got - 2010.06.03 11:33:40.
