data_PCOD9152428
_publ_section_title
;
Structure prediction by ZEFSAII (Michael W. Deem and Ramdas Pophale) SiO2 
 PCOD9152428
Probable space group: P 2/M
;
_chemical_formula_sum "Si O2"
_cell_formula_units_Z 28
_cell_length_a 13.989713
_cell_length_b 12.898828
_cell_length_c 8.920418
_cell_angle_alpha 90.000000
_cell_angle_beta 117.219589
_cell_angle_gamma 90.000000
_cell_volume 1431.439643
_symmetry_space_group_name_H-M "P 2/M"
_symmetry_group_IT_number 10
_symmetry_cell_setting 'monoclinic'
loop_
_space_group_symop_operation_xyz
x,y,z
-x,y,-z
-x,-y,-z
x,-y,z
loop_
_atom_site_type_symbol
_atom_site_label
_atom_site_fract_x
_atom_site_fract_y
_atom_site_fract_z
Si Si1 0.840939 0.612946 0.615951
Si Si2 0.729484 0.220336 0.341222
Si Si3 0.627981 0.123215 0.563864
Si Si4 0.950125 0.710276 0.113818
Si Si5 0.279302 0.687081 0.188459
Si Si6 0.377372 0.382922 0.964097
Si Si7 0.908214 0.109269 0.309974
O O1 0.832281 0.500000 0.539605
O O2 0.816383 0.705870 0.486004
O O3 0.751162 0.624416 0.682759
O O4 0.959940 0.628074 0.770622
O O5 0.656766 0.170904 0.420662
O O6 0.675037 0.294941 0.179121
O O7 0.794202 0.130317 0.304948
O O8 0.500000 0.132101 0.500000
O O9 0.689761 0.197789 0.728419
O O10 0.656434 0.000000 0.592724
O O11 0.936484 0.795360 0.228165
O O12 0.831034 0.675819 0.985121
O O13 0.000000 0.759208 0.000000
O O14 0.366530 0.646895 0.132309
O O15 0.331872 0.500000 0.911477
O O16 0.500000 0.386556 0.000000
O O17 0.000000 0.104663 0.500000
O O18 0.906553 0.000000 0.225048
#
# Coordination Sequence:
#
# PCOD9152428 Si02
#       7
#     4   4   4   4   4   4   4
#     4  10  21  37  60  86 115 155 198 234 282 348
#     4  11  21  40  61  85 119 154 194 242 290 346
#     4  10  22  41  64  87 113 153 202 248 292 340
#     4  10  21  38  56  85 117 148 188 236 282 343
#     4  10  21  38  59  84 120 152 189 240 291 343
#     4  11  23  38  59  88 120 154 193 242 299 348
#     4  11  22  38  58  83 116 154 189 229 288 347
#
# _framework density 19.560728000000001
#
# number of rings (size 3 to 8) (size 9 to 14) (size 15 to 20)
#    0.000    1.571    2.857    2.143    0.000    4.000 
#    0.000    0.714    0.000    9.857    0.000    0.000 
#    0.000    0.000    0.000    0.000    0.000    0.000 
#
# Total GULP energy -156054.440913 kJ/mol
# GULP energy per Si atom -5573.372890 kJ/mol
# Density = 1.951621 g / cm^3
# Si number density = 19.560728 Si / 1000 Ang^3
#
#
#
# Elastic Constant Matrix: (Units=GPa)
#
#
# Indices 1 2 3 4 5 6 
#
# 1 73.3990 15.6162 -10.0635 0.0000 -10.2284 0.0000
# 2 15.6162 90.9134 1.6673 0.0000 0.1047 0.0000
# 3 -10.0635 1.6673 23.9757 0.0000 0.8661 0.0000
# 4 0.0000 0.0000 0.0000 32.7068 0.0000 16.4054
# 5 -10.2284 0.1047 0.8661 0.0000 28.8165 0.0000
# 6 0.0000 0.0000 0.0000 16.4054 0.0000 30.3805
#
#
#
# Elastic Compliance Matrix: (Units=1/GPa)
#
#
# Indices 1 2 3 4 5 6 
#
# 1 0.015909 -0.002861 0.006680 0.000000 0.005457 0.000000
# 2 -0.002861 0.011528 -0.001967 0.000000 -0.000998 0.000000
# 3 0.006680 -0.001967 0.044612 0.000000 0.001037 0.000000
# 4 0.000000 0.000000 0.000000 0.041932 0.000000 -0.022643
# 5 0.005457 -0.000998 0.001037 0.000000 0.036612 0.000000
# 6 0.000000 0.000000 0.000000 -0.022643 0.000000 0.045143
#
#
# Mechanical properties :
#
#
# Convention : Reuss Voigt Hill
#
# Bulk Modulus (GPa) = 13.20100 22.52534 17.86317
# Shear Modulus (GPa) = 23.01132 30.45197 26.73164
#
# Velocity S-wave (km/s) = 3.43360 3.94990 3.70076
# Velocity P-wave (km/s) = 4.74160 5.68708 5.23573
#
# Compressibility (1/GPa) = 0.07575185
#
# Stress axis : x y z
#
# Youngs Moduli (GPa) = 62.85678 86.74370 22.41561
#
# Poissons Ratio (x) = 0.24822 -0.14973
# Poissons Ratio (y) = 0.17986 0.04408
# Poissons Ratio (z) = -0.41985 0.17060
#
# Static dielectric constant tensor:
#      x y z
#    x 1.736150 0.000000 0.009500 
#    y 0.000000 1.687890 0.000000 
#    z 0.009500 0.000000 1.694920 
# 
# From -- ./inp_files/28669.got.cif
#   From: 2010.05.17/outbox.cif.g08.bks.cpg/sg10_15_cif.got.tgz:28669.got - 2010.06.03 11:33:40.
