data_PCOD9152777
_publ_section_title
;
Structure prediction by ZEFSAII (Michael W. Deem and Ramdas Pophale) SiO2 
 PCOD9152777
Probable space group: P 2/M
;
_chemical_formula_sum "Si O2"
_cell_formula_units_Z 28
_cell_length_a 8.633164
_cell_length_b 15.949145
_cell_length_c 10.938069
_cell_angle_alpha 90.000000
_cell_angle_beta 55.945230
_cell_angle_gamma 90.000000
_cell_volume 1247.791317
_symmetry_space_group_name_H-M "P 2/M"
_symmetry_group_IT_number 10
_symmetry_cell_setting 'monoclinic'
loop_
_space_group_symop_operation_xyz
x,y,z
-x,y,-z
-x,-y,-z
x,-y,z
loop_
_atom_site_type_symbol
_atom_site_label
_atom_site_fract_x
_atom_site_fract_y
_atom_site_fract_z
Si Si1 0.570238 0.096086 0.104444
Si Si2 0.189681 0.219438 0.854002
Si Si3 0.789228 0.407759 0.453868
Si Si4 0.029440 0.261750 0.275067
Si Si5 0.831874 0.906131 0.670568
Si Si6 0.390163 0.620583 0.733655
Si Si7 0.712492 0.407535 0.950959
O O1 0.738733 0.145440 0.092155
O O2 0.385619 0.097678 0.271619
O O3 0.626764 0.000000 0.064774
O O4 0.500000 0.125002 0.000000
O O5 0.364835 0.281004 0.766226
O O6 0.118976 0.213833 0.746957
O O7 0.000000 0.254781 0.000000
O O8 0.873409 0.500000 0.436069
O O9 0.718241 0.403262 0.342984
O O10 0.604361 0.402610 0.618863
O O11 0.913277 0.324855 0.413448
O O12 0.141601 0.183485 0.276771
O O13 0.162854 0.329978 0.148804
O O14 0.000000 0.907108 0.500000
O O15 0.845456 0.000000 0.726372
O O16 0.297824 0.587342 0.897719
O O17 0.774494 0.500000 0.878629
O O18 0.500000 0.394346 0.000000
#
# Coordination Sequence:
#
# PCOD9152777 Si02
#       7
#     4   4   4   4   4   4   4
#     4  10  23  42  68  95 126 169 214 270 338 404
#     4  11  22  37  61  98 128 163 218 266 328 391
#     4  10  21  39  63  91 126 171 221 270 323 382
#     4  11  24  39  64  99 130 170 217 279 330 387
#     4  10  24  46  69  95 128 174 221 266 334 408
#     4  10  21  38  62  88 127 174 214 266 321 380
#     4  11  24  40  62  94 134 181 226 274 330 390
#
# _framework density 22.43965
#
# number of rings (size 3 to 8) (size 9 to 14) (size 15 to 20)
#    0.000    1.571    1.429    3.000    4.000    0.857 
#    0.000    2.143    0.000    6.000    0.000    0.000 
#    0.000    0.000    0.000    0.000    0.000    0.000 
#
# Total GULP energy -156039.927895 kJ/mol
# GULP energy per Si atom -5572.854568 kJ/mol
# Density = 2.238858 g / cm^3
# Si number density = 22.439650 Si / 1000 Ang^3
#
#
#
# Elastic Constant Matrix: (Units=GPa)
#
#
# Indices 1 2 3 4 5 6 
#
# 1 78.0785 61.4101 29.7088 0.0000 -3.8073 0.0000
# 2 61.4101 175.4298 41.2228 0.0000 -3.3805 0.0000
# 3 29.7088 41.2228 89.5866 0.0000 -23.7057 0.0000
# 4 0.0000 0.0000 0.0000 12.3188 0.0000 -14.8372
# 5 -3.8073 -3.3805 -23.7057 0.0000 24.7540 0.0000
# 6 0.0000 0.0000 0.0000 -14.8372 0.0000 27.0284
#
#
#
# Elastic Compliance Matrix: (Units=1/GPa)
#
#
# Indices 1 2 3 4 5 6 
#
# 1 0.018695 -0.005617 -0.004095 0.000000 -0.001813 0.000000
# 2 -0.005617 0.008207 -0.002472 0.000000 -0.002111 0.000000
# 3 -0.004095 -0.002472 0.017951 0.000000 0.016223 0.000000
# 4 0.000000 0.000000 0.000000 0.239584 0.000000 0.131519
# 5 -0.001813 -0.002111 0.016223 0.000000 0.055366 0.000000
# 6 0.000000 0.000000 0.000000 0.131519 0.000000 0.109195
#
#
# Mechanical properties :
#
#
# Convention : Reuss Voigt Hill
#
# Bulk Modulus (GPa) = 48.81680 67.53091 58.17386
# Shear Modulus (GPa) = 10.41245 26.87045 18.64145
#
# Velocity S-wave (km/s) = 2.15645 3.46418 2.88538
# Velocity P-wave (km/s) = 5.29172 6.79415 6.08945
#
# Compressibility (1/GPa) = 0.02048475
#
# Stress axis : x y z
#
# Youngs Moduli (GPa) = 53.48956 121.85023 55.70841
#
# Poissons Ratio (x) = 0.68444 0.22811
# Poissons Ratio (y) = 0.30046 0.13771
# Poissons Ratio (z) = 0.21903 0.30122
#
# Static dielectric constant tensor:
#      x y z
#    x 1.817980 0.000000 0.045920 
#    y 0.000000 1.860290 0.000000 
#    z 0.045920 0.000000 1.905830 
# 
# From -- ./inp_files/42897.got.cif
#   From: 2010.05.17/outbox.cif.g08.bks.cpg/sg10_22_cif.got.tgz:42897.got - 2010.06.03 11:33:40.
