data_PCOD9152436
_publ_section_title
;
Structure prediction by ZEFSAII (Michael W. Deem and Ramdas Pophale) SiO2 
 PCOD9152436
Probable space group: P 2/M
;
_chemical_formula_sum "Si O2"
_cell_formula_units_Z 32
_cell_length_a 29.160496
_cell_length_b 8.747939
_cell_length_c 12.236838
_cell_angle_alpha 90.000000
_cell_angle_beta 147.063010
_cell_angle_gamma 90.000000
_cell_volume 1697.236217
_symmetry_space_group_name_H-M "P 2/M"
_symmetry_group_IT_number 10
_symmetry_cell_setting 'monoclinic'
loop_
_space_group_symop_operation_xyz
x,y,z
-x,y,-z
-x,-y,-z
x,-y,z
loop_
_atom_site_type_symbol
_atom_site_label
_atom_site_fract_x
_atom_site_fract_y
_atom_site_fract_z
Si Si1 0.000001 0.316814 0.372747
Si Si2 0.341970 0.815647 0.455493
Si Si3 0.847796 0.183150 0.927887
Si Si4 0.499997 0.186550 0.374748
Si Si5 0.341967 0.815648 0.912385
Si Si6 0.599250 0.682640 0.198499
Si Si7 0.847798 0.816849 0.463314
Si Si8 0.101614 0.319968 0.203220
O O1 0.000010 0.500000 0.365127
O O2 0.082052 0.253776 0.474970
O O3 0.000000 0.272248 0.500000
O O4 0.917942 0.253801 0.146757
O O5 0.247660 0.774916 0.229883
O O6 0.416395 0.764678 0.523341
O O7 0.359238 0.748900 0.609595
O O8 0.345934 0.000000 0.470790
O O9 0.863705 0.242789 0.836950
O O10 0.855813 0.000000 0.944892
O O11 0.500000 0.237858 0.500000
O O12 0.499996 0.000000 0.375493
O O13 0.416388 0.235327 0.142231
O O14 0.359239 0.748904 0.827363
O O15 0.247655 0.774917 0.760746
O O16 0.345933 0.000000 0.912952
O O17 0.606136 0.500000 0.212268
O O18 0.500000 0.724437 0.000000
O O19 0.863702 0.757181 0.617871
O O20 0.855810 0.000000 0.478394
O O21 0.122381 0.500000 0.244741
O O22 0.000000 0.305134 0.000000
#
# Coordination Sequence:
#
# PCOD9152436 Si02
#       8
#     4   4   4   4   4   4   4   4
#     4  11  25  44  63  84 115 159 203 239 288 355
#     4  10  21  37  60  88 117 152 192 238 291 346
#     4  11  23  38  61  92 120 150 194 248 299 346
#     4   9  18  35  59  84 112 149 192 235 280 337
#     4  10  21  37  60  88 117 152 192 238 291 346
#     4  11  22  35  56  87 121 157 194 237 287 344
#     4  11  23  38  61  92 120 150 194 248 299 346
#     4  11  22  37  60  87 118 156 192 233 290 359
#
# _framework density 18.854182000000002
#
# number of rings (size 3 to 8) (size 9 to 14) (size 15 to 20)
#    0.000    1.500    2.500    2.625    0.000    8.000 
#    0.000    2.500    0.000    1.500    0.000    0.000 
#    0.000    0.000    0.000    0.000    0.000    0.000 
#
# Total GULP energy -178866.147119 kJ/mol
# GULP energy per Si atom -5589.567097 kJ/mol
# Density = 1.881127 g / cm^3
# Si number density = 18.854182 Si / 1000 Ang^3
#
#
#
# Elastic Constant Matrix: (Units=GPa)
#
#
# Indices 1 2 3 4 5 6 
#
# 1 141.2142 41.5589 139.3384 0.0000 -9.5586 0.0000
# 2 41.5589 33.4291 47.7873 0.0000 7.4693 0.0000
# 3 139.3384 47.7873 150.1106 0.0000 20.1629 0.0000
# 4 0.0000 0.0000 0.0000 23.9078 0.0000 -13.8204
# 5 -9.5586 7.4693 20.1629 0.0000 32.7173 0.0000
# 6 0.0000 0.0000 0.0000 -13.8204 0.0000 35.3785
#
#
#
# Elastic Compliance Matrix: (Units=1/GPa)
#
#
# Indices 1 2 3 4 5 6 
#
# 1 -0.066911 -0.006659 0.072666 0.000000 -0.062810 0.000000
# 2 -0.006659 0.054345 -0.010021 0.000000 -0.008177 0.000000
# 3 0.072666 -0.010021 -0.066241 0.000000 0.064340 0.000000
# 4 0.000000 0.000000 0.000000 0.054028 0.000000 0.021106
# 5 -0.062810 -0.008177 0.064340 0.000000 -0.025570 0.000000
# 6 0.000000 0.000000 0.000000 0.021106 0.000000 0.036511
#
#
# Mechanical properties :
#
#
# Convention : Reuss Voigt Hill
#
# Bulk Modulus (GPa) = 30.15334 86.90256 58.52795
# Shear Modulus (GPa) = -43.57092 24.80535 -9.38279
#
# Velocity S-wave (km/s) = -4.81244 3.63111 -2.23323
# Velocity P-wave (km/s) = 3.85380 7.98573 4.94571
#
# Compressibility (1/GPa) = 0.03316382
#
# Stress axis : x y z
#
# Youngs Moduli (GPa) = -14.94531 18.40106 -15.09630
#
# Poissons Ratio (x) = 0.12254 1.09698
# Poissons Ratio (y) = -0.09953 -0.15127
# Poissons Ratio (z) = 1.08601 0.18439
#
# Static dielectric constant tensor:
#      x y z
#    x 1.625270 0.000000 0.026280 
#    y 0.000000 1.627730 0.000000 
#    z 0.026280 0.000000 1.647140 
# 
# From -- ./inp_files/58237.got.cif
#   From: 2010.05.17/outbox.cif.g08.bks.cpg/sg10_30_cif.got.tgz:58237.got - 2010.06.03 11:33:40.
