data_PCOD9152028
_publ_section_title
;
Structure prediction by ZEFSAII (Michael W. Deem and Ramdas Pophale) SiO2 
 PCOD9152028
Probable space group: P 2/M
;
_chemical_formula_sum "Si O2"
_cell_formula_units_Z 20
_cell_length_a 27.362806
_cell_length_b 9.013234
_cell_length_c 9.656522
_cell_angle_alpha 90.000000
_cell_angle_beta 151.668772
_cell_angle_gamma 90.000000
_cell_volume 1130.213490
_symmetry_space_group_name_H-M "P 2/M"
_symmetry_group_IT_number 10
_symmetry_cell_setting 'monoclinic'
loop_
_space_group_symop_operation_xyz
x,y,z
-x,y,-z
-x,-y,-z
x,-y,z
loop_
_atom_site_type_symbol
_atom_site_label
_atom_site_fract_x
_atom_site_fract_y
_atom_site_fract_z
Si Si1 0.684943 0.822490 0.798754
Si Si2 0.088481 0.824000 0.331406
Si Si3 0.096807 0.323216 0.645797
Si Si4 0.496851 0.677419 0.829814
Si Si5 0.675568 0.823887 0.101299
O O1 0.599394 0.752123 0.487443
O O2 0.685922 0.000000 0.787869
O O3 0.797632 0.757417 0.048194
O O4 0.661759 0.788563 0.903335
O O5 0.073815 0.729794 0.432887
O O6 0.204265 0.795321 0.566130
O O7 0.085438 0.000000 0.359403
O O8 0.000000 0.793843 0.000000
O O9 0.112112 0.500000 0.688762
O O10 0.000000 0.284216 0.500000
O O11 0.488712 0.500000 0.798935
O O12 0.500000 0.717688 0.000000
O O13 0.598686 0.733487 0.005211
O O14 0.655647 0.000000 0.068414
#
# Coordination Sequence:
#
# PCOD9152028 Si02
#       5
#     4   4   4   4   4
#     4  10  21  38  60  82 105 139 184 227 267 319
#     4   9  19  36  57  82 111 143 183 227 267 314
#     4  10  21  36  55  82 114 145 179 220 267 321
#     4  11  24  38  53  79 113 144 177 220 271 325
#     4   9  19  36  57  81 107 139 183 227 266 316
#
# _framework density 17.695771000000001
#
# number of rings (size 3 to 8) (size 9 to 14) (size 15 to 20)
#    0.000    2.200    0.000    3.600    0.000   11.600 
#    0.000    4.000    0.000    0.000    0.000    0.000 
#    0.000    0.000    0.000    0.000    0.000    0.000 
#
# Total GULP energy -111674.016294 kJ/mol
# GULP energy per Si atom -5583.700815 kJ/mol
# Density = 1.765549 g / cm^3
# Si number density = 17.695771 Si / 1000 Ang^3
#
#
#
# Elastic Constant Matrix: (Units=GPa)
#
#
# Indices 1 2 3 4 5 6 
#
# 1 131.5498 73.6650 93.2477 0.0000 21.2575 0.0000
# 2 73.6650 62.8990 69.2978 0.0000 6.5868 0.0000
# 3 93.2477 69.2978 156.8821 0.0000 -3.3719 0.0000
# 4 0.0000 0.0000 0.0000 35.2893 0.0000 -3.4207
# 5 21.2575 6.5868 -3.3719 0.0000 18.6334 0.0000
# 6 0.0000 0.0000 0.0000 -3.4207 0.0000 40.2633
#
#
#
# Elastic Compliance Matrix: (Units=1/GPa)
#
#
# Indices 1 2 3 4 5 6 
#
# 1 0.033777 -0.026240 -0.009150 0.000000 -0.030914 0.000000
# 2 -0.026240 0.055138 -0.008568 0.000000 0.008894 0.000000
# 3 -0.009150 -0.008568 0.015949 0.000000 0.016353 0.000000
# 4 0.000000 0.000000 0.000000 0.028572 0.000000 0.002427
# 5 -0.030914 0.008894 0.016353 0.000000 0.088750 0.000000
# 6 0.000000 0.000000 0.000000 0.002427 0.000000 0.025043
#
#
# Mechanical properties :
#
#
# Convention : Reuss Voigt Hill
#
# Bulk Modulus (GPa) = 59.00419 91.52800 75.26609
# Shear Modulus (GPa) = 14.67164 26.51189 20.59177
#
# Velocity S-wave (km/s) = 2.88254 3.87486 3.41494
# Velocity P-wave (km/s) = 6.67044 8.47672 7.62724
#
# Compressibility (1/GPa) = 0.01694795
#
# Stress axis : x y z
#
# Youngs Moduli (GPa) = 29.60594 18.13636 62.70075
#
# Poissons Ratio (x) = 0.47590 0.57371
# Poissons Ratio (y) = 0.77687 0.53719
# Poissons Ratio (z) = 0.27090 0.15538
#
# Static dielectric constant tensor:
#      x y z
#    x 1.576730 0.000000 0.003890 
#    y 0.000000 1.589070 0.000000 
#    z 0.003890 0.000000 1.591280 
# 
# From -- ./inp_files/22165.got.cif
#   From: 2010.05.17/outbox.cif.g08.bks.cpg/sg10_12_cif.got.tgz:22165.got - 2010.06.03 11:33:40.
