data_PCOD9152816
_publ_section_title
;
Structure prediction by ZEFSAII (Michael W. Deem and Ramdas Pophale) SiO2 
 PCOD9152816
Probable space group: P 2/M
;
_chemical_formula_sum "Si O2"
_cell_formula_units_Z 32
_cell_length_a 23.579228
_cell_length_b 9.048907
_cell_length_c 14.610531
_cell_angle_alpha 90.000000
_cell_angle_beta 148.236334
_cell_angle_gamma 90.000000
_cell_volume 1641.048405
_symmetry_space_group_name_H-M "P 2/M"
_symmetry_group_IT_number 10
_symmetry_cell_setting 'monoclinic'
loop_
_space_group_symop_operation_xyz
x,y,z
-x,y,-z
-x,-y,-z
x,-y,z
loop_
_atom_site_type_symbol
_atom_site_label
_atom_site_fract_x
_atom_site_fract_y
_atom_site_fract_z
Si Si1 0.899913 0.330606 0.931385
Si Si2 0.609813 0.676998 0.096255
Si Si3 0.993902 0.174694 0.228096
Si Si4 0.322979 0.325273 0.482683
Si Si5 0.332306 0.322903 0.027032
Si Si6 0.489054 0.822742 0.377826
Si Si7 0.755232 0.823013 0.441544
Si Si8 0.082321 0.322438 0.690886
O O1 0.900960 0.500000 0.967322
O O2 0.789799 0.307615 0.725778
O O3 0.000000 0.313821 0.000000
O O4 0.919402 0.221764 0.041558
O O5 0.628240 0.500000 0.127422
O O6 0.607143 0.714819 0.985028
O O7 0.705162 0.760927 0.279293
O O8 0.500000 0.710821 0.000000
O O9 0.118269 0.216326 0.378213
O O10 0.953723 0.255750 0.262932
O O11 0.990699 0.000000 0.237294
O O12 0.345907 0.500000 0.524620
O O13 0.414416 0.248300 0.548167
O O14 0.307509 0.251913 0.560381
O O15 0.341987 0.500000 0.054172
O O16 0.206645 0.285980 0.841662
O O17 0.382515 0.239937 0.182471
O O18 0.500000 0.782169 0.500000
O O19 0.491772 0.000000 0.375072
O O20 0.744837 0.000000 0.431677
O O21 0.075231 0.500000 0.685687
O O22 0.000000 0.270311 0.500000
#
# Coordination Sequence:
#
# PCOD9152816 Si02
#       8
#     4   4   4   4   4   4   4   4
#     4  10  21  39  62  91 122 159 205 252 307 368
#     4  10  21  38  63  92 120 153 199 252 308 367
#     4  11  24  38  58  89 125 162 201 248 307 372
#     4  11  23  40  65  91 121 161 208 260 307 360
#     4  10  22  41  65  94 125 162 211 261 310 365
#     4  11  26  45  64  90 126 167 209 256 313 372
#     4  11  23  38  59  91 126 160 197 244 306 373
#     4  10  22  41  65  92 125 166 211 259 308 365
#
# _framework density 19.499728999999999
#
# number of rings (size 3 to 8) (size 9 to 14) (size 15 to 20)
#    0.000    1.500    1.250    3.000    1.750    7.250 
#    0.000    0.000    0.000    0.000    0.000    0.000 
#    0.000    0.000    0.000    0.000    0.000    0.000 
#
# Total GULP energy -178916.200308 kJ/mol
# GULP energy per Si atom -5591.131260 kJ/mol
# Density = 1.945535 g / cm^3
# Si number density = 19.499729 Si / 1000 Ang^3
#
#
#
# Elastic Constant Matrix: (Units=GPa)
#
#
# Indices 1 2 3 4 5 6 
#
# 1 102.3142 37.2650 35.9004 0.0000 -8.9555 0.0000
# 2 37.2650 33.0559 40.4960 0.0000 -4.5648 0.0000
# 3 35.9004 40.4960 92.7216 0.0000 -10.5305 0.0000
# 4 0.0000 0.0000 0.0000 -23.6968 0.0000 66.2525
# 5 -8.9555 -4.5648 -10.5305 0.0000 31.6714 0.0000
# 6 0.0000 0.0000 0.0000 66.2525 0.0000 -64.2122
#
#
#
# Elastic Compliance Matrix: (Units=1/GPa)
#
#
# Indices 1 2 3 4 5 6 
#
# 1 0.017451 -0.024516 0.004271 0.000000 0.002821 0.000000
# 2 -0.024516 0.099505 -0.034425 0.000000 -0.004037 0.000000
# 3 0.004271 -0.034425 0.024672 0.000000 0.004449 0.000000
# 4 0.000000 0.000000 0.000000 0.022391 0.000000 0.023102
# 5 0.002821 -0.004037 0.004449 0.000000 0.033269 0.000000
# 6 0.000000 0.000000 0.000000 0.023102 0.000000 0.008263
#
#
# Mechanical properties :
#
#
# Convention : Reuss Voigt Hill
#
# Bulk Modulus (GPa) = 30.97126 50.60160 40.78643
# Shear Modulus (GPa) = 15.35370 -3.61884 5.86743
#
# Velocity S-wave (km/s) = 2.80907 -1.36377 1.73652
# Velocity P-wave (km/s) = 5.14185 4.85040 4.99825
#
# Compressibility (1/GPa) = 0.03228800
#
# Stress axis : x y z
#
# Youngs Moduli (GPa) = 57.30173 10.04974 40.53242
#
# Poissons Ratio (x) = 0.24638 -0.17311
# Poissons Ratio (y) = 1.40481 1.39532
# Poissons Ratio (z) = -0.24472 0.34596
#
# Static dielectric constant tensor:
#      x y z
#    x 1.658400 0.000000 0.006930 
#    y 0.000000 1.648280 0.000000 
#    z 0.006930 0.000000 1.693120 
# 
# From -- ./inp_files/71653.got.cif
#   From: 2010.05.17/outbox.cif.g08.bks.cpg/sg10_36_cif.got.tgz:71653.got - 2010.06.03 11:33:40.
