data_PCOD9152390
_publ_section_title
;
Structure prediction by ZEFSAII (Michael W. Deem and Ramdas Pophale) SiO2 
 PCOD9152390
Probable space group: P 2/M
;
_chemical_formula_sum "Si O2"
_cell_formula_units_Z 24
_cell_length_a 8.996443
_cell_length_b 10.167276
_cell_length_c 14.424697
_cell_angle_alpha 90.000000
_cell_angle_beta 76.265195
_cell_angle_gamma 90.000000
_cell_volume 1281.688569
_symmetry_space_group_name_H-M "P 2/M"
_symmetry_group_IT_number 10
_symmetry_cell_setting 'monoclinic'
loop_
_space_group_symop_operation_xyz
x,y,z
-x,y,-z
-x,-y,-z
x,-y,z
loop_
_atom_site_type_symbol
_atom_site_label
_atom_site_fract_x
_atom_site_fract_y
_atom_site_fract_z
Si Si1 0.843599 0.141390 0.466111
Si Si2 0.713867 0.354533 0.744675
Si Si3 0.552536 0.245725 0.594240
Si Si4 0.480473 0.154921 0.110760
Si Si5 0.920617 0.346405 0.304725
Si Si6 0.280569 0.847374 0.768106
O O1 0.692423 0.148237 0.550499
O O2 0.850043 0.271476 0.403347
O O3 0.000000 0.142925 0.500000
O O4 0.841710 0.000000 0.415384
O O5 0.682399 0.500000 0.787208
O O6 0.629692 0.342825 0.657455
O O7 0.645897 0.243253 0.820672
O O8 0.896513 0.338912 0.710963
O O9 0.500000 0.295310 0.500000
O O10 0.411742 0.178081 0.669661
O O11 0.634748 0.177468 0.147065
O O12 0.442881 0.000000 0.125230
O O13 0.500000 0.185859 0.000000
O O14 0.877001 0.500000 0.304438
O O15 0.853121 0.257192 0.231963
O O16 0.233085 0.000000 0.774131
#
# Coordination Sequence:
#
# PCOD9152390 Si02
#       6
#     4   4   4   4   4   4
#     4  11  22  36  55  78 109 156 205 243 283 333
#     4  10  23  40  57  83 117 154 194 234 282 339
#     4  11  21  35  54  84 115 152 194 244 281 332
#     4   9  20  41  67  92 115 142 181 234 294 348
#     4  11  23  38  54  78 118 158 192 235 281 336
#     4  10  21  37  59  86 115 147 189 240 285 340
#
# _framework density 18.725297999999999
#
# number of rings (size 3 to 8) (size 9 to 14) (size 15 to 20)
#    0.000    1.667    3.333    1.000    0.000    7.000 
#    0.000    0.833    0.000    5.000    0.000    0.000 
#    0.000    0.000    0.000    0.000    0.000    0.000 
#
# Total GULP energy -133775.778435 kJ/mol
# GULP energy per Si atom -5573.990768 kJ/mol
# Density = 1.868268 g / cm^3
# Si number density = 18.725298 Si / 1000 Ang^3
#
#
#
# Elastic Constant Matrix: (Units=GPa)
#
#
# Indices 1 2 3 4 5 6 
#
# 1 97.5846 49.9618 30.9125 0.0000 13.2960 0.0000
# 2 49.9618 129.4557 37.4605 0.0000 5.6922 0.0000
# 3 30.9125 37.4605 95.6210 0.0000 23.0112 0.0000
# 4 0.0000 0.0000 0.0000 12.5683 0.0000 -0.7564
# 5 13.2960 5.6922 23.0112 0.0000 21.2890 0.0000
# 6 0.0000 0.0000 0.0000 -0.7564 0.0000 15.4885
#
#
#
# Elastic Compliance Matrix: (Units=1/GPa)
#
#
# Indices 1 2 3 4 5 6 
#
# 1 0.013885 -0.004757 -0.001141 0.000000 -0.006166 0.000000
# 2 -0.004757 0.010396 -0.003488 0.000000 0.003962 0.000000
# 3 -0.001141 -0.003488 0.015945 0.000000 -0.015590 0.000000
# 4 0.000000 0.000000 0.000000 0.079800 0.000000 0.003897
# 5 -0.006166 0.003962 -0.015590 0.000000 0.066615 0.000000
# 6 0.000000 0.000000 0.000000 0.003897 0.000000 0.064754
#
#
# Mechanical properties :
#
#
# Convention : Reuss Voigt Hill
#
# Bulk Modulus (GPa) = 46.61431 62.14787 54.38109
# Shear Modulus (GPa) = 18.02974 23.49090 20.76032
#
# Velocity S-wave (km/s) = 3.10636 3.54574 3.33329
# Velocity P-wave (km/s) = 6.14929 7.07279 6.62714
#
# Compressibility (1/GPa) = 0.02145264
#
# Stress axis : x y z
#
# Youngs Moduli (GPa) = 72.02088 96.19214 62.71557
#
# Poissons Ratio (x) = 0.45762 0.07156
# Poissons Ratio (y) = 0.34263 0.21876
# Poissons Ratio (z) = 0.08218 0.33553
#
# Static dielectric constant tensor:
#      x y z
#    x 1.665840 0.000000 0.037860 
#    y 0.000000 1.646020 0.000000 
#    z 0.037860 0.000000 1.648580 
# 
# From -- ./inp_files/60223.got.cif
#   From: 2010.05.17/outbox.cif.g08.bks.cpg/sg10_31_cif.got.tgz:60223.got - 2010.06.03 11:33:40.
