data_PCOD9152627
_publ_section_title
;
Structure prediction by ZEFSAII (Michael W. Deem and Ramdas Pophale) SiO2 
 PCOD9152627
Probable space group: P 2/M
;
_chemical_formula_sum "Si O2"
_cell_formula_units_Z 20
_cell_length_a 26.840484
_cell_length_b 7.761256
_cell_length_c 8.944958
_cell_angle_alpha 90.000000
_cell_angle_beta 33.570079
_cell_angle_gamma 90.000000
_cell_volume 1030.366261
_symmetry_space_group_name_H-M "P 2/M"
_symmetry_group_IT_number 10
_symmetry_cell_setting 'monoclinic'
loop_
_space_group_symop_operation_xyz
x,y,z
-x,y,-z
-x,-y,-z
x,-y,z
loop_
_atom_site_type_symbol
_atom_site_label
_atom_site_fract_x
_atom_site_fract_y
_atom_site_fract_z
Si Si1 0.723248 0.203320 0.264252
Si Si2 0.911185 0.207918 0.633799
Si Si3 0.608503 0.500000 0.054093
Si Si4 0.905708 0.701645 0.302325
Si Si5 0.395582 0.500000 0.579344
Si Si6 0.280699 0.193428 0.370086
O O1 0.650397 0.331118 0.376243
O O2 0.725482 0.225237 0.437176
O O3 0.705881 0.000000 0.276206
O O4 0.820451 0.248609 0.951177
O O5 0.906892 0.280076 0.477716
O O6 0.000000 0.267305 0.500000
O O7 0.916281 0.000000 0.608740
O O8 0.502411 0.500000 0.285843
O O9 0.620836 0.500000 0.201772
O O10 0.656677 0.333863 0.863936
O O11 0.897935 0.500000 0.281418
O O12 0.818902 0.792770 0.450674
O O13 0.000000 0.767827 0.000000
O O14 0.315532 0.000000 0.259097
#
# Coordination Sequence:
#
# PCOD9152627 Si02
#       6
#     4   4   2   4   2   4
#     4  10  23  41  64  95 125 164 210 254 311 368
#     4  10  21  38  59  87 125 167 213 255 301 364
#     4  11  25  45  64  97 122 159 211 249 321 375
#     4  11  23  37  57  90 128 166 211 254 302 365
#     4  11  25  43  68  89 128 163 197 265 311 375
#     4  11  23  42  67  92 127 165 206 259 308 369
#
# _framework density 19.410574
#
# number of rings (size 3 to 8) (size 9 to 14) (size 15 to 20)
#    0.000    1.400    1.000    3.600    1.400    8.400 
#    0.000    4.000    0.000    0.000    0.000    0.000 
#    0.000    0.000    0.000    0.000    0.000    0.000 
#
# Total GULP energy -111869.434367 kJ/mol
# GULP energy per Si atom -5593.471718 kJ/mol
# Density = 1.936639 g / cm^3
# Si number density = 19.410574 Si / 1000 Ang^3
#
#
#
# Elastic Constant Matrix: (Units=GPa)
#
#
# Indices 1 2 3 4 5 6 
#
# 1 150.0494 72.1951 83.0431 0.0000 -11.1996 0.0000
# 2 72.1951 100.9278 85.0689 0.0000 -3.2312 0.0000
# 3 83.0431 85.0689 156.6124 0.0000 0.8128 0.0000
# 4 0.0000 0.0000 0.0000 -2.5661 0.0000 23.7792
# 5 -11.1996 -3.2312 0.8128 0.0000 24.6551 0.0000
# 6 0.0000 0.0000 0.0000 23.7792 0.0000 28.1234
#
#
#
# Elastic Compliance Matrix: (Units=1/GPa)
#
#
# Indices 1 2 3 4 5 6 
#
# 1 0.011279 -0.005279 -0.003137 0.000000 0.004535 0.000000
# 2 -0.005279 0.020930 -0.008573 0.000000 0.000628 0.000000
# 3 -0.003137 -0.008573 0.012720 0.000000 -0.002968 0.000000
# 4 0.000000 0.000000 0.000000 -0.044107 0.000000 0.037294
# 5 0.004535 0.000628 -0.002968 0.000000 0.042800 0.000000
# 6 0.000000 0.000000 0.000000 0.037294 0.000000 0.004025
#
#
# Mechanical properties :
#
#
# Convention : Reuss Voigt Hill
#
# Bulk Modulus (GPa) = 91.30506 98.68931 94.99719
# Shear Modulus (GPa) = 58.63405 21.19465 39.91435
#
# Velocity S-wave (km/s) = 5.50208 3.30799 4.53959
# Velocity P-wave (km/s) = 9.35440 8.09592 8.74782
#
# Compressibility (1/GPa) = 0.01095230
#
# Stress axis : x y z
#
# Youngs Moduli (GPa) = 88.66169 47.77803 78.61329
#
# Poissons Ratio (x) = 0.25221 0.24659
# Poissons Ratio (y) = 0.46804 0.67395
# Poissons Ratio (z) = 0.27811 0.40960
#
# Static dielectric constant tensor:
#      x y z
#    x 1.636650 0.000000 -0.001750 
#    y 0.000000 1.682460 0.000000 
#    z -0.001750 0.000000 1.643980 
# 
# From -- ./inp_files/31442.got.cif
#   From: 2010.05.17/outbox.cif.g08.bks.cpg/sg10_16_cif.got.tgz:31442.got - 2010.06.03 11:33:40.
