data_PCOD9152986
_publ_section_title
;
Structure prediction by ZEFSAII (Michael W. Deem and Ramdas Pophale) SiO2 
 PCOD9152986
Probable space group: P 2/M
;
_chemical_formula_sum "Si O2"
_cell_formula_units_Z 28
_cell_length_a 25.360695
_cell_length_b 8.425014
_cell_length_c 17.058047
_cell_angle_alpha 90.000000
_cell_angle_beta 158.563551
_cell_angle_gamma 90.000000
_cell_volume 1332.022747
_symmetry_space_group_name_H-M "P 2/M"
_symmetry_group_IT_number 10
_symmetry_cell_setting 'monoclinic'
loop_
_space_group_symop_operation_xyz
x,y,z
-x,y,-z
-x,-y,-z
x,-y,z
loop_
_atom_site_type_symbol
_atom_site_label
_atom_site_fract_x
_atom_site_fract_y
_atom_site_fract_z
Si Si1 0.193953 0.314782 0.594156
Si Si2 0.166016 0.814080 0.723236
Si Si3 0.424812 0.808394 0.315098
Si Si4 0.958790 0.192214 0.857883
Si Si5 0.329509 0.188223 0.629505
Si Si6 0.904459 0.191341 0.113533
Si Si7 0.555142 0.684654 0.823803
O O1 0.203590 0.500000 0.626799
O O2 0.213949 0.213870 0.700197
O O3 0.306047 0.271403 0.680451
O O4 0.000000 0.239025 0.500000
O O5 0.965219 0.727325 0.659620
O O6 0.171711 0.000000 0.752023
O O7 0.276042 0.721560 0.930500
O O8 0.500000 0.756669 0.500000
O O9 0.490123 0.742490 0.325100
O O10 0.433642 0.000000 0.324290
O O11 0.256068 0.763808 0.084493
O O12 0.803625 0.242872 0.610110
O O13 0.071749 0.228385 0.945421
O O14 0.952604 0.000000 0.855028
O O15 0.000000 0.255388 0.000000
O O16 0.471741 0.224993 0.777554
O O17 0.315089 0.000000 0.622583
O O18 0.920903 0.000000 0.146254
O O19 0.526643 0.500000 0.792998
#
# Coordination Sequence:
#
# PCOD9152986 Si02
#       7
#     4   4   4   4   4   4   4
#     4  11  22  38  62  92 127 161 198 247 312 373
#     4  11  24  43  68  94 121 158 210 259 300 358
#     4  10  22  39  62  88 118 162 214 258 300 357
#     4   8  15  28  54  86 112 145 195 254 301 340
#     4  10  21  39  63  88 122 163 208 254 302 361
#     4   9  18  34  56  85 118 155 203 252 297 354
#     4  12  26  42  61  90 129 163 200 252 315 375
#
# _framework density 21.020662000000002
#
# number of rings (size 3 to 8) (size 9 to 14) (size 15 to 20)
#    0.000    1.857    0.000    5.143    2.000    6.000 
#    0.000    2.857    0.000    2.143    0.000    0.000 
#    0.000    0.000    0.000    0.000    0.000    0.000 
#
# Total GULP energy -156509.425667 kJ/mol
# GULP energy per Si atom -5589.622345 kJ/mol
# Density = 2.097282 g / cm^3
# Si number density = 21.020662 Si / 1000 Ang^3
#
#
#
# Elastic Constant Matrix: (Units=GPa)
#
#
# Indices 1 2 3 4 5 6 
#
# 1 88.8820 -7.6358 27.7903 0.0000 -8.2583 0.0000
# 2 -7.6358 20.5669 -2.3347 0.0000 4.1780 0.0000
# 3 27.7903 -2.3347 37.0829 0.0000 -0.9322 0.0000
# 4 0.0000 0.0000 0.0000 -165.7978 0.0000 -8.5594
# 5 -8.2583 4.1780 -0.9322 0.0000 36.7275 0.0000
# 6 0.0000 0.0000 0.0000 -8.5594 0.0000 2.5133
#
#
#
# Elastic Compliance Matrix: (Units=1/GPa)
#
#
# Indices 1 2 3 4 5 6 
#
# 1 0.015331 0.003870 -0.011177 0.000000 0.002723 0.000000
# 2 0.003870 0.051083 0.000192 0.000000 -0.004936 0.000000
# 3 -0.011177 0.000192 0.035314 0.000000 -0.001639 0.000000
# 4 0.000000 0.000000 0.000000 -0.005130 0.000000 -0.017470
# 5 0.002723 -0.004936 -0.001639 0.000000 0.028360 0.000000
# 6 0.000000 0.000000 0.000000 -0.017470 0.000000 0.338390
#
#
# Mechanical properties :
#
#
# Convention : Reuss Voigt Hill
#
# Bulk Modulus (GPa) = 11.42894 20.24128 15.83511
# Shear Modulus (GPa) = 9.86690 -16.73060 -3.43185
#
# Velocity S-wave (km/s) = 2.16889 -2.82425 -1.27912
# Velocity P-wave (km/s) = 3.42359 0.99250 2.31688
#
# Compressibility (1/GPa) = 0.08749714
#
# Stress axis : x y z
#
# Youngs Moduli (GPa) = 65.22700 19.57598 28.31755
#
# Poissons Ratio (x) = -0.07576 0.31651
# Poissons Ratio (y) = -0.25242 -0.00544
# Poissons Ratio (z) = 0.72905 -0.00376
#
# Static dielectric constant tensor:
#      x y z
#    x 1.763330 0.000000 0.005230 
#    y 0.000000 1.714620 0.000000 
#    z 0.005230 0.000000 1.756950 
# 
# From -- ./inp_files/70266.got.cif
#   From: 2010.05.17/outbox.cif.g08.bks.cpg/sg10_36_cif.got.tgz:70266.got - 2010.06.03 11:33:40.
