data_PCOD9152604
_publ_section_title
;
Structure prediction by ZEFSAII (Michael W. Deem and Ramdas Pophale) SiO2 
 PCOD9152604
Probable space group: P 2/M
;
_chemical_formula_sum "Si O2"
_cell_formula_units_Z 28
_cell_length_a 18.691942
_cell_length_b 14.429706
_cell_length_c 8.898769
_cell_angle_alpha 90.000000
_cell_angle_beta 44.429471
_cell_angle_gamma 90.000000
_cell_volume 1680.192172
_symmetry_space_group_name_H-M "P 2/M"
_symmetry_group_IT_number 10
_symmetry_cell_setting 'monoclinic'
loop_
_space_group_symop_operation_xyz
x,y,z
-x,y,-z
-x,-y,-z
x,-y,z
loop_
_atom_site_type_symbol
_atom_site_label
_atom_site_fract_x
_atom_site_fract_y
_atom_site_fract_z
Si Si1 0.390034 0.890148 0.736077
Si Si2 0.121621 0.393539 0.496621
Si Si3 0.196553 0.210174 0.884082
Si Si4 0.390034 0.890148 0.093820
Si Si5 0.196553 0.789825 0.526260
Si Si6 1.000000 0.889125 0.322132
Si Si7 0.121621 0.393539 0.138516
O O1 0.500000 0.867705 0.500000
O O2 0.299741 0.832584 0.796203
O O3 0.371455 0.000000 0.738162
O O4 0.391737 0.874770 0.912394
O O5 0.147843 0.500000 0.494213
O O6 0.181762 0.316258 0.497203
O O7 0.137098 0.380520 0.294353
O O8 1.000000 0.381680 0.706955
O O9 0.195504 0.202368 0.706744
O O10 0.100456 0.154568 0.097289
O O11 0.181762 0.316257 0.957512
O O12 0.299741 0.832584 0.304575
O O13 0.371455 0.000000 0.147473
O O14 0.500000 0.867705 0.000000
O O15 0.100456 0.845431 0.601343
O O16 0.000000 0.867463 0.500000
O O17 0.999999 0.000000 0.304449
O O18 0.147843 0.500000 0.062258
#
# Coordination Sequence:
#
# PCOD9152604 Si02
#       7
#     4   4   4   4   4   4   4
#     4  10  21  38  59  81 107 143 186 229 270 317
#     4   9  18  34  56  79 106 143 184 224 268 322
#     4  12  23  34  53  82 113 144 178 222 273 327
#     4  10  21  38  59  81 107 143 186 229 270 317
#     4  12  23  34  53  82 113 144 178 222 273 327
#     4  11  23  37  52  73 106 147 185 222 268 321
#     4   9  18  34  56  79 106 143 184 224 268 322
#
# _framework density 16.664760000000001
#
# number of rings (size 3 to 8) (size 9 to 14) (size 15 to 20)
#    0.000    1.571    1.429    5.571    0.000    6.857 
#    0.000    1.429    0.000    0.857    0.000    0.000 
#    0.000    0.000    0.000    0.000    0.000    0.000 
#
# Total GULP energy -156466.928432 kJ/mol
# GULP energy per Si atom -5588.104587 kJ/mol
# Density = 1.662683 g / cm^3
# Si number density = 16.664760 Si / 1000 Ang^3
#
#
#
# Elastic Constant Matrix: (Units=GPa)
#
#
# Indices 1 2 3 4 5 6 
#
# 1 143.1289 91.4556 82.5282 0.0000 -4.0123 0.0000
# 2 91.4556 114.1675 91.2904 0.0000 0.5408 0.0000
# 3 82.5282 91.2904 144.8723 0.0000 -1.7041 0.0000
# 4 0.0000 0.0000 0.0000 15.7591 0.0000 0.4393
# 5 -4.0123 0.5408 -1.7041 0.0000 23.3409 0.0000
# 6 0.0000 0.0000 0.0000 0.4393 0.0000 15.8931
#
#
#
# Elastic Compliance Matrix: (Units=1/GPa)
#
#
# Indices 1 2 3 4 5 6 
#
# 1 0.014729 -0.010334 -0.001848 0.000000 0.002636 0.000000
# 2 -0.010334 0.024940 -0.009865 0.000000 -0.003075 0.000000
# 3 -0.001848 -0.009865 0.014183 0.000000 0.000946 0.000000
# 4 0.000000 0.000000 0.000000 0.063504 0.000000 -0.001755
# 5 0.002636 -0.003075 0.000946 0.000000 0.043437 0.000000
# 6 0.000000 0.000000 0.000000 -0.001755 0.000000 0.062969
#
#
# Mechanical properties :
#
#
# Convention : Reuss Voigt Hill
#
# Bulk Modulus (GPa) = 102.47632 103.63524 103.05578
# Shear Modulus (GPa) = 18.44275 20.12492 19.28383
#
# Velocity S-wave (km/s) = 3.33031 3.47887 3.40540
# Velocity P-wave (km/s) = 8.74152 8.85777 8.79984
#
# Compressibility (1/GPa) = 0.00975835
#
# Stress axis : x y z
#
# Youngs Moduli (GPa) = 67.89227 40.09565 70.50782
#
# Poissons Ratio (x) = 0.41435 0.13027
# Poissons Ratio (y) = 0.70161 0.69558
# Poissons Ratio (z) = 0.12544 0.39555
#
# Static dielectric constant tensor:
#      x y z
#    x 1.538630 0.000000 0.012460 
#    y 0.000000 1.561020 0.000000 
#    z 0.012460 0.000000 1.534830 
# 
# From -- ./inp_files/25048.got.cif
#   From: 2010.05.17/outbox.cif.g08.bks.cpg/sg10_13_cif.got.tgz:25048.got - 2010.06.03 11:33:40.
