data_PCOD9152814
_publ_section_title
;
Structure prediction by ZEFSAII (Michael W. Deem and Ramdas Pophale) SiO2 
 PCOD9152814
Probable space group: P 2/M
;
_chemical_formula_sum "Si O2"
_cell_formula_units_Z 28
_cell_length_a 8.947657
_cell_length_b 16.539075
_cell_length_c 14.647744
_cell_angle_alpha 90.000000
_cell_angle_beta 42.042439
_cell_angle_gamma 90.000000
_cell_volume 1451.640842
_symmetry_space_group_name_H-M "P 2/M"
_symmetry_group_IT_number 10
_symmetry_cell_setting 'monoclinic'
loop_
_space_group_symop_operation_xyz
x,y,z
-x,y,-z
-x,-y,-z
x,-y,z
loop_
_atom_site_type_symbol
_atom_site_label
_atom_site_fract_x
_atom_site_fract_y
_atom_site_fract_z
Si Si1 0.351140 0.346261 0.976794
Si Si2 0.947001 0.500000 0.917671
Si Si3 0.473730 0.277555 0.735529
Si Si4 0.764603 0.903957 0.871690
Si Si5 0.162004 0.320019 0.580904
Si Si6 0.845923 0.185053 0.648753
Si Si7 0.766796 0.500000 0.382040
Si Si8 0.054630 0.228336 0.814289
O O1 0.463317 0.338101 0.826429
O O2 0.500000 0.346386 0.000000
O O3 0.199830 0.424338 0.042636
O O4 0.177109 0.274153 0.065563
O O5 0.160772 0.500000 0.756393
O O6 0.000000 0.500000 0.000000
O O7 0.624602 0.309141 0.582540
O O8 0.604956 0.201318 0.716614
O O9 0.230834 0.250369 0.812337
O O10 0.832364 0.870944 0.741726
O O11 0.957626 0.861803 0.845887
O O12 0.773050 0.000000 0.876825
O O13 0.500000 0.879630 0.000000
O O14 0.145252 0.415666 0.612525
O O15 0.169076 0.267835 0.671469
O O16 0.955901 0.272964 0.625196
O O17 0.000000 0.149993 0.500000
O O18 0.500000 0.500000 0.500000
#
# Coordination Sequence:
#
# PCOD9152814 Si02
#       8
#     4   2   4   4   4   4   2   4
#     4  12  25  41  61  85 122 165 206 253 303 364
#     4  12  27  43  61  90 123 159 213 259 308 361
#     4  11  22  37  64  92 118 161 209 254 304 360
#     4  10  21  38  63  91 123 160 199 247 307 373
#     4  10  22  39  62  89 120 164 207 255 308 363
#     4   9  20  40  61  87 123 160 207 248 296 372
#     4  12  24  39  64  89 128 159 206 263 313 353
#     4  11  20  39  63  89 122 158 205 251 310 365
#
# _framework density 19.288518
#
# number of rings (size 3 to 8) (size 9 to 14) (size 15 to 20)
#    0.000    1.286    1.429    5.786    2.000    0.286 
#    0.000    3.929    0.000   14.571    0.000    0.000 
#    0.000    0.000    0.000    0.000    0.000    0.000 
#
# Total GULP energy -156119.638870 kJ/mol
# GULP energy per Si atom -5575.701388 kJ/mol
# Density = 1.924462 g / cm^3
# Si number density = 19.288518 Si / 1000 Ang^3
#
#
#
# Elastic Constant Matrix: (Units=GPa)
#
#
# Indices 1 2 3 4 5 6 
#
# 1 136.7868 30.1452 36.9266 0.0000 -6.2719 0.0000
# 2 30.1452 91.3712 30.1458 0.0000 -3.3947 0.0000
# 3 36.9266 30.1458 117.8259 0.0000 6.2732 0.0000
# 4 0.0000 0.0000 0.0000 19.5588 0.0000 13.6821
# 5 -6.2719 -3.3947 6.2732 0.0000 26.9302 0.0000
# 6 0.0000 0.0000 0.0000 13.6821 0.0000 22.7106
#
#
#
# Elastic Compliance Matrix: (Units=1/GPa)
#
#
# Indices 1 2 3 4 5 6 
#
# 1 0.008458 -0.001958 -0.002270 0.000000 0.002252 0.000000
# 2 -0.001958 0.012542 -0.002689 0.000000 0.001751 0.000000
# 3 -0.002270 -0.002689 0.010057 0.000000 -0.003210 0.000000
# 4 0.000000 0.000000 0.000000 0.088372 0.000000 -0.053240
# 5 0.002252 0.001751 -0.003210 0.000000 0.038626 0.000000
# 6 0.000000 0.000000 0.000000 -0.053240 0.000000 0.076107
#
#
# Mechanical properties :
#
#
# Convention : Reuss Voigt Hill
#
# Bulk Modulus (GPa) = 58.05451 60.04655 59.05053
# Shear Modulus (GPa) = 19.70546 30.42434 25.06490
#
# Velocity S-wave (km/s) = 3.19974 3.97587 3.60873
# Velocity P-wave (km/s) = 6.61925 7.23015 6.93143
#
# Compressibility (1/GPa) = 0.01722519
#
# Stress axis : x y z
#
# Youngs Moduli (GPa) = 118.22955 79.72924 99.43116
#
# Poissons Ratio (x) = 0.15611 0.22568
# Poissons Ratio (y) = 0.23149 0.26733
# Poissons Ratio (z) = 0.26835 0.21436
#
# Static dielectric constant tensor:
#      x y z
#    x 1.699800 0.000000 0.029260 
#    y 0.000000 1.608260 0.000000 
#    z 0.029260 0.000000 1.756310 
# 
# From -- ./inp_files/62337.got.cif
#   From: 2010.05.17/outbox.cif.g08.bks.cpg/sg10_32_cif.got.tgz:62337.got - 2010.06.03 11:33:40.
