data_PCOD9152542
_publ_section_title
;
Structure prediction by ZEFSAII (Michael W. Deem and Ramdas Pophale) SiO2 
 PCOD9152542
Probable space group: P 2/M
;
_chemical_formula_sum "Si O2"
_cell_formula_units_Z 24
_cell_length_a 10.665160
_cell_length_b 21.908284
_cell_length_c 9.163925
_cell_angle_alpha 90.000000
_cell_angle_beta 148.393490
_cell_angle_gamma 90.000000
_cell_volume 1122.165901
_symmetry_space_group_name_H-M "P 2/M"
_symmetry_group_IT_number 10
_symmetry_cell_setting 'monoclinic'
loop_
_space_group_symop_operation_xyz
x,y,z
-x,y,-z
-x,-y,-z
x,-y,z
loop_
_atom_site_type_symbol
_atom_site_label
_atom_site_fract_x
_atom_site_fract_y
_atom_site_fract_z
Si Si1 0.374599 0.328040 0.530927
Si Si2 0.000000 0.643593 0.500000
Si Si3 0.697547 0.430704 0.964362
Si Si4 0.303036 0.754858 0.682059
Si Si5 0.241365 0.105816 0.654646
Si Si6 0.249580 0.072495 0.321560
Si Si7 0.000000 0.607320 0.000000
O O1 0.500000 0.330152 0.500000
O O2 0.414980 0.261946 0.638391
O O3 0.481972 0.383346 0.731659
O O4 0.110502 0.347104 0.227294
O O5 0.144133 0.599716 0.751682
O O6 0.149390 0.693970 0.556495
O O7 0.629382 0.500000 0.932802
O O8 0.825479 0.431133 0.931004
O O9 0.195995 0.821599 0.584465
O O10 0.500000 0.753547 0.000000
O O11 0.255744 0.080338 0.503842
O O12 0.000000 0.082914 0.500000
O O13 0.500000 0.097980 0.000000
O O14 0.500000 0.096882 0.500000
O O15 0.248883 0.000000 0.290610
O O16 0.000000 0.096502 0.000000
#
# Coordination Sequence:
#
# PCOD9152542 Si02
#       7
#     4   2   4   4   4   4   2
#     4  10  22  39  57  82 110 146 194 247 310 379
#     4  12  21  40  60  80 113 152 190 248 316 376
#     4  11  23  37  58  84 109 144 196 248 314 389
#     4  11  22  41  61  83 118 162 202 256 318 380
#     4  11  24  41  67 102 137 179 234 282 332 396
#     4  10  22  43  69 102 146 190 230 278 336 391
#     4  10  21  38  56  76 108 144 181 236 308 370
#
# _framework density 21.38721
#
# number of rings (size 3 to 8) (size 9 to 14) (size 15 to 20)
#    0.000    1.333    4.167    1.500    0.000    5.000 
#    1.500    0.833    0.000    0.000    0.000    0.000 
#    0.000    0.000    0.000    0.000    0.000    0.000 
#
# Total GULP energy -133630.526984 kJ/mol
# GULP energy per Si atom -5567.938624 kJ/mol
# Density = 2.133853 g / cm^3
# Si number density = 21.387210 Si / 1000 Ang^3
#
#
#
# Elastic Constant Matrix: (Units=GPa)
#
#
# Indices 1 2 3 4 5 6 
#
# 1 71.2416 2.5205 38.0268 0.0000 3.8486 0.0000
# 2 2.5205 21.7138 12.1790 0.0000 7.7434 0.0000
# 3 38.0268 12.1790 116.3408 0.0000 -8.0779 0.0000
# 4 0.0000 0.0000 0.0000 28.4643 0.0000 -11.5904
# 5 3.8486 7.7434 -8.0779 0.0000 27.7881 0.0000
# 6 0.0000 0.0000 0.0000 -11.5904 0.0000 24.5920
#
#
#
# Elastic Compliance Matrix: (Units=1/GPa)
#
#
# Indices 1 2 3 4 5 6 
#
# 1 0.017677 0.003497 -0.006513 0.000000 -0.005316 0.000000
# 2 0.003497 0.057095 -0.008428 0.000000 -0.018844 0.000000
# 3 -0.006513 -0.008428 0.012076 0.000000 0.006761 0.000000
# 4 0.000000 0.000000 0.000000 0.043475 0.000000 0.020490
# 5 -0.005316 -0.018844 0.006761 0.000000 0.043939 0.000000
# 6 0.000000 0.000000 0.000000 0.020490 0.000000 0.050321
#
#
# Mechanical properties :
#
#
# Convention : Reuss Voigt Hill
#
# Bulk Modulus (GPa) = 15.63500 34.97211 25.30355
# Shear Modulus (GPa) = 18.60176 26.60688 22.60432
#
# Velocity S-wave (km/s) = 2.95237 3.53094 3.25454
# Velocity P-wave (km/s) = 4.35297 5.74550 5.09701
#
# Compressibility (1/GPa) = 0.06395906
#
# Stress axis : x y z
#
# Youngs Moduli (GPa) = 56.57200 17.51458 82.80909
#
# Poissons Ratio (x) = -0.06125 0.53933
# Poissons Ratio (y) = -0.19782 0.69794
# Poissons Ratio (z) = 0.36845 0.14762
#
# Static dielectric constant tensor:
#      x y z
#    x 2.166690 0.000000 -0.096400 
#    y 0.000000 1.778250 0.000000 
#    z -0.096400 0.000000 2.000210 
# 
# From -- ./inp_files/26174.got.cif
#   From: 2010.05.17/outbox.cif.g08.bks.cpg/sg10_14_cif.got.tgz:26174.got - 2010.06.03 11:33:40.
