data_PCOD9152418
_publ_section_title
;
Structure prediction by ZEFSAII (Michael W. Deem and Ramdas Pophale) SiO2 
 PCOD9152418
Probable space group: P 2/M
;
_chemical_formula_sum "Si O2"
_cell_formula_units_Z 32
_cell_length_a 8.892484
_cell_length_b 14.950915
_cell_length_c 12.160034
_cell_angle_alpha 90.000000
_cell_angle_beta 76.715402
_cell_angle_gamma 90.000000
_cell_volume 1573.424495
_symmetry_space_group_name_H-M "P 2/M"
_symmetry_group_IT_number 10
_symmetry_cell_setting 'monoclinic'
loop_
_space_group_symop_operation_xyz
x,y,z
-x,y,-z
-x,-y,-z
x,-y,z
loop_
_atom_site_type_symbol
_atom_site_label
_atom_site_fract_x
_atom_site_fract_y
_atom_site_fract_z
Si Si1 0.315926 0.395723 0.048156
Si Si2 0.102580 0.097335 0.593779
Si Si3 0.121233 0.285118 0.655534
Si Si4 0.840250 0.263073 0.091972
Si Si5 0.756609 0.711750 0.716797
Si Si6 0.663850 0.898676 0.032450
Si Si7 0.203690 0.903488 0.223160
Si Si8 0.333901 0.398913 0.471568
O O1 0.270835 0.500000 0.065075
O O2 0.272196 0.340483 0.164794
O O3 0.500000 0.391442 0.000000
O O4 0.235209 0.346220 0.959874
O O5 0.187394 0.190904 0.596210
O O6 0.000000 0.101586 0.500000
O O7 0.974612 0.097761 0.711961
O O8 0.182391 0.000000 0.580567
O O9 0.133140 0.284715 0.785162
O O10 0.211291 0.363746 0.580793
O O11 0.939323 0.290677 0.658553
O O12 0.724043 0.178668 0.100972
O O13 0.000000 0.243449 0.000000
O O14 0.717540 0.816289 0.739476
O O15 0.668034 0.664537 0.633731
O O16 0.780901 0.898564 0.909767
O O17 0.656573 0.000000 0.079262
O O18 0.500000 0.879477 0.000000
O O19 0.268633 0.000000 0.248311
O O20 0.500000 0.397708 0.500000
O O21 0.296714 0.500000 0.442805
#
# Coordination Sequence:
#
# PCOD9152418 Si02
#       8
#     4   4   4   4   4   4   4   4
#     4  11  25  42  64  92 123 167 213 262 325 384
#     4   9  17  33  57  87 120 156 202 248 295 360
#     4  11  23  39  64  93 127 163 207 256 317 375
#     4  12  23  41  60  94 131 165 209 264 317 379
#     4  11  21  43  68  92 125 164 211 256 311 380
#     4  10  21  37  59  89 127 172 215 254 306 371
#     4   9  17  31  58  92 123 157 198 243 295 359
#     4  11  27  46  65  91 119 159 213 268 326 379
#
# _framework density 20.337804999999999
#
# number of rings (size 3 to 8) (size 9 to 14) (size 15 to 20)
#    0.000    1.500    2.500    3.375    1.750    3.000 
#    0.000    0.000    0.000    1.500    0.000    0.000 
#    0.000    0.000    0.000    0.000    0.000    0.000 
#
# Total GULP energy -178716.222277 kJ/mol
# GULP energy per Si atom -5584.881946 kJ/mol
# Density = 2.029151 g / cm^3
# Si number density = 20.337805 Si / 1000 Ang^3
#
#
#
# Elastic Constant Matrix: (Units=GPa)
#
#
# Indices 1 2 3 4 5 6 
#
# 1 31.5740 25.7972 -8.1875 0.0000 6.2551 0.0000
# 2 25.7972 172.2927 23.7312 0.0000 17.8512 0.0000
# 3 -8.1875 23.7312 46.5347 0.0000 13.8569 0.0000
# 4 0.0000 0.0000 0.0000 0.0368 0.0000 11.2727
# 5 6.2551 17.8512 13.8569 0.0000 27.6048 0.0000
# 6 0.0000 0.0000 0.0000 11.2727 0.0000 -4.0374
#
#
#
# Elastic Compliance Matrix: (Units=1/GPa)
#
#
# Indices 1 2 3 4 5 6 
#
# 1 0.044312 -0.007416 0.015450 0.000000 -0.013001 0.000000
# 2 -0.007416 0.007683 -0.004990 0.000000 -0.000783 0.000000
# 3 0.015450 -0.004990 0.031550 0.000000 -0.016111 0.000000
# 4 0.000000 0.000000 0.000000 0.031735 0.000000 0.088607
# 5 -0.013001 -0.000783 -0.016111 0.000000 0.047765 0.000000
# 6 0.000000 0.000000 0.000000 0.088607 0.000000 -0.000289
#
#
# Mechanical properties :
#
#
# Convention : Reuss Voigt Hill
#
# Bulk Modulus (GPa) = 11.15655 37.00925 24.08290
# Shear Modulus (GPa) = 26.80308 18.65821 22.73064
#
# Velocity S-wave (km/s) = 3.63422 3.03217 3.34676
# Velocity P-wave (km/s) = 4.80704 5.52228 5.17702
#
# Compressibility (1/GPa) = 0.08963343
#
# Stress axis : x y z
#
# Youngs Moduli (GPa) = 22.56703 130.16017 31.69600
#
# Poissons Ratio (x) = 0.96525 -0.48969
# Poissons Ratio (y) = 0.16735 0.15815
# Poissons Ratio (z) = -0.34865 0.64944
#
# Static dielectric constant tensor:
#      x y z
#    x 1.722960 0.000000 -0.016480 
#    y 0.000000 1.771830 0.000000 
#    z -0.016480 0.000000 1.711710 
# 
# From -- ./inp_files/42976.got.cif
#   From: 2010.05.17/outbox.cif.g08.bks.cpg/sg10_22_cif.got.tgz:42976.got - 2010.06.03 11:33:40.
