data_PCOD9152258
_publ_section_title
;
Structure prediction by ZEFSAII (Michael W. Deem and Ramdas Pophale) SiO2 
 PCOD9152258
Probable space group: P 2/M
;
_chemical_formula_sum "Si O2"
_cell_formula_units_Z 32
_cell_length_a 29.221575
_cell_length_b 9.339736
_cell_length_c 11.795184
_cell_angle_alpha 90.000000
_cell_angle_beta 147.974820
_cell_angle_gamma 90.000000
_cell_volume 1707.095984
_symmetry_space_group_name_H-M "P 2/M"
_symmetry_group_IT_number 10
_symmetry_cell_setting 'monoclinic'
loop_
_space_group_symop_operation_xyz
x,y,z
-x,y,-z
-x,-y,-z
x,-y,z
loop_
_atom_site_type_symbol
_atom_site_label
_atom_site_fract_x
_atom_site_fract_y
_atom_site_fract_z
Si Si1 0.193865 0.831802 0.347049
Si Si2 0.912029 0.332699 0.255221
Si Si3 0.536211 0.329025 0.893380
Si Si4 0.230274 0.170710 0.908822
Si Si5 0.421930 0.172378 0.251523
Si Si6 0.635723 0.670681 0.337189
Si Si7 0.137893 0.167727 0.476360
Si Si8 0.040779 0.333234 0.908806
O O1 0.276424 0.756858 0.465325
O O2 0.196997 0.814586 0.489792
O O3 0.191196 0.000000 0.315219
O O4 0.106598 0.755835 0.123294
O O5 0.902922 0.500000 0.267948
O O6 0.829080 0.248804 0.124588
O O7 0.925636 0.323315 0.149830
O O8 0.000000 0.278284 0.500000
O O9 0.540010 0.500000 0.881544
O O10 0.564459 0.245343 0.841424
O O11 0.438592 0.293447 0.728033
O O12 0.595315 0.299417 0.127845
O O13 0.188368 0.200446 0.697567
O O14 0.226700 0.000000 0.920047
O O15 0.330044 0.214998 0.112460
O O16 0.500000 0.208588 0.500000
O O17 0.420310 0.000000 0.233055
O O18 0.651782 0.500000 0.377321
O O19 0.054001 0.265495 0.287943
O O20 0.111310 0.000000 0.424135
O O21 0.038942 0.500000 0.937914
#
# Coordination Sequence:
#
# PCOD9152258 Si02
#       8
#     4   4   4   4   4   4   4   4
#     4  11  23  37  55  83 118 151 187 229 280 341
#     4  10  21  39  59  82 111 143 188 241 285 334
#     4   9  19  37  61  85 112 148 190 235 284 339
#     4  10  21  37  60  86 112 149 193 236 288 341
#     4  10  22  39  57  83 120 155 192 240 287 337
#     4   9  19  37  59  85 115 146 185 235 286 337
#     4  10  21  37  56  80 112 147 187 235 283 337
#     4  11  23  38  57  81 112 149 188 234 285 336
#
# _framework density 18.745284999999999
#
# number of rings (size 3 to 8) (size 9 to 14) (size 15 to 20)
#    0.000    2.000    1.250    2.625    0.000    7.500 
#    0.000    3.750    0.000    0.000    0.000    0.000 
#    0.000    0.000    0.000    0.000    0.000    0.000 
#
# Total GULP energy -178744.409152 kJ/mol
# GULP energy per Si atom -5585.762786 kJ/mol
# Density = 1.870262 g / cm^3
# Si number density = 18.745285 Si / 1000 Ang^3
#
#
#
# Elastic Constant Matrix: (Units=GPa)
#
#
# Indices 1 2 3 4 5 6 
#
# 1 83.9328 32.6388 26.0503 0.0000 22.2801 0.0000
# 2 32.6388 42.0002 32.2990 0.0000 18.2171 0.0000
# 3 26.0503 32.2990 65.0274 0.0000 31.9549 0.0000
# 4 0.0000 0.0000 0.0000 195.7972 0.0000 -38.5338
# 5 22.2801 18.2171 31.9549 0.0000 32.8385 0.0000
# 6 0.0000 0.0000 0.0000 -38.5338 0.0000 44.3910
#
#
#
# Elastic Compliance Matrix: (Units=1/GPa)
#
#
# Indices 1 2 3 4 5 6 
#
# 1 0.018167 -0.013041 0.003261 0.000000 -0.008265 0.000000
# 2 -0.013041 0.048368 -0.019092 0.000000 0.000594 0.000000
# 3 0.003261 -0.019092 0.037250 0.000000 -0.027868 0.000000
# 4 0.000000 0.000000 0.000000 0.006160 0.000000 0.005347
# 5 -0.008265 0.000594 -0.027868 0.000000 0.062848 0.000000
# 6 0.000000 0.000000 0.000000 0.005347 0.000000 0.027168
#
#
# Mechanical properties :
#
#
# Convention : Reuss Voigt Hill
#
# Bulk Modulus (GPa) = 21.71999 41.43741 31.57870
# Shear Modulus (GPa) = 18.31148 61.27016 39.79082
#
# Velocity S-wave (km/s) = 3.12886 5.72334 4.61229
# Velocity P-wave (km/s) = 4.96640 8.11351 6.72659
#
# Compressibility (1/GPa) = 0.04604053
#
# Stress axis : x y z
#
# Youngs Moduli (GPa) = 55.04377 20.67476 26.84598
#
# Poissons Ratio (x) = 0.26962 -0.08754
# Poissons Ratio (y) = 0.71782 0.51255
# Poissons Ratio (z) = -0.17949 0.39473
#
# Static dielectric constant tensor:
#      x y z
#    x 1.632740 0.000000 -0.005370 
#    y 0.000000 1.627530 0.000000 
#    z -0.005370 0.000000 1.638400 
# 
# From -- ./inp_files/58187.got.cif
#   From: 2010.05.17/outbox.cif.g08.bks.cpg/sg10_30_cif.got.tgz:58187.got - 2010.06.03 11:33:40.
