data_PCOD9152538
_publ_section_title
;
Structure prediction by ZEFSAII (Michael W. Deem and Ramdas Pophale) SiO2 
 PCOD9152538
Probable space group: P 2/M
;
_chemical_formula_sum "Si O2"
_cell_formula_units_Z 26
_cell_length_a 5.300892
_cell_length_b 12.352570
_cell_length_c 26.883479
_cell_angle_alpha 90.000000
_cell_angle_beta 78.628036
_cell_angle_gamma 90.000000
_cell_volume 1725.761505
_symmetry_space_group_name_H-M "P 2/M"
_symmetry_group_IT_number 10
_symmetry_cell_setting 'monoclinic'
loop_
_space_group_symop_operation_xyz
x,y,z
-x,y,-z
-x,-y,-z
x,-y,z
loop_
_atom_site_type_symbol
_atom_site_label
_atom_site_fract_x
_atom_site_fract_y
_atom_site_fract_z
Si Si1 0.456733 0.631486 0.293296
Si Si2 0.135641 0.305519 0.114366
Si Si3 0.217958 0.129542 0.032042
Si Si4 0.102688 0.632105 0.647283
Si Si5 0.424785 0.368588 0.825206
Si Si6 0.779982 0.631929 0.470017
Si Si7 0.215877 0.500000 0.034124
O O1 0.455580 0.500000 0.294449
O O2 0.677365 0.667199 0.322864
O O3 0.515793 0.661074 0.234214
O O4 0.176978 0.667199 0.322871
O O5 0.164928 0.191986 0.085074
O O6 0.351901 0.324536 0.147672
O O7 0.179754 0.395822 0.070249
O O8 0.852777 0.324538 0.147673
O O9 0.210967 0.000000 0.039032
O O10 0.500000 0.159070 0.000000
O O11 0.000000 0.159071 0.000000
O O12 0.102812 0.500000 0.647157
O O13 0.161382 0.666366 0.588612
O O14 0.420633 0.500000 0.829361
O O15 0.500000 0.666223 0.500000
O O16 0.780280 0.500000 0.469717
O O17 0.000000 0.666222 0.500000
O O18 0.500000 0.500000 0.000000
O O19 0.000000 0.500000 0.000000
#
# Coordination Sequence:
#
# PCOD9152538 Si02
#       7
#     4   4   4   4   4   4   2
#     4   9  17  26  39  51  72 102 134 168 203 254
#     4  12  21  34  50  69  93 116 143 177 217 262
#     4  10  21  38  56  72  90 115 146 178 214 258
#     4   9  15  24  34  49  66  95 134 169 211 257
#     4  11  20  33  45  66  91 117 143 175 221 265
#     4   9  15  21  30  44  64  88 120 169 221 258
#     4  12  22  32  46  66  92 114 136 162 204 262
#
# _framework density 15.065813
#
# number of rings (size 3 to 8) (size 9 to 14) (size 15 to 20)
#    0.000    1.846    1.538    4.615    0.000    6.154 
#    0.000    0.000    0.000    0.000    0.000    0.000 
#    0.000    0.000    0.000    0.000    0.000    0.000 
#
# Total GULP energy -145069.607949 kJ/mol
# GULP energy per Si atom -5579.600306 kJ/mol
# Density = 1.503152 g / cm^3
# Si number density = 15.065813 Si / 1000 Ang^3
#
#
#
# Elastic Constant Matrix: (Units=GPa)
#
#
# Indices 1 2 3 4 5 6 
#
# 1 193.1724 20.1333 113.4957 0.0000 -0.5857 0.0000
# 2 20.1333 18.6071 25.2883 0.0000 0.2181 0.0000
# 3 113.4957 25.2883 169.0723 0.0000 -0.4281 0.0000
# 4 0.0000 0.0000 0.0000 9.1280 0.0000 0.2437
# 5 -0.5857 0.2181 -0.4281 0.0000 32.8919 0.0000
# 6 0.0000 0.0000 0.0000 0.2437 0.0000 3.3750
#
#
#
# Elastic Compliance Matrix: (Units=1/GPa)
#
#
# Indices 1 2 3 4 5 6 
#
# 1 0.008598 -0.001833 -0.005497 0.000000 0.000094 0.000000
# 2 -0.001833 0.067857 -0.008920 0.000000 -0.000599 0.000000
# 3 -0.005497 -0.008920 0.010939 0.000000 0.000104 0.000000
# 4 0.000000 0.000000 0.000000 0.109765 0.000000 -0.007924
# 5 0.000094 -0.000599 0.000104 0.000000 0.030410 0.000000
# 6 0.000000 0.000000 0.000000 -0.007924 0.000000 0.296873
#
#
# Mechanical properties :
#
#
# Convention : Reuss Voigt Hill
#
# Bulk Modulus (GPa) = 18.21744 77.63185 47.92465
# Shear Modulus (GPa) = 8.69203 23.87459 16.28331
#
# Velocity S-wave (km/s) = 2.40456 3.98513 3.29114
# Velocity P-wave (km/s) = 4.45279 8.53319 6.80598
#
# Compressibility (1/GPa) = 0.05489245
#
# Stress axis : x y z
#
# Youngs Moduli (GPa) = 116.30793 14.73696 91.41350
#
# Poissons Ratio (x) = 0.02701 0.50252
# Poissons Ratio (y) = 0.21321 0.81544
# Poissons Ratio (z) = 0.63937 0.13146
#
# Static dielectric constant tensor:
#      x y z
#    x 1.507480 0.000000 -0.000720 
#    y 0.000000 1.468600 0.000000 
#    z -0.000720 0.000000 1.490500 
# 
# From -- ./inp_files/12220.got.cif
#   From: 2010.05.17/outbox.cif.g08.bks.cpg/sg10_7_cif.got.tgz:12220.got - 2010.06.03 11:33:40.
