data_PCOD9152328
_publ_section_title
;
Structure prediction by ZEFSAII (Michael W. Deem and Ramdas Pophale) SiO2 
 PCOD9152328
Probable space group: P 2/M
;
_chemical_formula_sum "Si O2"
_cell_formula_units_Z 28
_cell_length_a 9.554989
_cell_length_b 19.362631
_cell_length_c 14.140538
_cell_angle_alpha 90.000000
_cell_angle_beta 32.060631
_cell_angle_gamma 90.000000
_cell_volume 1388.688408
_symmetry_space_group_name_H-M "P 2/M"
_symmetry_group_IT_number 10
_symmetry_cell_setting 'monoclinic'
loop_
_space_group_symop_operation_xyz
x,y,z
-x,y,-z
-x,-y,-z
x,-y,z
loop_
_atom_site_type_symbol
_atom_site_label
_atom_site_fract_x
_atom_site_fract_y
_atom_site_fract_z
Si Si1 0.050636 0.313235 0.358523
Si Si2 0.791465 0.577601 0.878758
Si Si3 0.030441 0.812965 0.869174
Si Si4 0.800056 0.076293 0.527649
Si Si5 0.627659 0.299814 0.086245
Si Si6 0.564108 0.219879 0.624393
Si Si7 0.221438 0.920403 0.117783
O O1 0.039447 0.378475 0.294318
O O2 0.355673 0.289772 0.185030
O O3 0.000000 0.329656 0.500000
O O4 0.847395 0.254201 0.442606
O O5 0.889733 0.500000 0.839218
O O6 0.500000 0.572248 0.000000
O O7 0.738907 0.624090 0.001754
O O8 0.902685 0.880339 0.898250
O O9 0.337305 0.796250 0.678727
O O10 0.856443 0.751781 0.925974
O O11 0.000000 0.815681 0.000000
O O12 0.621131 0.144250 0.636329
O O13 0.000000 0.076989 0.500000
O O14 0.991275 0.082307 0.327849
O O15 0.668315 0.000000 0.600493
O O16 0.557912 0.276043 0.232401
O O17 0.273535 0.000000 0.062651
O O18 0.500000 0.892906 0.000000
#
# Coordination Sequence:
#
# PCOD9152328 Si02
#       7
#     4   4   4   4   4   4   4
#     4   9  18  33  57  86 119 155 198 246 299 361
#     4   9  18  33  57  89 119 153 196 246 299 352
#     4  10  23  39  61  88 120 158 202 258 305 354
#     4  10  22  39  60  86 122 163 203 253 308 365
#     4   9  19  36  56  83 114 155 197 240 290 363
#     4  10  21  37  57  86 118 156 202 250 307 352
#     4  10  24  41  61  89 120 162 211 253 306 371
#
# _framework density 20.162911999999999
#
# number of rings (size 3 to 8) (size 9 to 14) (size 15 to 20)
#    0.000    2.429    0.000    1.286    8.000    2.286 
#    0.000    3.571    0.000    5.571    0.000    0.000 
#    0.000    0.000    0.000    0.000    0.000    0.286 
#
# Total GULP energy -156027.238308 kJ/mol
# GULP energy per Si atom -5572.401368 kJ/mol
# Density = 2.011702 g / cm^3
# Si number density = 20.162912 Si / 1000 Ang^3
#
#
#
# Elastic Constant Matrix: (Units=GPa)
#
#
# Indices 1 2 3 4 5 6 
#
# 1 80.5107 58.5026 50.1322 0.0000 -17.6759 0.0000
# 2 58.5026 151.8554 43.0759 0.0000 -6.1715 0.0000
# 3 50.1322 43.0759 69.6077 0.0000 0.4192 0.0000
# 4 0.0000 0.0000 0.0000 -23.0153 0.0000 21.1014
# 5 -17.6759 -6.1715 0.4192 0.0000 31.5655 0.0000
# 6 0.0000 0.0000 0.0000 21.1014 0.0000 11.1293
#
#
#
# Elastic Compliance Matrix: (Units=1/GPa)
#
#
# Indices 1 2 3 4 5 6 
#
# 1 0.033799 -0.006497 -0.020429 0.000000 0.017928 0.000000
# 2 -0.006497 0.009321 -0.001078 0.000000 -0.001802 0.000000
# 3 -0.020429 -0.001078 0.029819 0.000000 -0.012047 0.000000
# 4 0.000000 0.000000 0.000000 -0.015867 0.000000 0.030084
# 5 0.017928 -0.001802 -0.012047 0.000000 0.041527 0.000000
# 6 0.000000 0.000000 0.000000 0.030084 0.000000 0.032813
#
#
# Mechanical properties :
#
#
# Convention : Reuss Voigt Hill
#
# Bulk Modulus (GPa) = 59.06750 67.26611 63.16681
# Shear Modulus (GPa) = 25.89814 13.95344 19.92579
#
# Velocity S-wave (km/s) = 3.58780 2.63351 3.14704
# Velocity P-wave (km/s) = 6.82069 6.53306 6.67843
#
# Compressibility (1/GPa) = 0.01692978
#
# Stress axis : x y z
#
# Youngs Moduli (GPa) = 29.58679 107.28637 33.53542
#
# Poissons Ratio (x) = 0.69708 0.68511
# Poissons Ratio (y) = 0.19224 0.03614
# Poissons Ratio (z) = 0.60444 0.11563
#
# Static dielectric constant tensor:
#      x y z
#    x 1.678840 0.000000 0.005800 
#    y 0.000000 1.720880 0.000000 
#    z 0.005800 0.000000 1.784510 
# 
# From -- ./inp_files/62323.got.cif
#   From: 2010.05.17/outbox.cif.g08.bks.cpg/sg10_32_cif.got.tgz:62323.got - 2010.06.03 11:33:40.
