data_PCOD9152915
_publ_section_title
;
Structure prediction by ZEFSAII (Michael W. Deem and Ramdas Pophale) SiO2 
 PCOD9152915
Probable space group: P 2/M
;
_chemical_formula_sum "Si O2"
_cell_formula_units_Z 28
_cell_length_a 9.501042
_cell_length_b 13.854918
_cell_length_c 16.992363
_cell_angle_alpha 90.000000
_cell_angle_beta 141.866806
_cell_angle_gamma 90.000000
_cell_volume 1381.211176
_symmetry_space_group_name_H-M "P 2/M"
_symmetry_group_IT_number 10
_symmetry_cell_setting 'monoclinic'
loop_
_space_group_symop_operation_xyz
x,y,z
-x,y,-z
-x,-y,-z
x,-y,z
loop_
_atom_site_type_symbol
_atom_site_label
_atom_site_fract_x
_atom_site_fract_y
_atom_site_fract_z
Si Si1 0.706152 0.613586 0.924822
Si Si2 0.378127 0.887735 0.361689
Si Si3 0.071669 0.689431 0.440395
Si Si4 0.869805 0.104613 0.525725
Si Si5 0.026884 0.283327 0.177753
Si Si6 0.753374 0.393000 0.179380
Si Si7 0.554342 0.611871 0.680463
O O1 0.782583 0.500000 0.957094
O O2 0.495257 0.618884 0.892713
O O3 0.613739 0.637813 0.797178
O O4 0.897921 0.686858 0.040436
O O5 0.500000 0.865984 0.500000
O O6 0.595848 0.882561 0.398107
O O7 0.170903 0.815699 0.249335
O O8 0.304453 0.000000 0.331047
O O9 0.037164 0.798556 0.393805
O O10 0.337299 0.667526 0.553443
O O11 0.000000 0.686322 0.500000
O O12 0.924999 0.614298 0.327998
O O13 0.000000 0.100802 0.500000
O O14 0.904180 0.000000 0.580320
O O15 0.225795 0.363139 0.273892
O O16 0.838545 0.308653 0.159887
O O17 0.768713 0.500000 0.149335
O O18 0.500436 0.500000 0.655786
#
# Coordination Sequence:
#
# PCOD9152915 Si02
#       7
#     4   4   4   4   4   4   4
#     4  10  22  41  60  80 113 165 207 230 277 349
#     4  10  21  39  61  86 117 151 188 235 301 362
#     4  11  20  35  58  85 118 152 190 239 300 351
#     4   9  18  34  57  83 110 142 187 235 281 340
#     4  12  23  37  60  86 116 148 195 246 285 340
#     4  11  23  37  58  85 116 155 198 244 289 339
#     4  11  22  36  57  85 119 158 192 234 289 352
#
# _framework density 20.272065000000001
#
# number of rings (size 3 to 8) (size 9 to 14) (size 15 to 20)
#    0.000    1.429    2.857    3.429    0.000    2.857 
#    0.000    1.429    0.000    5.143    0.000    0.000 
#    0.000    0.000    0.000    0.000    0.000    0.000 
#
# Total GULP energy -156199.261683 kJ/mol
# GULP energy per Si atom -5578.545060 kJ/mol
# Density = 2.022592 g / cm^3
# Si number density = 20.272065 Si / 1000 Ang^3
#
#
#
# Elastic Constant Matrix: (Units=GPa)
#
#
# Indices 1 2 3 4 5 6 
#
# 1 83.6153 21.6889 14.7070 0.0000 22.6065 0.0000
# 2 21.6889 114.3189 60.0366 0.0000 1.8984 0.0000
# 3 14.7070 60.0366 96.8952 0.0000 6.4160 0.0000
# 4 0.0000 0.0000 0.0000 28.7800 0.0000 0.2994
# 5 22.6065 1.8984 6.4160 0.0000 27.5589 0.0000
# 6 0.0000 0.0000 0.0000 0.2994 0.0000 3.3622
#
#
#
# Elastic Compliance Matrix: (Units=1/GPa)
#
#
# Indices 1 2 3 4 5 6 
#
# 1 0.016259 -0.003007 0.000269 0.000000 -0.013193 0.000000
# 2 -0.003007 0.013550 -0.008166 0.000000 0.003434 0.000000
# 3 0.000269 -0.008166 0.015557 0.000000 -0.003280 0.000000
# 4 0.000000 0.000000 0.000000 0.034779 0.000000 -0.003097
# 5 -0.013193 0.003434 -0.003280 0.000000 0.047635 0.000000
# 6 0.000000 0.000000 0.000000 -0.003097 0.000000 0.297703
#
#
# Mechanical properties :
#
#
# Convention : Reuss Voigt Hill
#
# Bulk Modulus (GPa) = 42.45124 54.18828 48.31976
# Shear Modulus (GPa) = 10.98556 25.16666 18.07611
#
# Velocity S-wave (km/s) = 2.33041 3.52724 2.98933
# Velocity P-wave (km/s) = 5.31294 6.58613 5.98349
#
# Compressibility (1/GPa) = 0.02355644
#
# Stress axis : x y z
#
# Youngs Moduli (GPa) = 61.50448 73.80269 64.28069
#
# Poissons Ratio (x) = 0.22191 -0.01727
# Poissons Ratio (y) = 0.18493 0.52494
# Poissons Ratio (z) = -0.01653 0.60271
#
# Static dielectric constant tensor:
#      x y z
#    x 1.792100 0.000000 -0.013250 
#    y 0.000000 1.728870 0.000000 
#    z -0.013250 0.000000 1.710680 
# 
# From -- ./inp_files/75316.got.cif
#   From: 2010.05.17/outbox.cif.g08.bks.cpg/sg10_38_cif.got.tgz:75316.got - 2010.06.03 11:33:40.
