data_PCOD9152230
_publ_section_title
;
Structure prediction by ZEFSAII (Michael W. Deem and Ramdas Pophale) SiO2 
 PCOD9152230
Probable space group: P 2/M
;
_chemical_formula_sum "Si O2"
_cell_formula_units_Z 28
_cell_length_a 8.333179
_cell_length_b 7.735331
_cell_length_c 25.253723
_cell_angle_alpha 90.000000
_cell_angle_beta 136.250606
_cell_angle_gamma 90.000000
_cell_volume 1125.668754
_symmetry_space_group_name_H-M "P 2/M"
_symmetry_group_IT_number 10
_symmetry_cell_setting 'monoclinic'
loop_
_space_group_symop_operation_xyz
x,y,z
-x,y,-z
-x,-y,-z
x,-y,z
loop_
_atom_site_type_symbol
_atom_site_label
_atom_site_fract_x
_atom_site_fract_y
_atom_site_fract_z
Si Si1 0.684206 0.801405 0.245029
Si Si2 0.698957 0.293771 0.472554
Si Si3 0.929116 0.207871 0.043287
Si Si4 0.168493 0.706828 0.382950
Si Si5 0.446641 0.295617 0.669796
Si Si6 0.058874 0.300322 0.184853
Si Si7 0.443533 0.204432 0.896827
O O1 0.645704 0.719360 0.292905
O O2 0.563635 0.722905 0.164629
O O3 0.960705 0.791432 0.301473
O O4 0.610161 0.000000 0.232410
O O5 0.753383 0.500000 0.485735
O O6 0.827820 0.225722 0.555381
O O7 0.425395 0.270891 0.421006
O O8 0.714875 0.226845 0.416269
O O9 0.078541 0.287757 0.125892
O O10 0.946519 0.000000 0.054707
O O11 0.660666 0.268721 0.982459
O O12 0.000000 0.246392 0.000000
O O13 0.127509 0.500000 0.373271
O O14 0.467633 0.500000 0.663496
O O15 0.709014 0.223222 0.734057
O O16 0.045429 0.500000 0.197792
O O17 0.810917 0.221649 0.139754
O O18 0.488770 0.000000 0.902030
#
# Coordination Sequence:
#
# PCOD9152230 Si02
#       7
#     4   4   4   4   4   4   4
#     4  11  23  37  54  80 111 143 182 226 272 320
#     4   8  16  33  58  82 104 140 187 223 260 324
#     4  10  21  39  61  82 110 150 188 218 258 321
#     4   9  17  34  59  82 106 140 182 226 270 320
#     4  10  21  37  55  78 109 144 181 221 270 326
#     4  11  23  37  58  87 113 138 177 231 280 317
#     4  10  22  39  58  79 107 147 188 220 260 324
#
# _framework density 24.874103000000002
#
# number of rings (size 3 to 8) (size 9 to 14) (size 15 to 20)
#    0.000    2.143    0.000    3.857    0.000    7.714 
#    0.000    5.714    0.000    0.000    0.000    0.000 
#    0.000    0.000    0.000    0.000    0.000    0.000 
#
# Total GULP energy -156496.419528 kJ/mol
# GULP energy per Si atom -5589.157840 kJ/mol
# Density = 2.481749 g / cm^3
# Si number density = 24.874103 Si / 1000 Ang^3
#
#
#
# Elastic Constant Matrix: (Units=GPa)
#
#
# Indices 1 2 3 4 5 6 
#
# 1 63.0350 -9.1410 -3.5863 0.0000 -10.9982 0.0000
# 2 -9.1410 34.6086 -1.0708 0.0000 -1.1411 0.0000
# 3 -3.5863 -1.0708 105.6968 0.0000 -16.4411 0.0000
# 4 0.0000 0.0000 0.0000 18.7974 0.0000 -0.6157
# 5 -10.9982 -1.1411 -16.4411 0.0000 45.4311 0.0000
# 6 0.0000 0.0000 0.0000 -0.6157 0.0000 21.5518
#
#
#
# Elastic Compliance Matrix: (Units=1/GPa)
#
#
# Indices 1 2 3 4 5 6 
#
# 1 0.017492 0.004824 0.001399 0.000000 0.004862 0.000000
# 2 0.004824 0.030267 0.000816 0.000000 0.002223 0.000000
# 3 0.001399 0.000816 0.010144 0.000000 0.004030 0.000000
# 4 0.000000 0.000000 0.000000 0.053249 0.000000 0.001521
# 5 0.004862 0.002223 0.004030 0.000000 0.024703 0.000000
# 6 0.000000 0.000000 0.000000 0.001521 0.000000 0.046443
#
#
# Mechanical properties :
#
#
# Convention : Reuss Voigt Hill
#
# Bulk Modulus (GPa) = 13.89298 19.52712 16.71005
# Shear Modulus (GPa) = 26.01280 31.63198 28.82239
#
# Velocity S-wave (km/s) = 3.23736 3.56994 3.40771
# Velocity P-wave (km/s) = 4.42396 4.98598 4.71336
#
# Compressibility (1/GPa) = 0.07197882
#
# Stress axis : x y z
#
# Youngs Moduli (GPa) = 57.17052 33.03916 98.58427
#
# Poissons Ratio (x) = -0.15937 -0.13788
# Poissons Ratio (y) = -0.27576 -0.08046
# Poissons Ratio (z) = -0.07996 -0.02696
#
# Static dielectric constant tensor:
#      x y z
#    x 2.035450 0.000000 -0.000360 
#    y 0.000000 1.921040 0.000000 
#    z -0.000360 0.000000 1.974340 
# 
# From -- ./inp_files/37076.got.cif
#   From: 2010.05.17/outbox.cif.g08.bks.cpg/sg10_19_cif.got.tgz:37076.got - 2010.06.03 11:33:40.
