data_PCOD9152926
_publ_section_title
;
Structure prediction by ZEFSAII (Michael W. Deem and Ramdas Pophale) SiO2 
 PCOD9152926
Probable space group: P 2/M
;
_chemical_formula_sum "Si O2"
_cell_formula_units_Z 18
_cell_length_a 9.489911
_cell_length_b 8.432942
_cell_length_c 11.213817
_cell_angle_alpha 90.000000
_cell_angle_beta 120.121091
_cell_angle_gamma 90.000000
_cell_volume 776.236628
_symmetry_space_group_name_H-M "P 2/M"
_symmetry_group_IT_number 10
_symmetry_cell_setting 'monoclinic'
loop_
_space_group_symop_operation_xyz
x,y,z
-x,y,-z
-x,-y,-z
x,-y,z
loop_
_atom_site_type_symbol
_atom_site_label
_atom_site_fract_x
_atom_site_fract_y
_atom_site_fract_z
Si Si1 0.000000 0.759297 0.500000
Si Si2 0.328384 0.823670 0.771262
Si Si3 0.140044 0.815043 0.330490
Si Si4 0.375995 0.311968 0.247037
Si Si5 0.833788 0.315084 0.075933
O O1 0.152399 0.834328 0.633656
O O2 0.096360 0.699248 0.423199
O O3 0.454399 0.751428 0.731586
O O4 0.297903 0.718897 0.875698
O O5 0.381312 0.000000 0.828048
O O6 0.305339 0.770724 0.334112
O O7 0.990764 0.788717 0.175186
O O8 0.143625 0.000000 0.370792
O O9 0.384291 0.500000 0.269364
O O10 0.248267 0.280911 0.085004
O O11 0.881359 0.500000 0.098277
#
# Coordination Sequence:
#
# PCOD9152926 Si02
#       5
#     2   4   4   4   4
#     4  10  23  44  63  84 115 154 197 246 303 348
#     4  11  22  39  64  89 117 155 200 244 288 348
#     4  11  22  39  64  89 117 155 200 244 288 348
#     4  11  24  40  58  88 126 157 191 241 300 349
#     4  10  21  39  61  87 124 161 190 234 298 354
#
# _framework density 23.188806
#
# number of rings (size 3 to 8) (size 9 to 14) (size 15 to 20)
#    0.000    1.333    0.000    7.333    0.000    9.778 
#    0.000   23.333    0.000    0.000    0.000    0.000 
#    0.000    0.000    0.000    0.000    0.000    0.000 
#
# Total GULP energy -100489.541284 kJ/mol
# GULP energy per Si atom -5582.752294 kJ/mol
# Density = 2.313603 g / cm^3
# Si number density = 23.188806 Si / 1000 Ang^3
#
#
#
# Elastic Constant Matrix: (Units=GPa)
#
#
# Indices 1 2 3 4 5 6 
#
# 1 178.3535 22.4963 18.1740 0.0000 -35.4415 0.0000
# 2 22.4963 51.4299 24.6415 0.0000 -8.5052 0.0000
# 3 18.1740 24.6415 51.1082 0.0000 -13.5690 0.0000
# 4 0.0000 0.0000 0.0000 5.2397 0.0000 16.0449
# 5 -35.4415 -8.5052 -13.5690 0.0000 29.7873 0.0000
# 6 0.0000 0.0000 0.0000 16.0449 0.0000 0.6342
#
#
#
# Elastic Compliance Matrix: (Units=1/GPa)
#
#
# Indices 1 2 3 4 5 6 
#
# 1 0.007532 -0.002186 0.000670 0.000000 0.008642 0.000000
# 2 -0.002186 0.026014 -0.011926 0.000000 -0.000606 0.000000
# 3 0.000670 -0.011926 0.027741 0.000000 0.010029 0.000000
# 4 0.000000 0.000000 0.000000 -0.002496 0.000000 0.063140
# 5 0.008642 -0.000606 0.010029 0.000000 0.048250 0.000000
# 6 0.000000 0.000000 0.000000 0.063140 0.000000 -0.020619
#
#
# Mechanical properties :
#
#
# Convention : Reuss Voigt Hill
#
# Bulk Modulus (GPa) = 29.06770 45.72390 37.39580
# Shear Modulus (GPa) = 40.07281 21.50423 30.78852
#
# Velocity S-wave (km/s) = 4.16156 3.04855 3.64776
# Velocity P-wave (km/s) = 5.97109 5.67031 5.82264
#
# Compressibility (1/GPa) = 0.03440244
#
# Stress axis : x y z
#
# Youngs Moduli (GPa) = 132.77218 38.44061 36.04817
#
# Poissons Ratio (x) = 0.08405 -0.02417
# Poissons Ratio (y) = 0.29031 0.42991
# Poissons Ratio (z) = -0.08902 0.45844
#
# Static dielectric constant tensor:
#      x y z
#    x 1.891630 0.000000 -0.019200 
#    y 0.000000 1.813140 0.000000 
#    z -0.019200 0.000000 1.871680 
# 
# From -- ./inp_files/40935.got.cif
#   From: 2010.05.17/outbox.cif.g08.bks.cpg/sg10_21_cif.got.tgz:40935.got - 2010.06.03 11:33:40.
