data_PCOD9152940
_publ_section_title
;
Structure prediction by ZEFSAII (Michael W. Deem and Ramdas Pophale) SiO2 
 PCOD9152940
Probable space group: P 2/M
;
_chemical_formula_sum "Si O2"
_cell_formula_units_Z 28
_cell_length_a 12.852372
_cell_length_b 8.769086
_cell_length_c 14.903402
_cell_angle_alpha 90.000000
_cell_angle_beta 59.037809
_cell_angle_gamma 90.000000
_cell_volume 1440.325661
_symmetry_space_group_name_H-M "P 2/M"
_symmetry_group_IT_number 10
_symmetry_cell_setting 'monoclinic'
loop_
_space_group_symop_operation_xyz
x,y,z
-x,y,-z
-x,-y,-z
x,-y,z
loop_
_atom_site_type_symbol
_atom_site_label
_atom_site_fract_x
_atom_site_fract_y
_atom_site_fract_z
Si Si1 0.945798 0.177625 0.924722
Si Si2 0.978406 0.683304 0.611322
Si Si3 0.275637 0.182262 0.212016
Si Si4 0.859950 0.316741 0.296494
Si Si5 0.311230 0.680812 0.003236
Si Si6 0.583383 0.315767 0.379296
Si Si7 0.495496 0.182401 0.776102
O O1 0.047319 0.234904 0.811123
O O2 0.824796 0.275808 0.966935
O O3 0.915973 0.000000 0.920844
O O4 0.000000 0.191192 0.000000
O O5 0.961610 0.500000 0.618273
O O6 0.857879 0.755891 0.706922
O O7 0.000000 0.734771 0.500000
O O8 0.093109 0.716835 0.624067
O O9 0.323762 0.252721 0.097761
O O10 0.369391 0.222086 0.249757
O O11 0.271941 0.000000 0.204371
O O12 0.869063 0.500000 0.279557
O O13 0.722388 0.270875 0.337311
O O14 0.327368 0.500000 0.997673
O O15 0.403541 0.754290 0.891807
O O16 0.500000 0.268610 0.500000
O O17 0.579473 0.500000 0.375335
O O18 0.537016 0.249488 0.306173
O O19 0.484803 0.000000 0.777941
#
# Coordination Sequence:
#
# PCOD9152940 Si02
#       7
#     4   4   4   4   4   4   4
#     4  11  23  38  60  90 125 166 205 249 308 369
#     4  10  22  39  64  95 126 164 206 255 311 369
#     4  11  24  42  64  93 128 165 207 258 312 372
#     4  10  21  39  61  92 126 160 206 257 306 358
#     4  12  24  40  64  94 125 162 207 256 312 374
#     4  10  23  42  66  94 126 166 212 261 309 365
#     4  11  25  43  63  91 128 167 209 258 312 371
#
# _framework density 19.440047
#
# number of rings (size 3 to 8) (size 9 to 14) (size 15 to 20)
#    0.000    1.286    1.429    3.857    2.000    8.571 
#    0.000    0.000    0.000    0.000    0.000    0.000 
#    0.000    0.000    0.000    0.000    0.000    0.000 
#
# Total GULP energy -156604.737382 kJ/mol
# GULP energy per Si atom -5593.026335 kJ/mol
# Density = 1.939580 g / cm^3
# Si number density = 19.440047 Si / 1000 Ang^3
#
#
#
# Elastic Constant Matrix: (Units=GPa)
#
#
# Indices 1 2 3 4 5 6 
#
# 1 136.8422 34.7050 40.9288 0.0000 16.4009 0.0000
# 2 34.7050 31.3336 17.1732 0.0000 9.4304 0.0000
# 3 40.9288 17.1732 88.7928 0.0000 22.6365 0.0000
# 4 0.0000 0.0000 0.0000 70.7790 0.0000 -1.8686
# 5 16.4009 9.4304 22.6365 0.0000 35.3076 0.0000
# 6 0.0000 0.0000 0.0000 -1.8686 0.0000 27.4801
#
#
#
# Elastic Compliance Matrix: (Units=1/GPa)
#
#
# Indices 1 2 3 4 5 6 
#
# 1 0.010833 -0.010282 -0.002895 0.000000 -0.000430 0.000000
# 2 -0.010282 0.046595 -0.002770 0.000000 -0.005893 0.000000
# 3 -0.002895 -0.002770 0.015063 0.000000 -0.007573 0.000000
# 4 0.000000 0.000000 0.000000 0.014154 0.000000 0.000962
# 5 -0.000430 -0.005893 -0.007573 0.000000 0.034951 0.000000
# 6 0.000000 0.000000 0.000000 0.000962 0.000000 0.036455
#
#
# Mechanical properties :
#
#
# Convention : Reuss Voigt Hill
#
# Bulk Modulus (GPa) = 24.63301 49.17586 36.90443
# Shear Modulus (GPa) = 24.57270 37.65744 31.11507
#
# Velocity S-wave (km/s) = 3.55917 4.40603 4.00505
# Velocity P-wave (km/s) = 5.43958 7.15788 6.35705
#
# Compressibility (1/GPa) = 0.04059594
#
# Stress axis : x y z
#
# Youngs Moduli (GPa) = 92.31185 21.46154 66.38813
#
# Poissons Ratio (x) = 0.22068 0.19221
# Poissons Ratio (y) = 0.94918 0.18389
# Poissons Ratio (z) = 0.26726 0.05945
#
# Static dielectric constant tensor:
#      x y z
#    x 1.677000 0.000000 0.011000 
#    y 0.000000 1.656700 0.000000 
#    z 0.011000 0.000000 1.636530 
# 
# From -- ./inp_files/63657.got.cif
#   From: 2010.05.17/outbox.cif.g08.bks.cpg/sg10_32_cif.got.tgz:63657.got - 2010.06.03 11:33:40.
