data_PCOD9152698
_publ_section_title
;
Structure prediction by ZEFSAII (Michael W. Deem and Ramdas Pophale) SiO2 
 PCOD9152698
Probable space group: P 2/M
;
_chemical_formula_sum "Si O2"
_cell_formula_units_Z 32
_cell_length_a 7.988828
_cell_length_b 13.995339
_cell_length_c 22.546083
_cell_angle_alpha 90.000000
_cell_angle_beta 144.385539
_cell_angle_gamma 90.000000
_cell_volume 1467.930167
_symmetry_space_group_name_H-M "P 2/M"
_symmetry_group_IT_number 10
_symmetry_cell_setting 'monoclinic'
loop_
_space_group_symop_operation_xyz
x,y,z
-x,y,-z
-x,-y,-z
x,-y,z
loop_
_atom_site_type_symbol
_atom_site_label
_atom_site_fract_x
_atom_site_fract_y
_atom_site_fract_z
Si Si1 0.345433 0.604420 0.275838
Si Si2 0.190724 0.605907 0.495910
Si Si3 0.277699 0.196701 0.214180
Si Si4 0.228144 0.609148 0.824700
Si Si5 0.482658 0.894232 0.829515
Si Si6 0.175700 0.109734 0.315633
Si Si7 0.791601 0.272008 0.989489
Si Si8 0.800659 0.704570 0.607457
O O1 0.422439 0.500000 0.273136
O O2 0.492687 0.612039 0.383007
O O3 0.423025 0.699730 0.264361
O O4 0.003736 0.607599 0.188877
O O5 0.154838 0.500000 0.457077
O O6 0.078540 0.693546 0.424126
O O7 0.000000 0.604428 0.500000
O O8 0.468271 0.133133 0.224978
O O9 0.218070 0.146567 0.260254
O O10 0.979336 0.225855 0.095858
O O11 0.282004 0.500000 0.822449
O O12 0.523121 0.660588 0.926673
O O13 0.049763 0.662667 0.721266
O O14 0.655503 0.816927 0.915800
O O15 0.157051 0.892213 0.759357
O O16 0.598235 0.000000 0.872721
O O17 0.292979 0.194952 0.391141
O O18 0.284241 0.000000 0.353143
O O19 0.000000 0.320177 0.000000
O O20 0.500000 0.651624 0.500000
#
# Coordination Sequence:
#
# PCOD9152698 Si02
#       8
#     4   4   4   4   4   4   4   4
#     4  10  21  38  60  92 128 166 216 266 317 386
#     4  10  22  37  60  94 125 162 214 267 319 382
#     4  11  22  41  66  90 132 174 216 266 329 393
#     4  11  22  39  62  93 132 173 220 266 322 392
#     4  10  22  41  65  94 127 168 220 275 329 385
#     4  11  24  42  66  98 131 169 222 273 330 398
#     4  10  23  40  63  95 133 172 220 273 327 392
#     4  12  22  41  67  92 125 168 215 271 327 388
#
# _framework density 21.799402000000001
#
# number of rings (size 3 to 8) (size 9 to 14) (size 15 to 20)
#    0.000    1.375    3.750    0.750    1.750    6.250 
#    0.000    5.625    0.000    0.375    0.000    0.000 
#    0.000    0.000    0.000    0.000    0.000    0.000 
#
# Total GULP energy -178351.891060 kJ/mol
# GULP energy per Si atom -5573.496596 kJ/mol
# Density = 2.174979 g / cm^3
# Si number density = 21.799402 Si / 1000 Ang^3
#
#
#
# Elastic Constant Matrix: (Units=GPa)
#
#
# Indices 1 2 3 4 5 6 
#
# 1 78.0374 34.7537 20.5834 0.0000 -2.3795 0.0000
# 2 34.7537 123.9845 11.4016 0.0000 -10.4642 0.0000
# 3 20.5834 11.4016 43.5818 0.0000 1.5624 0.0000
# 4 0.0000 0.0000 0.0000 21.1769 0.0000 -0.9848
# 5 -2.3795 -10.4642 1.5624 0.0000 35.2967 0.0000
# 6 0.0000 0.0000 0.0000 -0.9848 0.0000 27.1149
#
#
#
# Elastic Compliance Matrix: (Units=1/GPa)
#
#
# Indices 1 2 3 4 5 6 
#
# 1 0.016345 -0.003947 -0.006695 0.000000 0.000228 0.000000
# 2 -0.003947 0.009453 -0.000701 0.000000 0.002567 0.000000
# 3 -0.006695 -0.000701 0.026356 0.000000 -0.001826 0.000000
# 4 0.000000 0.000000 0.000000 0.047301 0.000000 0.001718
# 5 0.000228 0.002567 -0.001826 0.000000 0.029189 0.000000
# 6 0.000000 0.000000 0.000000 0.001718 0.000000 0.036942
#
#
# Mechanical properties :
#
#
# Convention : Reuss Voigt Hill
#
# Bulk Modulus (GPa) = 33.93489 42.12013 38.02751
# Shear Modulus (GPa) = 25.24038 28.64203 26.94121
#
# Velocity S-wave (km/s) = 3.40641 3.62870 3.51931
# Velocity P-wave (km/s) = 5.57424 6.07620 5.83062
#
# Compressibility (1/GPa) = 0.02946820
#
# Stress axis : x y z
#
# Youngs Moduli (GPa) = 61.18114 105.78703 37.94151
#
# Poissons Ratio (x) = 0.41750 0.25403
# Poissons Ratio (y) = 0.24146 0.02660
# Poissons Ratio (z) = 0.40963 0.07417
#
# Static dielectric constant tensor:
#      x y z
#    x 2.382930 0.000000 -0.017430 
#    y 0.000000 1.837860 0.000000 
#    z -0.017430 0.000000 1.840150 
# 
# From -- ./inp_files/88288.got.cif
#   From: 2010.05.17/outbox.cif.g08.bks.cpg/sg10_45_cif.got.tgz:88288.got - 2010.06.03 11:33:40.
