data_PCOD9152274
_publ_section_title
;
Structure prediction by ZEFSAII (Michael W. Deem and Ramdas Pophale) SiO2 
 PCOD9152274
Probable space group: P 2/M
;
_chemical_formula_sum "Si O2"
_cell_formula_units_Z 32
_cell_length_a 15.091831
_cell_length_b 9.257008
_cell_length_c 23.157506
_cell_angle_alpha 90.000000
_cell_angle_beta 150.152514
_cell_angle_gamma 90.000000
_cell_volume 1610.148290
_symmetry_space_group_name_H-M "P 2/M"
_symmetry_group_IT_number 10
_symmetry_cell_setting 'monoclinic'
loop_
_space_group_symop_operation_xyz
x,y,z
-x,y,-z
-x,-y,-z
x,-y,z
loop_
_atom_site_type_symbol
_atom_site_label
_atom_site_fract_x
_atom_site_fract_y
_atom_site_fract_z
Si Si1 0.688228 0.829990 0.437747
Si Si2 0.826409 0.829257 0.020072
Si Si3 0.932803 0.169804 0.400143
Si Si4 0.151038 0.662302 0.160055
Si Si5 0.502203 0.669433 0.567822
Si Si6 0.418596 0.331906 0.203589
Si Si7 0.743170 0.328761 0.084046
Si Si8 0.677374 0.329540 0.175257
O O1 0.621710 0.762086 0.460064
O O2 0.583714 0.746571 0.327607
O O3 0.898045 0.814168 0.546433
O O4 0.643678 0.000000 0.409691
O O5 0.846606 0.764225 0.095629
O O6 0.999833 0.779878 0.082508
O O7 0.804687 0.000000 0.008422
O O8 0.658857 0.751862 0.894830
O O9 0.765092 0.247484 0.277673
O O10 0.000000 0.225583 0.500000
O O11 0.892307 0.000000 0.384274
O O12 0.071587 0.500000 0.118566
O O13 0.299312 0.678030 0.293686
O O14 0.262328 0.671789 0.163891
O O15 0.500000 0.714068 0.500000
O O16 0.448957 0.500000 0.541228
O O17 0.456582 0.500000 0.212165
O O18 0.782137 0.500000 0.099882
O O19 0.765998 0.287074 0.163875
O O20 0.533316 0.308056 0.951647
O O21 0.706112 0.500000 0.198709
#
# Coordination Sequence:
#
# PCOD9152274 Si02
#       8
#     4   4   4   4   4   4   4   4
#     4  10  21  37  56  83 117 152 190 234 287 344
#     4  12  24  34  53  85 115 147 188 228 276 342
#     4  10  23  40  58  85 124 160 189 233 293 351
#     4   9  19  36  55  78 110 148 187 230 281 329
#     4   9  19  37  60  83 110 149 193 235 284 340
#     4  10  21  38  59  80 110 149 188 234 284 334
#     4   9  20  40  61  84 114 147 188 241 294 336
#     4   9  20  40  64  86 110 145 194 245 286 335
#
# _framework density 19.873946
#
# number of rings (size 3 to 8) (size 9 to 14) (size 15 to 20)
#    0.000    2.250    0.000    3.750    1.750    7.500 
#    0.000    5.000    0.000    0.000    0.000    0.000 
#    0.000    0.000    0.000    0.000    0.000    0.000 
#
# Total GULP energy -178779.261595 kJ/mol
# GULP energy per Si atom -5586.851925 kJ/mol
# Density = 1.982871 g / cm^3
# Si number density = 19.873946 Si / 1000 Ang^3
#
#
#
# Elastic Constant Matrix: (Units=GPa)
#
#
# Indices 1 2 3 4 5 6 
#
# 1 38.1271 21.5696 20.9644 0.0000 -18.1649 0.0000
# 2 21.5696 74.2942 26.5334 0.0000 -2.6743 0.0000
# 3 20.9644 26.5334 51.4502 0.0000 -22.8793 0.0000
# 4 0.0000 0.0000 0.0000 -7.1376 0.0000 -21.0123
# 5 -18.1649 -2.6743 -22.8793 0.0000 28.5452 0.0000
# 6 0.0000 0.0000 0.0000 -21.0123 0.0000 3.7360
#
#
#
# Elastic Compliance Matrix: (Units=1/GPa)
#
#
# Indices 1 2 3 4 5 6 
#
# 1 0.047090 -0.012722 0.000262 0.000000 0.028984 0.000000
# 2 -0.012722 0.021269 -0.013206 0.000000 -0.016687 0.000000
# 3 0.000262 -0.013206 0.039877 0.000000 0.030891 0.000000
# 4 0.000000 0.000000 0.000000 -0.007980 0.000000 -0.044881
# 5 0.028984 -0.016687 0.030891 0.000000 0.076672 0.000000
# 6 0.000000 0.000000 0.000000 -0.044881 0.000000 0.015245
#
#
# Mechanical properties :
#
#
# Convention : Reuss Voigt Hill
#
# Bulk Modulus (GPa) = 17.57324 33.55629 25.56477
# Shear Modulus (GPa) = 19.04957 11.34900 15.19928
#
# Velocity S-wave (km/s) = 3.09936 2.39226 2.76847
# Velocity P-wave (km/s) = 4.65506 4.95497 4.80735
#
# Compressibility (1/GPa) = 0.05690469
#
# Stress axis : x y z
#
# Youngs Moduli (GPa) = 21.23593 47.01669 25.07724
#
# Poissons Ratio (x) = 0.59813 -0.00656
# Poissons Ratio (y) = 0.27016 0.33116
# Poissons Ratio (z) = -0.00556 0.62089
#
# Static dielectric constant tensor:
#      x y z
#    x 1.729350 0.000000 0.000540 
#    y 0.000000 1.665410 0.000000 
#    z 0.000540 0.000000 1.698940 
# 
# From -- ./inp_files/89557.got.cif
#   From: 2010.05.17/outbox.cif.g08.bks.cpg/sg10_45_cif.got.tgz:89557.got - 2010.06.03 11:33:40.
