data_PCOD9152648
_publ_section_title
;
Structure prediction by ZEFSAII (Michael W. Deem and Ramdas Pophale) SiO2 
 PCOD9152648
Probable space group: P 2/M
;
_chemical_formula_sum "Si O2"
_cell_formula_units_Z 32
_cell_length_a 14.572423
_cell_length_b 7.611893
_cell_length_c 14.903271
_cell_angle_alpha 90.000000
_cell_angle_beta 59.114263
_cell_angle_gamma 90.000000
_cell_volume 1418.700977
_symmetry_space_group_name_H-M "P 2/M"
_symmetry_group_IT_number 10
_symmetry_cell_setting 'monoclinic'
loop_
_space_group_symop_operation_xyz
x,y,z
-x,y,-z
-x,-y,-z
x,-y,z
loop_
_atom_site_type_symbol
_atom_site_label
_atom_site_fract_x
_atom_site_fract_y
_atom_site_fract_z
Si Si1 0.842688 0.715660 0.824534
Si Si2 0.723003 0.802705 0.534927
Si Si3 0.910246 0.292834 0.979170
Si Si4 0.620453 0.784650 0.412322
Si Si5 0.450497 0.706334 0.254451
Si Si6 0.893457 0.707332 0.598235
Si Si7 0.388397 0.286017 0.092648
Si Si8 0.317154 0.209930 0.820127
O O1 0.844623 0.500000 0.823114
O O2 0.873150 0.776425 0.709093
O O3 0.719335 0.770036 0.900778
O O4 0.907847 0.777513 0.878439
O O5 0.704701 0.723081 0.445977
O O6 0.602890 0.804050 0.636010
O O7 0.798356 0.721630 0.573197
O O8 0.762951 0.000000 0.503437
O O9 0.933306 0.500000 0.958462
O O10 0.792961 0.276231 0.082452
O O11 0.000000 0.216182 0.000000
O O12 0.500000 0.728091 0.500000
O O13 0.657460 0.729516 0.294631
O O14 0.620201 0.000000 0.414337
O O15 0.432820 0.500000 0.277623
O O16 0.387552 0.761951 0.197359
O O17 0.576164 0.736194 0.179681
O O18 0.910755 0.500000 0.603372
O O19 0.000000 0.783249 0.500000
O O20 0.391287 0.500000 0.087531
O O21 0.500000 0.219265 0.000000
O O22 0.311497 0.000000 0.821926
#
# Coordination Sequence:
#
# PCOD9152648 Si02
#       8
#     4   4   4   4   4   4   4   4
#     4   9  17  34  57  82 115 152 186 228 291 350
#     4  11  21  36  58  82 114 153 192 235 285 342
#     4  10  22  40  62  86 114 152 198 244 289 340
#     4   9  18  35  56  79 114 160 194 223 289 364
#     4  11  20  33  56  85 117 150 190 235 284 342
#     4  10  21  38  60  85 114 152 195 238 286 342
#     4   9  16  27  50  79 107 146 186 217 269 344
#     4  11  22  38  60  85 116 155 197 241 289 345
#
# _framework density 22.555847
#
# number of rings (size 3 to 8) (size 9 to 14) (size 15 to 20)
#    0.000    2.000    2.500    1.875    0.000    3.500 
#    0.000    5.000    0.000    1.500    0.000    0.000 
#    0.000    0.000    0.000    0.000    0.000    0.000 
#
# Total GULP energy -178655.687998 kJ/mol
# GULP energy per Si atom -5582.990250 kJ/mol
# Density = 2.250451 g / cm^3
# Si number density = 22.555847 Si / 1000 Ang^3
#
#
#
# Elastic Constant Matrix: (Units=GPa)
#
#
# Indices 1 2 3 4 5 6 
#
# 1 156.0267 -1.0289 59.5298 0.0000 20.8130 0.0000
# 2 -1.0289 43.2236 0.4862 0.0000 9.0360 0.0000
# 3 59.5298 0.4862 92.4267 0.0000 14.8555 0.0000
# 4 0.0000 0.0000 0.0000 23.2151 0.0000 -16.6238
# 5 20.8130 9.0360 14.8555 0.0000 38.6744 0.0000
# 6 0.0000 0.0000 0.0000 -16.6238 0.0000 45.0473
#
#
#
# Elastic Compliance Matrix: (Units=1/GPa)
#
#
# Indices 1 2 3 4 5 6 
#
# 1 0.008788 0.000882 -0.005192 0.000000 -0.002941 0.000000
# 2 0.000882 0.024473 0.000318 0.000000 -0.006315 0.000000
# 3 -0.005192 0.000318 0.014628 0.000000 -0.002899 0.000000
# 4 0.000000 0.000000 0.000000 0.058547 0.000000 0.021606
# 5 -0.002941 -0.006315 -0.002899 0.000000 0.030029 0.000000
# 6 0.000000 0.000000 0.000000 0.021606 0.000000 0.030172
#
#
# Mechanical properties :
#
#
# Convention : Reuss Voigt Hill
#
# Bulk Modulus (GPa) = 25.05922 45.51681 35.28801
# Shear Modulus (GPa) = 26.60673 36.90001 31.75337
#
# Velocity S-wave (km/s) = 3.43825 4.04906 3.75609
# Velocity P-wave (km/s) = 5.18614 6.48716 5.87279
#
# Compressibility (1/GPa) = 0.03990547
#
# Stress axis : x y z
#
# Youngs Moduli (GPa) = 113.78680 40.86120 68.36275
#
# Poissons Ratio (x) = -0.03606 0.35496
# Poissons Ratio (y) = -0.10041 -0.02173
# Poissons Ratio (z) = 0.59081 -0.01299
#
# Static dielectric constant tensor:
#      x y z
#    x 1.837590 0.000000 0.017110 
#    y 0.000000 1.831680 0.000000 
#    z 0.017110 0.000000 1.854980 
# 
# From -- ./inp_files/66538.got.cif
#   From: 2010.05.17/outbox.cif.g08.bks.cpg/sg10_34_cif.got.tgz:66538.got - 2010.06.03 11:33:40.
