data_PCOD9152603
_publ_section_title
;
Structure prediction by ZEFSAII (Michael W. Deem and Ramdas Pophale) SiO2 
 PCOD9152603
Probable space group: P 2/M
;
_chemical_formula_sum "Si O2"
_cell_formula_units_Z 28
_cell_length_a 8.774970
_cell_length_b 12.888199
_cell_length_c 15.314704
_cell_angle_alpha 90.000000
_cell_angle_beta 106.647835
_cell_angle_gamma 90.000000
_cell_volume 1659.395637
_symmetry_space_group_name_H-M "P 2/M"
_symmetry_group_IT_number 10
_symmetry_cell_setting 'monoclinic'
loop_
_space_group_symop_operation_xyz
x,y,z
-x,y,-z
-x,-y,-z
x,-y,z
loop_
_atom_site_type_symbol
_atom_site_label
_atom_site_fract_x
_atom_site_fract_y
_atom_site_fract_z
Si Si1 0.618265 0.000000 0.601740
Si Si2 0.129882 0.123862 0.896324
Si Si3 0.016525 0.000000 0.398260
Si Si4 0.536850 0.805588 0.712052
Si Si5 0.018258 0.378576 0.400136
Si Si6 0.175202 0.805588 0.712052
Si Si7 0.381877 0.621424 0.400135
Si Si8 0.766442 0.876138 0.896324
O O1 0.500000 0.000000 0.500000
O O2 0.587198 0.101112 0.655732
O O3 0.799260 0.000000 0.598519
O O4 0.180219 0.180728 0.817036
O O5 0.942306 0.140161 0.884613
O O6 0.151749 0.000000 0.887388
O O7 0.222198 0.153525 1.000000
O O8 0.931465 0.101112 0.344268
O O9 0.000000 0.000000 0.500000
O O10 0.350704 0.813423 0.701408
O O11 0.577309 0.698181 0.671297
O O12 0.636817 0.819272 0.817036
O O13 0.978743 0.500000 0.380532
O O14 0.200915 0.362588 0.401830
O O15 0.000000 0.355854 0.500000
O O16 0.906012 0.301820 0.328703
O O17 0.500000 0.644146 0.500000
O O18 0.401789 0.500000 0.380532
O O19 0.735639 0.000000 0.887388
#
# Coordination Sequence:
#
# PCOD9152603 Si02
#       8
#     2   4   2   4   4   4   4   4
#     4  12  24  38  53  74 109 146 182 221 267 323
#     4   9  18  34  56  80 108 144 183 223 268 321
#     4  12  24  38  53  74 109 146 182 221 267 323
#     4  12  23  35  54  82 113 144 179 221 273 325
#     4  10  21  38  59  81 107 143 186 228 270 319
#     4  12  23  35  54  82 113 144 179 221 273 325
#     4  10  21  38  59  81 107 143 186 228 270 319
#     4   9  18  34  56  80 108 144 183 223 268 321
#
# _framework density 16.873614
#
# number of rings (size 3 to 8) (size 9 to 14) (size 15 to 20)
#    0.000    1.429    1.429    6.429    0.000    2.286 
#    0.000    1.429    0.000    0.857    0.000    6.000 
#    0.000    0.000    0.000    0.000    0.000    0.000 
#
# Total GULP energy -156488.518567 kJ/mol
# GULP energy per Si atom -5588.875663 kJ/mol
# Density = 1.683521 g / cm^3
# Si number density = 16.873614 Si / 1000 Ang^3
#
#
#
# Elastic Constant Matrix: (Units=GPa)
#
#
# Indices 1 2 3 4 5 6 
#
# 1 130.1491 63.4315 81.1784 0.0000 -0.4127 0.0000
# 2 63.4315 71.2332 68.3780 0.0000 -0.1071 0.0000
# 3 81.1784 68.3780 137.4421 0.0000 0.2548 0.0000
# 4 0.0000 0.0000 0.0000 13.1244 0.0000 0.2520
# 5 -0.4127 -0.1071 0.2548 0.0000 34.0078 0.0000
# 6 0.0000 0.0000 0.0000 0.2520 0.0000 24.7698
#
#
#
# Elastic Compliance Matrix: (Units=1/GPa)
#
#
# Indices 1 2 3 4 5 6 
#
# 1 0.014722 -0.009115 -0.004161 0.000000 0.000181 0.000000
# 2 -0.009115 0.032516 -0.010793 0.000000 0.000073 0.000000
# 3 -0.004161 -0.010793 0.015103 0.000000 -0.000198 0.000000
# 4 0.000000 0.000000 0.000000 0.076209 0.000000 -0.000775
# 5 0.000181 0.000073 -0.000198 0.000000 0.029409 0.000000
# 6 0.000000 0.000000 0.000000 -0.000775 0.000000 0.040380
#
#
# Mechanical properties :
#
#
# Convention : Reuss Voigt Hill
#
# Bulk Modulus (GPa) = 70.40853 84.97779 77.69316
# Shear Modulus (GPa) = 19.14164 22.76950 20.95557
#
# Velocity S-wave (km/s) = 3.37176 3.67742 3.52790
# Velocity P-wave (km/s) = 7.54824 8.27659 7.92079
#
# Compressibility (1/GPa) = 0.01420283
#
# Stress axis : x y z
#
# Youngs Moduli (GPa) = 67.92669 30.75423 66.21073
#
# Poissons Ratio (x) = 0.28033 0.27549
# Poissons Ratio (y) = 0.61916 0.71462
# Poissons Ratio (z) = 0.28263 0.33194
#
# Static dielectric constant tensor:
#      x y z
#    x 1.562310 0.000000 0.000090 
#    y 0.000000 1.548860 0.000000 
#    z 0.000090 0.000000 1.558040 
# 
# From -- ./inp_files/61032.got.cif
#   From: 2010.05.17/outbox.cif.g08.bks.cpg/sg10_31_cif.got.tgz:61032.got - 2010.06.03 11:33:40.
