data_PCOD9152730
_publ_section_title
;
Structure prediction by ZEFSAII (Michael W. Deem and Ramdas Pophale) SiO2 
 PCOD9152730
Probable space group: P 2/M
;
_chemical_formula_sum "Si O2"
_cell_formula_units_Z 28
_cell_length_a 27.500775
_cell_length_b 8.563179
_cell_length_c 9.703355
_cell_angle_alpha 90.000000
_cell_angle_beta 38.421936
_cell_angle_gamma 90.000000
_cell_volume 1420.059409
_symmetry_space_group_name_H-M "P 2/M"
_symmetry_group_IT_number 10
_symmetry_cell_setting 'monoclinic'
loop_
_space_group_symop_operation_xyz
x,y,z
-x,y,-z
-x,-y,-z
x,-y,z
loop_
_atom_site_type_symbol
_atom_site_label
_atom_site_fract_x
_atom_site_fract_y
_atom_site_fract_z
Si Si1 0.594209 0.676436 0.782407
Si Si2 0.285929 0.683297 0.705420
Si Si3 0.855391 0.311721 0.168209
Si Si4 0.721154 0.176401 0.978237
Si Si5 0.576036 0.000000 0.926859
Si Si6 0.994292 0.311025 0.351134
Si Si7 0.573422 0.000000 0.240896
Si Si8 0.851429 0.186728 0.486616
O O1 0.621826 0.500000 0.763506
O O2 0.628672 0.702770 0.552597
O O3 0.619491 0.834728 0.805518
O O4 0.500000 0.671406 0.000000
O O5 0.270990 0.500000 0.748371
O O6 0.222767 0.746325 0.735987
O O7 0.275615 0.746190 0.880857
O O8 0.853258 0.500000 0.180008
O O9 0.861461 0.253106 0.310885
O O10 0.928411 0.269285 0.908144
O O11 0.631124 0.146961 0.137109
O O12 0.752793 0.000000 0.928389
O O13 0.772681 0.244298 0.740116
O O14 0.500000 0.000000 0.000000
O O15 0.546051 0.000000 0.147065
O O16 0.986106 0.500000 0.366415
O O17 0.000000 0.265235 0.500000
O O18 0.921566 0.236763 0.432111
O O19 0.500000 0.000000 0.500000
O O20 0.848724 0.000000 0.478055
#
# Coordination Sequence:
#
# PCOD9152730 Si02
#       8
#     4   4   4   4   2   4   2   4
#     4   9  20  35  58  92 123 152 208 262 302 374
#     4  10  21  38  61  88 119 156 202 252 309 365
#     4  10  22  38  60  89 117 156 206 249 295 361
#     4   9  23  39  58  83 120 158 192 251 295 366
#     4  10  22  36  68  92 115 168 205 248 322 370
#     4  10  21  39  64  87 114 157 206 248 294 363
#     4  10  24  42  62  92 121 155 215 258 291 381
#     4  11  23  39  56  86 125 156 193 250 309 358
#
# _framework density 19.717485
#
# number of rings (size 3 to 8) (size 9 to 14) (size 15 to 20)
#    0.429    1.714    0.000    1.714    7.000    5.429 
#    0.000    0.714    0.000    0.857    0.000    0.000 
#    0.000    0.000    0.000    0.000    0.000    0.000 
#
# Total GULP energy -155994.374569 kJ/mol
# GULP energy per Si atom -5571.227663 kJ/mol
# Density = 1.967261 g / cm^3
# Si number density = 19.717485 Si / 1000 Ang^3
#
#
#
# Elastic Constant Matrix: (Units=GPa)
#
#
# Indices 1 2 3 4 5 6 
#
# 1 128.9238 12.0736 83.9148 0.0000 26.3022 0.0000
# 2 12.0736 59.1815 38.5222 0.0000 15.0955 0.0000
# 3 83.9148 38.5222 190.8249 0.0000 25.2667 0.0000
# 4 0.0000 0.0000 0.0000 26.8451 0.0000 9.7338
# 5 26.3022 15.0955 25.2667 0.0000 42.7458 0.0000
# 6 0.0000 0.0000 0.0000 9.7338 0.0000 23.4240
#
#
#
# Elastic Compliance Matrix: (Units=1/GPa)
#
#
# Indices 1 2 3 4 5 6 
#
# 1 0.011819 0.002109 -0.004949 0.000000 -0.005092 0.000000
# 2 0.002109 0.020839 -0.004327 0.000000 -0.006099 0.000000
# 3 -0.004949 -0.004327 0.008337 0.000000 -0.000355 0.000000
# 4 0.000000 0.000000 0.000000 0.043859 0.000000 -0.018226
# 5 -0.005092 -0.006099 -0.000355 0.000000 0.028891 0.000000
# 6 0.000000 0.000000 0.000000 -0.018226 0.000000 0.050265
#
#
# Mechanical properties :
#
#
# Convention : Reuss Voigt Hill
#
# Bulk Modulus (GPa) = 37.50663 71.99460 54.75061
# Shear Modulus (GPa) = 26.70502 34.89762 30.80132
#
# Velocity S-wave (km/s) = 3.68419 4.21156 3.95667
# Velocity P-wave (km/s) = 6.09598 7.76157 6.97864
#
# Compressibility (1/GPa) = 0.02666196
#
# Stress axis : x y z
#
# Youngs Moduli (GPa) = 84.60934 47.98704 119.94593
#
# Poissons Ratio (x) = -0.10120 0.59360
# Poissons Ratio (y) = -0.17844 0.51896
# Poissons Ratio (z) = 0.41872 0.20762
#
# Static dielectric constant tensor:
#      x y z
#    x 1.676430 0.000000 -0.030250 
#    y 0.000000 1.733630 0.000000 
#    z -0.030250 0.000000 1.707440 
# 
# From -- ./inp_files/37210.got.cif
#   From: 2010.05.17/outbox.cif.g08.bks.cpg/sg10_19_cif.got.tgz:37210.got - 2010.06.03 11:33:40.
