data_PCOD9152749
_publ_section_title
;
Structure prediction by ZEFSAII (Michael W. Deem and Ramdas Pophale) SiO2 
 PCOD9152749
Probable space group: P 2/M
;
_chemical_formula_sum "Si O2"
_cell_formula_units_Z 24
_cell_length_a 11.524143
_cell_length_b 13.389873
_cell_length_c 19.474163
_cell_angle_alpha 90.000000
_cell_angle_beta 23.392345
_cell_angle_gamma 90.000000
_cell_volume 1193.059347
_symmetry_space_group_name_H-M "P 2/M"
_symmetry_group_IT_number 10
_symmetry_cell_setting 'monoclinic'
loop_
_space_group_symop_operation_xyz
x,y,z
-x,y,-z
-x,-y,-z
x,-y,z
loop_
_atom_site_type_symbol
_atom_site_label
_atom_site_fract_x
_atom_site_fract_y
_atom_site_fract_z
Si Si1 0.842456 0.612267 0.797522
Si Si2 0.768234 0.000000 0.300827
Si Si3 0.658143 0.000000 0.203463
Si Si4 0.269996 0.116893 0.181614
Si Si5 0.731177 0.388887 0.698585
Si Si6 0.345420 0.822757 0.293773
Si Si7 0.156685 0.201412 0.676999
O O1 0.959237 0.500000 0.743660
O O2 0.849488 0.634698 0.711427
O O3 0.999114 0.691614 0.762183
O O4 0.500000 0.611695 0.000000
O O5 0.500000 0.000000 0.500000
O O6 0.929469 0.893946 0.227876
O O7 0.641993 0.000000 0.293887
O O8 0.510217 0.099482 0.252782
O O9 0.000000 0.000000 0.000000
O O10 0.371963 0.137516 0.202111
O O11 0.952735 0.161995 0.337646
O O12 0.246169 0.000000 0.184061
O O13 0.500000 0.156957 0.000000
O O14 0.591247 0.500000 0.778384
O O15 0.555120 0.293135 0.765766
O O16 0.000000 0.396786 0.500000
O O17 0.000000 0.823567 0.500000
O O18 0.500000 0.215657 0.500000
#
# Coordination Sequence:
#
# PCOD9152749 Si02
#       7
#     4   2   2   4   4   4   4
#     4  10  21  38  61  91 121 153 203 258 301 355
#     4  10  26  40  59  81 126 163 201 241 308 371
#     4  12  29  42  57  93 128 158 201 256 317 355
#     4  11  23  38  63  92 122 163 214 247 305 371
#     4   9  19  35  60  90 119 152 200 251 302 357
#     4  11  24  39  66  89 125 162 205 257 300 368
#     4  11  23  36  61  88 125 161 200 244 303 363
#
# _framework density 20.116351999999999
#
# number of rings (size 3 to 8) (size 9 to 14) (size 15 to 20)
#    0.000    1.500    3.333    0.750    7.000    0.333 
#    0.000    0.000    0.000    1.500    0.000    0.000 
#    0.000    0.000    0.000    0.000    0.000    0.000 
#
# Total GULP energy -133792.435279 kJ/mol
# GULP energy per Si atom -5574.684803 kJ/mol
# Density = 2.007057 g / cm^3
# Si number density = 20.116352 Si / 1000 Ang^3
#
#
#
# Elastic Constant Matrix: (Units=GPa)
#
#
# Indices 1 2 3 4 5 6 
#
# 1 134.0580 61.3572 37.3540 0.0000 8.8198 0.0000
# 2 61.3572 206.5474 22.4160 0.0000 -28.7338 0.0000
# 3 37.3540 22.4160 73.6705 0.0000 2.1966 0.0000
# 4 0.0000 0.0000 0.0000 36.8385 0.0000 -2.6583
# 5 8.8198 -28.7338 2.1966 0.0000 29.6702 0.0000
# 6 0.0000 0.0000 0.0000 -2.6583 0.0000 22.6040
#
#
#
# Elastic Compliance Matrix: (Units=1/GPa)
#
#
# Indices 1 2 3 4 5 6 
#
# 1 0.010681 -0.003611 -0.004127 0.000000 -0.006366 0.000000
# 2 -0.003611 0.007085 -0.000563 0.000000 0.007976 0.000000
# 3 -0.004127 -0.000563 0.015853 0.000000 -0.000492 0.000000
# 4 0.000000 0.000000 0.000000 0.027378 0.000000 0.003220
# 5 -0.006366 0.007976 -0.000492 0.000000 0.043357 0.000000
# 6 0.000000 0.000000 0.000000 0.003220 0.000000 0.044619
#
#
# Mechanical properties :
#
#
# Convention : Reuss Voigt Hill
#
# Bulk Modulus (GPa) = 58.76503 72.94782 65.85643
# Shear Modulus (GPa) = 29.19794 37.36579 33.28187
#
# Velocity S-wave (km/s) = 3.81393 4.31453 4.07193
# Velocity P-wave (km/s) = 6.97644 7.82061 7.41055
#
# Compressibility (1/GPa) = 0.01701692
#
# Stress axis : x y z
#
# Youngs Moduli (GPa) = 93.62588 141.14867 63.08145
#
# Poissons Ratio (x) = 0.50962 0.26035
# Poissons Ratio (y) = 0.33804 0.03550
# Poissons Ratio (z) = 0.38641 0.07944
#
# Static dielectric constant tensor:
#      x y z
#    x 1.736770 0.000000 0.019600 
#    y 0.000000 1.830040 0.000000 
#    z 0.019600 0.000000 1.721110 
# 
# From -- ./inp_files/84137.got.cif
#   From: 2010.05.17/outbox.cif.g08.bks.cpg/sg10_43_cif.got.tgz:84137.got - 2010.06.03 11:33:40.
