data_PCOD9152377
_publ_section_title
;
Structure prediction by ZEFSAII (Michael W. Deem and Ramdas Pophale) SiO2 
 PCOD9152377
Probable space group: P 2/M
;
_chemical_formula_sum "Si O2"
_cell_formula_units_Z 30
_cell_length_a 17.474709
_cell_length_b 15.900444
_cell_length_c 5.392696
_cell_angle_alpha 90.000000
_cell_angle_beta 76.221177
_cell_angle_gamma 90.000000
_cell_volume 1455.270825
_symmetry_space_group_name_H-M "P 2/M"
_symmetry_group_IT_number 10
_symmetry_cell_setting 'monoclinic'
loop_
_space_group_symop_operation_xyz
x,y,z
-x,y,-z
-x,-y,-z
x,-y,z
loop_
_atom_site_type_symbol
_atom_site_label
_atom_site_fract_x
_atom_site_fract_y
_atom_site_fract_z
Si Si1 0.783172 0.906127 0.925243
Si Si2 0.319616 0.906319 0.495621
Si Si3 0.548139 0.228820 0.721761
Si Si4 0.742631 0.407445 0.177108
Si Si5 0.148945 0.273996 0.128428
Si Si6 0.000000 0.652611 0.000000
Si Si7 0.419578 0.408341 0.402364
Si Si8 0.886368 0.410688 0.456951
O O1 0.736845 0.906523 0.700520
O O2 0.837464 0.824441 0.868995
O O3 0.819000 0.000000 0.926429
O O4 0.726910 0.894028 0.209753
O O5 0.381159 0.833372 0.395025
O O6 0.356609 0.000000 0.481245
O O7 0.500000 0.232801 0.500000
O O8 0.576297 0.324012 0.761387
O O9 0.500000 0.198812 0.000000
O O10 0.742628 0.500000 0.048994
O O11 0.656918 0.398084 0.364005
O O12 0.810852 0.412633 0.332936
O O13 0.771419 0.325880 0.004240
O O14 0.121837 0.324479 0.390265
O O15 0.076240 0.292621 0.003360
O O16 0.967593 0.595216 0.244657
O O17 0.500000 0.411143 0.500000
O O18 0.412521 0.500000 0.279981
O O19 0.884291 0.500000 0.600047
#
# Coordination Sequence:
#
# PCOD9152377 Si02
#       8
#     4   4   4   4   4   2   4   4
#     4  10  23  41  66  93 122 161 209 259 313 375
#     4  10  22  42  65  91 121 159 205 261 326 382
#     4  11  23  37  58  89 121 160 207 257 319 379
#     4   9  19  36  57  86 119 157 210 260 309 364
#     4  11  22  36  63  87 122 159 206 257 313 375
#     4  10  23  38  57  90 124 164 199 248 315 378
#     4   9  19  37  56  79 119 167 212 257 306 361
#     4  10  21  37  58  90 124 162 203 250 309 375
#
# _framework density 20.614720999999999
#
# number of rings (size 3 to 8) (size 9 to 14) (size 15 to 20)
#    0.000    2.000    0.000    2.600    5.600    4.000 
#    0.000    0.333    0.000    1.600    0.000    0.000 
#    0.000    0.000    0.000    0.000    0.000    0.000 
#
# Total GULP energy -167281.050152 kJ/mol
# GULP energy per Si atom -5576.035005 kJ/mol
# Density = 2.056780 g / cm^3
# Si number density = 20.614721 Si / 1000 Ang^3
#
#
#
# Elastic Constant Matrix: (Units=GPa)
#
#
# Indices 1 2 3 4 5 6 
#
# 1 70.3727 41.4642 14.5518 0.0000 -17.5232 0.0000
# 2 41.4642 183.1610 35.0709 0.0000 -15.8005 0.0000
# 3 14.5518 35.0709 85.9910 0.0000 -8.6711 0.0000
# 4 0.0000 0.0000 0.0000 23.0262 0.0000 -1.6152
# 5 -17.5232 -15.8005 -8.6711 0.0000 28.4501 0.0000
# 6 0.0000 0.0000 0.0000 -1.6152 0.0000 21.4560
#
#
#
# Elastic Compliance Matrix: (Units=1/GPa)
#
#
# Indices 1 2 3 4 5 6 
#
# 1 0.018646 -0.003240 -0.000885 0.000000 0.009416 0.000000
# 2 -0.003240 0.006683 -0.002068 0.000000 0.001086 0.000000
# 3 -0.000885 -0.002068 0.012846 0.000000 0.002222 0.000000
# 4 0.000000 0.000000 0.000000 0.043659 0.000000 0.003287
# 5 0.009416 0.001086 0.002222 0.000000 0.042229 0.000000
# 6 0.000000 0.000000 0.000000 0.003287 0.000000 0.046854
#
#
# Mechanical properties :
#
#
# Convention : Reuss Voigt Hill
#
# Bulk Modulus (GPa) = 38.77283 57.96648 48.36966
# Shear Modulus (GPa) = 26.05534 31.14899 28.60216
#
# Velocity S-wave (km/s) = 3.55902 3.89138 3.72891
# Velocity P-wave (km/s) = 5.97813 6.95489 6.48493
#
# Compressibility (1/GPa) = 0.02579126
#
# Stress axis : x y z
#
# Youngs Moduli (GPa) = 53.62967 149.64150 77.84390
#
# Poissons Ratio (x) = 0.48476 0.06887
# Poissons Ratio (y) = 0.17373 0.16096
# Poissons Ratio (z) = 0.04745 0.30942
#
# Static dielectric constant tensor:
#      x y z
#    x 1.734010 0.000000 0.041970 
#    y 0.000000 1.773350 0.000000 
#    z 0.041970 0.000000 1.802500 
# 
# From -- ./inp_files/11403.got.cif
#   From: 2010.05.17/outbox.cif.g08.bks.cpg/sg10_6_cif.got.tgz:11403.got - 2010.06.03 11:33:40.
