data_PCOD9152118
_publ_section_title
;
Structure prediction by ZEFSAII (Michael W. Deem and Ramdas Pophale) SiO2 
 PCOD9152118
Probable space group: P 2/M
;
_chemical_formula_sum "Si O2"
_cell_formula_units_Z 24
_cell_length_a 12.093030
_cell_length_b 13.857192
_cell_length_c 15.331354
_cell_angle_alpha 90.000000
_cell_angle_beta 152.051131
_cell_angle_gamma 90.000000
_cell_volume 1204.121957
_symmetry_space_group_name_H-M "P 2/M"
_symmetry_group_IT_number 10
_symmetry_cell_setting 'monoclinic'
loop_
_space_group_symop_operation_xyz
x,y,z
-x,y,-z
-x,-y,-z
x,-y,z
loop_
_atom_site_type_symbol
_atom_site_label
_atom_site_fract_x
_atom_site_fract_y
_atom_site_fract_z
Si Si1 0.765710 0.108175 0.114701
Si Si2 0.385957 0.110092 0.324496
Si Si3 0.450586 0.257556 0.691370
Si Si4 0.021267 0.229843 0.881959
Si Si5 0.758826 0.161425 0.295265
Si Si6 0.710519 0.389150 0.575492
O O1 0.925478 0.143115 0.147801
O O2 0.798684 0.179523 0.219921
O O3 0.822274 0.000000 0.183407
O O4 0.495939 0.108958 0.891016
O O5 0.500000 0.108991 0.500000
O O6 0.556419 0.159045 0.371820
O O7 0.166579 0.182623 0.183375
O O8 0.324446 0.000000 0.257325
O O9 0.299118 0.244085 0.673884
O O10 0.373623 0.342987 0.574141
O O11 0.724981 0.264918 0.908286
O O12 0.905009 0.318698 0.750865
O O13 0.000000 0.115158 0.500000
O O14 0.500000 0.385983 0.500000
O O15 0.784313 0.500000 0.616991
#
# Coordination Sequence:
#
# PCOD9152118 Si02
#       6
#     4   4   4   4   4   4
#     4  10  22  37  55  87 122 158 203 238 275 336
#     4  11  22  36  56  84 122 162 195 230 286 351
#     4  11  22  38  61  89 119 152 199 242 294 352
#     4  11  21  39  62  84 120 157 191 242 296 347
#     4  10  21  36  58  81 117 159 197 241 280 328
#     4  11  23  41  63  88 118 149 192 248 306 361
#
# _framework density 19.931536999999999
#
# number of rings (size 3 to 8) (size 9 to 14) (size 15 to 20)
#    0.000    1.333    3.333    3.000    0.000    6.667 
#    0.000    1.667    0.000    4.500    0.000   11.667 
#    0.000    0.000    0.000    0.000    0.000    0.000 
#
# Total GULP energy -133845.775854 kJ/mol
# GULP energy per Si atom -5576.907327 kJ/mol
# Density = 1.988617 g / cm^3
# Si number density = 19.931537 Si / 1000 Ang^3
#
#
#
# Elastic Constant Matrix: (Units=GPa)
#
#
# Indices 1 2 3 4 5 6 
#
# 1 79.5420 8.0393 6.1526 0.0000 -5.5491 0.0000
# 2 8.0393 95.0520 31.8347 0.0000 -3.5700 0.0000
# 3 6.1526 31.8347 113.3022 0.0000 -8.5696 0.0000
# 4 0.0000 0.0000 0.0000 8.3787 0.0000 3.5881
# 5 -5.5491 -3.5700 -8.5696 0.0000 24.1001 0.0000
# 6 0.0000 0.0000 0.0000 3.5881 0.0000 10.4919
#
#
#
# Elastic Compliance Matrix: (Units=1/GPa)
#
#
# Indices 1 2 3 4 5 6 
#
# 1 0.012873 -0.000906 -0.000237 0.000000 0.002746 0.000000
# 2 -0.000906 0.011685 -0.003205 0.000000 0.000383 0.000000
# 3 -0.000237 -0.003205 0.009967 0.000000 0.003015 0.000000
# 4 0.000000 0.000000 0.000000 0.139829 0.000000 -0.047820
# 5 0.002746 0.000383 0.003015 0.000000 0.043255 0.000000
# 6 0.000000 0.000000 0.000000 -0.047820 0.000000 0.111666
#
#
# Mechanical properties :
#
#
# Convention : Reuss Voigt Hill
#
# Bulk Modulus (GPa) = 38.71530 42.21659 40.46595
# Shear Modulus (GPa) = 14.42662 24.71877 19.57270
#
# Velocity S-wave (km/s) = 2.69329 3.52544 3.13708
# Velocity P-wave (km/s) = 5.39797 6.14805 5.78518
#
# Compressibility (1/GPa) = 0.02582958
#
# Stress axis : x y z
#
# Youngs Moduli (GPa) = 77.67927 85.57983 100.32754
#
# Poissons Ratio (x) = 0.07757 0.02375
# Poissons Ratio (y) = 0.07041 0.32155
# Poissons Ratio (z) = 0.01839 0.27428
#
# Static dielectric constant tensor:
#      x y z
#    x 1.732630 0.000000 -0.012900 
#    y 0.000000 1.647160 0.000000 
#    z -0.012900 0.000000 1.757410 
# 
# From -- ./inp_files/65170.got.cif
#   From: 2010.05.17/outbox.cif.g08.bks.cpg/sg10_33_cif.got.tgz:65170.got - 2010.06.03 11:33:40.
