data_PCOD9152673
_publ_section_title
;
Structure prediction by ZEFSAII (Michael W. Deem and Ramdas Pophale) SiO2 
 PCOD9152673
Probable space group: P 2/M
;
_chemical_formula_sum "Si O2"
_cell_formula_units_Z 32
_cell_length_a 24.486409
_cell_length_b 9.134660
_cell_length_c 12.841593
_cell_angle_alpha 90.000000
_cell_angle_beta 31.873929
_cell_angle_gamma 90.000000
_cell_volume 1516.746707
_symmetry_space_group_name_H-M "P 2/M"
_symmetry_group_IT_number 10
_symmetry_cell_setting 'monoclinic'
loop_
_space_group_symop_operation_xyz
x,y,z
-x,y,-z
-x,-y,-z
x,-y,z
loop_
_atom_site_type_symbol
_atom_site_label
_atom_site_fract_x
_atom_site_fract_y
_atom_site_fract_z
Si Si1 0.084961 0.167218 0.442991
Si Si2 0.252712 0.325947 0.830131
Si Si3 0.581332 0.672883 0.275106
Si Si4 0.962493 0.832880 0.859364
Si Si5 0.314102 0.175076 0.528089
Si Si6 0.264348 0.667517 0.257035
Si Si7 0.540415 0.174030 0.123154
Si Si8 0.858470 0.669012 0.324884
O O1 0.188821 0.257519 0.294656
O O2 0.000000 0.228045 0.500000
O O3 0.028530 0.160861 0.646037
O O4 0.109823 0.000000 0.370049
O O5 0.248677 0.500000 0.818938
O O6 0.307086 0.301265 0.852838
O O7 0.320185 0.249891 0.630939
O O8 0.141199 0.253471 0.999404
O O9 0.500000 0.701671 0.500000
O O10 0.571313 0.500000 0.264953
O O11 0.563043 0.769186 0.203441
O O12 0.032869 0.746500 0.827625
O O13 0.940908 0.000000 0.927419
O O14 0.420457 0.210624 0.295381
O O15 0.212869 0.241377 0.638410
O O16 0.306687 0.000000 0.548896
O O17 0.282768 0.500000 0.197710
O O18 0.204352 0.670513 0.463893
O O19 0.372679 0.750924 0.087558
O O20 0.551678 0.000000 0.099259
O O21 0.870944 0.500000 0.272293
#
# Coordination Sequence:
#
# PCOD9152673 Si02
#       8
#     4   4   4   4   4   4   4   4
#     4   9  19  36  57  84 117 155 196 240 292 349
#     4  11  23  39  61  89 122 158 199 244 293 353
#     4  10  21  39  61  86 120 160 198 243 296 349
#     4  10  21  38  60  87 122 157 195 244 295 352
#     4  11  24  41  62  89 118 154 200 248 299 353
#     4  10  22  39  60  87 119 155 197 244 295 351
#     4  11  24  39  60  89 122 159 199 244 295 355
#     4  10  22  42  65  88 117 155 198 248 301 351
#
# _framework density 21.097787
#
# number of rings (size 3 to 8) (size 9 to 14) (size 15 to 20)
#    0.000    1.750    1.250    2.250    1.750    6.000 
#    0.000    5.000    0.000    0.000    0.000    0.000 
#    0.000    0.000    0.000    0.000    0.000    0.000 
#
# Total GULP energy -178917.608307 kJ/mol
# GULP energy per Si atom -5591.175260 kJ/mol
# Density = 2.104977 g / cm^3
# Si number density = 21.097787 Si / 1000 Ang^3
#
#
#
# Elastic Constant Matrix: (Units=GPa)
#
#
# Indices 1 2 3 4 5 6 
#
# 1 50.3732 24.6930 3.7039 0.0000 -19.7441 0.0000
# 2 24.6930 97.0841 27.8826 0.0000 -23.4778 0.0000
# 3 3.7039 27.8826 74.7977 0.0000 -23.2779 0.0000
# 4 0.0000 0.0000 0.0000 30.1597 0.0000 -5.7943
# 5 -19.7441 -23.4778 -23.2779 0.0000 35.3285 0.0000
# 6 0.0000 0.0000 0.0000 -5.7943 0.0000 10.4639
#
#
#
# Elastic Compliance Matrix: (Units=1/GPa)
#
#
# Indices 1 2 3 4 5 6 
#
# 1 0.028116 -0.004816 0.005406 0.000000 0.016074 0.000000
# 2 -0.004816 0.013501 -0.003572 0.000000 0.003927 0.000000
# 3 0.005406 -0.003572 0.018410 0.000000 0.012777 0.000000
# 4 0.000000 0.000000 0.000000 0.037104 0.000000 0.020546
# 5 0.016074 0.003927 0.012777 0.000000 0.048318 0.000000
# 6 0.000000 0.000000 0.000000 0.020546 0.000000 0.106944
#
#
# Mechanical properties :
#
#
# Convention : Reuss Voigt Hill
#
# Bulk Modulus (GPa) = 18.49785 37.20155 27.84970
# Shear Modulus (GPa) = 18.09110 26.25544 22.17327
#
# Velocity S-wave (km/s) = 2.93147 3.53152 3.24539
# Velocity P-wave (km/s) = 4.49941 5.85663 5.22230
#
# Compressibility (1/GPa) = 0.05406033
#
# Stress axis : x y z
#
# Youngs Moduli (GPa) = 35.56725 74.06903 54.31887
#
# Poissons Ratio (x) = 0.35675 -0.29363
# Poissons Ratio (y) = 0.17131 0.19404
# Poissons Ratio (z) = -0.19226 0.26460
#
# Static dielectric constant tensor:
#      x y z
#    x 1.751590 0.000000 0.016840 
#    y 0.000000 1.713480 0.000000 
#    z 0.016840 0.000000 1.800370 
# 
# From -- ./inp_files/71477.got.cif
#   From: 2010.05.17/outbox.cif.g08.bks.cpg/sg10_36_cif.got.tgz:71477.got - 2010.06.03 11:33:40.
