data_PCOD9152906
_publ_section_title
;
Structure prediction by ZEFSAII (Michael W. Deem and Ramdas Pophale) SiO2 
 PCOD9152906
Probable space group: P 2/M
;
_chemical_formula_sum "Si O2"
_cell_formula_units_Z 28
_cell_length_a 23.453389
_cell_length_b 7.573445
_cell_length_c 16.874569
_cell_angle_alpha 90.000000
_cell_angle_beta 25.532241
_cell_angle_gamma 90.000000
_cell_volume 1291.897655
_symmetry_space_group_name_H-M "P 2/M"
_symmetry_group_IT_number 10
_symmetry_cell_setting 'monoclinic'
loop_
_space_group_symop_operation_xyz
x,y,z
-x,y,-z
-x,-y,-z
x,-y,z
loop_
_atom_site_type_symbol
_atom_site_label
_atom_site_fract_x
_atom_site_fract_y
_atom_site_fract_z
Si Si1 0.152939 0.285279 0.800348
Si Si2 0.338323 0.786147 0.282637
Si Si3 0.372322 0.785566 0.057579
Si Si4 0.351304 0.706664 0.685755
Si Si5 0.889339 0.783942 0.702910
Si Si6 0.890378 0.702355 0.315481
Si Si7 0.152625 0.799525 0.067367
O O1 0.154163 0.500000 0.805647
O O2 0.253619 0.217495 0.740442
O O3 0.183208 0.235562 0.671719
O O4 0.000000 0.229795 0.000000
O O5 0.477461 0.729193 0.146926
O O6 0.212454 0.714078 0.484800
O O7 0.331630 0.000000 0.293405
O O8 0.340983 0.734328 0.187308
O O9 0.373107 0.000000 0.055283
O O10 0.254535 0.729424 0.148820
O O11 0.500000 0.782347 0.500000
O O12 0.366299 0.500000 0.647421
O O13 0.273459 0.717419 0.866807
O O14 0.894766 0.725003 0.787917
O O15 0.000000 0.725374 0.500000
O O16 0.898918 0.000000 0.691140
O O17 0.931483 0.500000 0.250070
O O18 0.024716 0.797237 0.171108
O O19 0.193834 0.000000 0.031365
#
# Coordination Sequence:
#
# PCOD9152906 Si02
#       7
#     4   4   4   4   4   4   4
#     4   9  17  34  57  76 100 138 179 213 254 321
#     4   9  17  31  53  79 104 134 177 223 262 310
#     4   8  15  30  51  74 105 143 177 211 259 320
#     4  10  21  39  61  82 108 146 185 221 270 331
#     4   9  17  30  51  78 108 143 179 215 263 324
#     4  11  21  34  55  78 104 138 179 220 267 321
#     4  11  22  35  55  82 110 140 181 229 271 315
#
# _framework density 21.673544
#
# number of rings (size 3 to 8) (size 9 to 14) (size 15 to 20)
#    0.000    2.429    1.429    2.571    0.000    3.714 
#    0.000    3.571    0.000    8.571    0.000    0.000 
#    0.000    0.000    0.000    0.000    0.000    0.000 
#
# Total GULP energy -156200.960286 kJ/mol
# GULP energy per Si atom -5578.605725 kJ/mol
# Density = 2.162421 g / cm^3
# Si number density = 21.673544 Si / 1000 Ang^3
#
#
#
# Elastic Constant Matrix: (Units=GPa)
#
#
# Indices 1 2 3 4 5 6 
#
# 1 132.3331 7.3617 57.6351 0.0000 -11.7001 0.0000
# 2 7.3617 43.2418 -1.3950 0.0000 -3.3929 0.0000
# 3 57.6351 -1.3950 132.1184 0.0000 -10.9465 0.0000
# 4 0.0000 0.0000 0.0000 11.9284 0.0000 7.0817
# 5 -11.7001 -3.3929 -10.9465 0.0000 27.9569 0.0000
# 6 0.0000 0.0000 0.0000 7.0817 0.0000 7.2555
#
#
#
# Elastic Compliance Matrix: (Units=1/GPa)
#
#
# Indices 1 2 3 4 5 6 
#
# 1 0.009592 -0.001586 -0.004015 0.000000 0.002250 0.000000
# 2 -0.001586 0.023642 0.001162 0.000000 0.002660 0.000000
# 3 -0.004015 0.001162 0.009514 0.000000 0.002186 0.000000
# 4 0.000000 0.000000 0.000000 0.199354 0.000000 -0.194581
# 5 0.002250 0.002660 0.002186 0.000000 0.037890 0.000000
# 6 0.000000 0.000000 0.000000 -0.194581 0.000000 0.327750
#
#
# Mechanical properties :
#
#
# Convention : Reuss Voigt Hill
#
# Bulk Modulus (GPa) = 29.52447 48.32187 38.92317
# Shear Modulus (GPa) = 7.96292 25.70091 16.83192
#
# Velocity S-wave (km/s) = 1.91886 3.44731 2.78980
# Velocity P-wave (km/s) = 4.30828 6.17972 5.32683
#
# Compressibility (1/GPa) = 0.03387021
#
# Stress axis : x y z
#
# Youngs Moduli (GPa) = 104.24842 42.29762 105.11033
#
# Poissons Ratio (x) = 0.06709 0.42201
# Poissons Ratio (y) = 0.16534 -0.12213
# Poissons Ratio (z) = 0.41855 -0.04915
#
# Static dielectric constant tensor:
#      x y z
#    x 1.805250 0.000000 0.015240 
#    y 0.000000 1.828160 0.000000 
#    z 0.015240 0.000000 1.765880 
# 
# From -- ./inp_files/70198.got.cif
#   From: 2010.05.17/outbox.cif.g08.bks.cpg/sg10_36_cif.got.tgz:70198.got - 2010.06.03 11:33:40.
