data_PCOD9152130
_publ_section_title
;
Structure prediction by ZEFSAII (Michael W. Deem and Ramdas Pophale) SiO2 
 PCOD9152130
Probable space group: P 2/M
;
_chemical_formula_sum "Si O2"
_cell_formula_units_Z 28
_cell_length_a 27.767897
_cell_length_b 7.600817
_cell_length_c 9.567034
_cell_angle_alpha 90.000000
_cell_angle_beta 37.170723
_cell_angle_gamma 90.000000
_cell_volume 1219.988037
_symmetry_space_group_name_H-M "P 2/M"
_symmetry_group_IT_number 10
_symmetry_cell_setting 'monoclinic'
loop_
_space_group_symop_operation_xyz
x,y,z
-x,y,-z
-x,-y,-z
x,-y,z
loop_
_atom_site_type_symbol
_atom_site_label
_atom_site_fract_x
_atom_site_fract_y
_atom_site_fract_z
Si Si1 0.118014 0.298416 0.089028
Si Si2 0.422662 0.703779 0.259489
Si Si3 0.249688 0.200737 0.571945
Si Si4 0.019793 0.715544 0.796401
Si Si5 0.305045 0.209006 0.155719
Si Si6 0.830441 0.287888 0.727415
Si Si7 0.483814 0.213219 0.695605
O O1 0.094134 0.500000 0.174357
O O2 0.193432 0.296869 0.811258
O O3 0.143153 0.221130 0.180708
O O4 0.045626 0.222570 0.165506
O O5 0.413005 0.500000 0.240627
O O6 0.340590 0.796924 0.414979
O O7 0.448106 0.716560 0.360853
O O8 0.500000 0.777605 0.000000
O O9 0.255352 0.279774 0.403062
O O10 0.220247 0.000000 0.633534
O O11 0.017454 0.500000 0.804449
O O12 0.105273 0.768994 0.537646
O O13 0.000000 0.773513 0.000000
O O14 0.256681 0.236243 0.125440
O O15 0.311054 0.000000 0.165960
O O16 0.395489 0.275913 0.943688
O O17 0.831037 0.500000 0.731320
O O18 0.500000 0.264318 0.500000
O O19 0.484932 0.000000 0.701241
#
# Coordination Sequence:
#
# PCOD9152130 Si02
#       7
#     4   4   4   4   4   4   4
#     4  10  21  37  58  88 121 150 190 239 287 342
#     4  11  23  39  61  89 117 149 192 244 295 341
#     4  11  23  39  60  83 114 155 197 238 288 345
#     4   9  17  33  59  87 116 153 192 232 283 344
#     4  10  22  39  57  82 115 152 195 240 285 341
#     4  10  21  36  58  87 119 154 188 234 292 344
#     4  10  22  40  61  84 114 156 198 238 290 345
#
# _framework density 22.951045000000001
#
# number of rings (size 3 to 8) (size 9 to 14) (size 15 to 20)
#    0.000    1.857    1.429    2.143    2.000    6.000 
#    0.000    0.714    0.000    4.286    0.000    0.000 
#    0.000    0.000    0.000    0.000    0.000    0.000 
#
# Total GULP energy -156517.818539 kJ/mol
# GULP energy per Si atom -5589.922091 kJ/mol
# Density = 2.289881 g / cm^3
# Si number density = 22.951045 Si / 1000 Ang^3
#
#
#
# Elastic Constant Matrix: (Units=GPa)
#
#
# Indices 1 2 3 4 5 6 
#
# 1 139.5581 -6.9646 11.7208 0.0000 8.5164 0.0000
# 2 -6.9646 51.8969 0.2172 0.0000 3.8466 0.0000
# 3 11.7208 0.2172 60.5624 0.0000 7.6774 0.0000
# 4 0.0000 0.0000 0.0000 -2.5681 0.0000 -1.9794
# 5 8.5164 3.8466 7.6774 0.0000 43.1984 0.0000
# 6 0.0000 0.0000 0.0000 -1.9794 0.0000 19.3710
#
#
#
# Elastic Compliance Matrix: (Units=1/GPa)
#
#
# Indices 1 2 3 4 5 6 
#
# 1 0.007408 0.001098 -0.001269 0.000000 -0.001333 0.000000
# 2 0.001098 0.019561 -0.000035 0.000000 -0.001952 0.000000
# 3 -0.001269 -0.000035 0.017111 0.000000 -0.002788 0.000000
# 4 0.000000 0.000000 0.000000 -0.360966 0.000000 -0.036885
# 5 -0.001333 -0.001952 -0.002788 0.000000 0.024081 0.000000
# 6 0.000000 0.000000 0.000000 -0.036885 0.000000 0.047855
#
#
# Mechanical properties :
#
#
# Convention : Reuss Voigt Hill
#
# Bulk Modulus (GPa) = 22.89954 29.10713 26.00333
# Shear Modulus (GPa) = -21.74076 28.46985 3.36455
#
# Velocity S-wave (km/s) = -3.08111 3.52584 1.21208
# Velocity P-wave (km/s) = 1.63047 5.41158 3.64875
#
# Compressibility (1/GPa) = 0.04366901
#
# Stress axis : x y z
#
# Youngs Moduli (GPa) = 134.98607 51.12160 58.44208
#
# Poissons Ratio (x) = -0.05615 0.07415
# Poissons Ratio (y) = -0.14825 0.00206
# Poissons Ratio (z) = 0.17126 0.00180
#
# Static dielectric constant tensor:
#      x y z
#    x 1.842180 0.000000 0.023520 
#    y 0.000000 1.879290 0.000000 
#    z 0.023520 0.000000 1.839090 
# 
# From -- ./inp_files/36893.got.cif
#   From: 2010.05.17/outbox.cif.g08.bks.cpg/sg10_19_cif.got.tgz:36893.got - 2010.06.03 11:33:40.
