data_PCOD9152691
_publ_section_title
;
Structure prediction by ZEFSAII (Michael W. Deem and Ramdas Pophale) SiO2 
 PCOD9152691
Probable space group: P 2/M
;
_chemical_formula_sum "Si O2"
_cell_formula_units_Z 17
_cell_length_a 9.533553
_cell_length_b 10.515230
_cell_length_c 9.641707
_cell_angle_alpha 90.000000
_cell_angle_beta 45.383827
_cell_angle_gamma 90.000000
_cell_volume 688.022195
_symmetry_space_group_name_H-M "P 2/M"
_symmetry_group_IT_number 10
_symmetry_cell_setting 'monoclinic'
loop_
_space_group_symop_operation_xyz
x,y,z
-x,y,-z
-x,-y,-z
x,-y,z
loop_
_atom_site_type_symbol
_atom_site_label
_atom_site_fract_x
_atom_site_fract_y
_atom_site_fract_z
Si Si1 0.285387 0.786353 0.669337
Si Si2 0.776890 0.500000 0.964349
Si Si3 0.809605 0.146478 0.544945
Si Si4 0.500000 0.000000 0.000000
Si Si5 0.214053 0.500000 0.705075
Si Si6 0.622045 0.230078 0.088888
O O1 0.500000 0.848132 0.500000
O O2 0.146840 0.846829 0.649728
O O3 0.299851 0.637924 0.615255
O O4 0.251703 0.790543 0.857083
O O5 0.784947 0.500000 0.127604
O O6 0.677986 0.367832 0.991578
O O7 0.006194 0.500000 0.770835
O O8 0.610586 0.226165 0.707735
O O9 0.000000 0.183419 0.500000
O O10 0.751126 0.000000 0.624799
O O11 0.638283 0.113123 0.974868
#
# Coordination Sequence:
#
# PCOD9152691 Si02
#       6
#     4   2   4   1   2   4
#     4   9  19  35  65  92 120 157 205 250 310 361
#     4   9  20  39  63  86 128 165 206 244 305 360
#     4  10  21  38  60  89 126 158 200 259 309 356
#     4  12  24  38  60  86 126 158 210 248 294 362
#     4   9  17  36  61  94 127 155 201 259 296 364
#     4  10  22  40  62  90 119 166 206 248 303 370
#
# _framework density 24.708506
#
# number of rings (size 3 to 8) (size 9 to 14) (size 15 to 20)
#    0.000    2.353    1.176    0.353    1.647    6.588 
#    0.000    2.353    0.000    4.235    0.000    0.000 
#    0.000    0.000    0.000    0.000    0.000    0.000 
#
# Total GULP energy -94711.407156 kJ/mol
# GULP energy per Si atom -5571.259244 kJ/mol
# Density = 2.465227 g / cm^3
# Si number density = 24.708506 Si / 1000 Ang^3
#
#
#
# Elastic Constant Matrix: (Units=GPa)
#
#
# Indices 1 2 3 4 5 6 
#
# 1 203.8744 72.2521 35.9099 0.0000 10.0079 0.0000
# 2 72.2521 205.6599 33.0547 0.0000 4.0593 0.0000
# 3 35.9099 33.0547 37.9142 0.0000 1.1871 0.0000
# 4 0.0000 0.0000 0.0000 21.4470 0.0000 19.1322
# 5 10.0079 4.0593 1.1871 0.0000 45.7849 0.0000
# 6 0.0000 0.0000 0.0000 19.1322 0.0000 42.4684
#
#
#
# Elastic Compliance Matrix: (Units=1/GPa)
#
#
# Indices 1 2 3 4 5 6 
#
# 1 0.006293 -0.001438 -0.004671 0.000000 -0.001127 0.000000
# 2 -0.001438 0.005990 -0.003857 0.000000 -0.000117 0.000000
# 3 -0.004671 -0.003857 0.034147 0.000000 0.000478 0.000000
# 4 0.000000 0.000000 0.000000 0.077955 0.000000 -0.035119
# 5 -0.001127 -0.000117 0.000478 0.000000 0.022086 0.000000
# 6 0.000000 0.000000 0.000000 -0.035119 0.000000 0.039368
#
#
# Mechanical properties :
#
#
# Convention : Reuss Voigt Hill
#
# Bulk Modulus (GPa) = 37.73850 81.09799 59.41825
# Shear Modulus (GPa) = 23.29893 42.35551 32.82722
#
# Velocity S-wave (km/s) = 3.07408 4.14479 3.64892
# Velocity P-wave (km/s) = 5.28267 7.46986 6.46937
#
# Compressibility (1/GPa) = 0.02649814
#
# Stress axis : x y z
#
# Youngs Moduli (GPa) = 158.91726 166.95510 29.28519
#
# Poissons Ratio (x) = 0.24003 0.13680
# Poissons Ratio (y) = 0.22847 0.11294
# Poissons Ratio (z) = 0.74234 0.64388
#
# Static dielectric constant tensor:
#      x y z
#    x 1.943000 0.000000 -0.114590 
#    y 0.000000 1.908570 0.000000 
#    z -0.114590 0.000000 1.306620 
# 
# From -- ./inp_files/40703.got.cif
#   From: 2010.05.17/outbox.cif.g08.bks.cpg/sg10_21_cif.got.tgz:40703.got - 2010.06.03 11:33:40.
