data_PCOD9152096
_publ_section_title
;
Structure prediction by ZEFSAII (Michael W. Deem and Ramdas Pophale) SiO2 
 PCOD9152096
Probable space group: P 2/M
;
_chemical_formula_sum "Si O2"
_cell_formula_units_Z 28
_cell_length_a 17.505576
_cell_length_b 7.419862
_cell_length_c 14.866277
_cell_angle_alpha 90.000000
_cell_angle_beta 145.563484
_cell_angle_gamma 90.000000
_cell_volume 1091.946846
_symmetry_space_group_name_H-M "P 2/M"
_symmetry_group_IT_number 10
_symmetry_cell_setting 'monoclinic'
loop_
_space_group_symop_operation_xyz
x,y,z
-x,y,-z
-x,-y,-z
x,-y,z
loop_
_atom_site_type_symbol
_atom_site_label
_atom_site_fract_x
_atom_site_fract_y
_atom_site_fract_z
Si Si1 0.692912 0.280817 0.130248
Si Si2 0.018328 0.720393 0.621320
Si Si3 0.512018 0.787719 0.332136
Si Si4 0.922387 0.705614 0.710998
Si Si5 0.214768 0.219050 0.067841
Si Si6 0.402630 0.716609 0.775183
Si Si7 0.278538 0.793452 0.329057
O O1 0.692023 0.500000 0.128724
O O2 0.826948 0.223623 0.209809
O O3 0.692737 0.225334 0.235369
O O4 0.552664 0.221897 0.951147
O O5 0.009006 0.500000 0.613329
O O6 0.923586 0.782283 0.610591
O O7 0.000000 0.774396 0.500000
O O8 0.359827 0.720362 0.168537
O O9 0.607029 0.768356 0.337444
O O10 0.590709 0.711338 0.494654
O O11 0.496287 0.000000 0.332089
O O12 0.873114 0.500000 0.658389
O O13 0.837370 0.793988 0.707715
O O14 0.079570 0.706447 0.892547
O O15 0.225683 0.278201 0.183186
O O16 0.202696 0.000000 0.050676
O O17 0.399177 0.500000 0.773384
O O18 0.314422 0.000000 0.342788
#
# Coordination Sequence:
#
# PCOD9152096 Si02
#       7
#     4   4   4   4   4   4   4
#     4   8  15  29  48  72 103 142 185 221 260 326
#     4   9  18  31  49  75 109 144 179 219 268 328
#     4  10  21  36  57  84 112 143 188 237 278 327
#     4  11  23  37  59  90 117 144 186 239 285 329
#     4  10  21  40  63  82 108 153 196 229 276 342
#     4   9  17  30  52  78 105 140 181 226 276 329
#     4  10  22  40  60  82 113 152 192 231 279 341
#
# _framework density 25.642274
#
# number of rings (size 3 to 8) (size 9 to 14) (size 15 to 20)
#    0.000    2.429    0.000    3.000    2.000    6.286 
#    0.000    1.429    0.000    6.000    0.000    0.000 
#    0.000    0.000    0.000    0.000    0.000    0.000 
#
# Total GULP energy -156529.503247 kJ/mol
# GULP energy per Si atom -5590.339402 kJ/mol
# Density = 2.558391 g / cm^3
# Si number density = 25.642274 Si / 1000 Ang^3
#
#
#
# Elastic Constant Matrix: (Units=GPa)
#
#
# Indices 1 2 3 4 5 6 
#
# 1 153.6270 -3.1478 11.4041 0.0000 -14.5054 0.0000
# 2 -3.1478 86.8847 -10.2663 0.0000 -0.0092 0.0000
# 3 11.4041 -10.2663 78.8649 0.0000 -10.1331 0.0000
# 4 0.0000 0.0000 0.0000 4.8267 0.0000 -15.2368
# 5 -14.5054 -0.0092 -10.1331 0.0000 48.4390 0.0000
# 6 0.0000 0.0000 0.0000 -15.2368 0.0000 -11.2459
#
#
#
# Elastic Compliance Matrix: (Units=1/GPa)
#
#
# Indices 1 2 3 4 5 6 
#
# 1 0.006742 0.000160 -0.000714 0.000000 0.001870 0.000000
# 2 0.000160 0.011698 0.001548 0.000000 0.000374 0.000000
# 3 -0.000714 0.001548 0.013315 0.000000 0.002572 0.000000
# 4 0.000000 0.000000 0.000000 0.039261 0.000000 -0.053193
# 5 0.001870 0.000374 0.002572 0.000000 0.021743 0.000000
# 6 0.000000 0.000000 0.000000 -0.053193 0.000000 -0.016851
#
#
# Mechanical properties :
#
#
# Convention : Reuss Voigt Hill
#
# Bulk Modulus (GPa) = 29.63550 35.03963 32.33756
# Shear Modulus (GPa) = 58.70772 29.82973 44.26873
#
# Velocity S-wave (km/s) = 4.79005 3.41442 4.15950
# Velocity P-wave (km/s) = 6.49424 5.40729 5.97553
#
# Compressibility (1/GPa) = 0.03374332
#
# Stress axis : x y z
#
# Youngs Moduli (GPa) = 148.32224 85.48302 75.10286
#
# Poissons Ratio (x) = -0.01369 0.05361
# Poissons Ratio (y) = -0.02375 -0.11624
# Poissons Ratio (z) = 0.10588 -0.13230
#
# Static dielectric constant tensor:
#      x y z
#    x 1.981730 0.000000 -0.002220 
#    y 0.000000 1.984240 0.000000 
#    z -0.002220 0.000000 2.048970 
# 
# From -- ./inp_files/68662.got.cif
#   From: 2010.05.17/outbox.cif.g08.bks.cpg/sg10_35_cif.got.tgz:68662.got - 2010.06.03 11:33:40.
