data_PCOD9152068
_publ_section_title
;
Structure prediction by ZEFSAII (Michael W. Deem and Ramdas Pophale) SiO2 
 PCOD9152068
Probable space group: P 2/M
;
_chemical_formula_sum "Si O2"
_cell_formula_units_Z 28
_cell_length_a 16.312974
_cell_length_b 8.687048
_cell_length_c 20.564705
_cell_angle_alpha 90.000000
_cell_angle_beta 30.077784
_cell_angle_gamma 90.000000
_cell_volume 1460.553465
_symmetry_space_group_name_H-M "P 2/M"
_symmetry_group_IT_number 10
_symmetry_cell_setting 'monoclinic'
loop_
_space_group_symop_operation_xyz
x,y,z
-x,y,-z
-x,-y,-z
x,-y,z
loop_
_atom_site_type_symbol
_atom_site_label
_atom_site_fract_x
_atom_site_fract_y
_atom_site_fract_z
Si Si1 0.365489 0.185591 0.646226
Si Si2 0.892622 0.315082 0.389610
Si Si3 0.097381 0.185807 0.368388
Si Si4 0.527500 0.185311 0.905998
Si Si5 0.033191 0.184710 0.803986
Si Si6 0.317917 0.684231 0.934878
Si Si7 0.481151 0.685483 0.329125
O O1 0.500000 0.231849 0.500000
O O2 0.187367 0.232110 0.742487
O O3 0.416575 0.254691 0.679856
O O4 0.369346 0.000000 0.648307
O O5 0.897119 0.500000 0.383835
O O6 0.939797 0.248748 0.287095
O O7 0.707351 0.264365 0.534213
O O8 0.013599 0.256263 0.362373
O O9 0.288113 0.228624 0.240832
O O10 0.000000 0.233399 0.500000
O O11 0.089023 0.000000 0.369110
O O12 0.397513 0.261680 0.947655
O O13 0.511251 0.000000 0.912167
O O14 0.500000 0.227616 0.000000
O O15 0.030359 0.000000 0.802960
O O16 0.862015 0.245970 0.948160
O O17 0.307131 0.500000 0.941281
O O18 0.435477 0.736002 0.795276
O O19 0.481534 0.500000 0.329803
#
# Coordination Sequence:
#
# PCOD9152068 Si02
#       7
#     4   4   4   4   4   4   4
#     4  10  21  39  63  91 118 152 200 247 293 349
#     4  11  22  37  60  89 118 155 200 244 296 353
#     4  10  21  36  56  84 117 154 196 243 295 349
#     4  10  21  38  59  83 114 154 199 244 293 347
#     4  11  23  40  62  88 119 153 196 248 296 349
#     4  11  24  41  60  88 123 159 200 241 294 357
#     4  10  23  40  60  88 124 161 195 241 297 355
#
# _framework density 19.170815999999999
#
# number of rings (size 3 to 8) (size 9 to 14) (size 15 to 20)
#    0.000    1.571    1.429    3.000    0.000    6.000 
#    0.000    2.857    0.000    0.000    0.000    0.000 
#    0.000    0.000    0.000    0.000    0.000    0.000 
#
# Total GULP energy -156549.151036 kJ/mol
# GULP energy per Si atom -5591.041108 kJ/mol
# Density = 1.912718 g / cm^3
# Si number density = 19.170816 Si / 1000 Ang^3
#
#
#
# Elastic Constant Matrix: (Units=GPa)
#
#
# Indices 1 2 3 4 5 6 
#
# 1 58.3338 5.6422 -9.6303 0.0000 -14.4087 0.0000
# 2 5.6422 15.3008 11.3260 0.0000 -5.5032 0.0000
# 3 -9.6303 11.3260 78.6466 0.0000 -7.7124 0.0000
# 4 0.0000 0.0000 0.0000 24.1719 0.0000 -8.6291
# 5 -14.4087 -5.5032 -7.7124 0.0000 37.6063 0.0000
# 6 0.0000 0.0000 0.0000 -8.6291 0.0000 40.4330
#
#
#
# Elastic Compliance Matrix: (Units=1/GPa)
#
#
# Indices 1 2 3 4 5 6 
#
# 1 0.020533 -0.008120 0.004428 0.000000 0.007587 0.000000
# 2 -0.008120 0.079279 -0.011816 0.000000 0.006067 0.000000
# 3 0.004428 -0.011816 0.015263 0.000000 0.003097 0.000000
# 4 0.000000 0.000000 0.000000 0.044782 0.000000 0.009557
# 5 0.007587 0.006067 0.003097 0.000000 0.031021 0.000000
# 6 0.000000 0.000000 0.000000 0.009557 0.000000 0.026772
#
#
# Mechanical properties :
#
#
# Convention : Reuss Voigt Hill
#
# Bulk Modulus (GPa) = 11.89667 18.55078 15.22372
# Shear Modulus (GPa) = 18.07089 30.10511 24.08800
#
# Velocity S-wave (km/s) = 3.07355 3.96708 3.54855
# Velocity P-wave (km/s) = 4.33759 5.53906 4.97473
#
# Compressibility (1/GPa) = 0.08405712
#
# Stress axis : x y z
#
# Youngs Moduli (GPa) = 48.70187 12.61360 65.51911
#
# Poissons Ratio (x) = 0.10243 -0.29010
# Poissons Ratio (y) = 0.39547 0.77421
# Poissons Ratio (z) = -0.21564 0.14905
#
# Static dielectric constant tensor:
#      x y z
#    x 1.616470 0.000000 0.001360 
#    y 0.000000 1.646860 0.000000 
#    z 0.001360 0.000000 1.666200 
# 
# From -- ./inp_files/84896.got.cif
#   From: 2010.05.17/outbox.cif.g08.bks.cpg/sg10_43_cif.got.tgz:84896.got - 2010.06.03 11:33:40.
