data_PCOD9152438
_publ_section_title
;
Structure prediction by ZEFSAII (Michael W. Deem and Ramdas Pophale) SiO2 
 PCOD9152438
Probable space group: P 2/M
;
_chemical_formula_sum "Si O2"
_cell_formula_units_Z 32
_cell_length_a 15.017785
_cell_length_b 8.329383
_cell_length_c 22.928924
_cell_angle_alpha 90.000000
_cell_angle_beta 151.470093
_cell_angle_gamma 90.000000
_cell_volume 1369.880061
_symmetry_space_group_name_H-M "P 2/M"
_symmetry_group_IT_number 10
_symmetry_cell_setting 'monoclinic'
loop_
_space_group_symop_operation_xyz
x,y,z
-x,y,-z
-x,-y,-z
x,-y,z
loop_
_atom_site_type_symbol
_atom_site_label
_atom_site_fract_x
_atom_site_fract_y
_atom_site_fract_z
Si Si1 0.676518 0.306539 0.702406
Si Si2 0.794990 0.305688 0.897821
Si Si3 0.201778 0.313589 0.530776
Si Si4 0.479570 0.693258 0.796779
Si Si5 0.702458 0.808525 0.100602
Si Si6 0.180258 0.811466 0.705512
Si Si7 0.716899 0.184389 0.549163
Si Si8 0.009176 0.685073 0.198320
O O1 0.664326 0.500000 0.687233
O O2 0.674762 0.275822 0.770380
O O3 0.501206 0.225578 0.570929
O O4 0.873233 0.249810 0.788702
O O5 0.810475 0.500000 0.912853
O O6 0.680368 0.250624 0.888392
O O7 0.000000 0.243988 0.000000
O O8 0.238169 0.500000 0.538080
O O9 0.333951 0.269944 0.660501
O O10 0.239613 0.214654 0.493853
O O11 0.984027 0.287139 0.419329
O O12 0.484574 0.500000 0.807494
O O13 0.384060 0.771925 0.797614
O O14 0.822223 0.772129 0.227392
O O15 0.814922 0.754492 0.108873
O O16 0.684882 0.000000 0.086791
O O17 0.500000 0.739570 0.000000
O O18 0.144770 0.000000 0.677472
O O19 0.843848 0.292686 0.663952
O O20 0.756559 0.000000 0.587060
O O21 0.973559 0.500000 0.165280
#
# Coordination Sequence:
#
# PCOD9152438 Si02
#       8
#     4   4   4   4   4   4   4   4
#     4  10  21  39  60  88 121 155 196 242 293 348
#     4   9  18  36  61  86 115 153 197 244 292 341
#     4  11  21  37  61  88 119 154 192 240 296 353
#     4  10  21  37  60  88 118 156 194 237 294 349
#     4  10  23  43  62  82 117 163 203 243 296 351
#     4  11  23  38  59  88 119 156 195 240 293 349
#     4  12  23  36  59  89 121 158 193 236 298 360
#     4  11  23  38  62  91 119 154 196 248 296 344
#
# _framework density 23.359708999999999
#
# number of rings (size 3 to 8) (size 9 to 14) (size 15 to 20)
#    0.000    1.500    2.500    3.000    0.000    6.750 
#    0.000    1.250    0.000    1.500    0.000    0.000 
#    0.000    0.000    0.000    0.000    0.000    0.000 
#
# Total GULP energy -178954.155995 kJ/mol
# GULP energy per Si atom -5592.317375 kJ/mol
# Density = 2.330654 g / cm^3
# Si number density = 23.359709 Si / 1000 Ang^3
#
#
#
# Elastic Constant Matrix: (Units=GPa)
#
#
# Indices 1 2 3 4 5 6 
#
# 1 136.4068 6.3543 8.8956 0.0000 30.2626 0.0000
# 2 6.3543 -5.5731 14.5753 0.0000 -9.9314 0.0000
# 3 8.8956 14.5753 50.0639 0.0000 38.9379 0.0000
# 4 0.0000 0.0000 0.0000 12.5352 0.0000 24.6763
# 5 30.2626 -9.9314 38.9379 0.0000 37.1889 0.0000
# 6 0.0000 0.0000 0.0000 24.6763 0.0000 28.7512
#
#
#
# Elastic Compliance Matrix: (Units=1/GPa)
#
#
# Indices 1 2 3 4 5 6 
#
# 1 0.007581 0.007615 -0.001874 0.000000 -0.002173 0.000000
# 2 0.007615 -0.005625 0.033787 0.000000 -0.043075 0.000000
# 3 -0.001874 0.033787 0.012211 0.000000 -0.002238 0.000000
# 4 0.000000 0.000000 0.000000 -0.115691 0.000000 0.099294
# 5 -0.002173 -0.043075 -0.002238 0.000000 0.019498 0.000000
# 6 0.000000 0.000000 0.000000 0.099294 0.000000 -0.050440
#
#
# Mechanical properties :
#
#
# Convention : Reuss Voigt Hill
#
# Bulk Modulus (GPa) = 10.72688 26.72754 18.72721
# Shear Modulus (GPa) = -27.70870 25.76654 -0.97108
#
# Velocity S-wave (km/s) = -3.44783 3.32480 -0.64545
# Velocity P-wave (km/s) = 3.35380 5.11914 2.73474
#
# Compressibility (1/GPa) = 0.09322376
#
# Stress axis : x y z
#
# Youngs Moduli (GPa) = 131.91585 -177.76452 81.89124
#
# Poissons Ratio (x) = 1.35371 0.15345
# Poissons Ratio (y) = -1.00457 -2.76688
# Poissons Ratio (z) = 0.24718 6.00617
#
# Static dielectric constant tensor:
#      x y z
#    x 1.904370 0.000000 0.039540 
#    y 0.000000 1.811120 0.000000 
#    z 0.039540 0.000000 1.917620 
# 
# From -- ./inp_files/89488.got.cif
#   From: 2010.05.17/outbox.cif.g08.bks.cpg/sg10_45_cif.got.tgz:89488.got - 2010.06.03 11:33:40.
