data_PCOD9152987
_publ_section_title
;
Structure prediction by ZEFSAII (Michael W. Deem and Ramdas Pophale) SiO2 
 PCOD9152987
Probable space group: P 2/M
;
_chemical_formula_sum "Si O2"
_cell_formula_units_Z 28
_cell_length_a 9.536117
_cell_length_b 13.704809
_cell_length_c 11.906902
_cell_angle_alpha 90.000000
_cell_angle_beta 63.195351
_cell_angle_gamma 90.000000
_cell_volume 1388.914518
_symmetry_space_group_name_H-M "P 2/M"
_symmetry_group_IT_number 10
_symmetry_cell_setting 'monoclinic'
loop_
_space_group_symop_operation_xyz
x,y,z
-x,y,-z
-x,-y,-z
x,-y,z
loop_
_atom_site_type_symbol
_atom_site_label
_atom_site_fract_x
_atom_site_fract_y
_atom_site_fract_z
Si Si1 0.979457 0.383419 0.224838
Si Si2 0.971414 0.810440 0.885838
Si Si3 0.729110 0.117208 0.354900
Si Si4 0.162667 0.387216 0.370602
Si Si5 0.340846 0.117956 0.124082
Si Si6 0.666816 0.381545 0.482286
Si Si7 0.404642 0.119220 0.357815
O O1 0.990712 0.500000 0.198829
O O2 0.006934 0.306585 0.118201
O O3 0.111722 0.351470 0.268256
O O4 0.810132 0.365110 0.344818
O O5 0.806507 0.841137 0.891691
O O6 0.108325 0.847272 0.753936
O O7 0.000000 0.851443 0.000000
O O8 0.582221 0.148245 0.329330
O O9 0.699620 0.147003 0.495255
O O10 0.728165 0.000000 0.354710
O O11 0.206029 0.500000 0.336598
O O12 0.290077 0.344464 0.408822
O O13 0.000000 0.386891 0.500000
O O14 0.352609 0.149455 0.251267
O O15 0.328153 0.000000 0.128625
O O16 0.500000 0.144170 0.000000
O O17 0.500000 0.346075 0.500000
O O18 0.658834 0.500000 0.493881
O O19 0.403271 0.000000 0.355794
#
# Coordination Sequence:
#
# PCOD9152987 Si02
#       7
#     4   4   4   4   4   4   4
#     4   9  19  37  54  73 107 151 193 237 290 340
#     4  12  25  38  55  83 113 150 205 248 286 344
#     4   9  18  36  61  89 121 152 183 231 290 345
#     4   7  11  24  46  68  95 129 168 216 271 331
#     4  10  21  39  63  89 118 153 188 231 288 346
#     4   8  13  26  51  80 106 132 171 227 284 339
#     4   8  16  35  61  88 122 157 184 220 283 355
#
# _framework density 20.159625999999999
#
# number of rings (size 3 to 8) (size 9 to 14) (size 15 to 20)
#    0.000    3.000    0.000    3.857    0.000    3.143 
#   10.286    3.571    0.000    0.429    0.000    0.000 
#    0.000    0.000    0.000    0.000    0.000    0.000 
#
# Total GULP energy -156086.924102 kJ/mol
# GULP energy per Si atom -5574.533004 kJ/mol
# Density = 2.011374 g / cm^3
# Si number density = 20.159626 Si / 1000 Ang^3
#
#
#
# Elastic Constant Matrix: (Units=GPa)
#
#
# Indices 1 2 3 4 5 6 
#
# 1 183.6210 34.4303 98.0708 0.0000 6.9136 0.0000
# 2 34.4303 56.4025 32.0553 0.0000 2.7450 0.0000
# 3 98.0708 32.0553 125.5246 0.0000 13.1725 0.0000
# 4 0.0000 0.0000 0.0000 19.1691 0.0000 8.3820
# 5 6.9136 2.7450 13.1725 0.0000 31.3640 0.0000
# 6 0.0000 0.0000 0.0000 8.3820 0.0000 10.9055
#
#
#
# Elastic Compliance Matrix: (Units=1/GPa)
#
#
# Indices 1 2 3 4 5 6 
#
# 1 0.009540 -0.001844 -0.007092 0.000000 0.001037 0.000000
# 2 -0.001844 0.021102 -0.003972 0.000000 0.000228 0.000000
# 3 -0.007092 -0.003972 0.014981 0.000000 -0.004381 0.000000
# 4 0.000000 0.000000 0.000000 0.078576 0.000000 -0.060393
# 5 0.001037 0.000228 -0.004381 0.000000 0.033475 0.000000
# 6 0.000000 0.000000 0.000000 -0.060393 0.000000 0.138115
#
#
# Mechanical properties :
#
#
# Convention : Reuss Voigt Hill
#
# Bulk Modulus (GPa) = 50.48444 77.18455 63.83449
# Shear Modulus (GPa) = 15.23430 25.68718 20.46074
#
# Velocity S-wave (km/s) = 2.75195 3.57345 3.18926
# Velocity P-wave (km/s) = 5.93248 7.44284 6.73017
#
# Compressibility (1/GPa) = 0.01980808
#
# Stress axis : x y z
#
# Youngs Moduli (GPa) = 104.81845 47.38972 66.74992
#
# Poissons Ratio (x) = 0.08738 0.47337
# Poissons Ratio (y) = 0.19327 0.26514
# Poissons Ratio (z) = 0.74334 0.18824
#
# Static dielectric constant tensor:
#      x y z
#    x 1.711700 0.000000 0.026470 
#    y 0.000000 1.754560 0.000000 
#    z 0.026470 0.000000 1.694130 
# 
# From -- ./inp_files/42877.got.cif
#   From: 2010.05.17/outbox.cif.g08.bks.cpg/sg10_22_cif.got.tgz:42877.got - 2010.06.03 11:33:40.
