data_PCOD9152762
_publ_section_title
;
Structure prediction by ZEFSAII (Michael W. Deem and Ramdas Pophale) SiO2 
 PCOD9152762
Probable space group: P 2/M
;
_chemical_formula_sum "Si O2"
_cell_formula_units_Z 16
_cell_length_a 9.648869
_cell_length_b 10.733158
_cell_length_c 10.609889
_cell_angle_alpha 90.000000
_cell_angle_beta 136.289863
_cell_angle_gamma 90.000000
_cell_volume 759.275350
_symmetry_space_group_name_H-M "P 2/M"
_symmetry_group_IT_number 10
_symmetry_cell_setting 'monoclinic'
loop_
_space_group_symop_operation_xyz
x,y,z
-x,y,-z
-x,-y,-z
x,-y,z
loop_
_atom_site_type_symbol
_atom_site_label
_atom_site_fract_x
_atom_site_fract_y
_atom_site_fract_z
Si Si1 0.734572 0.860978 0.904745
Si Si2 0.726442 0.638208 0.701717
Si Si3 0.710909 0.858739 0.297076
Si Si4 0.990803 0.779441 0.698641
O O1 0.753091 0.748995 0.818748
O O2 0.524160 0.841281 0.839573
O O3 0.726648 0.000000 0.842462
O O4 0.912511 0.854111 0.122380
O O5 0.500000 0.646562 0.500000
O O6 0.754532 0.500000 0.774555
O O7 0.883109 0.661984 0.691580
O O8 0.825819 0.765370 0.279306
O O9 0.819447 0.846578 0.503688
O O10 0.745301 0.000000 0.271771
#
# Coordination Sequence:
#
# PCOD9152762 Si02
#       4
#     4   4   4   4
#     4  11  23  39  66  99 127 161 206 256 311 375
#     4  11  25  46  65  87 125 171 215 261 310 366
#     4  10  21  38  61  95 134 163 196 255 313 371
#     4  11  21  38  64  92 124 167 204 250 309 373
#
# _framework density 21.072724999999998
#
# number of rings (size 3 to 8) (size 9 to 14) (size 15 to 20)
#    0.000    1.250    2.500    4.500    0.000    8.500 
#    0.000    3.750    0.000    3.000    0.000    0.000 
#    0.000    0.000    0.000    0.000    0.000    0.000 
#
# Total GULP energy -89353.744282 kJ/mol
# GULP energy per Si atom -5584.609018 kJ/mol
# Density = 2.102476 g / cm^3
# Si number density = 21.072725 Si / 1000 Ang^3
#
#
#
# Elastic Constant Matrix: (Units=GPa)
#
#
# Indices 1 2 3 4 5 6 
#
# 1 114.5379 59.8383 25.1128 0.0000 11.9144 0.0000
# 2 59.8383 131.6041 42.1590 0.0000 -14.6285 0.0000
# 3 25.1128 42.1590 91.3125 0.0000 5.7634 0.0000
# 4 0.0000 0.0000 0.0000 -12.7577 0.0000 8.0043
# 5 11.9144 -14.6285 5.7634 0.0000 32.9790 0.0000
# 6 0.0000 0.0000 0.0000 8.0043 0.0000 6.2612
#
#
#
# Elastic Compliance Matrix: (Units=1/GPa)
#
#
# Indices 1 2 3 4 5 6 
#
# 1 0.013100 -0.006834 0.000043 0.000000 -0.007772 0.000000
# 2 -0.006834 0.013276 -0.004831 0.000000 0.009202 0.000000
# 3 0.000043 -0.004831 0.013455 0.000000 -0.004510 0.000000
# 4 0.000000 0.000000 0.000000 -0.043496 0.000000 0.055606
# 5 -0.007772 0.009202 -0.004510 0.000000 0.038000 0.000000
# 6 0.000000 0.000000 0.000000 0.055606 0.000000 0.088627
#
#
# Mechanical properties :
#
#
# Convention : Reuss Voigt Hill
#
# Bulk Modulus (GPa) = 60.28805 65.74165 63.01485
# Shear Modulus (GPa) = 32.95217 19.31945 26.13581
#
# Velocity S-wave (km/s) = 3.95870 3.03115 3.52556
# Velocity P-wave (km/s) = 7.04036 6.59665 6.82211
#
# Compressibility (1/GPa) = 0.01658703
#
# Stress axis : x y z
#
# Youngs Moduli (GPa) = 76.33570 75.32192 74.32348
#
# Poissons Ratio (x) = 0.51475 -0.00320
# Poissons Ratio (y) = 0.52168 0.35906
# Poissons Ratio (z) = -0.00328 0.36388
#
# Static dielectric constant tensor:
#      x y z
#    x 1.795100 0.000000 -0.010070 
#    y 0.000000 1.710600 0.000000 
#    z -0.010070 0.000000 1.769970 
# 
# From -- ./inp_files/17658.got.cif
#   From: 2010.05.17/outbox.cif.g08.bks.cpg/sg10_9_cif.got.tgz:17658.got - 2010.06.03 11:33:40.
