data_PCOD9152594
_publ_section_title
;
Structure prediction by ZEFSAII (Michael W. Deem and Ramdas Pophale) SiO2 
 PCOD9152594
Probable space group: P 2/M
;
_chemical_formula_sum "Si O2"
_cell_formula_units_Z 28
_cell_length_a 12.657491
_cell_length_b 9.515596
_cell_length_c 13.619490
_cell_angle_alpha 90.000000
_cell_angle_beta 63.267319
_cell_angle_gamma 90.000000
_cell_volume 1465.047917
_symmetry_space_group_name_H-M "P 2/M"
_symmetry_group_IT_number 10
_symmetry_cell_setting 'monoclinic'
loop_
_space_group_symop_operation_xyz
x,y,z
-x,y,-z
-x,-y,-z
x,-y,z
loop_
_atom_site_type_symbol
_atom_site_label
_atom_site_fract_x
_atom_site_fract_y
_atom_site_fract_z
Si Si1 0.524256 0.344591 0.604009
Si Si2 0.240469 0.834989 0.509025
Si Si3 0.128691 0.651884 0.401568
Si Si4 0.629663 0.164572 0.990351
Si Si5 0.329801 0.837444 0.793319
Si Si6 0.099166 0.167910 0.769706
Si Si7 0.137057 0.663984 0.164497
O O1 0.500000 0.360942 0.500000
O O2 0.540694 0.500000 0.640925
O O3 0.638761 0.248081 0.554569
O O4 0.416395 0.265531 0.700072
O O5 0.176418 0.787961 0.436559
O O6 0.165881 0.794975 0.638395
O O7 0.260715 0.000000 0.507141
O O8 0.189958 0.500000 0.397932
O O9 0.123783 0.667571 0.287691
O O10 0.000000 0.638751 0.500000
O O11 0.738615 0.259882 0.909339
O O12 0.648520 0.000000 0.955077
O O13 0.500000 0.203953 0.000000
O O14 0.638684 0.172587 0.104992
O O15 0.194599 0.806262 0.816838
O O16 0.350314 0.000000 0.753956
O O17 0.977396 0.253838 0.829853
O O18 0.073912 0.000000 0.777838
O O19 0.138271 0.500000 0.132934
#
# Coordination Sequence:
#
# PCOD9152594 Si02
#       7
#     4   4   4   4   4   4   4
#     4  11  23  37  58  90 128 166 200 244 306 369
#     4  11  22  35  57  88 124 164 204 251 300 359
#     4  10  21  38  58  86 125 163 198 242 304 369
#     4  10  24  46  68  90 119 157 206 259 308 364
#     4  10  22  42  65  90 122 163 209 259 309 357
#     4  10  21  38  62  91 124 160 204 254 304 364
#     4  11  24  41  64  91 124 164 203 253 310 366
#
# _framework density 19.112003000000001
#
# number of rings (size 3 to 8) (size 9 to 14) (size 15 to 20)
#    0.000    1.571    2.857    1.286    2.000    4.571 
#    0.000    2.857    0.000    0.000    0.000    0.000 
#    0.000    0.000    0.000    0.000    0.000    0.000 
#
# Total GULP energy -156108.005202 kJ/mol
# GULP energy per Si atom -5575.285900 kJ/mol
# Density = 1.906850 g / cm^3
# Si number density = 19.112003 Si / 1000 Ang^3
#
#
#
# Elastic Constant Matrix: (Units=GPa)
#
#
# Indices 1 2 3 4 5 6 
#
# 1 147.0852 81.5986 48.5706 0.0000 -23.3253 0.0000
# 2 81.5986 116.3748 57.8291 0.0000 -26.3981 0.0000
# 3 48.5706 57.8291 67.6658 0.0000 -15.4216 0.0000
# 4 0.0000 0.0000 0.0000 41.3182 0.0000 -14.9886
# 5 -23.3253 -26.3981 -15.4216 0.0000 34.5806 0.0000
# 6 0.0000 0.0000 0.0000 -14.9886 0.0000 17.2311
#
#
#
# Elastic Compliance Matrix: (Units=1/GPa)
#
#
# Indices 1 2 3 4 5 6 
#
# 1 0.011421 -0.006495 -0.002251 0.000000 0.001742 0.000000
# 2 -0.006495 0.019999 -0.011074 0.000000 0.005947 0.000000
# 3 -0.002251 -0.011074 0.026254 0.000000 0.001736 0.000000
# 4 0.000000 0.000000 0.000000 0.035360 0.000000 0.030758
# 5 0.001742 0.005947 0.001736 0.000000 0.035408 0.000000
# 6 0.000000 0.000000 0.000000 0.030758 0.000000 0.084790
#
#
# Mechanical properties :
#
#
# Convention : Reuss Voigt Hill
#
# Bulk Modulus (GPa) = 55.44722 78.56915 67.00818
# Shear Modulus (GPa) = 19.31371 28.16782 23.74076
#
# Velocity S-wave (km/s) = 3.18237 3.84321 3.52830
# Velocity P-wave (km/s) = 6.52518 7.80338 7.19273
#
# Compressibility (1/GPa) = 0.01803517
#
# Stress axis : x y z
#
# Youngs Moduli (GPa) = 87.55525 50.00259 38.08920
#
# Poissons Ratio (x) = 0.32475 0.08572
# Poissons Ratio (y) = 0.56865 0.42181
# Poissons Ratio (z) = 0.19705 0.55375
#
# Static dielectric constant tensor:
#      x y z
#    x 1.672440 0.000000 0.012210 
#    y 0.000000 1.684200 0.000000 
#    z 0.012210 0.000000 1.632690 
# 
# From -- ./inp_files/63658.got.cif
#   From: 2010.05.17/outbox.cif.g08.bks.cpg/sg10_32_cif.got.tgz:63658.got - 2010.06.03 11:33:40.
