data_PCOD9152442
_publ_section_title
;
Structure prediction by ZEFSAII (Michael W. Deem and Ramdas Pophale) SiO2 
 PCOD9152442
Probable space group: P 2/M
;
_chemical_formula_sum "Si O2"
_cell_formula_units_Z 32
_cell_length_a 15.808480
_cell_length_b 9.528741
_cell_length_c 24.594998
_cell_angle_alpha 90.000000
_cell_angle_beta 27.626289
_cell_angle_gamma 90.000000
_cell_volume 1717.955705
_symmetry_space_group_name_H-M "P 2/M"
_symmetry_group_IT_number 10
_symmetry_cell_setting 'monoclinic'
loop_
_space_group_symop_operation_xyz
x,y,z
-x,y,-z
-x,-y,-z
x,-y,z
loop_
_atom_site_type_symbol
_atom_site_label
_atom_site_fract_x
_atom_site_fract_y
_atom_site_fract_z
Si Si1 0.798565 0.331964 0.094781
Si Si2 0.627886 0.162389 0.796145
Si Si3 0.785165 0.159886 0.994003
Si Si4 0.701998 0.664394 0.859240
Si Si5 0.029758 0.162838 0.218755
Si Si6 0.214289 0.664653 0.391980
Si Si7 0.557437 0.668055 0.632576
Si Si8 0.390482 0.835300 0.508634
O O1 0.792824 0.500000 0.093249
O O2 0.632745 0.292691 0.229227
O O3 0.773538 0.263147 0.050672
O O4 0.000000 0.291024 0.000000
O O5 0.709903 0.251543 0.798447
O O6 0.680612 0.235410 0.709591
O O7 0.686707 0.000000 0.763868
O O8 0.408858 0.165429 0.926130
O O9 0.940735 0.193648 0.861776
O O10 0.810158 0.000000 0.999357
O O11 0.738154 0.500000 0.829870
O O12 0.845666 0.733329 0.817974
O O13 0.500000 0.678160 0.000000
O O14 0.822379 0.173814 0.355227
O O15 0.089626 0.000000 0.192491
O O16 0.262904 0.500000 0.355137
O O17 0.280394 0.697417 0.415848
O O18 0.000000 0.679646 0.500000
O O19 0.557226 0.500000 0.623219
O O20 0.575024 0.748879 0.565898
O O21 0.500000 0.787183 0.500000
O O22 0.437069 0.000000 0.473104
#
# Coordination Sequence:
#
# PCOD9152442 Si02
#       8
#     4   4   4   4   4   4   4   4
#     4  10  22  39  61  89 119 152 193 243 302 359
#     4  11  22  37  59  86 119 156 197 245 297 356
#     4  10  21  37  60  89 119 153 195 243 300 359
#     4  11  23  37  57  87 120 157 198 240 293 358
#     4  10  22  41  61  86 122 160 201 249 302 356
#     4  10  22  40  61  86 120 161 199 243 298 357
#     4  10  22  41  62  88 124 159 197 251 303 353
#     4  10  24  44  65  88 119 162 208 255 302 355
#
# _framework density 18.626788999999999
#
# number of rings (size 3 to 8) (size 9 to 14) (size 15 to 20)
#    0.000    1.750    2.500    0.750    3.500    3.750 
#    0.000    0.000    0.000    0.000    0.000    0.000 
#    0.000    0.000    0.000    0.000    0.000    0.000 
#
# Total GULP energy -178665.474089 kJ/mol
# GULP energy per Si atom -5583.296065 kJ/mol
# Density = 1.858439 g / cm^3
# Si number density = 18.626789 Si / 1000 Ang^3
#
#
#
# Elastic Constant Matrix: (Units=GPa)
#
#
# Indices 1 2 3 4 5 6 
#
# 1 118.2253 67.0718 56.7556 0.0000 12.4190 0.0000
# 2 67.0718 77.3249 47.5930 0.0000 13.3652 0.0000
# 3 56.7556 47.5930 83.5013 0.0000 12.9625 0.0000
# 4 0.0000 0.0000 0.0000 19.7269 0.0000 8.2364
# 5 12.4190 13.3652 12.9625 0.0000 35.4907 0.0000
# 6 0.0000 0.0000 0.0000 8.2364 0.0000 35.8548
#
#
#
# Elastic Compliance Matrix: (Units=1/GPa)
#
#
# Indices 1 2 3 4 5 6 
#
# 1 0.017979 -0.012470 -0.005157 0.000000 0.000289 0.000000
# 2 -0.012470 0.029003 -0.007460 0.000000 -0.003834 0.000000
# 3 -0.005157 -0.007460 0.020160 0.000000 -0.002749 0.000000
# 4 0.000000 0.000000 0.000000 0.056070 0.000000 -0.012880
# 5 0.000289 -0.003834 -0.002749 0.000000 0.030523 0.000000
# 6 0.000000 0.000000 0.000000 -0.012880 0.000000 0.030849
#
#
# Mechanical properties :
#
#
# Convention : Reuss Voigt Hill
#
# Bulk Modulus (GPa) = 58.93690 69.09915 64.01802
# Shear Modulus (GPa) = 20.79748 25.38990 23.09369
#
# Velocity S-wave (km/s) = 3.34509 3.69600 3.52491
# Velocity P-wave (km/s) = 6.82855 7.44252 7.14214
#
# Compressibility (1/GPa) = 0.01696730
#
# Stress axis : x y z
#
# Youngs Moduli (GPa) = 55.62186 34.47881 49.60404
#
# Poissons Ratio (x) = 0.42996 0.25581
# Poissons Ratio (y) = 0.69363 0.37003
# Poissons Ratio (z) = 0.28685 0.25720
#
# Static dielectric constant tensor:
#      x y z
#    x 1.642520 0.000000 -0.027880 
#    y 0.000000 1.624110 0.000000 
#    z -0.027880 0.000000 1.650300 
# 
# From -- ./inp_files/66553.got.cif
#   From: 2010.05.17/outbox.cif.g08.bks.cpg/sg10_34_cif.got.tgz:66553.got - 2010.06.03 11:33:40.
