data_PCOD9152548
_publ_section_title
;
Structure prediction by ZEFSAII (Michael W. Deem and Ramdas Pophale) SiO2 
 PCOD9152548
Probable space group: P 2/M
;
_chemical_formula_sum "Si O2"
_cell_formula_units_Z 20
_cell_length_a 5.092623
_cell_length_b 19.811080
_cell_length_c 14.666096
_cell_angle_alpha 90.000000
_cell_angle_beta 121.190031
_cell_angle_gamma 90.000000
_cell_volume 1265.788240
_symmetry_space_group_name_H-M "P 2/M"
_symmetry_group_IT_number 10
_symmetry_cell_setting 'monoclinic'
loop_
_space_group_symop_operation_xyz
x,y,z
-x,y,-z
-x,-y,-z
x,-y,z
loop_
_atom_site_type_symbol
_atom_site_label
_atom_site_fract_x
_atom_site_fract_y
_atom_site_fract_z
Si Si1 0.849709 0.578664 0.572476
Si Si2 0.635225 0.500000 0.923577
Si Si3 0.866124 0.145963 0.077599
Si Si4 0.134761 0.000000 0.922035
Si Si5 0.322584 0.635404 0.799414
Si Si6 0.930735 0.290894 0.878853
O O1 0.500000 0.602151 0.500000
O O2 0.842228 0.500000 0.602303
O O3 0.000000 0.580350 0.500000
O O4 0.054035 0.620090 0.679640
O O5 0.509958 0.566544 0.851257
O O6 0.500000 0.500000 0.000000
O O7 0.000000 0.500000 0.000000
O O8 0.940435 0.072908 0.135113
O O9 0.004126 0.214502 0.142518
O O10 0.500000 0.154000 0.000000
O O11 0.000000 0.142458 0.000000
O O12 0.500000 0.000000 0.000000
O O13 0.000000 0.000000 0.000000
O O14 0.577598 0.687035 0.807559
O O15 0.160428 0.661898 0.862600
O O16 0.000000 0.295198 0.000000
#
# Coordination Sequence:
#
# PCOD9152548 Si02
#       6
#     4   2   4   2   4   4
#     4  10  21  38  57  71  86 110 153 207 254 292
#     4  12  24  34  46  66  94 124 158 188 217 264
#     4   9  16  27  42  62  89 126 164 192 220 258
#     4   8  14  24  40  60  84 118 164 200 216 246
#     4  12  22  36  50  70  92 125 158 197 238 280
#     4  11  21  32  48  68 101 133 159 185 226 282
#
# _framework density 15.80043
#
# number of rings (size 3 to 8) (size 9 to 14) (size 15 to 20)
#    0.000    1.600    1.000    7.200    0.000    0.000 
#    0.000    0.000    0.000    0.000    0.000    0.000 
#    0.000    0.000    0.000   18.000    0.000    2.200 
#
# Total GULP energy -111534.037085 kJ/mol
# GULP energy per Si atom -5576.701854 kJ/mol
# Density = 1.576447 g / cm^3
# Si number density = 15.800430 Si / 1000 Ang^3
#
#
#
# Elastic Constant Matrix: (Units=GPa)
#
#
# Indices 1 2 3 4 5 6 
#
# 1 125.0881 38.9942 28.9468 0.0000 24.1896 0.0000
# 2 38.9942 124.8127 46.1035 0.0000 14.9621 0.0000
# 3 28.9468 46.1035 64.3900 0.0000 22.9481 0.0000
# 4 0.0000 0.0000 0.0000 3.8019 0.0000 5.8643
# 5 24.1896 14.9621 22.9481 0.0000 25.1293 0.0000
# 6 0.0000 0.0000 0.0000 5.8643 0.0000 25.6313
#
#
#
# Elastic Compliance Matrix: (Units=1/GPa)
#
#
# Indices 1 2 3 4 5 6 
#
# 1 0.010354 -0.002199 0.000008 0.000000 -0.008664 0.000000
# 2 -0.002199 0.011375 -0.008149 0.000000 0.002785 0.000000
# 3 0.000008 -0.008149 0.029109 0.000000 -0.021738 0.000000
# 4 0.000000 0.000000 0.000000 0.406470 0.000000 -0.092998
# 5 -0.008664 0.002785 -0.021738 0.000000 0.066327 0.000000
# 6 0.000000 0.000000 0.000000 -0.092998 0.000000 0.060292
#
#
# Mechanical properties :
#
#
# Convention : Reuss Voigt Hill
#
# Bulk Modulus (GPa) = 33.15924 60.26444 46.71184
# Shear Modulus (GPa) = 8.13460 24.26226 16.19843
#
# Velocity S-wave (km/s) = 2.27146 3.92285 3.20533
# Velocity P-wave (km/s) = 5.28311 7.66434 6.58230
#
# Compressibility (1/GPa) = 0.03015751
#
# Stress axis : x y z
#
# Youngs Moduli (GPa) = 96.58532 87.91128 34.35418
#
# Poissons Ratio (x) = 0.19331 -0.00027
# Poissons Ratio (y) = 0.21238 0.27994
# Poissons Ratio (z) = -0.00076 0.71637
#
# Static dielectric constant tensor:
#      x y z
#    x 1.527430 0.000000 0.003910 
#    y 0.000000 1.610710 0.000000 
#    z 0.003910 0.000000 1.486810 
# 
# From -- ./inp_files/39282.got.cif
#   From: 2010.05.17/outbox.cif.g08.bks.cpg/sg10_20_cif.got.tgz:39282.got - 2010.06.03 11:33:40.
