data_PCOD9152757
_publ_section_title
;
Structure prediction by ZEFSAII (Michael W. Deem and Ramdas Pophale) SiO2 
 PCOD9152757
Probable space group: P 2/M
;
_chemical_formula_sum "Si O2"
_cell_formula_units_Z 30
_cell_length_a 22.152636
_cell_length_b 9.495830
_cell_length_c 13.922820
_cell_angle_alpha 90.000000
_cell_angle_beta 151.369269
_cell_angle_gamma 90.000000
_cell_volume 1403.358262
_symmetry_space_group_name_H-M "P 2/M"
_symmetry_group_IT_number 10
_symmetry_cell_setting 'monoclinic'
loop_
_space_group_symop_operation_xyz
x,y,z
-x,y,-z
-x,-y,-z
x,-y,z
loop_
_atom_site_type_symbol
_atom_site_label
_atom_site_fract_x
_atom_site_fract_y
_atom_site_fract_z
Si Si1 0.478286 0.666019 0.297414
Si Si2 0.221360 0.846545 0.449615
Si Si3 0.349055 0.338445 0.778952
Si Si4 0.674635 0.162009 0.068760
Si Si5 0.770624 0.653920 0.922992
Si Si6 0.952493 0.000000 0.651618
Si Si7 0.269800 0.165134 0.304510
Si Si8 0.076403 0.239095 0.694638
O O1 0.499634 0.500000 0.308748
O O2 0.367034 0.676009 0.221264
O O3 0.602153 0.745719 0.505512
O O4 0.426845 0.746095 0.131475
O O5 0.302551 0.726829 0.614037
O O6 0.197741 0.817983 0.304924
O O7 0.292027 0.000000 0.551704
O O8 0.100144 0.879289 0.344757
O O9 0.307443 0.500000 0.732616
O O10 0.300230 0.236268 0.794732
O O11 0.500000 0.335370 0.000000
O O12 0.800439 0.167989 0.181102
O O13 0.636329 0.000000 0.029196
O O14 0.771742 0.500000 0.878153
O O15 0.797302 0.774001 0.882960
O O16 0.867873 0.660112 0.146263
O O17 0.995736 0.121932 0.635732
O O18 0.295696 0.000000 0.326646
O O19 0.000000 0.305621 0.500000
#
# Coordination Sequence:
#
# PCOD9152757 Si02
#       8
#     4   4   4   4   4   2   4   4
#     4  10  21  38  61  92 137 176 204 249 313 382
#     4   9  22  40  62  89 117 163 217 265 307 371
#     4  11  23  37  56  88 132 175 207 246 311 382
#     4  11  22  36  61  98 126 164 214 265 311 378
#     4  10  24  42  62  96 133 168 209 255 315 383
#     4  10  21  44  66  90 117 156 207 268 330 368
#     4  11  22  39  64  97 128 168 214 257 308 371
#     4  11  23  40  70  95 122 160 211 269 330 377
#
# _framework density 21.377292000000001
#
# number of rings (size 3 to 8) (size 9 to 14) (size 15 to 20)
#    0.400    1.200    0.667    3.800    2.800    7.733 
#    0.000    3.333    0.000    0.800    0.000    0.000 
#    0.000    0.000    0.000    0.000    0.000    0.000 
#
# Total GULP energy -167075.420064 kJ/mol
# GULP energy per Si atom -5569.180669 kJ/mol
# Density = 2.132864 g / cm^3
# Si number density = 21.377292 Si / 1000 Ang^3
#
#
#
# Elastic Constant Matrix: (Units=GPa)
#
#
# Indices 1 2 3 4 5 6 
#
# 1 107.8538 63.7926 39.3332 0.0000 -19.0069 0.0000
# 2 63.7926 145.5903 28.5443 0.0000 -18.9436 0.0000
# 3 39.3332 28.5443 74.0886 0.0000 -17.7290 0.0000
# 4 0.0000 0.0000 0.0000********** 0.0000**********
# 5 -19.0069 -18.9436 -17.7290 0.0000 27.3092 0.0000
# 6 0.0000 0.0000 0.0000********** 0.0000**********
#
#
#
# Elastic Compliance Matrix: (Units=1/GPa)
#
#
# Indices 1 2 3 4 5 6 
#
# 1 0.014672 -0.004989 -0.005034 0.000000 0.003483 0.000000
# 2 -0.004989 0.009495 -0.000313 0.000000 0.002911 0.000000
# 3 -0.005034 -0.000313 0.018232 0.000000 0.008116 0.000000
# 4 0.000000 0.000000 0.000000 0.022678 0.000000 -0.019958
# 5 0.003483 0.002911 0.008116 0.000000 0.046330 0.000000
# 6 0.000000 0.000000 0.000000 -0.019958 0.000000 0.017503
#
#
# Mechanical properties :
#
#
# Convention : Reuss Voigt Hill
#
# Bulk Modulus (GPa) = 46.02326 65.65254 55.83790
# Shear Modulus (GPa) = 31.88293 -5818.07705 -2893.09706
#
# Velocity S-wave (km/s) = 3.86611 -52.22570 -36.82782
# Velocity P-wave (km/s) = 6.44242 60.04932 42.21620
#
# Compressibility (1/GPa) = 0.02172814
#
# Stress axis : x y z
#
# Youngs Moduli (GPa) = 68.15666 105.32356 54.84725
#
# Poissons Ratio (x) = 0.52542 0.27609
# Poissons Ratio (y) = 0.34001 0.01717
# Poissons Ratio (z) = 0.34309 0.03297
#
# Static dielectric constant tensor:
#      x y z
#    x 1.774760 0.000000 -0.004520 
#    y 0.000000 1.739800 0.000000 
#    z -0.004520 0.000000 1.816410 
# 
# From -- ./inp_files/71338.got.cif
#   From: 2010.05.17/outbox.cif.g08.bks.cpg/sg10_36_cif.got.tgz:71338.got - 2010.06.03 11:33:40.
