data_PCOD9152957
_publ_section_title
;
Structure prediction by ZEFSAII (Michael W. Deem and Ramdas Pophale) SiO2 
 PCOD9152957
Probable space group: P 2/M
;
_chemical_formula_sum "Si O2"
_cell_formula_units_Z 32
_cell_length_a 25.126137
_cell_length_b 8.188012
_cell_length_c 16.218782
_cell_angle_alpha 90.000000
_cell_angle_beta 28.712284
_cell_angle_gamma 90.000000
_cell_volume 1603.008644
_symmetry_space_group_name_H-M "P 2/M"
_symmetry_group_IT_number 10
_symmetry_cell_setting 'monoclinic'
loop_
_space_group_symop_operation_xyz
x,y,z
-x,y,-z
-x,-y,-z
x,-y,z
loop_
_atom_site_type_symbol
_atom_site_label
_atom_site_fract_x
_atom_site_fract_y
_atom_site_fract_z
Si Si1 0.499718 0.812000 0.595932
Si Si2 0.678022 0.311308 0.042610
Si Si3 0.897551 0.304549 0.366314
Si Si4 0.659432 0.809354 0.747697
Si Si5 0.119387 0.184051 0.796990
Si Si6 0.454307 0.691381 0.933983
Si Si7 0.730948 0.312605 0.270009
Si Si8 0.853108 0.300136 0.934604
O O1 0.500000 0.765607 0.500000
O O2 0.419674 0.700758 0.757562
O O3 0.627670 0.791108 0.442128
O O4 0.463413 0.000000 0.654007
O O5 0.704771 0.500000 0.986907
O O6 0.621934 0.238706 0.036385
O O7 0.784869 0.243185 0.946614
O O8 0.893621 0.500000 0.379623
O O9 0.786710 0.233218 0.557749
O O10 0.891356 0.254601 0.279357
O O11 0.018253 0.249096 0.236022
O O12 0.575047 0.769039 0.787019
O O13 0.648075 0.000000 0.781513
O O14 0.613117 0.712387 0.889490
O O15 0.184142 0.300417 0.770819
O O16 0.167732 0.000000 0.727646
O O17 0.000000 0.170218 0.000000
O O18 0.473078 0.500000 0.891346
O O19 0.696244 0.500000 0.303326
O O20 0.787910 0.251485 0.107427
O O21 0.851545 0.500000 0.936924
#
# Coordination Sequence:
#
# PCOD9152957 Si02
#       8
#     4   4   4   4   4   4   4   4
#     4  11  23  36  52  81 119 158 197 240 291 345
#     4  10  21  39  62  88 115 151 198 245 293 346
#     4  11  22  39  62  87 116 154 203 244 286 347
#     4  11  23  41  64  89 121 153 186 236 299 355
#     4  11  23  37  54  81 119 155 194 242 294 348
#     4  10  21  40  67  93 117 147 189 240 294 355
#     4  11  21  36  57  78 110 156 203 247 288 339
#     4   9  19  36  59  85 114 152 198 246 288 336
#
# _framework density 19.96246
#
# number of rings (size 3 to 8) (size 9 to 14) (size 15 to 20)
#    0.000    1.500    2.500    3.750    1.750    2.000 
#    0.000    1.875    0.000    3.750    0.000    0.000 
#    0.000    0.000    0.000    0.000    0.000    0.000 
#
# Total GULP energy -178546.949612 kJ/mol
# GULP energy per Si atom -5579.592175 kJ/mol
# Density = 1.991703 g / cm^3
# Si number density = 19.962460 Si / 1000 Ang^3
#
#
#
# Elastic Constant Matrix: (Units=GPa)
#
#
# Indices 1 2 3 4 5 6 
#
# 1 129.7158 5.1650 29.5017 0.0000 -16.8055 0.0000
# 2 5.1650 24.4859 -8.8256 0.0000 -2.5909 0.0000
# 3 29.5017 -8.8256 72.2976 0.0000 -23.0204 0.0000
# 4 0.0000 0.0000 0.0000 23.3296 0.0000 -2.1485
# 5 -16.8055 -2.5909 -23.0204 0.0000 23.6677 0.0000
# 6 0.0000 0.0000 0.0000 -2.1485 0.0000 11.2582
#
#
#
# Elastic Compliance Matrix: (Units=1/GPa)
#
#
# Indices 1 2 3 4 5 6 
#
# 1 0.008891 -0.002597 -0.002934 0.000000 0.003175 0.000000
# 2 -0.002597 0.047006 0.011371 0.000000 0.014361 0.000000
# 3 -0.002934 0.011371 0.023396 0.000000 0.021917 0.000000
# 4 0.000000 0.000000 0.000000 0.043631 0.000000 0.008326
# 5 0.003175 0.014361 0.021917 0.000000 0.067396 0.000000
# 6 0.000000 0.000000 0.000000 0.008326 0.000000 0.090413
#
#
# Mechanical properties :
#
#
# Convention : Reuss Voigt Hill
#
# Bulk Modulus (GPa) = 10.99246 30.90904 20.95075
# Shear Modulus (GPa) = 16.70130 25.02832 20.86481
#
# Velocity S-wave (km/s) = 2.89560 3.54470 3.23647
# Velocity P-wave (km/s) = 4.08630 5.68071 4.94815
#
# Compressibility (1/GPa) = 0.09097148
#
# Stress axis : x y z
#
# Youngs Moduli (GPa) = 112.47004 21.27402 42.74276
#
# Poissons Ratio (x) = 0.05525 0.12542
# Poissons Ratio (y) = 0.29210 -0.48602
# Poissons Ratio (z) = 0.33001 -0.24190
#
# Static dielectric constant tensor:
#      x y z
#    x 1.733470 0.000000 -0.031250 
#    y 0.000000 1.724030 0.000000 
#    z -0.031250 0.000000 1.676320 
# 
# From -- ./inp_files/71479.got.cif
#   From: 2010.05.17/outbox.cif.g08.bks.cpg/sg10_36_cif.got.tgz:71479.got - 2010.06.03 11:33:40.
