data_PCOD9152384
_publ_section_title
;
Structure prediction by ZEFSAII (Michael W. Deem and Ramdas Pophale) SiO2 
 PCOD9152384
Probable space group: P 2/M
;
_chemical_formula_sum "Si O2"
_cell_formula_units_Z 28
_cell_length_a 8.887536
_cell_length_b 12.524002
_cell_length_c 15.777540
_cell_angle_alpha 90.000000
_cell_angle_beta 60.322515
_cell_angle_gamma 90.000000
_cell_volume 1525.796701
_symmetry_space_group_name_H-M "P 2/M"
_symmetry_group_IT_number 10
_symmetry_cell_setting 'monoclinic'
loop_
_space_group_symop_operation_xyz
x,y,z
-x,y,-z
-x,-y,-z
x,-y,z
loop_
_atom_site_type_symbol
_atom_site_label
_atom_site_fract_x
_atom_site_fract_y
_atom_site_fract_z
Si Si1 0.919248 0.120159 0.439210
Si Si2 0.196183 0.000000 0.915220
Si Si3 0.392178 0.197687 0.775213
Si Si4 0.236736 0.823532 0.235799
Si Si5 0.133229 0.624063 0.892643
Si Si6 0.304453 0.000000 0.077730
Si Si7 0.011218 0.378564 0.255343
Si Si8 0.667814 0.738758 0.403339
O O1 0.757100 0.173553 0.438955
O O2 0.000000 0.175743 0.500000
O O3 0.080757 0.121525 0.330544
O O4 0.868656 0.000000 0.476964
O O5 0.269204 0.101165 0.841946
O O6 0.000000 0.000000 0.000000
O O7 0.252642 0.000000 0.995757
O O8 0.584816 0.180032 0.759828
O O9 0.303655 0.304458 0.837388
O O10 0.383152 0.213675 0.675306
O O11 0.259395 0.895529 0.145723
O O12 0.159691 0.706068 0.237656
O O13 0.175257 0.500000 0.898833
O O14 0.030322 0.628307 0.832809
O O15 0.000000 0.664933 0.000000
O O16 0.500000 0.000000 0.000000
O O17 0.055761 0.500000 0.265461
O O18 0.825758 0.344430 0.347025
O O19 0.500000 0.696829 0.500000
#
# Coordination Sequence:
#
# PCOD9152384 Si02
#       8
#     4   2   4   4   4   2   4   4
#     4  10  21  37  59  84 116 158 196 241 294 349
#     4  12  28  38  61  86 123 158 205 242 291 360
#     4  11  23  38  58  89 118 157 197 243 294 350
#     4  11  22  38  61  83 124 155 201 239 295 354
#     4   9  19  37  58  82 114 150 196 247 297 345
#     4  12  24  42  57  86 123 166 195 244 299 344
#     4   9  21  39  62  88 116 156 199 245 297 353
#     4  10  22  39  61  88 121 153 195 248 295 354
#
# _framework density 18.351068999999999
#
# number of rings (size 3 to 8) (size 9 to 14) (size 15 to 20)
#    0.000    1.714    2.143    1.286    9.000    1.143 
#    0.000    0.000    0.000   17.571    0.000    0.000 
#    0.000    0.000    0.000    0.000    0.000    0.000 
#
# Total GULP energy -155893.925241 kJ/mol
# GULP energy per Si atom -5567.640187 kJ/mol
# Density = 1.830930 g / cm^3
# Si number density = 18.351069 Si / 1000 Ang^3
#
#
#
# Elastic Constant Matrix: (Units=GPa)
#
#
# Indices 1 2 3 4 5 6 
#
# 1 42.9175 16.5748 9.9825 0.0000 -12.2692 0.0000
# 2 16.5748 94.4071 20.1067 0.0000 -2.5010 0.0000
# 3 9.9825 20.1067 104.0153 0.0000 -5.0957 0.0000
# 4 0.0000 0.0000 0.0000 12.9026 0.0000 8.2130
# 5 -12.2692 -2.5010 -5.0957 0.0000 31.4449 0.0000
# 6 0.0000 0.0000 0.0000 8.2130 0.0000 13.8973
#
#
#
# Elastic Compliance Matrix: (Units=1/GPa)
#
#
# Indices 1 2 3 4 5 6 
#
# 1 0.028311 -0.004405 -0.001352 0.000000 0.010477 0.000000
# 2 -0.004405 0.011742 -0.001900 0.000000 -0.001093 0.000000
# 3 -0.001352 -0.001900 0.010159 0.000000 0.000967 0.000000
# 4 0.000000 0.000000 0.000000 0.124240 0.000000 -0.073423
# 5 0.010477 -0.001093 0.000967 0.000000 0.035959 0.000000
# 6 0.000000 0.000000 0.000000 -0.073423 0.000000 0.115347
#
#
# Mechanical properties :
#
#
# Convention : Reuss Voigt Hill
#
# Bulk Modulus (GPa) = 28.65663 37.18533 32.92098
# Shear Modulus (GPa) = 14.17613 24.62736 19.40175
#
# Velocity S-wave (km/s) = 2.78240 3.66732 3.25507
# Velocity P-wave (km/s) = 5.09627 6.18382 5.66620
#
# Compressibility (1/GPa) = 0.03489594
#
# Stress axis : x y z
#
# Youngs Moduli (GPa) = 35.32141 85.16723 98.43951
#
# Poissons Ratio (x) = 0.37516 0.13312
# Poissons Ratio (y) = 0.15559 0.18708
# Poissons Ratio (z) = 0.04777 0.16186
#
# Static dielectric constant tensor:
#      x y z
#    x 1.603120 0.000000 0.033010 
#    y 0.000000 1.647420 0.000000 
#    z 0.033010 0.000000 1.871290 
# 
# From -- ./inp_files/61157.got.cif
#   From: 2010.05.17/outbox.cif.g08.bks.cpg/sg10_31_cif.got.tgz:61157.got - 2010.06.03 11:33:40.
