data_PCOD9152620
_publ_section_title
;
Structure prediction by ZEFSAII (Michael W. Deem and Ramdas Pophale) SiO2 
 PCOD9152620
Probable space group: P 2/M
;
_chemical_formula_sum "Si O2"
_cell_formula_units_Z 20
_cell_length_a 10.158658
_cell_length_b 11.925739
_cell_length_c 7.891575
_cell_angle_alpha 90.000000
_cell_angle_beta 101.650846
_cell_angle_gamma 90.000000
_cell_volume 936.362131
_symmetry_space_group_name_H-M "P 2/M"
_symmetry_group_IT_number 10
_symmetry_cell_setting 'monoclinic'
loop_
_space_group_symop_operation_xyz
x,y,z
-x,y,-z
-x,-y,-z
x,-y,z
loop_
_atom_site_type_symbol
_atom_site_label
_atom_site_fract_x
_atom_site_fract_y
_atom_site_fract_z
Si Si1 0.315943 0.370087 0.276660
Si Si2 0.436629 0.237078 0.795657
Si Si3 0.901902 0.000000 0.635589
Si Si4 0.808844 0.628368 0.134677
Si Si5 0.613012 0.000000 0.387933
Si Si6 0.939331 0.753724 0.674034
O O1 0.337236 0.500000 0.331758
O O2 0.454176 0.301354 0.291895
O O3 0.205037 0.306446 0.359447
O O4 0.248988 0.370603 0.071041
O O5 0.301073 0.308194 0.780596
O O6 0.403325 0.113221 0.723157
O O7 0.500000 0.229782 0.000000
O O8 0.924376 0.881886 0.733303
O O9 0.000000 0.000000 0.500000
O O10 0.753982 0.000000 0.519986
O O11 0.822443 0.500000 0.193151
O O12 0.951852 0.687670 0.187439
O O13 0.500000 0.000000 0.500000
O O14 0.000000 0.754899 0.500000
#
# Coordination Sequence:
#
# PCOD9152620 Si02
#       6
#     4   4   2   4   2   4
#     4  10  21  38  59  85 117 149 184 232 287 338
#     4  10  21  38  61  87 113 147 192 235 278 336
#     4  10  22  39  57  77 111 151 187 230 280 328
#     4  10  21  38  60  85 115 150 187 232 285 336
#     4  12  23  39  60  83 116 153 188 232 287 336
#     4  11  22  38  58  83 113 152 194 232 280 336
#
# _framework density 21.359258000000001
#
# number of rings (size 3 to 8) (size 9 to 14) (size 15 to 20)
#    0.000    1.600    0.000    5.700    0.000    5.600 
#    0.000    4.000    0.000    4.800    0.000    0.000 
#    0.000    0.000    0.000    0.000    0.000    0.000 
#
# Total GULP energy -111911.075079 kJ/mol
# GULP energy per Si atom -5595.553754 kJ/mol
# Density = 2.131064 g / cm^3
# Si number density = 21.359258 Si / 1000 Ang^3
#
#
#
# Elastic Constant Matrix: (Units=GPa)
#
#
# Indices 1 2 3 4 5 6 
#
# 1 149.5164 71.9299 19.1429 0.0000 -18.0908 0.0000
# 2 71.9299 228.7022 35.5056 0.0000 -6.3992 0.0000
# 3 19.1429 35.5056 47.8190 0.0000 -1.7271 0.0000
# 4 0.0000 0.0000 0.0000 2.5428 0.0000 9.3694
# 5 -18.0908 -6.3992 -1.7271 0.0000 26.2456 0.0000
# 6 0.0000 0.0000 0.0000 9.3694 0.0000 56.2505
#
#
#
# Elastic Compliance Matrix: (Units=1/GPa)
#
#
# Indices 1 2 3 4 5 6 
#
# 1 0.008648 -0.002333 -0.001539 0.000000 0.005291 0.000000
# 2 -0.002333 0.005596 -0.003238 0.000000 -0.000457 0.000000
# 3 -0.001539 -0.003238 0.023922 0.000000 -0.000276 0.000000
# 4 0.000000 0.000000 0.000000 1.018091 0.000000 -0.169578
# 5 0.005291 -0.000457 -0.000276 0.000000 0.041619 0.000000
# 6 0.000000 0.000000 0.000000 -0.169578 0.000000 0.046023
#
#
# Mechanical properties :
#
#
# Convention : Reuss Voigt Hill
#
# Bulk Modulus (GPa) = 41.75784 75.46603 58.61194
# Shear Modulus (GPa) = 4.28780 36.97173 20.62976
#
# Velocity S-wave (km/s) = 1.41839 4.16498 3.11118
# Velocity P-wave (km/s) = 4.71965 7.65100 6.35661
#
# Compressibility (1/GPa) = 0.02394760
#
# Stress axis : x y z
#
# Youngs Moduli (GPa) = 115.63770 178.69590 41.80227
#
# Poissons Ratio (x) = 0.41688 0.06432
# Poissons Ratio (y) = 0.26977 0.13534
# Poissons Ratio (z) = 0.17792 0.57856
#
# Static dielectric constant tensor:
#      x y z
#    x 1.729800 0.000000 -0.010830 
#    y 0.000000 1.754880 0.000000 
#    z -0.010830 0.000000 1.804240 
# 
# From -- ./inp_files/17790.got.cif
#   From: 2010.05.17/outbox.cif.g08.bks.cpg/sg10_9_cif.got.tgz:17790.got - 2010.06.03 11:33:40.
