data_PCOD9152468
_publ_section_title
;
Structure prediction by ZEFSAII (Michael W. Deem and Ramdas Pophale) SiO2 
 PCOD9152468
Probable space group: P 2/M
;
_chemical_formula_sum "Si O2"
_cell_formula_units_Z 32
_cell_length_a 26.460213
_cell_length_b 8.470740
_cell_length_c 15.232375
_cell_angle_alpha 90.000000
_cell_angle_beta 30.288857
_cell_angle_gamma 90.000000
_cell_volume 1721.958528
_symmetry_space_group_name_H-M "P 2/M"
_symmetry_group_IT_number 10
_symmetry_cell_setting 'monoclinic'
loop_
_space_group_symop_operation_xyz
x,y,z
-x,y,-z
-x,-y,-z
x,-y,z
loop_
_atom_site_type_symbol
_atom_site_label
_atom_site_fract_x
_atom_site_fract_y
_atom_site_fract_z
Si Si1 0.655360 0.809197 0.516961
Si Si2 0.570374 0.687264 0.144426
Si Si3 0.786977 0.191160 0.153055
Si Si4 0.725007 0.190842 0.771656
Si Si5 0.787000 0.808840 0.485974
Si Si6 0.274996 0.190841 0.946684
Si Si7 0.000009 0.689162 0.102513
Si Si8 0.112740 0.807981 0.330889
O O1 0.542583 0.748597 0.686138
O O2 0.716847 0.757698 0.338833
O O3 0.716873 0.757697 0.510577
O O4 0.652839 0.000000 0.520742
O O5 0.571624 0.500000 0.142553
O O6 0.630620 0.747438 0.139865
O O7 0.630617 0.747437 0.968256
O O8 0.740250 0.243025 0.130323
O O9 0.790285 0.000000 0.147441
O O10 0.899340 0.250436 0.001727
O O11 0.740263 0.243023 0.648898
O O12 0.822925 0.238502 0.680854
O O13 0.719114 0.000000 0.781493
O O14 0.899363 0.749560 0.300224
O O15 0.790310 0.000000 0.481660
O O16 0.280888 0.000000 0.938845
O O17 0.177072 0.238503 0.149634
O O18 0.000011 0.500000 0.102884
O O19 0.000000 0.742843 0.000000
O O20 0.000000 0.748015 0.500000
O O21 0.109036 0.000000 0.336445
#
# Coordination Sequence:
#
# PCOD9152468 Si02
#       8
#     4   4   4   4   4   4   4   4
#     4  10  21  38  59  84 112 144 193 247 290 334
#     4  11  23  39  59  81 113 153 188 233 291 352
#     4  10  21  37  61  88 113 149 196 243 284 331
#     4   9  19  36  58  83 113 147 188 239 286 333
#     4  10  21  37  61  88 113 149 196 243 284 331
#     4   9  19  36  58  83 113 147 188 239 286 333
#     4  11  23  37  55  82 123 164 189 227 284 342
#     4   8  14  26  48  79 108 137 176 222 275 329
#
# _framework density 18.583489
#
# number of rings (size 3 to 8) (size 9 to 14) (size 15 to 20)
#    0.000    2.250    1.250    2.250    1.750    3.500 
#    0.000    5.000    0.000    1.500    0.000    0.000 
#    0.000    0.000    0.000    0.000    0.000    0.000 
#
# Total GULP energy -178611.174090 kJ/mol
# GULP energy per Si atom -5581.599190 kJ/mol
# Density = 1.854119 g / cm^3
# Si number density = 18.583489 Si / 1000 Ang^3
#
#
#
# Elastic Constant Matrix: (Units=GPa)
#
#
# Indices 1 2 3 4 5 6 
#
# 1 172.1225 31.7699 133.8356 0.0000 23.1741 0.0000
# 2 31.7699 16.3556 28.2669 0.0000 2.2712 0.0000
# 3 133.8356 28.2669 167.9285 0.0000 -20.3173 0.0000
# 4 0.0000 0.0000 0.0000 -9.9692 0.0000 10.8107
# 5 23.1741 2.2712 -20.3173 0.0000 29.2523 0.0000
# 6 0.0000 0.0000 0.0000 10.8107 0.0000 6.8093
#
#
#
# Elastic Compliance Matrix: (Units=1/GPa)
#
#
# Indices 1 2 3 4 5 6 
#
# 1 0.132530 -0.011229 -0.127003 0.000000 -0.192330 0.000000
# 2 -0.011229 0.097209 -0.007916 0.000000 -0.004149 0.000000
# 3 -0.127003 -0.007916 0.131831 0.000000 0.192792 0.000000
# 4 0.000000 0.000000 0.000000 -0.036856 0.000000 0.058514
# 5 -0.192330 -0.004149 0.192792 0.000000 0.320779 0.000000
# 6 0.000000 0.000000 0.000000 0.058514 0.000000 0.053959
#
#
# Mechanical properties :
#
#
# Convention : Reuss Voigt Hill
#
# Bulk Modulus (GPa) = 14.43517 82.68349 48.55933
# Shear Modulus (GPa) = 4.92689 16.05410 10.49049
#
# Velocity S-wave (km/s) = 1.63002 2.94239 2.37851
# Velocity P-wave (km/s) = 3.36560 7.49220 5.80777
#
# Compressibility (1/GPa) = 0.06927523
#
# Stress axis : x y z
#
# Youngs Moduli (GPa) = 7.54548 10.28710 7.58544
#
# Poissons Ratio (x) = 0.11551 0.96337
# Poissons Ratio (y) = 0.08473 0.06004
# Poissons Ratio (z) = 0.95830 0.08143
#
# Static dielectric constant tensor:
#      x y z
#    x 1.637100 0.000000 0.017410 
#    y 0.000000 1.624570 0.000000 
#    z 0.017410 0.000000 1.610090 
# 
# From -- ./inp_files/71532.got.cif
#   From: 2010.05.17/outbox.cif.g08.bks.cpg/sg10_36_cif.got.tgz:71532.got - 2010.06.03 11:33:40.
