data_PCOD9152275
_publ_section_title
;
Structure prediction by ZEFSAII (Michael W. Deem and Ramdas Pophale) SiO2 
 PCOD9152275
Probable space group: P 2/M
;
_chemical_formula_sum "Si O2"
_cell_formula_units_Z 24
_cell_length_a 12.443926
_cell_length_b 15.655823
_cell_length_c 15.274629
_cell_angle_alpha 90.000000
_cell_angle_beta 153.903371
_cell_angle_gamma 90.000000
_cell_volume 1309.014516
_symmetry_space_group_name_H-M "P 2/M"
_symmetry_group_IT_number 10
_symmetry_cell_setting 'monoclinic'
loop_
_space_group_symop_operation_xyz
x,y,z
-x,y,-z
-x,-y,-z
x,-y,z
loop_
_atom_site_type_symbol
_atom_site_label
_atom_site_fract_x
_atom_site_fract_y
_atom_site_fract_z
Si Si1 0.462927 0.901451 0.127997
Si Si2 0.500000 0.777358 0.500000
Si Si3 0.709746 0.101116 0.800883
Si Si4 0.754562 0.756078 0.152648
Si Si5 0.073865 0.347495 0.250059
Si Si6 0.000000 0.167880 0.500000
Si Si7 0.399579 0.500000 0.529263
Si Si8 0.154055 0.500000 0.025111
O O1 0.362118 0.881388 0.151175
O O2 0.754076 0.885142 0.339567
O O3 0.411247 0.000000 0.071113
O O4 0.333469 0.841875 0.961861
O O5 0.442578 0.838364 0.375373
O O6 0.739612 0.717998 0.660852
O O7 0.661331 0.000000 0.748161
O O8 0.000000 0.115182 0.000000
O O9 0.925600 0.777498 0.360290
O O10 0.898477 0.701462 0.187315
O O11 0.500000 0.715495 0.000000
O O12 0.247370 0.414101 0.426084
O O13 0.917583 0.412592 0.076031
O O14 0.500000 0.500000 0.500000
O O15 0.579301 0.500000 0.741597
O O16 0.000000 0.500000 0.000000
#
# Coordination Sequence:
#
# PCOD9152275 Si02
#       8
#     4   2   4   4   4   2   2   2
#     4  10  21  37  56  83 117 157 205 250 294 338
#     4  12  21  35  60  90 118 154 204 239 293 348
#     4  10  22  37  53  81 123 165 200 240 293 349
#     4  10  23  40  59  86 119 155 198 245 294 349
#     4  11  23  38  61  93 117 149 195 236 295 355
#     4  10  21  38  60  83 114 152 206 251 296 332
#     4  11  21  42  59  92 120 146 186 231 285 349
#     4  11  21  40  65  87 124 151 176 236 289 351
#
# _framework density 18.334403999999999
#
# number of rings (size 3 to 8) (size 9 to 14) (size 15 to 20)
#    0.000    1.500    2.500    2.500    0.000   11.000 
#    0.000    5.833    0.000    3.000    0.000    0.000 
#    0.000    0.000    0.000    0.000    0.000    0.000 
#
# Total GULP energy -133913.723463 kJ/mol
# GULP energy per Si atom -5579.738478 kJ/mol
# Density = 1.829267 g / cm^3
# Si number density = 18.334404 Si / 1000 Ang^3
#
#
#
# Elastic Constant Matrix: (Units=GPa)
#
#
# Indices 1 2 3 4 5 6 
#
# 1 139.1429 67.6399 55.3166 0.0000 7.1897 0.0000
# 2 67.6399 97.6167 62.3905 0.0000 -8.8154 0.0000
# 3 55.3166 62.3905 130.5151 0.0000 -19.3123 0.0000
# 4 0.0000 0.0000 0.0000 44.0442 0.0000 34.5407
# 5 7.1897 -8.8154 -19.3123 0.0000 30.6873 0.0000
# 6 0.0000 0.0000 0.0000 34.5407 0.0000 2.9192
#
#
#
# Elastic Compliance Matrix: (Units=1/GPa)
#
#
# Indices 1 2 3 4 5 6 
#
# 1 0.012129 -0.007330 -0.002612 0.000000 -0.006591 0.000000
# 2 -0.007330 0.019183 -0.005506 0.000000 0.003763 0.000000
# 3 -0.002612 -0.005506 0.012414 0.000000 0.006842 0.000000
# 4 0.000000 0.000000 0.000000 -0.002742 0.000000 0.032448
# 5 -0.006591 0.003763 0.006842 0.000000 0.039518 0.000000
# 6 0.000000 0.000000 0.000000 0.032448 0.000000 -0.041376
#
#
# Mechanical properties :
#
#
# Convention : Reuss Voigt Hill
#
# Bulk Modulus (GPa) = 77.95288 81.99653 79.97470
# Shear Modulus (GPa) = 67.29630 27.65863 47.47747
#
# Velocity S-wave (km/s) = 6.06503 3.88824 5.09426
# Velocity P-wave (km/s) = 9.57370 8.06088 8.84967
#
# Compressibility (1/GPa) = 0.01282826
#
# Stress axis : x y z
#
# Youngs Moduli (GPa) = 82.44542 52.13082 80.55671
#
# Poissons Ratio (x) = 0.38214 0.21041
# Poissons Ratio (y) = 0.60435 0.44357
# Poissons Ratio (z) = 0.21534 0.28705
#
# Static dielectric constant tensor:
#      x y z
#    x 1.651900 0.000000 -0.024820 
#    y 0.000000 1.676900 0.000000 
#    z -0.024820 0.000000 1.640370 
# 
# From -- ./inp_files/65213.got.cif
#   From: 2010.05.17/outbox.cif.g08.bks.cpg/sg10_33_cif.got.tgz:65213.got - 2010.06.03 11:33:40.
