data_PCOD9152845
_publ_section_title
;
Structure prediction by ZEFSAII (Michael W. Deem and Ramdas Pophale) SiO2 
 PCOD9152845
Probable space group: P 2/M
;
_chemical_formula_sum "Si O2"
_cell_formula_units_Z 27
_cell_length_a 5.360343
_cell_length_b 20.494595
_cell_length_c 12.224687
_cell_angle_alpha 90.000000
_cell_angle_beta 72.830177
_cell_angle_gamma 90.000000
_cell_volume 1283.129087
_symmetry_space_group_name_H-M "P 2/M"
_symmetry_group_IT_number 10
_symmetry_cell_setting 'monoclinic'
loop_
_space_group_symop_operation_xyz
x,y,z
-x,y,-z
-x,-y,-z
x,-y,z
loop_
_atom_site_type_symbol
_atom_site_label
_atom_site_fract_x
_atom_site_fract_y
_atom_site_fract_z
Si Si1 0.894713 0.687149 0.790768
Si Si2 0.512086 0.570950 0.181474
Si Si3 0.402223 0.921031 0.630379
Si Si4 0.734685 0.607093 0.386093
Si Si5 0.000000 0.615283 0.000000
Si Si6 0.000000 0.500000 0.500000
Si Si7 0.790271 0.189914 0.928417
Si Si8 0.194850 0.921827 0.232675
O O1 0.655702 0.637169 0.801676
O O2 0.983993 0.660881 0.897164
O O3 0.853510 0.762806 0.817793
O O4 0.108272 0.670471 0.672388
O O5 0.376200 0.500000 0.186682
O O6 0.630332 0.573846 0.288356
O O7 0.739865 0.574984 0.060711
O O8 0.500000 0.896513 0.500000
O O9 0.587279 0.900192 0.706987
O O10 0.097922 0.906855 0.687621
O O11 0.425311 0.000000 0.625083
O O12 0.500000 0.619597 0.500000
O O13 0.923355 0.556747 0.421180
O O14 0.773875 0.117003 0.883866
O O15 0.500000 0.211374 0.000000
O O16 0.000000 0.194447 0.000000
O O17 0.215652 0.000000 0.215849
#
# Coordination Sequence:
#
# PCOD9152845 Si02
#       8
#     4   4   4   4   2   1   4   4
#     4  11  25  42  66  90 127 173 223 269 332 410
#     4  11  23  39  63  95 124 163 208 273 327 388
#     4   9  17  34  63  98 138 179 217 270 340 406
#     4  11  25  41  67  94 129 167 216 271 335 411
#     4  10  21  40  60  90 125 160 210 266 325 388
#     4  12  22  44  68 100 128 168 214 266 356 406
#     4  12  26  46  72  95 134 187 230 283 357 422
#     4  10  21  38  65 104 139 176 233 290 343 415
#
# _framework density 21.042310000000001
#
# number of rings (size 3 to 8) (size 9 to 14) (size 15 to 20)
#    0.000    1.333    1.481    4.000    5.185    4.148 
#    0.000    0.741    6.519    0.000    0.000    0.000 
#    0.000    0.000    0.000    0.000    0.000    0.000 
#
# Total GULP energy -150474.651674 kJ/mol
# GULP energy per Si atom -5573.135247 kJ/mol
# Density = 2.099442 g / cm^3
# Si number density = 21.042310 Si / 1000 Ang^3
#
#
#
# Elastic Constant Matrix: (Units=GPa)
#
#
# Indices 1 2 3 4 5 6 
#
# 1 62.0282 11.2005 8.9726 0.0000 11.1948 0.0000
# 2 11.2005 68.1030 22.1203 0.0000 0.5127 0.0000
# 3 8.9726 22.1203 83.9288 0.0000 -15.3305 0.0000
# 4 0.0000 0.0000 0.0000 37.0541 0.0000 4.2033
# 5 11.1948 0.5127 -15.3305 0.0000 44.9441 0.0000
# 6 0.0000 0.0000 0.0000 4.2033 0.0000 10.8209
#
#
#
# Elastic Compliance Matrix: (Units=1/GPa)
#
#
# Indices 1 2 3 4 5 6 
#
# 1 0.017774 -0.002143 -0.002282 0.000000 -0.005181 0.000000
# 2 -0.002143 0.016445 -0.004310 0.000000 -0.001124 0.000000
# 3 -0.002282 -0.004310 0.014298 0.000000 0.005495 0.000000
# 4 0.000000 0.000000 0.000000 0.028232 0.000000 -0.010966
# 5 -0.005181 -0.001124 0.005495 0.000000 0.025427 0.000000
# 6 0.000000 0.000000 0.000000 -0.010966 0.000000 0.096674
#
#
# Mechanical properties :
#
#
# Convention : Reuss Voigt Hill
#
# Bulk Modulus (GPa) = 32.20952 33.18297 32.69625
# Shear Modulus (GPa) = 22.05865 30.01494 26.03679
#
# Velocity S-wave (km/s) = 3.24126 3.78088 3.52142
# Velocity P-wave (km/s) = 5.41737 5.90457 5.66621
#
# Compressibility (1/GPa) = 0.03104672
#
# Stress axis : x y z
#
# Youngs Moduli (GPa) = 56.26265 60.81031 69.93742
#
# Poissons Ratio (x) = 0.13032 0.15958
# Poissons Ratio (y) = 0.12057 0.30146
# Poissons Ratio (z) = 0.12837 0.26211
#
# Static dielectric constant tensor:
#      x y z
#    x 1.836680 0.000000 -0.026370 
#    y 0.000000 1.784740 0.000000 
#    z -0.026370 0.000000 1.761070 
# 
# From -- ./inp_files/39590.got.cif
#   From: 2010.05.17/outbox.cif.g08.bks.cpg/sg10_20_cif.got.tgz:39590.got - 2010.06.03 11:33:40.
