data_PCOD9152994
_publ_section_title
;
Structure prediction by ZEFSAII (Michael W. Deem and Ramdas Pophale) SiO2 
 PCOD9152994
Probable space group: P 2/M
;
_chemical_formula_sum "Si O2"
_cell_formula_units_Z 20
_cell_length_a 11.152707
_cell_length_b 10.620666
_cell_length_c 8.715669
_cell_angle_alpha 90.000000
_cell_angle_beta 70.440523
_cell_angle_gamma 90.000000
_cell_volume 972.790709
_symmetry_space_group_name_H-M "P 2/M"
_symmetry_group_IT_number 10
_symmetry_cell_setting 'monoclinic'
loop_
_space_group_symop_operation_xyz
x,y,z
-x,y,-z
-x,-y,-z
x,-y,z
loop_
_atom_site_type_symbol
_atom_site_label
_atom_site_fract_x
_atom_site_fract_y
_atom_site_fract_z
Si Si1 0.010023 0.358351 0.811601
Si Si2 0.370445 0.138428 0.392812
Si Si3 0.688984 0.361006 0.356692
Si Si4 0.587853 0.247390 0.099661
Si Si5 0.819432 0.856585 0.803501
O O1 0.964524 0.500000 0.789199
O O2 0.158388 0.349499 0.708009
O O3 0.927794 0.247960 0.772558
O O4 0.000000 0.346794 0.000000
O O5 0.364495 0.250461 0.515577
O O6 0.493602 0.154587 0.231893
O O7 0.249548 0.149071 0.331529
O O8 0.369042 0.000000 0.465470
O O9 0.654647 0.500000 0.428871
O O10 0.639869 0.343371 0.204092
O O11 0.500000 0.301860 0.000000
O O12 0.708097 0.177942 0.972627
O O13 0.864200 0.000000 0.810110
#
# Coordination Sequence:
#
# PCOD9152994 Si02
#       5
#     4   4   4   4   4
#     4  10  21  40  62  86 121 159 198 247 301 352
#     4  10  23  41  61  89 126 161 194 243 302 356
#     4  11  24  41  61  89 122 158 202 248 297 356
#     4  10  21  39  63  90 121 157 198 247 301 353
#     4  10  21  39  64  93 120 154 204 248 290 353
#
# _framework density 20.559405999999999
#
# number of rings (size 3 to 8) (size 9 to 14) (size 15 to 20)
#    0.000    1.800    2.000    1.200    0.000    9.600 
#    0.000    8.000    0.000    0.000    0.000    0.000 
#    0.000    0.000    0.000    0.000    0.000    0.000 
#
# Total GULP energy -111755.605112 kJ/mol
# GULP energy per Si atom -5587.780256 kJ/mol
# Density = 2.051261 g / cm^3
# Si number density = 20.559406 Si / 1000 Ang^3
#
#
#
# Elastic Constant Matrix: (Units=GPa)
#
#
# Indices 1 2 3 4 5 6 
#
# 1 119.6496 82.5185 22.8653 0.0000 4.8196 0.0000
# 2 82.5185 186.7998 57.4418 0.0000 15.0561 0.0000
# 3 22.8653 57.4418 75.4777 0.0000 5.5611 0.0000
# 4 0.0000 0.0000 0.0000 11.4207 0.0000 -9.5959
# 5 4.8196 15.0561 5.5611 0.0000 26.2836 0.0000
# 6 0.0000 0.0000 0.0000 -9.5959 0.0000 1.3482
#
#
#
# Elastic Compliance Matrix: (Units=1/GPa)
#
#
# Indices 1 2 3 4 5 6 
#
# 1 0.012054 -0.005551 0.000509 0.000000 0.000862 0.000000
# 2 -0.005551 0.009774 -0.005505 0.000000 -0.003416 0.000000
# 3 0.000509 -0.005505 0.017329 0.000000 -0.000607 0.000000
# 4 0.000000 0.000000 0.000000 -0.017582 0.000000 -0.125136
# 5 0.000862 -0.003416 -0.000607 0.000000 0.039974 0.000000
# 6 0.000000 0.000000 0.000000 -0.125136 0.000000 -0.148932
#
#
# Mechanical properties :
#
#
# Convention : Reuss Voigt Hill
#
# Bulk Modulus (GPa) = 55.36018 78.61980 66.98999
# Shear Modulus (GPa) = -82.95933 22.41725 -30.27104
#
# Velocity S-wave (km/s) = -6.35914 3.30565 -3.84131
# Velocity P-wave (km/s) = 5.18968 7.27276 3.60280
#
# Compressibility (1/GPa) = 0.01806352
#
# Stress axis : x y z
#
# Youngs Moduli (GPa) = 82.96024 102.31747 57.70770
#
# Poissons Ratio (x) = 0.56795 -0.02939
# Poissons Ratio (y) = 0.46050 0.31767
# Poissons Ratio (z) = -0.04226 0.56323
#
# Static dielectric constant tensor:
#      x y z
#    x 1.737110 0.000000 0.008250 
#    y 0.000000 1.711780 0.000000 
#    z 0.008250 0.000000 1.723110 
# 
# From -- ./inp_files/22171.got.cif
#   From: 2010.05.17/outbox.cif.g08.bks.cpg/sg10_12_cif.got.tgz:22171.got - 2010.06.03 11:33:40.
