data_PCOD9152544
_publ_section_title
;
Structure prediction by ZEFSAII (Michael W. Deem and Ramdas Pophale) SiO2 
 PCOD9152544
Probable space group: P 2/M
;
_chemical_formula_sum "Si O2"
_cell_formula_units_Z 28
_cell_length_a 8.704817
_cell_length_b 14.869260
_cell_length_c 11.515422
_cell_angle_alpha 90.000000
_cell_angle_beta 113.721643
_cell_angle_gamma 90.000000
_cell_volume 1364.558884
_symmetry_space_group_name_H-M "P 2/M"
_symmetry_group_IT_number 10
_symmetry_cell_setting 'monoclinic'
loop_
_space_group_symop_operation_xyz
x,y,z
-x,y,-z
-x,-y,-z
x,-y,z
loop_
_atom_site_type_symbol
_atom_site_label
_atom_site_fract_x
_atom_site_fract_y
_atom_site_fract_z
Si Si1 0.050115 0.747406 0.696191
Si Si2 0.841024 0.213902 0.009843
Si Si3 0.684698 0.398474 0.209456
Si Si4 0.682304 0.208450 0.589138
Si Si5 0.771608 0.103369 0.387739
Si Si6 0.301998 0.602482 0.069364
Si Si7 0.599308 0.105504 0.801409
O O1 0.112683 0.771478 0.843759
O O2 0.174425 0.666905 0.697729
O O3 0.093957 0.831930 0.629694
O O4 0.850263 0.730688 0.637600
O O5 0.811659 0.311374 0.939262
O O6 0.679391 0.154229 0.936179
O O7 0.000000 0.167281 0.000000
O O8 0.715291 0.500000 0.257463
O O9 0.489209 0.376995 0.173644
O O10 0.692800 0.398393 0.070335
O O11 0.500000 0.249686 0.500000
O O12 0.717293 0.134815 0.499520
O O13 0.666357 0.158950 0.708138
O O14 0.600814 0.113273 0.261450
O O15 0.821580 0.000000 0.402073
O O16 0.253977 0.500000 0.090274
O O17 0.642442 0.000000 0.807564
#
# Coordination Sequence:
#
# PCOD9152544 Si02
#       7
#     4   4   4   4   4   4   4
#     4  11  21  35  57  86 110 142 180 228 278 318
#     4  11  21  34  51  82 119 148 177 215 274 341
#     4   8  15  30  53  81 110 141 176 216 268 325
#     4  10  21  39  58  76 105 146 190 231 272 314
#     4  10  22  38  59  83 105 137 191 242 267 303
#     4   8  15  29  51  78 111 146 177 215 262 318
#     4  10  21  38  56  78 113 153 180 213 274 335
#
# _framework density 20.519452000000001
#
# number of rings (size 3 to 8) (size 9 to 14) (size 15 to 20)
#    0.000    2.286    1.429    2.571    0.000    6.286 
#    0.000    1.429    0.000    2.143    0.000    2.000 
#    0.000    0.000    0.000    0.000    0.000    0.000 
#
# Total GULP energy -156179.073606 kJ/mol
# GULP energy per Si atom -5577.824057 kJ/mol
# Density = 2.047275 g / cm^3
# Si number density = 20.519452 Si / 1000 Ang^3
#
#
#
# Elastic Constant Matrix: (Units=GPa)
#
#
# Indices 1 2 3 4 5 6 
#
# 1 79.3681 28.0864 33.4354 0.0000 30.2897 0.0000
# 2 28.0864 51.9223 32.4347 0.0000 25.8015 0.0000
# 3 33.4354 32.4347 84.5817 0.0000 28.6271 0.0000
# 4 0.0000 0.0000 0.0000 3.5248 0.0000 -8.2754
# 5 30.2897 25.8015 28.6271 0.0000 37.4655 0.0000
# 6 0.0000 0.0000 0.0000 -8.2754 0.0000 8.2318
#
#
#
# Elastic Compliance Matrix: (Units=1/GPa)
#
#
# Indices 1 2 3 4 5 6 
#
# 1 0.019101 -0.003109 -0.002504 0.000000 -0.011388 0.000000
# 2 -0.003109 0.032178 -0.006017 0.000000 -0.015049 0.000000
# 3 -0.002504 -0.006017 0.017578 0.000000 -0.007263 0.000000
# 4 0.000000 0.000000 0.000000 -0.208570 0.000000 -0.209676
# 5 -0.011388 -0.015049 -0.007263 0.000000 0.051812 0.000000
# 6 0.000000 0.000000 0.000000 -0.209676 0.000000 -0.089308
#
#
# Mechanical properties :
#
#
# Convention : Reuss Voigt Hill
#
# Bulk Modulus (GPa) = 21.93112 44.86501 33.39806
# Shear Modulus (GPa) = -36.03625 17.97212 -9.03206
#
# Velocity S-wave (km/s) = -4.19525 2.96270 -2.10030
# Velocity P-wave (km/s) = 3.57151 5.79789 3.22954
#
# Compressibility (1/GPa) = 0.04559731
#
# Stress axis : x y z
#
# Youngs Moduli (GPa) = 52.35442 31.07674 56.88804
#
# Poissons Ratio (x) = 0.09662 0.14245
# Poissons Ratio (y) = 0.16277 0.34229
# Poissons Ratio (z) = 0.13110 0.18699
#
# Static dielectric constant tensor:
#      x y z
#    x 1.760360 0.000000 0.025560 
#    y 0.000000 1.722070 0.000000 
#    z 0.025560 0.000000 1.780830 
# 
# From -- ./inp_files/25067.got.cif
#   From: 2010.05.17/outbox.cif.g08.bks.cpg/sg10_13_cif.got.tgz:25067.got - 2010.06.03 11:33:40.
