data_PCOD9152167
_publ_section_title
;
Structure prediction by ZEFSAII (Michael W. Deem and Ramdas Pophale) SiO2 
 PCOD9152167
Probable space group: P 2/M
;
_chemical_formula_sum "Si O2"
_cell_formula_units_Z 26
_cell_length_a 5.490615
_cell_length_b 20.874126
_cell_length_c 12.081116
_cell_angle_alpha 90.000000
_cell_angle_beta 113.452222
_cell_angle_gamma 90.000000
_cell_volume 1270.256487
_symmetry_space_group_name_H-M "P 2/M"
_symmetry_group_IT_number 10
_symmetry_cell_setting 'monoclinic'
loop_
_space_group_symop_operation_xyz
x,y,z
-x,y,-z
-x,-y,-z
x,-y,z
loop_
_atom_site_type_symbol
_atom_site_label
_atom_site_fract_x
_atom_site_fract_y
_atom_site_fract_z
Si Si1 0.137240 0.853287 0.645943
Si Si2 0.364630 0.073479 0.353850
Si Si3 0.805983 0.500000 0.608706
Si Si4 0.906329 0.729213 0.225850
Si Si5 0.526671 0.377068 0.880975
Si Si6 0.814729 0.645734 0.567327
Si Si7 0.207668 0.500000 0.142555
Si Si8 0.000000 0.278659 0.000000
O O1 0.413620 0.891043 0.679872
O O2 0.192019 0.785936 0.714496
O O3 0.000000 0.845128 0.500000
O O4 0.915104 0.890473 0.679034
O O5 0.500000 0.071723 0.500000
O O6 0.324098 0.000000 0.310895
O O7 0.500000 0.500000 0.500000
O O8 0.904438 0.571405 0.595962
O O9 0.903107 0.500000 0.754955
O O10 0.721733 0.666184 0.192441
O O11 0.934186 0.754196 0.104850
O O12 0.160127 0.696998 0.327985
O O13 0.610553 0.436918 0.825111
O O14 0.760956 0.325817 0.927701
O O15 0.500000 0.403910 0.000000
O O16 0.500000 0.641858 0.500000
O O17 0.000000 0.670731 0.500000
O O18 0.000000 0.500000 0.000000
#
# Coordination Sequence:
#
# PCOD9152167 Si02
#       8
#     4   4   2   4   4   4   2   2
#     4  10  21  36  59  97 131 172 210 252 312 385
#     4   9  18  35  60  92 133 170 209 256 308 367
#     4  10  25  43  61  90 119 166 213 271 331 413
#     4  11  25  39  65  90 130 167 216 270 321 397
#     4  10  23  40  62  89 116 158 213 284 336 390
#     4  11  26  44  66  91 125 171 212 265 332 399
#     4  12  23  41  68  89 121 162 224 290 349 399
#     4  10  22  43  60  86 121 162 218 272 340 378
#
# _framework density 20.468305000000001
#
# number of rings (size 3 to 8) (size 9 to 14) (size 15 to 20)
#    0.000    1.692    0.769    2.308   10.769    4.308 
#    0.000    0.000    0.000    0.000    0.000    3.231 
#    0.000    0.000    0.000    0.000    0.000    0.000 
#
# Total GULP energy -144873.087012 kJ/mol
# GULP energy per Si atom -5572.041808 kJ/mol
# Density = 2.042172 g / cm^3
# Si number density = 20.468305 Si / 1000 Ang^3
#
#
#
# Elastic Constant Matrix: (Units=GPa)
#
#
# Indices 1 2 3 4 5 6 
#
# 1 95.0631 29.7557 30.4346 0.0000 -13.8043 0.0000
# 2 29.7557 97.3425 39.7502 0.0000 -13.8322 0.0000
# 3 30.4346 39.7502 72.4426 0.0000 -16.5687 0.0000
# 4 0.0000 0.0000 0.0000 35.4225 0.0000 22.6362
# 5 -13.8043 -13.8322 -16.5687 0.0000 15.1803 0.0000
# 6 0.0000 0.0000 0.0000 22.6362 0.0000 142.2837
#
#
#
# Elastic Compliance Matrix: (Units=1/GPa)
#
#
# Indices 1 2 3 4 5 6 
#
# 1 0.013029 -0.001808 -0.002864 0.000000 0.007075 0.000000
# 2 -0.001808 0.013846 -0.005768 0.000000 0.004676 0.000000
# 3 -0.002864 -0.005768 0.021822 0.000000 0.015958 0.000000
# 4 0.000000 0.000000 0.000000 0.031426 0.000000 -0.005000
# 5 0.007075 0.004676 0.015958 0.000000 0.093987 0.000000
# 6 0.000000 0.000000 0.000000 -0.005000 0.000000 0.007824
#
#
# Mechanical properties :
#
#
# Convention : Reuss Voigt Hill
#
# Bulk Modulus (GPa) = 35.94875 51.63660 43.79268
# Shear Modulus (GPa) = 23.57542 49.57114 36.57328
#
# Velocity S-wave (km/s) = 3.39750 4.92657 4.23167
# Velocity P-wave (km/s) = 5.74386 7.59235 6.73185
#
# Compressibility (1/GPa) = 0.02781738
#
# Stress axis : x y z
#
# Youngs Moduli (GPa) = 76.74898 72.22492 45.82537
#
# Poissons Ratio (x) = 0.13059 0.13122
# Poissons Ratio (y) = 0.13877 0.26433
# Poissons Ratio (z) = 0.21978 0.41661
#
# Static dielectric constant tensor:
#      x y z
#    x 1.613770 0.000000 -0.152370 
#    y 0.000000 1.771270 0.000000 
#    z -0.152370 0.000000 1.668850 
# 
# From -- ./inp_files/39636.got.cif
#   From: 2010.05.17/outbox.cif.g08.bks.cpg/sg10_20_cif.got.tgz:39636.got - 2010.06.03 11:33:40.
