data_PCOD9152139
_publ_section_title
;
Structure prediction by ZEFSAII (Michael W. Deem and Ramdas Pophale) SiO2 
 PCOD9152139
Probable space group: P 2/M
;
_chemical_formula_sum "Si O2"
_cell_formula_units_Z 28
_cell_length_a 11.209510
_cell_length_b 12.030310
_cell_length_c 20.902181
_cell_angle_alpha 90.000000
_cell_angle_beta 148.427790
_cell_angle_gamma 90.000000
_cell_volume 1475.815519
_symmetry_space_group_name_H-M "P 2/M"
_symmetry_group_IT_number 10
_symmetry_cell_setting 'monoclinic'
loop_
_space_group_symop_operation_xyz
x,y,z
-x,y,-z
-x,-y,-z
x,-y,z
loop_
_atom_site_type_symbol
_atom_site_label
_atom_site_fract_x
_atom_site_fract_y
_atom_site_fract_z
Si Si1 0.061391 0.500000 0.603640
Si Si2 0.859588 0.128875 0.539895
Si Si3 0.714673 0.736603 0.279013
Si Si4 0.514260 0.127693 0.930336
Si Si5 0.762295 0.500000 0.591066
Si Si6 0.443295 0.871110 0.253435
Si Si7 0.226011 0.743957 0.369353
Si Si8 0.954618 0.129099 0.835968
O O1 0.212771 0.609174 0.686344
O O2 0.000000 0.500000 0.500000
O O3 0.838758 0.500000 0.550063
O O4 0.621917 0.139846 0.393859
O O5 0.845103 0.179477 0.603871
O O6 0.060001 0.195892 0.597827
O O7 0.917978 0.000000 0.568606
O O8 0.639945 0.783552 0.176101
O O9 0.517942 0.780165 0.236267
O O10 0.446932 0.000000 0.883449
O O11 0.500000 0.138646 0.000000
O O12 0.777503 0.143532 0.031507
O O13 0.500000 0.500000 0.500000
O O14 0.857280 0.617321 0.659473
O O15 0.194248 0.853251 0.168739
O O16 0.461108 0.000000 0.237955
O O17 0.500000 0.742045 0.500000
O O18 0.137854 0.794530 0.263190
O O19 0.917718 0.000000 0.799753
#
# Coordination Sequence:
#
# PCOD9152139 Si02
#       8
#     2   4   4   4   2   4   4   4
#     4  12  26  44  68  93 130 175 219 270 325 383
#     4  11  20  32  56  88 122 154 194 252 323 385
#     4  12  24  40  61  87 122 167 214 257 318 379
#     4  10  22  41  64  91 125 166 211 260 316 386
#     4  10  24  40  61  89 123 170 219 256 311 376
#     4  10  21  36  58  91 125 160 205 260 324 390
#     4  11  20  35  58  86 126 160 207 258 321 372
#     4  10  21  37  61  94 127 164 207 261 328 387
#
# _framework density 18.972562
#
# number of rings (size 3 to 8) (size 9 to 14) (size 15 to 20)
#    0.000    1.286    2.857    3.857    0.000    3.429 
#    0.000    3.214    0.000    0.857    0.000    0.000 
#    0.000    0.000    0.000    0.000    0.000    0.000 
#
# Total GULP energy -156333.414791 kJ/mol
# GULP energy per Si atom -5583.336243 kJ/mol
# Density = 1.892938 g / cm^3
# Si number density = 18.972562 Si / 1000 Ang^3
#
#
#
# Elastic Constant Matrix: (Units=GPa)
#
#
# Indices 1 2 3 4 5 6 
#
# 1 110.9626 44.7901 31.4950 0.0000 8.6518 0.0000
# 2 44.7901 145.8749 44.4162 0.0000 -5.7662 0.0000
# 3 31.4950 44.4162 61.3555 0.0000 2.9104 0.0000
# 4 0.0000 0.0000 0.0000 41.9931 0.0000 17.2429
# 5 8.6518 -5.7662 2.9104 0.0000 30.9540 0.0000
# 6 0.0000 0.0000 0.0000 17.2429 0.0000 35.4219
#
#
#
# Elastic Compliance Matrix: (Units=1/GPa)
#
#
# Indices 1 2 3 4 5 6 
#
# 1 0.011357 -0.002422 -0.003922 0.000000 -0.003257 0.000000
# 2 -0.002422 0.009468 -0.005752 0.000000 0.002981 0.000000
# 3 -0.003922 -0.005752 0.022576 0.000000 -0.002098 0.000000
# 4 0.000000 0.000000 0.000000 0.029762 0.000000 -0.014488
# 5 -0.003257 0.002981 -0.002098 0.000000 0.033969 0.000000
# 6 0.000000 0.000000 0.000000 -0.014488 0.000000 0.035284
#
#
# Mechanical properties :
#
#
# Convention : Reuss Voigt Hill
#
# Bulk Modulus (GPa) = 52.06162 62.17729 57.11945
# Shear Modulus (GPa) = 28.90003 34.83991 31.86997
#
# Velocity S-wave (km/s) = 3.90712 4.28989 4.10297
# Velocity P-wave (km/s) = 6.91767 7.57502 7.25380
#
# Compressibility (1/GPa) = 0.01920801
#
# Stress axis : x y z
#
# Youngs Moduli (GPa) = 88.05415 105.61807 44.29560
#
# Poissons Ratio (x) = 0.25575 0.17373
# Poissons Ratio (y) = 0.21322 0.25481
# Poissons Ratio (z) = 0.34536 0.60757
#
# Static dielectric constant tensor:
#      x y z
#    x 1.747960 0.000000 0.025230 
#    y 0.000000 1.640820 0.000000 
#    z 0.025230 0.000000 1.651910 
# 
# From -- ./inp_files/84015.got.cif
#   From: 2010.05.17/outbox.cif.g08.bks.cpg/sg10_43_cif.got.tgz:84015.got - 2010.06.03 11:33:40.
