data_PCOD9152618
_publ_section_title
;
Structure prediction by ZEFSAII (Michael W. Deem and Ramdas Pophale) SiO2 
 PCOD9152618
Probable space group: P 2/M
;
_chemical_formula_sum "Si O2"
_cell_formula_units_Z 14
_cell_length_a 8.051210
_cell_length_b 15.958579
_cell_length_c 5.500109
_cell_angle_alpha 90.000000
_cell_angle_beta 57.347896
_cell_angle_gamma 90.000000
_cell_volume 595.003075
_symmetry_space_group_name_H-M "P 2/M"
_symmetry_group_IT_number 10
_symmetry_cell_setting 'monoclinic'
loop_
_space_group_symop_operation_xyz
x,y,z
-x,y,-z
-x,-y,-z
x,-y,z
loop_
_atom_site_type_symbol
_atom_site_label
_atom_site_fract_x
_atom_site_fract_y
_atom_site_fract_z
Si Si1 0.195194 0.662714 0.105868
Si Si2 0.000000 0.184155 0.500000
Si Si3 0.393926 0.898920 0.335620
Si Si4 0.242018 0.596751 0.570327
O O1 0.303863 0.637725 0.267491
O O2 0.107545 0.754801 0.221251
O O3 0.997606 0.605046 0.250026
O O4 0.299439 0.645776 0.769473
O O5 0.169260 0.131386 0.495896
O O6 0.500000 0.869411 0.500000
O O7 0.398665 0.000000 0.334748
O O8 0.500000 0.871574 0.000000
O O9 0.297500 0.500000 0.538558
#
# Coordination Sequence:
#
# PCOD9152618 Si02
#       4
#     4   2   4   4
#     4   9  17  24  42  72 101 140 183 218 274 334
#     4  10  21  38  59  84 124 150 180 246 291 322
#     4  10  23  41  62  88 114 150 195 229 279 351
#     4   9  14  24  38  64 108 138 174 234 264 308
#
# _framework density 23.529288000000001
#
# number of rings (size 3 to 8) (size 9 to 14) (size 15 to 20)
#    0.000    2.857    0.000    4.714    0.000   10.286 
#    0.000    4.286    0.000    0.000    0.000    0.000 
#    0.000  484.571    0.000    0.000    0.000    0.000 
#
# Total GULP energy -78234.826189 kJ/mol
# GULP energy per Si atom -5588.201871 kJ/mol
# Density = 2.347573 g / cm^3
# Si number density = 23.529288 Si / 1000 Ang^3
#
#
#
# Elastic Constant Matrix: (Units=GPa)
#
#
# Indices 1 2 3 4 5 6 
#
# 1 173.9526 32.3203 89.4278 0.0000 31.3664 0.0000
# 2 32.3203 26.0218 35.0041 0.0000 5.2725 0.0000
# 3 89.4278 35.0041 216.2399 0.0000 48.8966 0.0000
# 4 0.0000 0.0000 0.0000 -17.4571 0.0000 11.5872
# 5 31.3664 5.2725 48.8966 0.0000 52.9171 0.0000
# 6 0.0000 0.0000 0.0000 11.5872 0.0000 -243.9195
#
#
#
# Elastic Compliance Matrix: (Units=1/GPa)
#
#
# Indices 1 2 3 4 5 6 
#
# 1 0.008550 -0.007855 -0.001637 0.000000 -0.002772 0.000000
# 2 -0.007855 0.056749 -0.007221 0.000000 0.005674 0.000000
# 3 -0.001637 -0.007221 0.007697 0.000000 -0.005422 0.000000
# 4 0.000000 0.000000 0.000000 -0.059148 0.000000 -0.002810
# 5 -0.002772 0.005674 -0.005422 0.000000 0.024985 0.000000
# 6 0.000000 0.000000 0.000000 -0.002810 0.000000 -0.004233
#
#
# Mechanical properties :
#
#
# Convention : Reuss Voigt Hill
#
# Bulk Modulus (GPa) = 25.27224 81.07984 53.17604
# Shear Modulus (GPa) = 61.56456 -24.39443 18.58507
#
# Velocity S-wave (km/s) = 5.12073 -3.22338 2.81351
# Velocity P-wave (km/s) = 6.76214 4.54756 5.76224
#
# Compressibility (1/GPa) = 0.03956911
#
# Stress axis : x y z
#
# Youngs Moduli (GPa) = 116.96182 17.62137 129.92836
#
# Poissons Ratio (x) = 0.13841 0.21276
# Poissons Ratio (y) = 0.91872 0.93820
# Poissons Ratio (z) = 0.19152 0.12724
#
# Static dielectric constant tensor:
#      x y z
#    x 1.965830 0.000000 0.011150 
#    y 0.000000 1.841630 0.000000 
#    z 0.011150 0.000000 1.960050 
# 
# From -- ./inp_files/3380.got.cif
#   From: 2010.05.17/outbox.cif.g08.bks.cpg/sg10_2_cif.got.tgz:3380.got - 2010.06.03 11:33:40.
