data_PCOD9152624
_publ_section_title
;
Structure prediction by ZEFSAII (Michael W. Deem and Ramdas Pophale) SiO2 
 PCOD9152624
Probable space group: P 2/M
;
_chemical_formula_sum "Si O2"
_cell_formula_units_Z 20
_cell_length_a 11.737481
_cell_length_b 11.308182
_cell_length_c 14.507966
_cell_angle_alpha 90.000000
_cell_angle_beta 32.082721
_cell_angle_gamma 90.000000
_cell_volume 1022.788302
_symmetry_space_group_name_H-M "P 2/M"
_symmetry_group_IT_number 10
_symmetry_cell_setting 'monoclinic'
loop_
_space_group_symop_operation_xyz
x,y,z
-x,y,-z
-x,-y,-z
x,-y,z
loop_
_atom_site_type_symbol
_atom_site_label
_atom_site_fract_x
_atom_site_fract_y
_atom_site_fract_z
Si Si1 0.204868 0.133873 0.232647
Si Si2 0.436679 0.797791 0.891872
Si Si3 0.100895 0.635292 0.025211
Si Si4 0.289639 0.129695 0.458558
Si Si5 0.305171 0.630166 0.562025
O O1 0.350155 0.223860 0.191834
O O2 0.951134 0.144137 0.416707
O O3 0.265964 0.000000 0.219323
O O4 0.272888 0.147717 0.079030
O O5 0.306401 0.695932 0.929416
O O6 0.533665 0.872931 0.742229
O O7 0.157396 0.500000 0.963823
O O8 0.000000 0.688557 0.000000
O O9 0.913690 0.637290 0.229571
O O10 0.326267 0.249775 0.489980
O O11 0.291285 0.000000 0.505487
O O12 0.500000 0.628387 0.500000
O O13 0.306287 0.500000 0.513003
#
# Coordination Sequence:
#
# PCOD9152624 Si02
#       5
#     4   4   4   4   4
#     4  10  21  38  59  86 123 161 200 246 296 361
#     4  11  20  36  61  88 119 159 200 244 299 359
#     4  10  21  39  62  88 118 158 206 253 303 361
#     4  11  22  37  61  92 124 157 201 250 300 358
#     4  10  21  40  63  86 118 161 204 248 303 364
#
# _framework density 19.554389
#
# number of rings (size 3 to 8) (size 9 to 14) (size 15 to 20)
#    0.000    1.600    2.000    4.200    0.000    4.400 
#    0.000    3.000    0.000    8.400    0.000    0.000 
#    0.000    0.000    0.000    0.000    0.000    0.000 
#
# Total GULP energy -111396.640443 kJ/mol
# GULP energy per Si atom -5569.832022 kJ/mol
# Density = 1.950988 g / cm^3
# Si number density = 19.554389 Si / 1000 Ang^3
#
#
#
# Elastic Constant Matrix: (Units=GPa)
#
#
# Indices 1 2 3 4 5 6 
#
# 1 94.4564 77.1155 21.0814 0.0000 -9.2025 0.0000
# 2 77.1155 135.8811 35.7615 0.0000 -3.5041 0.0000
# 3 21.0814 35.7615 82.9521 0.0000 -10.8111 0.0000
# 4 0.0000 0.0000 0.0000 519.8638 0.0000 136.0699
# 5 -9.2025 -3.5041 -10.8111 0.0000 33.8351 0.0000
# 6 0.0000 0.0000 0.0000 136.0699 0.0000 75.9055
#
#
#
# Elastic Compliance Matrix: (Units=1/GPa)
#
#
# Indices 1 2 3 4 5 6 
#
# 1 0.020356 -0.011538 0.000383 0.000000 0.004464 0.000000
# 2 -0.011538 0.014844 -0.003835 0.000000 -0.002826 0.000000
# 3 0.000383 -0.003835 0.014163 0.000000 0.004232 0.000000
# 4 0.000000 0.000000 0.000000 0.003624 0.000000 -0.006496
# 5 0.004464 -0.002826 0.004232 0.000000 0.031829 0.000000
# 6 0.000000 0.000000 0.000000 -0.006496 0.000000 0.024820
#
#
# Mechanical properties :
#
#
# Convention : Reuss Voigt Hill
#
# Bulk Modulus (GPa) = 51.59602 64.57849 58.08726
# Shear Modulus (GPa) = 34.22812 137.87631 86.05222
#
# Velocity S-wave (km/s) = 4.18832 8.40608 6.64094
# Velocity P-wave (km/s) = 7.05922 11.28331 9.41131
#
# Compressibility (1/GPa) = 0.01938134
#
# Stress axis : x y z
#
# Youngs Moduli (GPa) = 49.12464 67.36658 70.60654
#
# Poissons Ratio (x) = 0.77730 -0.02702
# Poissons Ratio (y) = 0.56681 0.27081
# Poissons Ratio (z) = -0.01880 0.25838
#
# Static dielectric constant tensor:
#      x y z
#    x 1.694110 0.000000 0.026670 
#    y 0.000000 1.705010 0.000000 
#    z 0.026670 0.000000 1.711990 
# 
# From -- ./inp_files/60604.got.cif
#   From: 2010.05.17/outbox.cif.g08.bks.cpg/sg10_31_cif.got.tgz:60604.got - 2010.06.03 11:33:40.
