data_PCOD9152301
_publ_section_title
;
Structure prediction by ZEFSAII (Michael W. Deem and Ramdas Pophale) SiO2 
 PCOD9152301
Probable space group: P 2/M
;
_chemical_formula_sum "Si O2"
_cell_formula_units_Z 32
_cell_length_a 12.257490
_cell_length_b 8.729133
_cell_length_c 29.681995
_cell_angle_alpha 90.000000
_cell_angle_beta 30.673987
_cell_angle_gamma 90.000000
_cell_volume 1620.189262
_symmetry_space_group_name_H-M "P 2/M"
_symmetry_group_IT_number 10
_symmetry_cell_setting 'monoclinic'
loop_
_space_group_symop_operation_xyz
x,y,z
-x,y,-z
-x,-y,-z
x,-y,z
loop_
_atom_site_type_symbol
_atom_site_label
_atom_site_fract_x
_atom_site_fract_y
_atom_site_fract_z
Si Si1 0.911149 0.684825 0.581071
Si Si2 0.714328 0.816202 0.320660
Si Si3 0.373752 0.186703 0.000033
Si Si4 0.547729 0.316918 0.216265
Si Si5 0.880812 0.184410 0.164654
Si Si6 0.259895 0.182733 0.524635
Si Si7 0.948496 0.319055 0.318874
Si Si8 0.410083 0.183487 0.170921
O O1 0.926729 0.500000 0.579953
O O2 0.665758 0.728287 0.679228
O O3 0.000000 0.726274 0.500000
O O4 0.064273 0.762372 0.563214
O O5 0.750086 0.775769 0.256203
O O6 0.479488 0.775636 0.421758
O O7 0.885695 0.734716 0.291503
O O8 0.742325 0.000000 0.315232
O O9 0.125743 0.233522 0.085536
O O10 0.376324 0.000000 0.000640
O O11 0.500000 0.239334 0.000000
O O12 0.486497 0.232744 0.913348
O O13 0.551375 0.500000 0.213064
O O14 0.758375 0.256206 0.166144
O O15 0.522355 0.251560 0.175091
O O16 0.880442 0.000000 0.159772
O O17 0.233293 0.261885 0.582244
O O18 0.254468 0.000000 0.532547
O O19 0.972110 0.500000 0.313270
O O20 0.166316 0.238983 0.256819
O O21 0.418188 0.000000 0.170431
#
# Coordination Sequence:
#
# PCOD9152301 Si02
#       8
#     4   4   4   4   4   4   4   4
#     4  10  21  37  57  81 116 163 208 251 300 357
#     4  10  22  39  60  88 120 157 201 252 304 355
#     4   9  19  38  66  96 121 152 198 250 305 361
#     4  11  23  39  59  87 125 163 202 248 301 362
#     4  10  21  40  65  91 121 156 200 251 301 358
#     4  11  22  36  57  86 118 155 203 254 301 355
#     4  12  24  38  58  86 121 161 202 247 305 369
#     4  11  22  39  65  91 119 158 204 255 304 358
#
# _framework density 19.750778
#
# number of rings (size 3 to 8) (size 9 to 14) (size 15 to 20)
#    0.000    1.500    1.250    4.125    0.000    6.250 
#    0.000    3.750    0.000    2.625    0.000    0.000 
#    0.000    0.000    0.000    0.000    0.000    0.000 
#
# Total GULP energy -178895.117513 kJ/mol
# GULP energy per Si atom -5590.472422 kJ/mol
# Density = 1.970582 g / cm^3
# Si number density = 19.750778 Si / 1000 Ang^3
#
#
#
# Elastic Constant Matrix: (Units=GPa)
#
#
# Indices 1 2 3 4 5 6 
#
# 1 164.1208 36.7351 68.4796 0.0000 -5.6065 0.0000
# 2 36.7351 20.5985 27.9592 0.0000 0.2966 0.0000
# 3 68.4796 27.9592 113.1289 0.0000 5.6515 0.0000
# 4 0.0000 0.0000 0.0000 11.7804 0.0000 -3.2927
# 5 -5.6065 0.2966 5.6515 0.0000 35.0276 0.0000
# 6 0.0000 0.0000 0.0000 -3.2927 0.0000 68.5690
#
#
#
# Elastic Compliance Matrix: (Units=1/GPa)
#
#
# Indices 1 2 3 4 5 6 
#
# 1 0.010822 -0.015476 -0.002842 0.000000 0.002322 0.000000
# 2 -0.015476 0.095371 -0.014152 0.000000 -0.001001 0.000000
# 3 -0.002842 -0.014152 0.014189 0.000000 -0.002624 0.000000
# 4 0.000000 0.000000 0.000000 0.086042 0.000000 0.004132
# 5 0.002322 -0.001001 -0.002624 0.000000 0.029352 0.000000
# 6 0.000000 0.000000 0.000000 0.004132 0.000000 0.014782
#
#
# Mechanical properties :
#
#
# Convention : Reuss Voigt Hill
#
# Bulk Modulus (GPa) = 18.03730 62.68845 40.36287
# Shear Modulus (GPa) = 14.97099 34.05367 24.51233
#
# Velocity S-wave (km/s) = 2.75616 4.15682 3.52672
# Velocity P-wave (km/s) = 4.39099 7.40591 6.08803
#
# Compressibility (1/GPa) = 0.05544068
#
# Stress axis : x y z
#
# Youngs Moduli (GPa) = 92.40231 10.48541 70.47854
#
# Poissons Ratio (x) = 0.16227 0.20031
# Poissons Ratio (y) = 1.43000 0.99744
# Poissons Ratio (z) = 0.26262 0.14839
#
# Static dielectric constant tensor:
#      x y z
#    x 1.672940 0.000000 0.011900 
#    y 0.000000 1.657090 0.000000 
#    z 0.011900 0.000000 1.703490 
# 
# From -- ./inp_files/94938.got.cif
#   From: 2010.05.17/outbox.cif.g08.bks.cpg/sg10_48_cif.got.tgz:94938.got - 2010.06.03 11:33:40.
