data_PCOD9152662
_publ_section_title
;
Structure prediction by ZEFSAII (Michael W. Deem and Ramdas Pophale) SiO2 
 PCOD9152662
Probable space group: P 2/M
;
_chemical_formula_sum "Si O2"
_cell_formula_units_Z 32
_cell_length_a 31.834823
_cell_length_b 8.682363
_cell_length_c 12.264115
_cell_angle_alpha 90.000000
_cell_angle_beta 30.146306
_cell_angle_gamma 90.000000
_cell_volume 1702.400588
_symmetry_space_group_name_H-M "P 2/M"
_symmetry_group_IT_number 10
_symmetry_cell_setting 'monoclinic'
loop_
_space_group_symop_operation_xyz
x,y,z
-x,y,-z
-x,-y,-z
x,-y,z
loop_
_atom_site_type_symbol
_atom_site_label
_atom_site_fract_x
_atom_site_fract_y
_atom_site_fract_z
Si Si1 0.402915 0.815647 0.204996
Si Si2 0.229191 0.817855 0.209592
Si Si3 0.467987 0.820352 0.447195
Si Si4 0.738832 0.686099 0.332511
Si Si5 0.624360 0.683583 0.968010
Si Si6 0.284956 0.317363 0.857706
Si Si7 0.919085 0.686410 0.326011
Si Si8 0.891690 0.686923 0.139661
O O1 0.346737 0.757824 0.430837
O O2 0.367244 0.742716 0.174122
O O3 0.399252 0.000000 0.205868
O O4 0.500000 0.769881 0.000000
O O5 0.298857 0.737712 0.129423
O O6 0.139287 0.762374 0.453419
O O7 0.238437 0.000000 0.200183
O O8 0.246094 0.769177 0.047621
O O9 0.500000 0.811314 0.500000
O O10 0.382619 0.726382 0.631119
O O11 0.452724 0.000000 0.455531
O O12 0.539961 0.754806 0.208112
O O13 0.732247 0.500000 0.354997
O O14 0.753403 0.724193 0.173488
O O15 0.814846 0.739673 0.238683
O O16 0.619733 0.500000 0.979622
O O17 0.276306 0.500000 0.894382
O O18 0.913825 0.500000 0.345941
O O19 0.886655 0.731904 0.277869
O O20 0.016749 0.731107 0.110230
O O21 0.890563 0.500000 0.141642
#
# Coordination Sequence:
#
# PCOD9152662 Si02
#       8
#     4   4   4   4   4   4   4   4
#     4  11  24  40  58  84 120 157 192 233 287 343
#     4  12  24  38  56  83 117 150 188 239 295 344
#     4  11  22  37  57  81 112 149 188 238 293 341
#     4  10  21  38  60  86 116 152 196 240 286 340
#     4  12  24  38  60  85 113 149 195 243 286 340
#     4  11  23  38  58  83 113 154 200 241 283 341
#     4   9  17  34  62  90 115 146 184 230 287 347
#     4   8  16  34  61  90 116 144 183 232 286 344
#
# _framework density 18.796987000000001
#
# number of rings (size 3 to 8) (size 9 to 14) (size 15 to 20)
#    0.000    1.500    1.250    5.625    0.000    5.500 
#    0.000    2.500    0.000    3.750    0.000    0.000 
#    0.000    0.000    0.000    0.000    0.000    0.000 
#
# Total GULP energy -178899.013913 kJ/mol
# GULP energy per Si atom -5590.594185 kJ/mol
# Density = 1.875420 g / cm^3
# Si number density = 18.796987 Si / 1000 Ang^3
#
#
#
# Elastic Constant Matrix: (Units=GPa)
#
#
# Indices 1 2 3 4 5 6 
#
# 1 75.9051 11.3481 22.3618 0.0000 0.1842 0.0000
# 2 11.3481 25.7492 -0.8937 0.0000 9.4897 0.0000
# 3 22.3618 -0.8937 85.4384 0.0000 9.5436 0.0000
# 4 0.0000 0.0000 0.0000 140.7157 0.0000 65.7186
# 5 0.1842 9.4897 9.5436 0.0000 30.4691 0.0000
# 6 0.0000 0.0000 0.0000 65.7186 0.0000 42.3195
#
#
#
# Elastic Compliance Matrix: (Units=1/GPa)
#
#
# Indices 1 2 3 4 5 6 
#
# 1 0.015838 -0.008641 -0.004690 0.000000 0.004064 0.000000
# 2 -0.008641 0.048938 0.004632 0.000000 -0.016640 0.000000
# 3 -0.004690 0.004632 0.013615 0.000000 -0.005679 0.000000
# 4 0.000000 0.000000 0.000000 0.025866 0.000000 -0.040168
# 5 0.004064 -0.016640 -0.005679 0.000000 0.039757 0.000000
# 6 0.000000 0.000000 0.000000 -0.040168 0.000000 0.086008
#
#
# Mechanical properties :
#
#
# Convention : Reuss Voigt Hill
#
# Bulk Modulus (GPa) = 16.39505 28.08057 22.23781
# Shear Modulus (GPa) = 18.67420 52.98596 35.83008
#
# Velocity S-wave (km/s) = 3.15535 5.31505 4.37070
# Velocity P-wave (km/s) = 4.69213 7.25518 6.10957
#
# Compressibility (1/GPa) = 0.06099403
#
# Stress axis : x y z
#
# Youngs Moduli (GPa) = 63.13986 20.43411 73.45097
#
# Poissons Ratio (x) = 0.17656 0.34446
# Poissons Ratio (y) = 0.54557 -0.34024
# Poissons Ratio (z) = 0.29610 -0.09465
#
# Static dielectric constant tensor:
#      x y z
#    x 1.652090 0.000000 -0.000160 
#    y 0.000000 1.628420 0.000000 
#    z -0.000160 0.000000 1.627910 
# 
# From -- ./inp_files/58205.got.cif
#   From: 2010.05.17/outbox.cif.g08.bks.cpg/sg10_30_cif.got.tgz:58205.got - 2010.06.03 11:33:40.
