data_PCOD9152150
_publ_section_title
;
Structure prediction by ZEFSAII (Michael W. Deem and Ramdas Pophale) SiO2 
 PCOD9152150
Probable space group: P 2/M
;
_chemical_formula_sum "Si O2"
_cell_formula_units_Z 32
_cell_length_a 27.709950
_cell_length_b 8.569228
_cell_length_c 21.589265
_cell_angle_alpha 90.000000
_cell_angle_beta 160.403004
_cell_angle_gamma 90.000000
_cell_volume 1719.416838
_symmetry_space_group_name_H-M "P 2/M"
_symmetry_group_IT_number 10
_symmetry_cell_setting 'monoclinic'
loop_
_space_group_symop_operation_xyz
x,y,z
-x,y,-z
-x,-y,-z
x,-y,z
loop_
_atom_site_type_symbol
_atom_site_label
_atom_site_fract_x
_atom_site_fract_y
_atom_site_fract_z
Si Si1 0.159817 0.188462 0.865579
Si Si2 0.981865 0.186494 0.175903
Si Si3 0.490931 0.813342 0.256839
Si Si4 0.292796 0.686714 0.582166
Si Si5 0.730702 0.687887 0.795711
Si Si6 0.544623 0.311542 0.455025
Si Si7 0.052138 0.311355 0.495748
Si Si8 0.654545 0.690417 0.212415
O O1 0.098587 0.238623 0.858187
O O2 0.057795 0.254189 0.689166
O O3 0.156325 0.000000 0.859701
O O4 0.324394 0.239015 0.055595
O O5 0.142429 0.251590 0.373420
O O6 0.987672 0.000000 0.182352
O O7 0.882585 0.243971 0.999743
O O8 0.578910 0.742558 0.306551
O O9 0.555992 0.760972 0.401298
O O10 0.494593 0.000000 0.257143
O O11 0.288490 0.500000 0.577748
O O12 0.315411 0.740808 0.680577
O O13 0.737876 0.500000 0.805726
O O14 0.606519 0.734885 0.695012
O O15 0.669606 0.733663 0.654550
O O16 0.544638 0.500000 0.450265
O O17 0.051893 0.500000 0.495750
O O18 0.000000 0.256861 0.500000
O O19 0.212527 0.260280 0.670183
O O20 0.652732 0.500000 0.210421
O O21 0.500000 0.742760 0.000000
#
# Coordination Sequence:
#
# PCOD9152150 Si02
#       8
#     4   4   4   4   4   4   4   4
#     4  10  22  38  57  82 118 155 191 234 284 340
#     4  11  21  37  59  85 116 154 194 236 284 342
#     4  11  23  39  57  84 119 155 194 239 285 341
#     4  11  23  39  61  85 113 154 194 237 291 343
#     4   9  18  33  57  87 118 150 190 238 287 342
#     4   9  18  34  56  86 119 151 189 238 290 339
#     4  10  21  36  59  88 114 143 188 243 289 334
#     4   9  19  36  56  82 114 145 183 232 286 341
#
# _framework density 18.610959999999999
#
# number of rings (size 3 to 8) (size 9 to 14) (size 15 to 20)
#    0.000    2.000    2.500    1.875    1.750    2.250 
#    0.000    1.875    0.000    5.625    0.000    0.000 
#    0.000    0.000    0.000    0.000    0.000    0.000 
#
# Total GULP energy -178679.874340 kJ/mol
# GULP energy per Si atom -5583.746073 kJ/mol
# Density = 1.856860 g / cm^3
# Si number density = 18.610960 Si / 1000 Ang^3
#
#
#
# Elastic Constant Matrix: (Units=GPa)
#
#
# Indices 1 2 3 4 5 6 
#
# 1 90.4390 9.9552 48.0430 0.0000 8.9082 0.0000
# 2 9.9552 14.4828 16.9182 0.0000 2.8184 0.0000
# 3 48.0430 16.9182 129.9302 0.0000 0.4755 0.0000
# 4 0.0000 0.0000 0.0000 48.7410 0.0000 -32.2860
# 5 8.9082 2.8184 0.4755 0.0000 31.3148 0.0000
# 6 0.0000 0.0000 0.0000 -32.2860 0.0000 57.1593
#
#
#
# Elastic Compliance Matrix: (Units=1/GPa)
#
#
# Indices 1 2 3 4 5 6 
#
# 1 0.014383 -0.003502 -0.004849 0.000000 -0.003703 0.000000
# 2 -0.003502 0.083928 -0.009610 0.000000 -0.006412 0.000000
# 3 -0.004849 -0.009610 0.010733 0.000000 0.002081 0.000000
# 4 0.000000 0.000000 0.000000 0.032782 0.000000 0.018517
# 5 -0.003703 -0.006412 0.002081 0.000000 0.033533 0.000000
# 6 0.000000 0.000000 0.000000 0.018517 0.000000 0.027954
#
#
# Mechanical properties :
#
#
# Convention : Reuss Voigt Hill
#
# Bulk Modulus (GPa) = 13.67561 42.74274 28.20917
# Shear Modulus (GPa) = 18.96752 38.10539 28.53645
#
# Velocity S-wave (km/s) = 3.19589 4.52981 3.92000
# Velocity P-wave (km/s) = 4.58065 7.09755 5.97317
#
# Compressibility (1/GPa) = 0.07312287
#
# Stress axis : x y z
#
# Youngs Moduli (GPa) = 69.52575 11.91497 93.17053
#
# Poissons Ratio (x) = 0.04173 0.45176
# Poissons Ratio (y) = 0.24348 0.89536
# Poissons Ratio (z) = 0.33711 0.11450
#
# Static dielectric constant tensor:
#      x y z
#    x 1.630260 0.000000 0.001920 
#    y 0.000000 1.627440 0.000000 
#    z 0.001920 0.000000 1.625660 
# 
# From -- ./inp_files/86971.got.cif
#   From: 2010.05.17/outbox.cif.g08.bks.cpg/sg10_44_cif.got.tgz:86971.got - 2010.06.03 11:33:40.
