data_PCOD9152422
_publ_section_title
;
Structure prediction by ZEFSAII (Michael W. Deem and Ramdas Pophale) SiO2 
 PCOD9152422
Probable space group: P 2/M
;
_chemical_formula_sum "Si O2"
_cell_formula_units_Z 25
_cell_length_a 14.014453
_cell_length_b 7.677162
_cell_length_c 13.704527
_cell_angle_alpha 90.000000
_cell_angle_beta 134.714217
_cell_angle_gamma 90.000000
_cell_volume 1047.807103
_symmetry_space_group_name_H-M "P 2/M"
_symmetry_group_IT_number 10
_symmetry_cell_setting 'monoclinic'
loop_
_space_group_symop_operation_xyz
x,y,z
-x,y,-z
-x,-y,-z
x,-y,z
loop_
_atom_site_type_symbol
_atom_site_label
_atom_site_fract_x
_atom_site_fract_y
_atom_site_fract_z
Si Si1 0.644573 0.302080 0.006870
Si Si2 0.621219 0.713336 0.282874
Si Si3 0.592417 0.702596 0.479918
Si Si4 0.000000 0.500000 0.500000
Si Si5 0.163610 0.210628 0.018137
Si Si6 0.135901 0.790041 0.225474
Si Si7 0.851889 0.187846 0.313508
O O1 0.637052 0.500000 0.038032
O O2 0.716965 0.296951 0.954223
O O3 0.743930 0.202725 0.149273
O O4 0.494956 0.238284 0.877503
O O5 0.633461 0.500000 0.291844
O O6 0.582828 0.774686 0.363563
O O7 0.760777 0.787672 0.344929
O O8 0.500000 0.780279 0.500000
O O9 0.552536 0.500000 0.442773
O O10 0.747258 0.714462 0.624103
O O11 0.047370 0.347062 0.611041
O O12 0.018723 0.261557 0.869188
O O13 0.174437 0.000000 0.019083
O O14 0.165082 0.255411 0.133382
O O15 0.141659 0.000000 0.237467
O O16 0.917205 0.000000 0.353411
#
# Coordination Sequence:
#
# PCOD9152422 Si02
#       7
#     4   4   4   1   4   4   4
#     4  11  22  40  67  97 131 173 220 276 338 398
#     4  10  22  42  65  94 137 179 221 281 339 396
#     4  10  21  37  59  90 127 173 223 272 327 396
#     4  12  26  52  70  98 138 174 220 276 328 400
#     4   9  19  36  57  86 124 167 218 276 331 396
#     4   9  19  36  56  81 122 169 214 273 337 389
#     4  12  26  46  74 102 133 177 223 275 339 403
#
# _framework density 23.859352999999999
#
# number of rings (size 3 to 8) (size 9 to 14) (size 15 to 20)
#    0.000    1.760    1.600    3.120    0.000    8.000 
#    0.000    3.200    0.000    0.000    0.000    0.000 
#    0.000    0.000    0.000    0.000    0.000    0.000 
#
# Total GULP energy -139597.267941 kJ/mol
# GULP energy per Si atom -5583.890718 kJ/mol
# Density = 2.380505 g / cm^3
# Si number density = 23.859353 Si / 1000 Ang^3
#
#
#
# Elastic Constant Matrix: (Units=GPa)
#
#
# Indices 1 2 3 4 5 6 
#
# 1 42.0601 -2.6547 -14.4064 0.0000 -1.3781 0.0000
# 2 -2.6547 106.7917 21.4996 0.0000 0.5143 0.0000
# 3 -14.4064 21.4996 115.6941 0.0000 -4.7358 0.0000
# 4 0.0000 0.0000 0.0000 -57.4096 0.0000 0.8975
# 5 -1.3781 0.5143 -4.7358 0.0000 30.5666 0.0000
# 6 0.0000 0.0000 0.0000 0.8975 0.0000 17.0600
#
#
#
# Elastic Compliance Matrix: (Units=1/GPa)
#
#
# Indices 1 2 3 4 5 6 
#
# 1 0.024914 -0.000027 0.003173 0.000000 0.001615 0.000000
# 2 -0.000027 0.009734 -0.001831 0.000000 -0.000449 0.000000
# 3 0.003173 -0.001831 0.009446 0.000000 0.001637 0.000000
# 4 0.000000 0.000000 0.000000 -0.017404 0.000000 0.000916
# 5 0.001615 -0.000449 0.001637 0.000000 0.033049 0.000000
# 6 0.000000 0.000000 0.000000 0.000916 0.000000 0.058568
#
#
# Mechanical properties :
#
#
# Convention : Reuss Voigt Hill
#
# Bulk Modulus (GPa) = 21.40201 30.38031 25.89116
# Shear Modulus (GPa) = 38.09494 15.38390 26.73942
#
# Velocity S-wave (km/s) = 4.00014 2.54200 3.35133
# Velocity P-wave (km/s) = 5.50676 4.62346 5.08433
#
# Compressibility (1/GPa) = 0.04672458
#
# Stress axis : x y z
#
# Youngs Moduli (GPa) = 40.13861 102.73209 105.86639
#
# Poissons Ratio (x) = 0.00281 -0.33597
# Poissons Ratio (y) = 0.00110 0.19381
# Poissons Ratio (z) = -0.12738 0.18807
#
# Static dielectric constant tensor:
#      x y z
#    x 1.917110 0.000000 -0.003580 
#    y 0.000000 1.859670 0.000000 
#    z -0.003580 0.000000 1.903580 
# 
# From -- ./inp_files/66710.got.cif
#   From: 2010.05.17/outbox.cif.g08.bks.cpg/sg10_34_cif.got.tgz:66710.got - 2010.06.03 11:33:40.
