data_PCOD9152868
_publ_section_title
;
Structure prediction by ZEFSAII (Michael W. Deem and Ramdas Pophale) SiO2 
 PCOD9152868
Probable space group: P 2/M
;
_chemical_formula_sum "Si O2"
_cell_formula_units_Z 32
_cell_length_a 30.782975
_cell_length_b 8.871461
_cell_length_c 12.151788
_cell_angle_alpha 90.000000
_cell_angle_beta 28.410292
_cell_angle_gamma 90.000000
_cell_volume 1578.898175
_symmetry_space_group_name_H-M "P 2/M"
_symmetry_group_IT_number 10
_symmetry_cell_setting 'monoclinic'
loop_
_space_group_symop_operation_xyz
x,y,z
-x,y,-z
-x,-y,-z
x,-y,z
loop_
_atom_site_type_symbol
_atom_site_label
_atom_site_fract_x
_atom_site_fract_y
_atom_site_fract_z
Si Si1 0.531623 0.826524 0.609908
Si Si2 0.086827 0.178503 0.660033
Si Si3 0.176349 0.674719 0.262112
Si Si4 0.237300 0.680859 0.486585
Si Si5 0.115521 0.819811 0.936437
Si Si6 0.354875 0.174102 0.847426
Si Si7 0.091684 0.678508 0.227096
Si Si8 0.551896 0.318958 0.994124
O O1 0.611764 0.778303 0.348394
O O2 0.441810 0.825429 0.733088
O O3 0.549182 0.000000 0.602640
O O4 0.507657 0.730799 0.769109
O O5 0.111186 0.222318 0.480408
O O6 0.163616 0.258170 0.562594
O O7 0.980510 0.221946 0.909989
O O8 0.093794 0.000000 0.662508
O O9 0.153919 0.500000 0.332586
O O10 0.167399 0.703110 0.152053
O O11 0.278883 0.716729 0.064222
O O12 0.236147 0.500000 0.486164
O O13 0.342078 0.733179 0.234374
O O14 0.198491 0.739934 0.689306
O O15 0.107061 0.769023 0.081715
O O16 0.124733 0.000000 0.908963
O O17 0.321518 0.000000 0.916591
O O18 0.086970 0.500000 0.210401
O O19 0.000000 0.715730 0.500000
O O20 0.555430 0.500000 0.982500
O O21 0.500000 0.265288 0.000000
#
# Coordination Sequence:
#
# PCOD9152868 Si02
#       8
#     4   4   4   4   4   4   4   4
#     4   9  19  37  60  84 113 150 189 232 288 350
#     4  11  23  39  60  87 122 158 195 244 297 346
#     4  11  22  35  57  88 118 154 199 239 286 345
#     4  11  24  41  63  89 117 154 198 244 295 350
#     4  11  24  40  61  88 120 158 199 244 294 346
#     4   9  19  36  57  85 119 150 185 236 293 344
#     4  10  21  39  59  80 114 156 194 235 281 337
#     4  10  23  42  61  83 115 152 192 241 293 344
#
# _framework density 20.267299000000001
#
# number of rings (size 3 to 8) (size 9 to 14) (size 15 to 20)
#    0.000    1.750    1.250    3.375    0.000    9.500 
#    0.000    5.000    0.000    0.000    0.000    0.000 
#    0.000    0.000    0.000    0.000    0.000    0.000 
#
# Total GULP energy -178681.681595 kJ/mol
# GULP energy per Si atom -5583.802550 kJ/mol
# Density = 2.022117 g / cm^3
# Si number density = 20.267299 Si / 1000 Ang^3
#
#
#
# Elastic Constant Matrix: (Units=GPa)
#
#
# Indices 1 2 3 4 5 6 
#
# 1 54.0984 13.4542 0.8543 0.0000 18.6363 0.0000
# 2 13.4542 24.0597 8.9213 0.0000 2.0068 0.0000
# 3 0.8543 8.9213 51.1681 0.0000 8.2455 0.0000
# 4 0.0000 0.0000 0.0000 35.0434 0.0000 -7.6169
# 5 18.6363 2.0068 8.2455 0.0000 29.0446 0.0000
# 6 0.0000 0.0000 0.0000 -7.6169 0.0000 51.0843
#
#
#
# Elastic Compliance Matrix: (Units=1/GPa)
#
#
# Indices 1 2 3 4 5 6 
#
# 1 0.029146 -0.016749 0.005513 0.000000 -0.019109 0.000000
# 2 -0.016749 0.054084 -0.010773 0.000000 0.010068 0.000000
# 3 0.005513 -0.010773 0.022824 0.000000 -0.009273 0.000000
# 4 0.000000 0.000000 0.000000 0.029492 0.000000 0.004397
# 5 -0.019109 0.010068 -0.009273 0.000000 0.048628 0.000000
# 6 0.000000 0.000000 0.000000 0.004397 0.000000 0.020231
#
#
# Mechanical properties :
#
#
# Convention : Reuss Voigt Hill
#
# Bulk Modulus (GPa) = 16.11939 19.53175 17.82557
# Shear Modulus (GPa) = 18.58043 30.10758 24.34400
#
# Velocity S-wave (km/s) = 3.03110 3.85843 3.46952
# Velocity P-wave (km/s) = 4.49675 5.43213 4.98642
#
# Compressibility (1/GPa) = 0.06203711
#
# Stress axis : x y z
#
# Youngs Moduli (GPa) = 34.30985 18.48983 43.81387
#
# Poissons Ratio (x) = 0.30968 -0.24155
# Poissons Ratio (y) = 0.57465 0.47198
# Poissons Ratio (z) = -0.18915 0.19918
#
# Static dielectric constant tensor:
#      x y z
#    x 1.757780 0.000000 -0.017360 
#    y 0.000000 1.689630 0.000000 
#    z -0.017360 0.000000 1.744990 
# 
# From -- ./inp_files/58130.got.cif
#   From: 2010.05.17/outbox.cif.g08.bks.cpg/sg10_30_cif.got.tgz:58130.got - 2010.06.03 11:33:40.
