data_PCOD9152429
_publ_section_title
;
Structure prediction by ZEFSAII (Michael W. Deem and Ramdas Pophale) SiO2 
 PCOD9152429
Probable space group: P 2/M
;
_chemical_formula_sum "Si O2"
_cell_formula_units_Z 28
_cell_length_a 18.731732
_cell_length_b 18.394004
_cell_length_c 10.655397
_cell_angle_alpha 90.000000
_cell_angle_beta 21.803794
_cell_angle_gamma 90.000000
_cell_volume 1363.640927
_symmetry_space_group_name_H-M "P 2/M"
_symmetry_group_IT_number 10
_symmetry_cell_setting 'monoclinic'
loop_
_space_group_symop_operation_xyz
x,y,z
-x,y,-z
-x,-y,-z
x,-y,z
loop_
_atom_site_type_symbol
_atom_site_label
_atom_site_fract_x
_atom_site_fract_y
_atom_site_fract_z
Si Si1 0.536528 0.191264 0.303396
Si Si2 0.966433 0.664028 0.235197
Si Si3 0.269956 0.415997 0.886528
Si Si4 0.375198 0.417090 0.333012
Si Si5 0.900123 0.827622 0.036741
Si Si6 0.863244 0.085539 0.843398
Si Si7 0.289182 0.328116 0.097802
O O1 0.500000 0.227857 0.500000
O O2 0.331808 0.176145 0.574705
O O3 0.659454 0.120349 0.136675
O O4 0.664124 0.245631 0.014400
O O5 0.822901 0.623331 0.374843
O O6 0.845637 0.667691 0.561938
O O7 0.156196 0.617968 0.955809
O O8 0.022122 0.745656 0.107723
O O9 0.500000 0.412095 0.500000
O O10 0.214809 0.500000 0.991636
O O11 0.211734 0.369881 0.103251
O O12 0.349557 0.500000 0.420774
O O13 0.500000 0.421865 0.000000
O O14 0.510863 0.368341 0.197471
O O15 0.934417 0.872811 0.852489
O O16 0.000000 0.857304 0.000000
O O17 0.000000 0.096260 0.500000
O O18 0.847840 0.000000 0.894230
#
# Coordination Sequence:
#
# PCOD9152429 Si02
#       7
#     4   4   4   4   4   4   4
#     4  10  21  37  60  86 119 159 197 240 295 362
#     4  11  22  36  57  81 112 154 200 247 301 362
#     4  11  23  36  51  76 111 150 198 257 313 363
#     4   9  19  34  52  77 108 145 192 246 301 351
#     4  11  23  39  62  92 127 162 200 246 298 360
#     4  10  22  43  69  95 124 159 201 246 296 361
#     4  11  20  35  58  82 111 149 200 256 302 354
#
# _framework density 20.533263999999999
#
# number of rings (size 3 to 8) (size 9 to 14) (size 15 to 20)
#    0.000    1.571    0.000    6.000    0.000    5.143 
#    0.000    2.143    0.000    6.000    0.000    0.000 
#    0.000    0.000    0.000    0.000    0.000    0.000 
#
# Total GULP energy -156635.210620 kJ/mol
# GULP energy per Si atom -5594.114665 kJ/mol
# Density = 2.048653 g / cm^3
# Si number density = 20.533264 Si / 1000 Ang^3
#
#
#
# Elastic Constant Matrix: (Units=GPa)
#
#
# Indices 1 2 3 4 5 6 
#
# 1 132.7004 48.1044 44.2287 0.0000 -28.2335 0.0000
# 2 48.1044 125.3832 39.7379 0.0000 -14.2889 0.0000
# 3 44.2287 39.7379 93.0688 0.0000 -14.0241 0.0000
# 4 0.0000 0.0000 0.0000 -83.7926 0.0000 -15.7984
# 5 -28.2335 -14.2889 -14.0241 0.0000 36.8081 0.0000
# 6 0.0000 0.0000 0.0000 -15.7984 0.0000 30.8878
#
#
#
# Elastic Compliance Matrix: (Units=1/GPa)
#
#
# Indices 1 2 3 4 5 6 
#
# 1 0.010772 -0.002435 -0.003158 0.000000 0.006114 0.000000
# 2 -0.002435 0.009946 -0.002959 0.000000 0.000866 0.000000
# 3 -0.003158 -0.002959 0.013761 0.000000 0.001672 0.000000
# 4 0.000000 0.000000 0.000000 -0.010885 0.000000 -0.005567
# 5 0.006114 0.000866 0.001672 0.000000 0.032831 0.000000
# 6 0.000000 0.000000 0.000000 -0.005567 0.000000 0.029528
#
#
# Mechanical properties :
#
#
# Convention : Reuss Voigt Hill
#
# Bulk Modulus (GPa) = 57.55534 68.36603 62.96069
# Shear Modulus (GPa) = 45.93514 11.38609 28.66061
#
# Velocity S-wave (km/s) = 4.73494 2.35738 3.74011
# Velocity P-wave (km/s) = 7.61472 6.38570 7.02713
#
# Compressibility (1/GPa) = 0.01737458
#
# Stress axis : x y z
#
# Youngs Moduli (GPa) = 92.83419 100.53979 72.66948
#
# Poissons Ratio (x) = 0.24482 0.22950
# Poissons Ratio (y) = 0.22606 0.21504
# Poissons Ratio (z) = 0.29318 0.29751
#
# Static dielectric constant tensor:
#      x y z
#    x 1.698580 0.000000 0.020210 
#    y 0.000000 1.686060 0.000000 
#    z 0.020210 0.000000 1.753470 
# 
# From -- ./inp_files/56098.got.cif
#   From: 2010.05.17/outbox.cif.g08.bks.cpg/sg10_29_cif.got.tgz:56098.got - 2010.06.03 11:33:40.
