data_PCOD9152779
_publ_section_title
;
Structure prediction by ZEFSAII (Michael W. Deem and Ramdas Pophale) SiO2 
 PCOD9152779
Probable space group: P 2/M
;
_chemical_formula_sum "Si O2"
_cell_formula_units_Z 20
_cell_length_a 11.214579
_cell_length_b 7.451839
_cell_length_c 13.196209
_cell_angle_alpha 90.000000
_cell_angle_beta 53.920411
_cell_angle_gamma 90.000000
_cell_volume 891.280331
_symmetry_space_group_name_H-M "P 2/M"
_symmetry_group_IT_number 10
_symmetry_cell_setting 'monoclinic'
loop_
_space_group_symop_operation_xyz
x,y,z
-x,y,-z
-x,-y,-z
x,-y,z
loop_
_atom_site_type_symbol
_atom_site_label
_atom_site_fract_x
_atom_site_fract_y
_atom_site_fract_z
Si Si1 0.644930 0.700823 0.375266
Si Si2 0.164529 0.217058 0.310798
Si Si3 0.655924 0.780580 0.970624
Si Si4 0.828790 0.788904 0.082499
Si Si5 0.179362 0.783203 0.518909
O O1 0.500000 0.790011 0.500000
O O2 0.599257 0.500000 0.366956
O O3 0.737433 0.773930 0.233492
O O4 0.752633 0.698371 0.416857
O O5 0.231484 0.276786 0.172824
O O6 0.239921 0.274569 0.378478
O O7 0.992973 0.260238 0.397893
O O8 0.174679 0.000000 0.306986
O O9 0.647739 0.000000 0.980662
O O10 0.500000 0.723405 0.000000
O O11 0.723055 0.718690 0.044545
O O12 0.846756 0.000000 0.051795
O O13 0.000000 0.717752 0.000000
O O14 0.194921 0.000000 0.519886
#
# Coordination Sequence:
#
# PCOD9152779 Si02
#       5
#     4   4   4   4   4
#     4  11  25  40  54  78 117 158 196 238 281 329
#     4   8  15  29  51  82 113 137 169 226 288 339
#     4   9  17  28  48  81 115 138 169 224 286 340
#     4  10  21  38  62  89 114 146 191 240 289 347
#     4   9  17  32  57  82 106 140 184 231 281 337
#
# _framework density 22.439627999999999
#
# number of rings (size 3 to 8) (size 9 to 14) (size 15 to 20)
#    0.000    2.600    0.000    3.000    2.800    5.200 
#    0.000    2.000    0.000    1.800    0.000    0.000 
#    0.000    0.000    0.000    0.000    0.000    0.000 
#
# Total GULP energy -111407.097327 kJ/mol
# GULP energy per Si atom -5570.354866 kJ/mol
# Density = 2.238855 g / cm^3
# Si number density = 22.439628 Si / 1000 Ang^3
#
#
#
# Elastic Constant Matrix: (Units=GPa)
#
#
# Indices 1 2 3 4 5 6 
#
# 1 177.9290 7.9011 101.5464 0.0000 30.2188 0.0000
# 2 7.9011 59.1315 -4.4001 0.0000 -4.0197 0.0000
# 3 101.5464 -4.4001 138.2215 0.0000 21.6889 0.0000
# 4 0.0000 0.0000 0.0000 -17.8483 0.0000 -20.8161
# 5 30.2188 -4.0197 21.6889 0.0000 42.1730 0.0000
# 6 0.0000 0.0000 0.0000 -20.8161 0.0000 -25.9832
#
#
#
# Elastic Compliance Matrix: (Units=1/GPa)
#
#
# Indices 1 2 3 4 5 6 
#
# 1 0.010476 -0.002206 -0.007131 0.000000 -0.004049 0.000000
# 2 -0.002206 0.017499 0.001814 0.000000 0.002315 0.000000
# 3 -0.007131 0.001814 0.012730 0.000000 -0.001264 0.000000
# 4 0.000000 0.000000 0.000000 -0.853503 0.000000 0.683775
# 5 -0.004049 0.002315 -0.001264 0.000000 0.027484 0.000000
# 6 0.000000 0.000000 0.000000 0.683775 0.000000 -0.586286
#
#
# Mechanical properties :
#
#
# Convention : Reuss Voigt Hill
#
# Bulk Modulus (GPa) = 38.97257 65.04188 52.00722
# Shear Modulus (GPa) = -3.70919 17.68396 6.98738
#
# Velocity S-wave (km/s) = -1.28707 2.81030 1.76653
# Velocity P-wave (km/s) = 3.89830 6.29115 5.23332
#
# Compressibility (1/GPa) = 0.02565907
#
# Stress axis : x y z
#
# Youngs Moduli (GPa) = 95.46075 57.14759 78.55673
#
# Poissons Ratio (x) = 0.12605 0.56018
# Poissons Ratio (y) = 0.21055 -0.14251
# Poissons Ratio (z) = 0.68072 -0.10367
#
# Static dielectric constant tensor:
#      x y z
#    x 1.880850 0.000000 -0.054180 
#    y 0.000000 1.873390 0.000000 
#    z -0.054180 0.000000 1.887530 
# 
# From -- ./inp_files/63067.got.cif
#   From: 2010.05.17/outbox.cif.g08.bks.cpg/sg10_32_cif.got.tgz:63067.got - 2010.06.03 11:33:40.
