data_PCOD9152306
_publ_section_title
;
Structure prediction by ZEFSAII (Michael W. Deem and Ramdas Pophale) SiO2 
 PCOD9152306
Probable space group: P 2/M
;
_chemical_formula_sum "Si O2"
_cell_formula_units_Z 20
_cell_length_a 19.542047
_cell_length_b 7.489386
_cell_length_c 7.485579
_cell_angle_alpha 90.000000
_cell_angle_beta 126.900909
_cell_angle_gamma 90.000000
_cell_volume 876.103181
_symmetry_space_group_name_H-M "P 2/M"
_symmetry_group_IT_number 10
_symmetry_cell_setting 'monoclinic'
loop_
_space_group_symop_operation_xyz
x,y,z
-x,y,-z
-x,-y,-z
x,-y,z
loop_
_atom_site_type_symbol
_atom_site_label
_atom_site_fract_x
_atom_site_fract_y
_atom_site_fract_z
Si Si1 0.724048 0.290164 0.585341
Si Si2 0.723114 0.216807 0.006921
Si Si3 0.093224 0.200772 0.668606
Si Si4 0.092501 0.283160 0.071789
Si Si5 0.409937 0.204067 0.916147
O O1 0.717344 0.500000 0.539552
O O2 0.821209 0.232187 0.689356
O O3 0.652754 0.201182 0.352414
O O4 0.713646 0.263456 0.782921
O O5 0.814363 0.282532 0.231917
O O6 0.644878 0.281643 0.005861
O O7 0.727437 0.000000 0.024291
O O8 0.000000 0.289895 0.500000
O O9 0.087187 0.000000 0.581450
O O10 0.101057 0.194841 0.893753
O O11 0.094410 0.500000 0.055070
O O12 0.000000 0.234568 0.000000
O O13 0.429522 0.000000 0.002341
O O14 0.500000 0.287967 0.000000
#
# Coordination Sequence:
#
# PCOD9152306 Si02
#       5
#     4   4   4   4   4
#     4  10  21  37  57  82 113 146 182 227 275 325
#     4   9  19  37  57  78 110 147 182 224 273 327
#     4   9  18  31  49  77 106 135 175 219 265 314
#     4   9  19  34  50  74 107 143 179 212 259 321
#     4  10  22  39  60  84 108 142 187 230 276 327
#
# _framework density 22.828363
#
# number of rings (size 3 to 8) (size 9 to 14) (size 15 to 20)
#    0.000    2.600    0.000    0.600    2.800    3.600 
#    0.000    4.000    0.000    0.000    0.000    0.000 
#    0.000    0.000    0.000    0.000    0.000    0.000 
#
# Total GULP energy -111526.865714 kJ/mol
# GULP energy per Si atom -5576.343286 kJ/mol
# Density = 2.277640 g / cm^3
# Si number density = 22.828363 Si / 1000 Ang^3
#
#
#
# Elastic Constant Matrix: (Units=GPa)
#
#
# Indices 1 2 3 4 5 6 
#
# 1 159.1085 6.2995 36.8064 0.0000 33.8145 0.0000
# 2 6.2995 68.2157 -4.2079 0.0000 9.6178 0.0000
# 3 36.8064 -4.2079 85.7025 0.0000 17.9206 0.0000
# 4 0.0000 0.0000 0.0000 37.8161 0.0000 -2.5870
# 5 33.8145 9.6178 17.9206 0.0000 41.4839 0.0000
# 6 0.0000 0.0000 0.0000 -2.5870 0.0000 25.9500
#
#
#
# Elastic Compliance Matrix: (Units=1/GPa)
#
#
# Indices 1 2 3 4 5 6 
#
# 1 0.007986 -0.000103 -0.002285 0.000000 -0.005499 0.000000
# 2 -0.000103 0.015365 0.001678 0.000000 -0.004203 0.000000
# 3 -0.002285 0.001678 0.013658 0.000000 -0.004426 0.000000
# 4 0.000000 0.000000 0.000000 0.026625 0.000000 0.002654
# 5 -0.005499 -0.004203 -0.004426 0.000000 0.031474 0.000000
# 6 0.000000 0.000000 0.000000 0.002654 0.000000 0.038800
#
#
# Mechanical properties :
#
#
# Convention : Reuss Voigt Hill
#
# Bulk Modulus (GPa) = 28.09993 43.42476 35.76234
# Shear Modulus (GPa) = 33.96905 39.32525 36.64715
#
# Velocity S-wave (km/s) = 3.86167 4.15498 4.01101
# Velocity P-wave (km/s) = 5.67620 6.48707 6.09514
#
# Compressibility (1/GPa) = 0.03558728
#
# Stress axis : x y z
#
# Youngs Moduli (GPa) = 125.21363 65.08320 73.21961
#
# Poissons Ratio (x) = 0.00672 0.16732
# Poissons Ratio (y) = 0.01292 -0.12283
# Poissons Ratio (z) = 0.28613 -0.10918
#
# Static dielectric constant tensor:
#      x y z
#    x 1.883810 0.000000 0.061880 
#    y 0.000000 1.940960 0.000000 
#    z 0.061880 0.000000 1.844960 
# 
# From -- ./inp_files/26784.got.cif
#   From: 2010.05.17/outbox.cif.g08.bks.cpg/sg10_14_cif.got.tgz:26784.got - 2010.06.03 11:33:40.
