data_PCOD9152598
_publ_section_title
;
Structure prediction by ZEFSAII (Michael W. Deem and Ramdas Pophale) SiO2 
 PCOD9152598
Probable space group: P 2/M
;
_chemical_formula_sum "Si O2"
_cell_formula_units_Z 26
_cell_length_a 23.157714
_cell_length_b 11.733378
_cell_length_c 4.859550
_cell_angle_alpha 90.000000
_cell_angle_beta 74.216626
_cell_angle_gamma 90.000000
_cell_volume 1270.644082
_symmetry_space_group_name_H-M "P 2/M"
_symmetry_group_IT_number 10
_symmetry_cell_setting 'monoclinic'
loop_
_space_group_symop_operation_xyz
x,y,z
-x,y,-z
-x,-y,-z
x,-y,z
loop_
_atom_site_type_symbol
_atom_site_label
_atom_site_fract_x
_atom_site_fract_y
_atom_site_fract_z
Si Si1 0.583852 0.500000 0.163750
Si Si2 0.664918 0.131507 0.091242
Si Si3 0.583988 0.867227 0.696736
Si Si4 0.041338 0.630983 0.213648
Si Si5 0.249656 0.686470 0.290095
Si Si6 0.500000 0.303722 0.500000
Si Si7 0.828522 0.368158 0.125960
Si Si8 0.336879 0.500000 0.431695
O O1 0.546513 0.388314 0.290006
O O2 0.644085 0.500000 0.275075
O O3 0.601832 0.500000 0.822678
O O4 0.605519 0.145882 0.980278
O O5 0.715406 0.210530 0.898381
O O6 0.683124 0.000000 0.047647
O O7 0.642707 0.154188 0.428795
O O8 0.535028 0.778134 0.663780
O O9 0.565938 0.000000 0.676021
O O10 0.054227 0.500000 0.290656
O O11 0.106630 0.676865 0.052562
O O12 0.000000 0.686801 0.500000
O O13 0.000000 0.626674 0.000000
O O14 0.214672 0.629391 0.081717
O O15 0.298384 0.607110 0.380147
O O16 0.200876 0.705678 0.593096
O O17 0.834972 0.500000 0.220044
#
# Coordination Sequence:
#
# PCOD9152598 Si02
#       8
#     2   4   4   4   4   2   4   2
#     4  11  26  36  54  72 106 135 172 209 254 321
#     4  10  22  39  57  80 105 136 174 220 272 321
#     4  10  21  38  59  78 100 129 169 219 275 322
#     4   9  17  29  46  68 106 149 179 213 254 299
#     4  12  21  34  56  76 109 142 179 221 259 310
#     4  11  23  40  54  80 101 131 170 218 258 313
#     4  11  20  33  49  82 110 144 186 215 255 309
#     4  12  22  39  52  76 102 145 172 203 266 319
#
# _framework density 20.462063000000001
#
# number of rings (size 3 to 8) (size 9 to 14) (size 15 to 20)
#    0.000    1.385    1.538    4.846    0.000    5.538 
#    0.000    2.308    0.000    0.000    0.000    0.000 
#    0.000   12.308    0.000    0.000    0.000    0.000 
#
# Total GULP energy -145467.669439 kJ/mol
# GULP energy per Si atom -5594.910363 kJ/mol
# Density = 2.041549 g / cm^3
# Si number density = 20.462063 Si / 1000 Ang^3
#
#
#
# Elastic Constant Matrix: (Units=GPa)
#
#
# Indices 1 2 3 4 5 6 
#
# 1 64.0601 32.9089 15.2931 0.0000 -13.4692 0.0000
# 2 32.9089 70.9412 17.4109 0.0000 -13.9267 0.0000
# 3 15.2931 17.4109 93.5879 0.0000 -12.1901 0.0000
# 4 0.0000 0.0000 0.0000 7.3840 0.0000 -2.2020
# 5 -13.4692 -13.9267 -12.1901 0.0000 38.4429 0.0000
# 6 0.0000 0.0000 0.0000 -2.2020 0.0000 4.2516
#
#
#
# Elastic Compliance Matrix: (Units=1/GPa)
#
#
# Indices 1 2 3 4 5 6 
#
# 1 0.021244 -0.008772 -0.001339 0.000000 0.003841 0.000000
# 2 -0.008772 0.019244 -0.001710 0.000000 0.003356 0.000000
# 3 -0.001339 -0.001710 0.011558 0.000000 0.002576 0.000000
# 4 0.000000 0.000000 0.000000 0.160166 0.000000 0.082955
# 5 0.003841 0.003356 0.002576 0.000000 0.029391 0.000000
# 6 0.000000 0.000000 0.000000 0.082955 0.000000 0.278170
#
#
# Mechanical properties :
#
#
# Convention : Reuss Voigt Hill
#
# Bulk Modulus (GPa) = 35.20688 39.97946 37.59317
# Shear Modulus (GPa) = 9.04351 20.88080 14.96216
#
# Velocity S-wave (km/s) = 2.10458 3.19794 2.70703
# Velocity P-wave (km/s) = 4.81133 5.76337 5.30874
#
# Compressibility (1/GPa) = 0.02840354
#
# Stress axis : x y z
#
# Youngs Moduli (GPa) = 47.07202 51.96458 86.52320
#
# Poissons Ratio (x) = 0.45584 0.11588
# Poissons Ratio (y) = 0.41293 0.14791
# Poissons Ratio (z) = 0.06304 0.08883
#
# Static dielectric constant tensor:
#      x y z
#    x 1.726470 0.000000 -0.026100 
#    y 0.000000 1.723110 0.000000 
#    z -0.026100 0.000000 1.766280 
# 
# From -- ./inp_files/12373.got.cif
#   From: 2010.05.17/outbox.cif.g08.bks.cpg/sg10_7_cif.got.tgz:12373.got - 2010.06.03 11:33:40.
