data_PCOD9152727
_publ_section_title
;
Structure prediction by ZEFSAII (Michael W. Deem and Ramdas Pophale) SiO2 
 PCOD9152727
Probable space group: P 2/M
;
_chemical_formula_sum "Si O2"
_cell_formula_units_Z 24
_cell_length_a 14.851134
_cell_length_b 18.055544
_cell_length_c 12.807209
_cell_angle_alpha 90.000000
_cell_angle_beta 19.621156
_cell_angle_gamma 90.000000
_cell_volume 1153.199909
_symmetry_space_group_name_H-M "P 2/M"
_symmetry_group_IT_number 10
_symmetry_cell_setting 'monoclinic'
loop_
_space_group_symop_operation_xyz
x,y,z
-x,y,-z
-x,-y,-z
x,-y,z
loop_
_atom_site_type_symbol
_atom_site_label
_atom_site_fract_x
_atom_site_fract_y
_atom_site_fract_z
Si Si1 0.977239 0.843115 0.813972
Si Si2 0.658077 0.590147 0.724705
Si Si3 0.791662 0.915212 0.633086
Si Si4 0.210062 0.699698 0.864469
Si Si5 0.567734 0.912624 0.545716
Si Si6 0.764791 0.588977 0.982477
O O1 0.141519 0.856133 0.528985
O O2 0.171210 0.873249 0.693712
O O3 0.886352 0.762211 0.948752
O O4 0.703977 0.889990 0.098554
O O5 0.652862 0.500000 0.734441
O O6 0.967444 0.611017 0.374056
O O7 0.500000 0.616364 0.000000
O O8 0.493650 0.612869 0.801599
O O9 0.000000 0.910397 0.500000
O O10 0.805577 0.000000 0.573742
O O11 0.500000 0.904940 0.000000
O O12 0.500000 0.718298 0.500000
O O13 0.230989 0.625220 0.909020
O O14 0.000000 0.693940 0.000000
O O15 0.500000 0.893504 0.500000
O O16 0.613310 0.000000 0.502590
O O17 0.763703 0.500000 0.991310
#
# Coordination Sequence:
#
# PCOD9152727 Si02
#       6
#     4   4   4   4   4   4
#     4  12  23  40  61  85 120 159 197 242 302 360
#     4   9  17  33  60  92 123 152 188 243 305 362
#     4  10  21  38  61  88 117 151 192 237 286 346
#     4  12  26  43  62  85 119 162 205 255 315 367
#     4  11  22  36  59  90 119 151 195 242 288 347
#     4  10  21  38  61  90 121 160 211 257 305 366
#
# _framework density 20.811657
#
# number of rings (size 3 to 8) (size 9 to 14) (size 15 to 20)
#    0.000    1.333    0.000    7.000    0.000    5.333 
#    0.000    2.500    0.000    0.000    0.000    0.000 
#    0.000    0.000    0.000    0.000    0.000    0.000 
#
# Total GULP energy -134220.654819 kJ/mol
# GULP energy per Si atom -5592.527284 kJ/mol
# Density = 2.076429 g / cm^3
# Si number density = 20.811657 Si / 1000 Ang^3
#
#
#
# Elastic Constant Matrix: (Units=GPa)
#
#
# Indices 1 2 3 4 5 6 
#
# 1 68.2441 19.8436 15.3487 0.0000 -2.3112 0.0000
# 2 19.8436 41.7240 17.9777 0.0000 6.1968 0.0000
# 3 15.3487 17.9777 67.6188 0.0000 -11.1690 0.0000
# 4 0.0000 0.0000 0.0000 14.6414 0.0000 2.0223
# 5 -2.3112 6.1968 -11.1690 0.0000 43.6218 0.0000
# 6 0.0000 0.0000 0.0000 2.0223 0.0000 7.0685
#
#
#
# Elastic Compliance Matrix: (Units=1/GPa)
#
#
# Indices 1 2 3 4 5 6 
#
# 1 0.017334 -0.007797 -0.001594 0.000000 0.001618 0.000000
# 2 -0.007797 0.032133 -0.007931 0.000000 -0.007009 0.000000
# 3 -0.001594 -0.007931 0.018201 0.000000 0.005702 0.000000
# 4 0.000000 0.000000 0.000000 0.071110 0.000000 -0.020345
# 5 0.001618 -0.007009 0.005702 0.000000 0.025466 0.000000
# 6 0.000000 0.000000 0.000000 -0.020345 0.000000 0.147293
#
#
# Mechanical properties :
#
#
# Convention : Reuss Voigt Hill
#
# Bulk Modulus (GPa) = 30.28154 31.54743 30.91449
# Shear Modulus (GPa) = 13.99815 21.36080 17.67948
#
# Velocity S-wave (km/s) = 2.59629 3.20720 2.91778
# Velocity P-wave (km/s) = 4.85484 5.37646 5.12229
#
# Compressibility (1/GPa) = 0.03302342
#
# Stress axis : x y z
#
# Youngs Moduli (GPa) = 57.69060 31.12020 54.94131
#
# Poissons Ratio (x) = 0.24265 0.08760
# Poissons Ratio (y) = 0.44982 0.43574
# Poissons Ratio (z) = 0.09198 0.24682
#
# Static dielectric constant tensor:
#      x y z
#    x 1.712770 0.000000 0.021180 
#    y 0.000000 1.745110 0.000000 
#    z 0.021180 0.000000 1.751640 
# 
# From -- ./inp_files/52050.got.cif
#   From: 2010.05.17/outbox.cif.g08.bks.cpg/sg10_27_cif.got.tgz:52050.got - 2010.06.03 11:33:40.
