data_PCOD9152391
_publ_section_title
;
Structure prediction by ZEFSAII (Michael W. Deem and Ramdas Pophale) SiO2 
 PCOD9152391
Probable space group: P 2/M
;
_chemical_formula_sum "Si O2"
_cell_formula_units_Z 32
_cell_length_a 26.285611
_cell_length_b 8.954421
_cell_length_c 15.305501
_cell_angle_alpha 90.000000
_cell_angle_beta 150.526459
_cell_angle_gamma 90.000000
_cell_volume 1772.504259
_symmetry_space_group_name_H-M "P 2/M"
_symmetry_group_IT_number 10
_symmetry_cell_setting 'monoclinic'
loop_
_space_group_symop_operation_xyz
x,y,z
-x,y,-z
-x,-y,-z
x,-y,z
loop_
_atom_site_type_symbol
_atom_site_label
_atom_site_fract_x
_atom_site_fract_y
_atom_site_fract_z
Si Si1 0.278653 0.178328 0.495478
Si Si2 0.108891 0.321113 0.115481
Si Si3 0.777819 0.177981 0.052297
Si Si4 0.825247 0.820794 0.475910
Si Si5 0.935246 0.820287 0.135900
Si Si6 0.491924 0.676819 0.765621
Si Si7 0.433653 0.676961 0.316294
Si Si8 0.726732 0.678872 0.157653
O O1 0.202955 0.253650 0.311654
O O2 0.237454 0.218005 0.530303
O O3 0.395379 0.233491 0.657620
O O4 0.272255 0.000000 0.476210
O O5 0.117335 0.500000 0.126267
O O6 0.105826 0.257287 0.013015
O O7 0.000000 0.281344 0.000000
O O8 0.869233 0.220267 0.122757
O O9 0.779315 0.255259 0.149097
O O10 0.779393 0.000000 0.066485
O O11 0.670552 0.229376 0.847952
O O12 0.779322 0.741100 0.322809
O O13 0.944931 0.781197 0.670586
O O14 0.819560 0.000000 0.454951
O O15 0.928251 0.000000 0.113973
O O16 0.476877 0.500000 0.759239
O O17 0.501833 0.699060 0.676072
O O18 0.604609 0.720337 0.971440
O O19 0.500000 0.715500 0.500000
O O20 0.407094 0.500000 0.280326
O O21 0.731887 0.500000 0.161829
#
# Coordination Sequence:
#
# PCOD9152391 Si02
#       8
#     4   4   4   4   4   4   4   4
#     4  11  23  38  60  87 118 156 194 238 289 344
#     4  11  23  38  59  86 118 156 195 240 288 339
#     4  10  21  37  59  86 115 150 194 240 286 343
#     4  10  22  40  61  84 115 154 194 238 289 346
#     4  10  22  40  60  86 120 157 194 235 289 345
#     4   9  20  38  57  82 116 153 192 237 291 344
#     4   9  19  36  56  80 115 155 191 235 291 345
#     4  10  22  41  63  85 115 153 191 242 298 343
#
# _framework density 18.053553999999998
#
# number of rings (size 3 to 8) (size 9 to 14) (size 15 to 20)
#    0.000    2.000    1.250    2.250    1.750    6.750 
#    0.000    5.000    0.000    0.000    0.000    0.000 
#    0.000    0.000    0.000    0.000    0.000    0.000 
#
# Total GULP energy -178729.192764 kJ/mol
# GULP energy per Si atom -5585.287274 kJ/mol
# Density = 1.801246 g / cm^3
# Si number density = 18.053554 Si / 1000 Ang^3
#
#
#
# Elastic Constant Matrix: (Units=GPa)
#
#
# Indices 1 2 3 4 5 6 
#
# 1 137.4042 58.6059 88.2332 0.0000 -0.6512 0.0000
# 2 58.6059 42.5384 40.8732 0.0000 -3.8021 0.0000
# 3 88.2332 40.8732 67.0191 0.0000 -22.7850 0.0000
# 4 0.0000 0.0000 0.0000 48.6061 0.0000 -2.7179
# 5 -0.6512 -3.8021 -22.7850 0.0000 36.0668 0.0000
# 6 0.0000 0.0000 0.0000 -2.7179 0.0000 29.4808
#
#
#
# Elastic Compliance Matrix: (Units=1/GPa)
#
#
# Indices 1 2 3 4 5 6 
#
# 1 -0.087285 -0.035283 0.171457 0.000000 0.103022 0.000000
# 2 -0.035283 0.057098 0.017140 0.000000 0.016210 0.000000
# 3 0.171457 0.017140 -0.279660 0.000000 -0.171771 0.000000
# 4 0.000000 0.000000 0.000000 0.020680 0.000000 0.001907
# 5 0.103022 0.016210 -0.171771 0.000000 -0.077220 0.000000
# 6 0.000000 0.000000 0.000000 0.001907 0.000000 0.034096
#
#
# Mechanical properties :
#
#
# Convention : Reuss Voigt Hill
#
# Bulk Modulus (GPa) = -310.67148 69.15403 -120.75872
# Shear Modulus (GPa) = -7.81261 26.78070 9.48405
#
# Velocity S-wave (km/s) = -2.08251 3.85568 2.29449
# Velocity P-wave (km/s) = 13.35063 7.62953 7.74692
#
# Compressibility (1/GPa) = -0.00321883
#
# Stress axis : x y z
#
# Youngs Moduli (GPa) = -11.45672 17.51366 -3.57577
#
# Poissons Ratio (x) = 0.61794 0.61309
# Poissons Ratio (y) = -0.40423 0.06129
# Poissons Ratio (z) = 1.96434 -0.30018
#
# Static dielectric constant tensor:
#      x y z
#    x 1.602290 0.000000 0.008630 
#    y 0.000000 1.605050 0.000000 
#    z 0.008630 0.000000 1.587790 
# 
# From -- ./inp_files/66530.got.cif
#   From: 2010.05.17/outbox.cif.g08.bks.cpg/sg10_34_cif.got.tgz:66530.got - 2010.06.03 11:33:40.
