data_PCOD9152125
_publ_section_title
;
Structure prediction by ZEFSAII (Michael W. Deem and Ramdas Pophale) SiO2 
 PCOD9152125
Probable space group: P 2/M
;
_chemical_formula_sum "Si O2"
_cell_formula_units_Z 28
_cell_length_a 26.293180
_cell_length_b 9.071341
_cell_length_c 9.617782
_cell_angle_alpha 90.000000
_cell_angle_beta 141.643821
_cell_angle_gamma 90.000000
_cell_volume 1423.524893
_symmetry_space_group_name_H-M "P 2/M"
_symmetry_group_IT_number 10
_symmetry_cell_setting 'monoclinic'
loop_
_space_group_symop_operation_xyz
x,y,z
-x,y,-z
-x,-y,-z
x,-y,z
loop_
_atom_site_type_symbol
_atom_site_label
_atom_site_fract_x
_atom_site_fract_y
_atom_site_fract_z
Si Si1 0.533567 0.831817 0.413134
Si Si2 0.244909 0.823877 0.498592
Si Si3 0.190300 0.825186 0.078412
Si Si4 0.918681 0.675016 0.733431
Si Si5 0.996813 0.173599 0.328051
Si Si6 0.309178 0.675045 0.142092
Si Si7 0.625832 0.323601 0.026970
O O1 0.500000 0.836351 0.500000
O O2 0.618903 0.747419 0.611313
O O3 0.464355 0.746956 0.178234
O O4 0.544730 0.000000 0.389153
O O5 0.242099 0.793913 0.327821
O O6 0.160650 0.759842 0.381177
O O7 0.247488 0.000000 0.524198
O O8 0.320608 0.747142 0.736942
O O9 0.225322 0.739815 0.021686
O O10 0.193210 0.000000 0.055458
O O11 0.096491 0.788146 0.911767
O O12 0.903717 0.500000 0.705617
O O13 0.941095 0.729476 0.627172
O O14 0.000000 0.707284 0.000000
O O15 0.000000 0.193372 0.500000
O O16 0.011084 0.000000 0.328097
O O17 0.311328 0.500000 0.161098
O O18 0.328426 0.709968 0.022232
O O19 0.620487 0.500000 0.028448
#
# Coordination Sequence:
#
# PCOD9152125 Si02
#       7
#     4   4   4   4   4   4   4
#     4   9  17  33  58  86 115 150 191 232 278 334
#     4  11  23  39  60  83 113 153 195 238 283 335
#     4  10  22  39  57  82 116 151 192 238 285 338
#     4  11  23  39  60  85 114 151 191 234 287 343
#     4  10  22  40  61  86 114 150 193 239 287 338
#     4  10  21  36  58  86 118 153 186 231 289 340
#     4  10  21  37  58  88 120 149 188 235 284 340
#
# _framework density 19.669483
#
# number of rings (size 3 to 8) (size 9 to 14) (size 15 to 20)
#    0.000    1.857    1.429    2.143    2.000    6.000 
#    0.000    0.714    0.000    4.286    0.000    0.000 
#    0.000    0.000    0.000    0.000    0.000    0.000 
#
# Total GULP energy -156442.330993 kJ/mol
# GULP energy per Si atom -5587.226107 kJ/mol
# Density = 1.962471 g / cm^3
# Si number density = 19.669483 Si / 1000 Ang^3
#
#
#
# Elastic Constant Matrix: (Units=GPa)
#
#
# Indices 1 2 3 4 5 6 
#
# 1 29.7531 3.2468 -23.3894 0.0000 -3.9166 0.0000
# 2 3.2468 39.3043 16.0894 0.0000 -6.9945 0.0000
# 3 -23.3894 16.0894 72.4376 0.0000 -5.1519 0.0000
# 4 0.0000 0.0000 0.0000 25.4342 0.0000 3.8803
# 5 -3.9166 -6.9945 -5.1519 0.0000 8.0826 0.0000
# 6 0.0000 0.0000 0.0000 3.8803 0.0000 26.2975
#
#
#
# Elastic Compliance Matrix: (Units=1/GPa)
#
#
# Indices 1 2 3 4 5 6 
#
# 1 0.056822 -0.007646 0.022556 0.000000 0.035294 0.000000
# 2 -0.007646 0.032983 -0.008410 0.000000 0.019477 0.000000
# 3 0.022556 -0.008410 0.024318 0.000000 0.019153 0.000000
# 4 0.000000 0.000000 0.000000 0.040223 0.000000 -0.005935
# 5 0.035294 0.019477 0.019153 0.000000 0.169887 0.000000
# 6 0.000000 0.000000 0.000000 -0.005935 0.000000 0.038902
#
#
# Mechanical properties :
#
#
# Convention : Reuss Voigt Hill
#
# Bulk Modulus (GPa) = 7.86644 14.82094 11.34369
# Shear Modulus (GPa) = 12.73856 21.66607 17.20232
#
# Velocity S-wave (km/s) = 2.54762 3.32250 2.96052
# Velocity P-wave (km/s) = 3.55834 4.71911 4.17922
#
# Compressibility (1/GPa) = 0.12712231
#
# Stress axis : x y z
#
# Youngs Moduli (GPa) = 17.59885 30.31892 41.12155
#
# Poissons Ratio (x) = 0.23183 -0.92753
# Poissons Ratio (y) = 0.13457 0.34582
# Poissons Ratio (z) = -0.39696 0.25497
#
# Static dielectric constant tensor:
#      x y z
#    x 1.669260 0.000000 -0.003350 
#    y 0.000000 1.655830 0.000000 
#    z -0.003350 0.000000 1.698670 
# 
# From -- ./inp_files/31612.got.cif
#   From: 2010.05.17/outbox.cif.g08.bks.cpg/sg10_16_cif.got.tgz:31612.got - 2010.06.03 11:33:40.
