data_PCOD9152637
_publ_section_title
;
Structure prediction by ZEFSAII (Michael W. Deem and Ramdas Pophale) SiO2 
 PCOD9152637
Probable space group: P 2/M
;
_chemical_formula_sum "Si O2"
_cell_formula_units_Z 26
_cell_length_a 5.491067
_cell_length_b 29.523842
_cell_length_c 7.104864
_cell_angle_alpha 90.000000
_cell_angle_beta 74.278347
_cell_angle_gamma 90.000000
_cell_volume 1108.731702
_symmetry_space_group_name_H-M "P 2/M"
_symmetry_group_IT_number 10
_symmetry_cell_setting 'monoclinic'
loop_
_space_group_symop_operation_xyz
x,y,z
-x,y,-z
-x,-y,-z
x,-y,z
loop_
_atom_site_type_symbol
_atom_site_label
_atom_site_fract_x
_atom_site_fract_y
_atom_site_fract_z
Si Si1 0.300700 0.547931 0.215044
Si Si2 0.569873 0.947825 0.261620
Si Si3 0.062679 0.206558 0.261891
Si Si4 0.000000 0.411591 0.000000
Si Si5 0.068547 0.101948 0.261880
Si Si6 0.442737 0.744544 0.737027
Si Si7 0.530043 0.640611 0.272375
O O1 0.317098 0.500000 0.317094
O O2 0.340320 0.597944 0.287205
O O3 0.035938 0.554389 0.166854
O O4 0.500000 0.545485 0.000000
O O5 0.500000 0.947900 0.500000
O O6 0.837589 0.922221 0.202955
O O7 0.337620 0.923595 0.203336
O O8 0.595347 0.000000 0.197910
O O9 0.339315 0.228438 0.200291
O O10 0.000000 0.207345 0.500000
O O11 0.079367 0.154252 0.200869
O O12 0.838342 0.233681 0.202084
O O13 0.223321 0.379173 0.883328
O O14 0.000000 0.101810 0.500000
O O15 0.500000 0.746542 0.500000
O O16 0.479892 0.692435 0.791593
O O17 0.500000 0.646501 0.500000
#
# Coordination Sequence:
#
# PCOD9152637 Si02
#       7
#     4   4   4   2   4   4   4
#     4   9  19  37  59  84 114 148 189 234 287 347
#     4   9  15  21  29  44  69 104 150 207 265 318
#     4   9  16  27  42  62  88 122 164 217 276 333
#     4  10  21  38  60  82 112 152 188 232 291 344
#     4   9  15  22  33  48  71 106 152 205 264 322
#     4   9  18  30  47  70  98 129 168 220 279 335
#     4  10  22  37  57  84 114 147 188 239 293 350
#
# _framework density 23.450216999999999
#
# number of rings (size 3 to 8) (size 9 to 14) (size 15 to 20)
#    0.000    2.769    0.000    1.615    2.154    7.077 
#    0.000    0.769    0.000    0.000    0.000    0.000 
#    0.000    0.000    0.000    0.000    0.000    0.000 
#
# Total GULP energy -144919.914536 kJ/mol
# GULP energy per Si atom -5573.842867 kJ/mol
# Density = 2.339684 g / cm^3
# Si number density = 23.450217 Si / 1000 Ang^3
#
#
#
# Elastic Constant Matrix: (Units=GPa)
#
#
# Indices 1 2 3 4 5 6 
#
# 1 179.3615 132.8536 32.6464 0.0000 18.8020 0.0000
# 2 132.8536 266.2159 34.1257 0.0000 13.0111 0.0000
# 3 32.6464 34.1257 73.4126 0.0000 -7.2806 0.0000
# 4 0.0000 0.0000 0.0000 24.8621 0.0000 -70.0035
# 5 18.8020 13.0111 -7.2806 0.0000 26.0969 0.0000
# 6 0.0000 0.0000 0.0000 -70.0035 0.0000 363.7152
#
#
#
# Elastic Compliance Matrix: (Units=1/GPa)
#
#
# Indices 1 2 3 4 5 6 
#
# 1 0.009894 -0.004268 -0.002994 0.000000 -0.005835 0.000000
# 2 -0.004268 0.006012 -0.000914 0.000000 -0.000177 0.000000
# 3 -0.002994 -0.000914 0.016082 0.000000 0.007100 0.000000
# 4 0.000000 0.000000 0.000000 0.087807 0.000000 0.016900
# 5 -0.005835 -0.000177 0.007100 0.000000 0.044592 0.000000
# 6 0.000000 0.000000 0.000000 0.016900 0.000000 0.006002
#
#
# Mechanical properties :
#
#
# Convention : Reuss Voigt Hill
#
# Bulk Modulus (GPa) = 63.96121 102.02681 82.99401
# Shear Modulus (GPa) = 26.04781 104.22577 65.13679
#
# Velocity S-wave (km/s) = 3.33644 6.67398 5.27607
# Velocity P-wave (km/s) = 6.49438 10.14848 8.51964
#
# Compressibility (1/GPa) = 0.01563448
#
# Stress axis : x y z
#
# Youngs Moduli (GPa) = 101.07549 166.32558 62.18017
#
# Poissons Ratio (x) = 0.70993 0.18618
# Poissons Ratio (y) = 0.43142 0.05685
# Poissons Ratio (z) = 0.30265 0.15207
#
# Static dielectric constant tensor:
#      x y z
#    x 1.950580 0.000000 0.047880 
#    y 0.000000 1.894860 0.000000 
#    z 0.047880 0.000000 1.969040 
# 
# From -- ./inp_files/15716.got.cif
#   From: 2010.05.17/outbox.cif.g08.bks.cpg/sg10_8_cif.got.tgz:15716.got - 2010.06.03 11:33:40.
