data_PCOD9152078
_publ_section_title
;
Structure prediction by ZEFSAII (Michael W. Deem and Ramdas Pophale) SiO2 
 PCOD9152078
Probable space group: P 2/M
;
_chemical_formula_sum "Si O2"
_cell_formula_units_Z 28
_cell_length_a 29.208271
_cell_length_b 10.225570
_cell_length_c 5.171740
_cell_angle_alpha 90.000000
_cell_angle_beta 117.920056
_cell_angle_gamma 90.000000
_cell_volume 1364.855396
_symmetry_space_group_name_H-M "P 2/M"
_symmetry_group_IT_number 10
_symmetry_cell_setting 'monoclinic'
loop_
_space_group_symop_operation_xyz
x,y,z
-x,y,-z
-x,-y,-z
x,-y,z
loop_
_atom_site_type_symbol
_atom_site_label
_atom_site_fract_x
_atom_site_fract_y
_atom_site_fract_z
Si Si1 0.622172 0.157532 0.259300
Si Si2 0.881168 0.352310 0.269956
Si Si3 0.557495 0.157721 0.591318
Si Si4 0.051549 0.144933 0.301139
Si Si5 0.847424 0.862149 0.788418
Si Si6 0.217541 0.699822 0.684073
Si Si7 0.285120 0.352609 0.369492
O O1 0.579023 0.185682 0.364240
O O2 0.671787 0.244247 0.457311
O O3 0.632639 0.000000 0.290525
O O4 0.598689 0.195967 0.919682
O O5 0.892828 0.500000 0.217229
O O6 0.931730 0.266654 0.477215
O O7 0.838611 0.359469 0.387715
O O8 0.852138 0.261120 0.986838
O O9 0.500000 0.209031 0.500000
O O10 0.554504 0.000000 0.601825
O O11 0.099620 0.135431 0.231993
O O12 0.047406 0.000000 0.418528
O O13 0.000000 0.167476 0.000000
O O14 0.800241 0.841857 0.465457
O O15 0.842012 0.000000 0.917752
O O16 0.247601 0.642006 0.519408
O O17 0.253363 0.687529 0.029168
O O18 0.306010 0.500000 0.383871
#
# Coordination Sequence:
#
# PCOD9152078 Si02
#       7
#     4   4   4   4   4   4   4
#     4  10  21  36  56  87 121 152 198 252 300 352
#     4  11  22  38  62  89 121 155 202 256 303 365
#     4   9  17  33  59  87 117 156 200 247 299 355
#     4   9  20  39  60  84 118 160 202 247 305 370
#     4  10  22  40  63  89 118 154 201 251 303 364
#     4  11  24  41  62  87 116 161 208 249 296 361
#     4  12  24  40  62  86 121 164 204 246 305 366
#
# _framework density 20.514994999999999
#
# number of rings (size 3 to 8) (size 9 to 14) (size 15 to 20)
#    0.000    1.714    1.429    3.000    0.000    7.143 
#    0.000    2.857    0.000    2.571    0.000    0.000 
#    0.000    0.000    0.000    0.000    0.000    0.000 
#
# Total GULP energy -156158.835054 kJ/mol
# GULP energy per Si atom -5577.101252 kJ/mol
# Density = 2.046830 g / cm^3
# Si number density = 20.514995 Si / 1000 Ang^3
#
#
#
# Elastic Constant Matrix: (Units=GPa)
#
#
# Indices 1 2 3 4 5 6 
#
# 1 45.0234 20.0802 3.9624 0.0000 2.3042 0.0000
# 2 20.0802 131.2944 34.3632 0.0000 6.9263 0.0000
# 3 3.9624 34.3632 76.8586 0.0000 -2.4845 0.0000
# 4 0.0000 0.0000 0.0000 -10.1070 0.0000 -25.6930
# 5 2.3042 6.9263 -2.4845 0.0000 33.3770 0.0000
# 6 0.0000 0.0000 0.0000 -25.6930 0.0000 -13.6313
#
#
#
# Elastic Compliance Matrix: (Units=1/GPa)
#
#
# Indices 1 2 3 4 5 6 
#
# 1 0.023874 -0.003712 0.000401 0.000000 -0.000848 0.000000
# 2 -0.003712 0.009350 -0.004053 0.000000 -0.001986 0.000000
# 3 0.000401 -0.004053 0.014864 0.000000 0.001920 0.000000
# 4 0.000000 0.000000 0.000000 0.026096 0.000000 -0.049186
# 5 -0.000848 -0.001986 0.001920 0.000000 0.030574 0.000000
# 6 0.000000 0.000000 0.000000 -0.049186 0.000000 0.019349
#
#
# Mechanical properties :
#
#
# Convention : Reuss Voigt Hill
#
# Bulk Modulus (GPa) = 29.97482 41.10977 35.54230
# Shear Modulus (GPa) = 33.34355 14.91245 24.12800
#
# Velocity S-wave (km/s) = 4.03591 2.69904 3.43317
# Velocity P-wave (km/s) = 6.03000 5.45853 5.75137
#
# Compressibility (1/GPa) = 0.03336133
#
# Stress axis : x y z
#
# Youngs Moduli (GPa) = 41.88637 106.95574 67.27494
#
# Poissons Ratio (x) = 0.39698 -0.02699
# Poissons Ratio (y) = 0.15546 0.27267
# Poissons Ratio (z) = -0.01681 0.43350
#
# Static dielectric constant tensor:
#      x y z
#    x 1.730030 0.000000 -0.026090 
#    y 0.000000 1.789510 0.000000 
#    z -0.026090 0.000000 1.764400 
# 
# From -- ./inp_files/13683.got.cif
#   From: 2010.05.17/outbox.cif.g08.bks.cpg/sg10_7_cif.got.tgz:13683.got - 2010.06.03 11:33:40.
