data_PCOD9152400
_publ_section_title
;
Structure prediction by ZEFSAII (Michael W. Deem and Ramdas Pophale) SiO2 
 PCOD9152400
Probable space group: P 2/M
;
_chemical_formula_sum "Si O2"
_cell_formula_units_Z 28
_cell_length_a 9.955385
_cell_length_b 8.788816
_cell_length_c 27.828700
_cell_angle_alpha 90.000000
_cell_angle_beta 38.102132
_cell_angle_gamma 90.000000
_cell_volume 1502.492717
_symmetry_space_group_name_H-M "P 2/M"
_symmetry_group_IT_number 10
_symmetry_cell_setting 'monoclinic'
loop_
_space_group_symop_operation_xyz
x,y,z
-x,y,-z
-x,-y,-z
x,-y,z
loop_
_atom_site_type_symbol
_atom_site_label
_atom_site_fract_x
_atom_site_fract_y
_atom_site_fract_z
Si Si1 0.872288 0.325818 0.484858
Si Si2 0.242856 0.818636 0.071752
Si Si3 0.616178 0.684923 0.807837
Si Si4 0.999198 0.317568 0.232079
Si Si5 0.683194 0.684712 0.681586
Si Si6 0.810902 0.682309 0.014695
Si Si7 0.473500 0.819826 0.644533
O O1 0.810910 0.500000 0.490895
O O2 0.657937 0.228672 0.554189
O O3 0.000000 0.327551 0.500000
O O4 0.060931 0.273162 0.395596
O O5 0.116352 0.737194 0.150350
O O6 0.223587 0.000000 0.082718
O O7 0.500000 0.778157 0.000000
O O8 0.152974 0.765286 0.045679
O O9 0.610284 0.500000 0.808924
O O10 0.598092 0.733022 0.757628
O O11 0.415657 0.734134 0.897469
O O12 0.842050 0.729971 0.769061
O O13 0.984129 0.500000 0.236016
O O14 0.760125 0.248213 0.302447
O O15 0.673350 0.500000 0.680357
O O16 0.551541 0.753151 0.674074
O O17 0.799302 0.500000 0.009161
O O18 0.000000 0.709020 0.000000
O O19 0.461957 0.000000 0.651214
#
# Coordination Sequence:
#
# PCOD9152400 Si02
#       7
#     4   4   4   4   4   4   4
#     4   8  15  31  55  81 109 144 186 228 273 324
#     4  11  23  39  58  82 114 150 185 225 277 330
#     4   9  19  36  57  83 111 142 185 233 279 324
#     4  11  22  38  60  81 108 147 191 232 272 325
#     4   9  18  35  59  85 112 144 185 233 279 328
#     4  10  21  37  59  87 113 144 189 234 275 323
#     4  11  22  35  54  84 116 146 184 227 277 334
#
# _framework density 18.635698000000001
#
# number of rings (size 3 to 8) (size 9 to 14) (size 15 to 20)
#    0.000    2.143    1.429    3.000    2.000    3.429 
#    0.000    2.857    0.000    4.286    0.000    0.000 
#    0.000    0.000    0.000    0.000    0.000    0.000 
#
# Total GULP energy -156283.755746 kJ/mol
# GULP energy per Si atom -5581.562705 kJ/mol
# Density = 1.859328 g / cm^3
# Si number density = 18.635698 Si / 1000 Ang^3
#
#
#
# Elastic Constant Matrix: (Units=GPa)
#
#
# Indices 1 2 3 4 5 6 
#
# 1 51.4766 17.4734 -0.1588 0.0000 -15.8337 0.0000
# 2 17.4734 44.5631 10.6230 0.0000 -16.0589 0.0000
# 3 -0.1588 10.6230 33.0566 0.0000 -19.2603 0.0000
# 4 0.0000 0.0000 0.0000 11.1550 0.0000 -5.9162
# 5 -15.8337 -16.0589 -19.2603 0.0000 35.1034 0.0000
# 6 0.0000 0.0000 0.0000 -5.9162 0.0000 3.2850
#
#
#
# Elastic Compliance Matrix: (Units=1/GPa)
#
#
# Indices 1 2 3 4 5 6 
#
# 1 0.026578 -0.007845 0.011087 0.000000 0.014482 0.000000
# 2 -0.007845 0.029291 -0.005446 0.000000 0.006873 0.000000
# 3 0.011087 -0.005446 0.049266 0.000000 0.029540 0.000000
# 4 0.000000 0.000000 0.000000 2.000094 0.000000 3.602142
# 5 0.014482 0.006873 0.029540 0.000000 0.054372 0.000000
# 6 0.000000 0.000000 0.000000 3.602142 0.000000 6.791827
#
#
# Mechanical properties :
#
#
# Convention : Reuss Voigt Hill
#
# Bulk Modulus (GPa) = 9.92789 20.55241 15.24015
# Shear Modulus (GPa) = 0.55621 16.65259 8.60440
#
# Velocity S-wave (km/s) = 0.54691 2.99253 2.15109
# Velocity P-wave (km/s) = 2.39536 4.79508 3.79015
#
# Compressibility (1/GPa) = 0.10072629
#
# Stress axis : x y z
#
# Youngs Moduli (GPa) = 37.62482 34.13970 20.29794
#
# Poissons Ratio (x) = 0.26784 -0.22504
# Poissons Ratio (y) = 0.29519 0.11055
# Poissons Ratio (z) = -0.41714 0.18593
#
# Static dielectric constant tensor:
#      x y z
#    x 1.622070 0.000000 -0.006020 
#    y 0.000000 1.626390 0.000000 
#    z -0.006020 0.000000 1.650890 
# 
# From -- ./inp_files/91979.got.cif
#   From: 2010.05.17/outbox.cif.g08.bks.cpg/sg10_46_cif.got.tgz:91979.got - 2010.06.03 11:33:40.
