data_PCOD9152308
_publ_section_title
;
Structure prediction by ZEFSAII (Michael W. Deem and Ramdas Pophale) SiO2 
 PCOD9152308
Probable space group: P 2/M
;
_chemical_formula_sum "Si O2"
_cell_formula_units_Z 24
_cell_length_a 18.583659
_cell_length_b 7.796363
_cell_length_c 14.964638
_cell_angle_alpha 90.000000
_cell_angle_beta 25.354545
_cell_angle_gamma 90.000000
_cell_volume 928.441973
_symmetry_space_group_name_H-M "P 2/M"
_symmetry_group_IT_number 10
_symmetry_cell_setting 'monoclinic'
loop_
_space_group_symop_operation_xyz
x,y,z
-x,y,-z
-x,-y,-z
x,-y,z
loop_
_atom_site_type_symbol
_atom_site_label
_atom_site_fract_x
_atom_site_fract_y
_atom_site_fract_z
Si Si1 0.129988 0.703639 0.925671
Si Si2 0.119160 0.199818 0.442896
Si Si3 0.243371 0.300401 0.981258
Si Si4 0.262182 0.701789 0.460527
Si Si5 0.627348 0.708492 0.981239
Si Si6 0.605901 0.801703 0.507746
O O1 0.094002 0.500000 0.975229
O O2 0.139341 0.776010 0.015405
O O3 0.308062 0.725658 0.676369
O O4 0.000000 0.778579 0.000000
O O5 0.126449 0.270708 0.534945
O O6 0.000000 0.281057 0.500000
O O7 0.081203 0.000000 0.492963
O O8 0.299667 0.224782 0.192744
O O9 0.197485 0.500000 0.041712
O O10 0.255471 0.227968 0.067667
O O11 0.437177 0.291558 0.729362
O O12 0.269778 0.500000 0.469802
O O13 0.439274 0.760169 0.218186
O O14 0.262251 0.786580 0.557517
O O15 0.629384 0.500000 0.976100
O O16 0.564984 0.000000 0.539054
#
# Coordination Sequence:
#
# PCOD9152308 Si02
#       6
#     4   4   4   4   4   4
#     4  10  21  37  57  82 113 151 191 229 273 325
#     4  11  24  38  53  81 119 152 181 220 275 333
#     4   9  19  37  59  82 110 144 187 234 273 321
#     4  10  21  39  62  84 107 141 188 234 274 324
#     4   9  19  36  58  83 107 140 189 236 275 320
#     4  11  22  36  57  85 114 144 182 229 282 334
#
# _framework density 25.849758999999999
#
# number of rings (size 3 to 8) (size 9 to 14) (size 15 to 20)
#    0.000    2.000    0.000    4.500    0.000   11.000 
#    0.000    1.667    0.000    0.000    0.000    0.000 
#    0.000    0.000    0.000    0.000    0.000    0.000 
#
# Total GULP energy -134284.681863 kJ/mol
# GULP energy per Si atom -5595.195078 kJ/mol
# Density = 2.579092 g / cm^3
# Si number density = 25.849759 Si / 1000 Ang^3
#
#
#
# Elastic Constant Matrix: (Units=GPa)
#
#
# Indices 1 2 3 4 5 6 
#
# 1 197.4521 20.3284 25.1784 0.0000 23.9349 0.0000
# 2 20.3284 44.1200 -11.2953 0.0000 -5.6537 0.0000
# 3 25.1784 -11.2953 70.3294 0.0000 13.1790 0.0000
# 4 0.0000 0.0000 0.0000 18.5634 0.0000 2.0638
# 5 23.9349 -5.6537 13.1790 0.0000 47.6369 0.0000
# 6 0.0000 0.0000 0.0000 2.0638 0.0000 17.2749
#
#
#
# Elastic Compliance Matrix: (Units=1/GPa)
#
#
# Indices 1 2 3 4 5 6 
#
# 1 0.006085 -0.003747 -0.002240 0.000000 -0.002882 0.000000
# 2 -0.003747 0.026100 0.004851 0.000000 0.003638 0.000000
# 3 -0.002240 0.004851 0.016328 0.000000 -0.002816 0.000000
# 4 0.000000 0.000000 0.000000 0.054595 0.000000 -0.006522
# 5 -0.002882 0.003638 -0.002816 0.000000 0.023651 0.000000
# 6 0.000000 0.000000 0.000000 -0.006522 0.000000 0.058667
#
#
# Mechanical properties :
#
#
# Convention : Reuss Voigt Hill
#
# Bulk Modulus (GPa) = 21.62538 42.25828 31.94183
# Shear Modulus (GPa) = 24.61715 35.20769 29.91242
#
# Velocity S-wave (km/s) = 3.08931 3.69455 3.40540
# Velocity P-wave (km/s) = 4.59446 5.88071 5.27692
#
# Compressibility (1/GPa) = 0.04624197
#
# Stress axis : x y z
#
# Youngs Moduli (GPa) = 164.32982 38.31422 61.24592
#
# Poissons Ratio (x) = 0.14355 0.13720
# Poissons Ratio (y) = 0.61570 -0.29713
# Poissons Ratio (z) = 0.36813 -0.18588
#
# Static dielectric constant tensor:
#      x y z
#    x 2.097010 0.000000 -0.104550 
#    y 0.000000 1.910060 0.000000 
#    z -0.104550 0.000000 2.069090 
# 
# From -- ./inp_files/27164.got.cif
#   From: 2010.05.17/outbox.cif.g08.bks.cpg/sg10_14_cif.got.tgz:27164.got - 2010.06.03 11:33:40.
