data_PCOD9152183
_publ_section_title
;
Structure prediction by ZEFSAII (Michael W. Deem and Ramdas Pophale) SiO2 
 PCOD9152183
Probable space group: P 2/M
;
_chemical_formula_sum "Si O2"
_cell_formula_units_Z 28
_cell_length_a 14.905025
_cell_length_b 8.794815
_cell_length_c 21.562333
_cell_angle_alpha 90.000000
_cell_angle_beta 28.800353
_cell_angle_gamma 90.000000
_cell_volume 1361.711385
_symmetry_space_group_name_H-M "P 2/M"
_symmetry_group_IT_number 10
_symmetry_cell_setting 'monoclinic'
loop_
_space_group_symop_operation_xyz
x,y,z
-x,y,-z
-x,-y,-z
x,-y,z
loop_
_atom_site_type_symbol
_atom_site_label
_atom_site_fract_x
_atom_site_fract_y
_atom_site_fract_z
Si Si1 0.579164 0.315705 0.384177
Si Si2 0.193924 0.677515 0.057049
Si Si3 0.886744 0.681978 0.759746
Si Si4 0.566853 0.826714 0.875945
Si Si5 0.797792 0.174088 0.610302
Si Si6 0.274930 0.682213 0.467557
Si Si7 0.041603 0.181228 0.903673
O O1 0.500000 0.269624 0.500000
O O2 0.593585 0.500000 0.376561
O O3 0.425492 0.268079 0.426524
O O4 0.776440 0.252950 0.239904
O O5 0.181742 0.500000 0.048695
O O6 0.396770 0.719829 0.959855
O O7 0.070881 0.706841 0.193263
O O8 0.129199 0.774337 0.037843
O O9 0.859097 0.500000 0.768362
O O10 0.701500 0.765795 0.848429
O O11 0.066762 0.733155 0.612269
O O12 0.693678 0.828392 0.737943
O O13 0.503676 0.000000 0.925750
O O14 0.686651 0.259892 0.624435
O O15 0.000000 0.245770 0.500000
O O16 0.825772 0.000000 0.571841
O O17 0.273026 0.500000 0.469633
O O18 0.065261 0.000000 0.891068
O O19 0.000000 0.232709 0.000000
#
# Coordination Sequence:
#
# PCOD9152183 Si02
#       7
#     4   4   4   4   4   4   4
#     4  10  22  43  69  97 129 164 210 266 321 380
#     4  11  24  42  65  89 120 161 206 254 310 370
#     4  10  21  39  61  90 125 160 199 249 302 360
#     4  11  23  38  59  88 124 163 204 249 301 365
#     4  10  21  38  56  81 120 163 199 242 301 359
#     4  10  21  36  61  92 119 154 201 249 301 360
#     4  11  26  46  66  93 129 167 213 268 323 382
#
# _framework density 20.562359000000001
#
# number of rings (size 3 to 8) (size 9 to 14) (size 15 to 20)
#    0.000    1.571    1.429    2.571    2.000    8.571 
#    0.000    1.429    0.000    0.000    0.000    0.000 
#    0.000    0.000    0.000    0.000    0.000    0.000 
#
# Total GULP energy -156387.273356 kJ/mol
# GULP energy per Si atom -5585.259763 kJ/mol
# Density = 2.051556 g / cm^3
# Si number density = 20.562359 Si / 1000 Ang^3
#
#
#
# Elastic Constant Matrix: (Units=GPa)
#
#
# Indices 1 2 3 4 5 6 
#
# 1 138.5259 20.2202 29.0610 0.0000 14.3196 0.0000
# 2 20.2202 22.2266 12.7473 0.0000 8.7807 0.0000
# 3 29.0610 12.7473 70.8437 0.0000 12.0739 0.0000
# 4 0.0000 0.0000 0.0000 25.5311 0.0000 -11.1382
# 5 14.3196 8.7807 12.0739 0.0000 32.8076 0.0000
# 6 0.0000 0.0000 0.0000 -11.1382 0.0000 57.7851
#
#
#
# Elastic Compliance Matrix: (Units=1/GPa)
#
#
# Indices 1 2 3 4 5 6 
#
# 1 0.008722 -0.006114 -0.002249 0.000000 -0.001343 0.000000
# 2 -0.006114 0.058303 -0.006165 0.000000 -0.010667 0.000000
# 3 -0.002249 -0.006165 0.016749 0.000000 -0.003533 0.000000
# 4 0.000000 0.000000 0.000000 0.042764 0.000000 0.008243
# 5 -0.001343 -0.010667 -0.003533 0.000000 0.035222 0.000000
# 6 0.000000 0.000000 0.000000 0.008243 0.000000 0.018894
#
#
# Mechanical properties :
#
#
# Convention : Reuss Voigt Hill
#
# Bulk Modulus (GPa) = 18.27528 39.51702 28.89615
# Shear Modulus (GPa) = 21.93465 34.52928 28.23196
#
# Velocity S-wave (km/s) = 3.26964 4.10231 3.70941
# Velocity P-wave (km/s) = 4.81260 6.45743 5.69471
#
# Compressibility (1/GPa) = 0.05471872
#
# Stress axis : x y z
#
# Youngs Moduli (GPa) = 114.65335 17.15174 59.70364
#
# Poissons Ratio (x) = 0.10487 0.13426
# Poissons Ratio (y) = 0.70104 0.36805
# Poissons Ratio (z) = 0.25783 0.10573
#
# Static dielectric constant tensor:
#      x y z
#    x 1.713310 0.000000 0.006410 
#    y 0.000000 1.711540 0.000000 
#    z 0.006410 0.000000 1.760220 
# 
# From -- ./inp_files/84903.got.cif
#   From: 2010.05.17/outbox.cif.g08.bks.cpg/sg10_43_cif.got.tgz:84903.got - 2010.06.03 11:33:40.
