data_PCOD9152273
_publ_section_title
;
Structure prediction by ZEFSAII (Michael W. Deem and Ramdas Pophale) SiO2 
 PCOD9152273
Probable space group: P 2/M
;
_chemical_formula_sum "Si O2"
_cell_formula_units_Z 26
_cell_length_a 7.328520
_cell_length_b 7.090877
_cell_length_c 19.202804
_cell_angle_alpha 90.000000
_cell_angle_beta 110.303911
_cell_angle_gamma 90.000000
_cell_volume 935.882494
_symmetry_space_group_name_H-M "P 2/M"
_symmetry_group_IT_number 10
_symmetry_cell_setting 'monoclinic'
loop_
_space_group_symop_operation_xyz
x,y,z
-x,y,-z
-x,-y,-z
x,-y,z
loop_
_atom_site_type_symbol
_atom_site_label
_atom_site_fract_x
_atom_site_fract_y
_atom_site_fract_z
Si Si1 0.730971 0.000000 0.348650
Si Si2 0.698126 0.717681 0.979345
Si Si3 0.677333 0.278093 0.470116
Si Si4 0.065315 0.274984 0.368934
Si Si5 0.306799 0.273159 0.270342
Si Si6 0.453704 0.730479 0.819471
Si Si7 0.914892 0.271471 0.137953
O O1 0.335768 0.161225 0.601054
O O2 0.871770 0.162885 0.329532
O O3 0.749416 0.500000 0.972896
O O4 0.862180 0.793979 0.052976
O O5 0.500000 0.721850 0.000000
O O6 0.626554 0.789017 0.895619
O O7 0.500000 0.248882 0.500000
O O8 0.682118 0.500000 0.453368
O O9 0.862787 0.234130 0.543502
O O10 0.036752 0.500000 0.357238
O O11 0.235008 0.219356 0.337096
O O12 0.330129 0.500000 0.275644
O O13 0.488272 0.194044 0.249499
O O14 0.120590 0.225417 0.197759
O O15 0.450958 0.500000 0.816577
O O16 0.257628 0.786779 0.832670
O O17 0.906887 0.500000 0.134170
#
# Coordination Sequence:
#
# PCOD9152273 Si02
#       7
#     2   4   4   4   4   4   4
#     4  12  22  38  65  86 113 151 183 229 284 329
#     4   7  10  17  31  53  81 119 171 224 268 317
#     4  10  21  38  61  90 118 145 185 233 277 330
#     4  10  21  37  56  83 115 148 189 230 277 335
#     4   9  17  28  41  63  99 138 177 220 267 330
#     4   8  13  22  36  55  87 131 174 221 274 320
#     4   8  13  22  36  56  87 129 176 222 272 325
#
# _framework density 27.781267
#
# number of rings (size 3 to 8) (size 9 to 14) (size 15 to 20)
#    0.000    3.077    0.000    3.923    0.000    1.846 
#    2.769    3.077    0.000    0.000    0.000    0.000 
#    0.000    2.462    0.000    5.846    0.000   10.154 
#
# Total GULP energy -145128.049695 kJ/mol
# GULP energy per Si atom -5581.848065 kJ/mol
# Density = 2.771804 g / cm^3
# Si number density = 27.781267 Si / 1000 Ang^3
#
#
#
# Elastic Constant Matrix: (Units=GPa)
#
#
# Indices 1 2 3 4 5 6 
#
# 1 145.6155 -9.5693 32.2276 0.0000 -28.0166 0.0000
# 2 -9.5693 143.1436 -24.9184 0.0000 -13.6430 0.0000
# 3 32.2276 -24.9184 137.7255 0.0000 -25.5651 0.0000
# 4 0.0000 0.0000 0.0000 -99.0748 0.0000 -42.5130
# 5 -28.0166 -13.6430 -25.5651 0.0000 61.7266 0.0000
# 6 0.0000 0.0000 0.0000 -42.5130 0.0000 8.7335
#
#
#
# Elastic Compliance Matrix: (Units=1/GPa)
#
#
# Indices 1 2 3 4 5 6 
#
# 1 0.007772 0.000632 -0.001109 0.000000 0.003208 0.000000
# 2 0.000632 0.007583 0.001721 0.000000 0.002676 0.000000
# 3 -0.001109 0.001721 0.008459 0.000000 0.003381 0.000000
# 4 0.000000 0.000000 0.000000 -0.003268 0.000000 -0.015907
# 5 0.003208 0.002676 0.003381 0.000000 0.019648 0.000000
# 6 0.000000 0.000000 0.000000 -0.015907 0.000000 0.037070
#
#
# Mechanical properties :
#
#
# Convention : Reuss Voigt Hill
#
# Bulk Modulus (GPa) = 38.02004 46.88496 42.45250
# Shear Modulus (GPa) = 59.84967 22.86003 41.35485
#
# Velocity S-wave (km/s) = 4.64650 2.87166 3.86241
# Velocity P-wave (km/s) = 6.51934 5.28284 5.93339
#
# Compressibility (1/GPa) = 0.02630192
#
# Stress axis : x y z
#
# Youngs Moduli (GPa) = 128.67483 131.87742 118.21630
#
# Poissons Ratio (x) = -0.08338 0.13106
# Poissons Ratio (y) = -0.08136 -0.20341
# Poissons Ratio (z) = 0.14266 -0.22691
#
# Static dielectric constant tensor:
#      x y z
#    x 2.152860 0.000000 0.096360 
#    y 0.000000 2.086840 0.000000 
#    z 0.096360 0.000000 2.244870 
# 
# From -- ./inp_files/91700.got.cif
#   From: 2010.05.17/outbox.cif.g08.bks.cpg/sg10_46_cif.got.tgz:91700.got - 2010.06.03 11:33:40.
