data_PCOD9152457
_publ_section_title
;
Structure prediction by ZEFSAII (Michael W. Deem and Ramdas Pophale) SiO2 
 PCOD9152457
Probable space group: P 2/M
;
_chemical_formula_sum "Si O2"
_cell_formula_units_Z 28
_cell_length_a 15.254106
_cell_length_b 8.374876
_cell_length_c 10.990446
_cell_angle_alpha 90.000000
_cell_angle_beta 123.681425
_cell_angle_gamma 90.000000
_cell_volume 1168.352000
_symmetry_space_group_name_H-M "P 2/M"
_symmetry_group_IT_number 10
_symmetry_cell_setting 'monoclinic'
loop_
_space_group_symop_operation_xyz
x,y,z
-x,y,-z
-x,-y,-z
x,-y,z
loop_
_atom_site_type_symbol
_atom_site_label
_atom_site_fract_x
_atom_site_fract_y
_atom_site_fract_z
Si Si1 0.728292 0.681994 0.431656
Si Si2 0.530256 0.820065 0.383911
Si Si3 0.924959 0.500000 0.322528
Si Si4 0.381039 0.313082 0.915073
Si Si5 0.122584 0.817849 0.137719
Si Si6 0.314946 0.812114 0.109650
Si Si7 0.123742 0.827658 0.618080
Si Si8 0.058869 0.500000 0.179464
O O1 0.764141 0.500000 0.471828
O O2 0.640597 0.729244 0.460158
O O3 0.663674 0.696989 0.254526
O O4 0.823728 0.797522 0.472962
O O5 0.500000 0.833270 0.500000
O O6 0.427085 0.741637 0.242633
O O7 0.548335 0.000000 0.347484
O O8 0.862642 0.665525 0.292983
O O9 0.000000 0.500000 0.500000
O O10 0.982242 0.500000 0.236835
O O11 0.384213 0.500000 0.952399
O O12 0.500000 0.250062 0.000000
O O13 0.317322 0.222360 0.969395
O O14 0.207157 0.770283 0.097596
O O15 0.123088 0.666624 0.228686
O O16 0.148924 0.000000 0.199945
O O17 0.000000 0.827705 0.000000
O O18 0.325281 0.000000 0.140652
O O19 0.000000 0.837497 0.500000
O O20 0.158468 0.000000 0.694902
O O21 0.000000 0.500000 0.000000
#
# Coordination Sequence:
#
# PCOD9152457 Si02
#       8
#     4   4   2   4   4   4   4   2
#     4  11  22  39  64  94 129 164 210 267 324 385
#     4  10  22  41  61  86 121 162 216 271 319 380
#     4  10  22  44  66  93 134 169 218 272 317 392
#     4  10  21  37  60  91 127 163 203 258 321 386
#     4   9  20  40  62  94 132 165 210 265 320 389
#     4  10  21  38  62  90 121 163 212 263 320 383
#     4  10  22  43  69  97 131 175 217 266 327 387
#     4  10  22  40  66  93 124 173 216 260 323 382
#
# _framework density 23.96538
#
# number of rings (size 3 to 8) (size 9 to 14) (size 15 to 20)
#    0.000    2.000    2.143    0.429    1.000    4.571 
#    5.143    2.857    0.000    0.000    0.000    0.000 
#    0.000    0.000    0.000    0.000    0.000    0.000 
#
# Total GULP energy -156338.685607 kJ/mol
# GULP energy per Si atom -5583.524486 kJ/mol
# Density = 2.391083 g / cm^3
# Si number density = 23.965380 Si / 1000 Ang^3
#
#
#
# Elastic Constant Matrix: (Units=GPa)
#
#
# Indices 1 2 3 4 5 6 
#
# 1 178.3071 51.1052 10.8307 0.0000 -3.5474 0.0000
# 2 51.1052 145.2066 4.5465 0.0000 -11.5448 0.0000
# 3 10.8307 4.5465 50.8724 0.0000 3.3557 0.0000
# 4 0.0000 0.0000 0.0000 22.6500 0.0000 -1.6526
# 5 -3.5474 -11.5448 3.3557 0.0000 40.8017 0.0000
# 6 0.0000 0.0000 0.0000 -1.6526 0.0000 35.6548
#
#
#
# Elastic Compliance Matrix: (Units=1/GPa)
#
#
# Indices 1 2 3 4 5 6 
#
# 1 0.006304 -0.002181 -0.001149 0.000000 0.000026 0.000000
# 2 -0.002181 0.007829 -0.000371 0.000000 0.002056 0.000000
# 3 -0.001149 -0.000371 0.020057 0.000000 -0.001854 0.000000
# 4 0.000000 0.000000 0.000000 0.044300 0.000000 0.002053
# 5 0.000026 0.002056 -0.001854 0.000000 0.025245 0.000000
# 6 0.000000 0.000000 0.000000 0.002053 0.000000 0.028142
#
#
# Mechanical properties :
#
#
# Convention : Reuss Voigt Hill
#
# Bulk Modulus (GPa) = 37.32876 56.37233 46.85054
# Shear Modulus (GPa) = 33.73643 40.34820 37.04231
#
# Velocity S-wave (km/s) = 3.75602 4.10763 3.93575
# Velocity P-wave (km/s) = 5.86687 6.78751 6.34391
#
# Compressibility (1/GPa) = 0.02678900
#
# Stress axis : x y z
#
# Youngs Moduli (GPa) = 158.64047 127.72575 49.85762
#
# Poissons Ratio (x) = 0.27851 0.05728
# Poissons Ratio (y) = 0.34592 0.01850
# Poissons Ratio (z) = 0.18225 0.04740
#
# Static dielectric constant tensor:
#      x y z
#    x 1.920220 0.000000 0.083620 
#    y 0.000000 1.943950 0.000000 
#    z 0.083620 0.000000 2.081370 
# 
# From -- ./inp_files/50151.got.cif
#   From: 2010.05.17/outbox.cif.g08.bks.cpg/sg10_26_cif.got.tgz:50151.got - 2010.06.03 11:33:40.
