data_PCOD9152713
_publ_section_title
;
Structure prediction by ZEFSAII (Michael W. Deem and Ramdas Pophale) SiO2 
 PCOD9152713
Probable space group: P 2/M
;
_chemical_formula_sum "Si O2"
_cell_formula_units_Z 21
_cell_length_a 5.036766
_cell_length_b 8.990155
_cell_length_c 22.151320
_cell_angle_alpha 90.000000
_cell_angle_beta 89.258371
_cell_angle_gamma 90.000000
_cell_volume 1002.956697
_symmetry_space_group_name_H-M "P 2/M"
_symmetry_group_IT_number 10
_symmetry_cell_setting 'monoclinic'
loop_
_space_group_symop_operation_xyz
x,y,z
-x,y,-z
-x,-y,-z
x,-y,z
loop_
_atom_site_type_symbol
_atom_site_label
_atom_site_fract_x
_atom_site_fract_y
_atom_site_fract_z
Si Si1 0.185393 0.336531 0.600606
Si Si2 0.396997 0.677003 0.833792
Si Si3 0.095387 0.175866 0.222952
Si Si4 0.244754 0.827426 0.957950
Si Si5 0.500000 0.500000 0.500000
Si Si6 0.309406 0.826334 0.358279
O O1 0.159208 0.500000 0.630646
O O2 0.321374 0.373595 0.536416
O O3 0.395203 0.236053 0.635481
O O4 0.896720 0.264735 0.599891
O O5 0.418404 0.500000 0.828890
O O6 0.679798 0.753601 0.820399
O O7 0.293017 0.727609 0.899569
O O8 0.181408 0.741987 0.787647
O O9 0.201050 0.193572 0.290744
O O10 0.064716 0.000000 0.211162
O O11 0.197454 0.000000 0.939017
O O12 0.500000 0.825199 0.000000
O O13 0.000000 0.778717 0.000000
O O14 0.304300 0.000000 0.373007
#
# Coordination Sequence:
#
# PCOD9152713 Si02
#       6
#     4   4   4   4   1   4
#     4  10  22  40  65  86 126 163 205 245 303 368
#     4  12  25  40  62  94 128 158 204 263 313 363
#     4  11  24  42  63  87 126 167 205 248 312 379
#     4  10  21  38  61  86 116 161 210 248 302 374
#     4   8  24  42  66  90 128 166 214 238 304 370
#     4  11  23  40  63  95 123 159 208 262 307 358
#
# _framework density 20.938092000000001
#
# number of rings (size 3 to 8) (size 9 to 14) (size 15 to 20)
#    0.571    0.762    0.000    5.714    0.000   11.429 
#    0.000    2.857    0.000    0.000    0.000    0.000 
#    0.000    0.000    0.000    0.000    0.000    0.000 
#
# Total GULP energy -117173.152332 kJ/mol
# GULP energy per Si atom -5579.673921 kJ/mol
# Density = 2.089044 g / cm^3
# Si number density = 20.938092 Si / 1000 Ang^3
#
#
#
# Elastic Constant Matrix: (Units=GPa)
#
#
# Indices 1 2 3 4 5 6 
#
# 1 69.7784 -5.3871 1.5065 0.0000 -9.7026 0.0000
# 2 -5.3871 90.2006 25.2101 0.0000 -9.4129 0.0000
# 3 1.5065 25.2101 53.8030 0.0000 -12.0813 0.0000
# 4 0.0000 0.0000 0.0000 -9.5523 0.0000 36.6854
# 5 -9.7026 -9.4129 -12.0813 0.0000 31.5819 0.0000
# 6 0.0000 0.0000 0.0000 36.6854 0.0000 122.1498
#
#
#
# Elastic Compliance Matrix: (Units=1/GPa)
#
#
# Indices 1 2 3 4 5 6 
#
# 1 0.015149 0.001422 0.000055 0.000000 0.005099 0.000000
# 2 0.001422 0.012970 -0.005635 0.000000 0.002147 0.000000
# 3 0.000055 -0.005635 0.022811 0.000000 0.007063 0.000000
# 4 0.000000 0.000000 0.000000 -0.048614 0.000000 0.014600
# 5 0.005099 0.002147 0.007063 0.000000 0.036572 0.000000
# 6 0.000000 0.000000 0.000000 0.014600 0.000000 0.003802
#
#
# Mechanical properties :
#
#
# Convention : Reuss Voigt Hill
#
# Bulk Modulus (GPa) = 23.46749 28.49346 25.98048
# Shear Modulus (GPa) = 76.67338 41.66603 59.16971
#
# Velocity S-wave (km/s) = 6.05794 4.46574 5.32172
# Velocity P-wave (km/s) = 7.75653 6.34259 7.08492
#
# Compressibility (1/GPa) = 0.04261214
#
# Stress axis : x y z
#
# Youngs Moduli (GPa) = 66.01272 77.09927 43.83789
#
# Poissons Ratio (x) = -0.10960 -0.00239
# Poissons Ratio (y) = -0.09384 0.24703
# Poissons Ratio (z) = -0.00360 0.43447
#
# Static dielectric constant tensor:
#      x y z
#    x 1.711840 0.000000 0.013710 
#    y 0.000000 1.713670 0.000000 
#    z 0.013710 0.000000 1.771760 
# 
# From -- ./inp_files/80929.got.cif
#   From: 2010.05.17/outbox.cif.g08.bks.cpg/sg10_41_cif.got.tgz:80929.got - 2010.06.03 11:33:40.
