data_PCOD9152608
_publ_section_title
;
Structure prediction by ZEFSAII (Michael W. Deem and Ramdas Pophale) SiO2 
 PCOD9152608
Probable space group: P 2/M
;
_chemical_formula_sum "Si O2"
_cell_formula_units_Z 24
_cell_length_a 19.373668
_cell_length_b 9.093742
_cell_length_c 23.575787
_cell_angle_alpha 90.000000
_cell_angle_beta 162.578770
_cell_angle_gamma 90.000000
_cell_volume 1243.552946
_symmetry_space_group_name_H-M "P 2/M"
_symmetry_group_IT_number 10
_symmetry_cell_setting 'monoclinic'
loop_
_space_group_symop_operation_xyz
x,y,z
-x,y,-z
-x,-y,-z
x,-y,z
loop_
_atom_site_type_symbol
_atom_site_label
_atom_site_fract_x
_atom_site_fract_y
_atom_site_fract_z
Si Si1 0.194464 0.324235 0.500280
Si Si2 0.907346 0.835162 0.055530
Si Si3 0.298355 0.663314 0.296442
Si Si4 0.482538 0.834901 0.635796
Si Si5 0.655036 0.675828 0.066884
Si Si6 0.447163 0.822580 0.131927
O O1 0.226675 0.500000 0.528850
O O2 0.290826 0.264233 0.515768
O O3 0.345495 0.248167 0.668484
O O4 0.922924 0.290472 0.290149
O O5 0.685487 0.845048 0.841100
O O6 0.795637 0.783904 0.026983
O O7 0.005881 0.000000 0.138956
O O8 0.085275 0.732000 0.163136
O O9 0.500000 0.652331 0.500000
O O10 0.243232 0.500000 0.231280
O O11 0.397416 0.764476 0.324472
O O12 0.396879 0.000000 0.557027
O O13 0.639516 0.500000 0.043759
O O14 0.500000 0.709803 0.000000
O O15 0.566707 0.761330 0.942301
O O16 0.467322 0.000000 0.149377
#
# Coordination Sequence:
#
# PCOD9152608 Si02
#       6
#     4   4   4   4   4   4
#     4  10  21  39  64  91 121 159 202 248 300 357
#     4   9  20  38  57  80 109 148 193 237 290 347
#     4  11  24  36  50  80 116 151 194 240 287 341
#     4  10  21  38  59  82 112 150 194 242 293 349
#     4  10  23  42  64  91 123 160 200 245 300 362
#     4  10  22  40  63  92 124 159 201 248 301 359
#
# _framework density 19.299538999999999
#
# number of rings (size 3 to 8) (size 9 to 14) (size 15 to 20)
#    0.000    2.000    0.000    3.500    2.333    9.667 
#    0.000    3.333    0.000    0.000    0.000    0.000 
#    0.000    0.000    0.000    0.000    0.000    0.000 
#
# Total GULP energy -133989.843194 kJ/mol
# GULP energy per Si atom -5582.910133 kJ/mol
# Density = 1.925561 g / cm^3
# Si number density = 19.299539 Si / 1000 Ang^3
#
#
#
# Elastic Constant Matrix: (Units=GPa)
#
#
# Indices 1 2 3 4 5 6 
#
# 1 166.1790 74.2907 66.1575 0.0000 18.4598 0.0000
# 2 74.2907 102.3092 59.2926 0.0000 14.3002 0.0000
# 3 66.1575 59.2926 106.9300 0.0000 22.6996 0.0000
# 4 0.0000 0.0000 0.0000 48.1546 0.0000 -9.6134
# 5 18.4598 14.3002 22.6996 0.0000 33.2159 0.0000
# 6 0.0000 0.0000 0.0000 -9.6134 0.0000 38.5638
#
#
#
# Elastic Compliance Matrix: (Units=1/GPa)
#
#
# Indices 1 2 3 4 5 6 
#
# 1 0.009574 -0.005157 -0.002814 0.000000 -0.001178 0.000000
# 2 -0.005157 0.017201 -0.006298 0.000000 -0.000236 0.000000
# 3 -0.002814 -0.006298 0.015999 0.000000 -0.006658 0.000000
# 4 0.000000 0.000000 0.000000 0.021854 0.000000 0.005448
# 5 -0.001178 -0.000236 -0.006658 0.000000 0.035412 0.000000
# 6 0.000000 0.000000 0.000000 0.005448 0.000000 0.027289
#
#
# Mechanical properties :
#
#
# Convention : Reuss Voigt Hill
#
# Bulk Modulus (GPa) = 70.23898 86.09998 78.16948
# Shear Modulus (GPa) = 31.13094 35.69868 33.41481
#
# Velocity S-wave (km/s) = 4.02062 4.30550 4.16550
# Velocity P-wave (km/s) = 7.61755 8.33221 7.98288
#
# Compressibility (1/GPa) = 0.01423711
#
# Stress axis : x y z
#
# Youngs Moduli (GPa) = 104.44958 58.13468 62.50572
#
# Poissons Ratio (x) = 0.29977 0.17590
# Poissons Ratio (y) = 0.53860 0.39365
# Poissons Ratio (z) = 0.29394 0.36612
#
# Static dielectric constant tensor:
#      x y z
#    x 1.701140 0.000000 0.007660 
#    y 0.000000 1.698030 0.000000 
#    z 0.007660 0.000000 1.668610 
# 
# From -- ./inp_files/77880.got.cif
#   From: 2010.05.17/outbox.cif.g08.bks.cpg/sg10_39_cif.got.tgz:77880.got - 2010.06.03 11:33:40.
