data_PCOD9152509
_publ_section_title
;
Structure prediction by ZEFSAII (Michael W. Deem and Ramdas Pophale) SiO2 
 PCOD9152509
Probable space group: P 2/M
;
_chemical_formula_sum "Si O2"
_cell_formula_units_Z 32
_cell_length_a 13.503583
_cell_length_b 23.878831
_cell_length_c 7.827946
_cell_angle_alpha 90.000000
_cell_angle_beta 146.275762
_cell_angle_gamma 90.000000
_cell_volume 1401.381827
_symmetry_space_group_name_H-M "P 2/M"
_symmetry_group_IT_number 10
_symmetry_cell_setting 'monoclinic'
loop_
_space_group_symop_operation_xyz
x,y,z
-x,y,-z
-x,-y,-z
x,-y,z
loop_
_atom_site_type_symbol
_atom_site_label
_atom_site_fract_x
_atom_site_fract_y
_atom_site_fract_z
Si Si1 0.210269 0.776132 0.769608
Si Si2 0.350880 0.111075 0.141971
Si Si3 0.793653 0.351937 0.652530
Si Si4 0.493227 0.564010 0.199871
Si Si5 0.792043 0.347151 0.239382
Si Si6 0.983281 0.935916 0.769038
Si Si7 0.203836 0.771392 0.348122
Si Si8 0.629601 0.873413 0.316373
O O1 0.271148 0.714053 0.913906
O O2 0.217842 0.773544 0.574044
O O3 0.000000 0.780782 0.500000
O O4 0.298225 0.826883 0.999228
O O5 0.500000 0.108769 0.500000
O O6 0.480090 0.084682 0.178195
O O7 0.164763 0.083841 0.936584
O O8 0.664935 0.402647 0.516380
O O9 0.777984 0.348601 0.424592
O O10 0.736762 0.289488 0.631404
O O11 0.000000 0.359979 0.000000
O O12 0.483026 0.500000 0.242873
O O13 0.500000 0.562771 0.000000
O O14 0.323888 0.602472 0.000271
O O15 0.000000 0.352977 0.500000
O O16 0.806863 0.898771 0.486545
O O17 0.949977 0.000000 0.672062
O O18 0.000000 0.933603 0.000000
O O19 0.304275 0.828501 0.447825
O O20 0.000000 0.777484 0.000000
O O21 0.500000 0.841718 0.000000
#
# Coordination Sequence:
#
# PCOD9152509 Si02
#       8
#     4   4   4   4   4   4   4   4
#     4  10  21  38  60  92 133 166 207 265 322 387
#     4  12  26  43  70 105 134 172 220 267 331 393
#     4   9  19  35  57  86 118 159 206 256 311 373
#     4   9  18  33  56  83 116 160 210 255 307 374
#     4   9  19  36  56  83 120 160 204 255 313 374
#     4  11  26  50  73  97 135 176 222 277 322 385
#     4  10  21  37  63  92 129 170 209 260 323 388
#     4  12  25  42  69 102 136 173 218 268 327 393
#
# _framework density 22.834605
#
# number of rings (size 3 to 8) (size 9 to 14) (size 15 to 20)
#    0.000    1.750    2.500    1.125    3.500    2.000 
#    0.000    1.250    0.000    0.750    0.000    0.000 
#    0.000    0.000    0.000    0.000    0.000    0.000 
#
# Total GULP energy -178428.581022 kJ/mol
# GULP energy per Si atom -5575.893157 kJ/mol
# Density = 2.278263 g / cm^3
# Si number density = 22.834605 Si / 1000 Ang^3
#
#
#
# Elastic Constant Matrix: (Units=GPa)
#
#
# Indices 1 2 3 4 5 6 
#
# 1 61.1899 13.4458 11.0757 0.0000 31.1699 0.0000
# 2 13.4458 157.2857 72.4443 0.0000 31.4261 0.0000
# 3 11.0757 72.4443 136.1222 0.0000 28.7829 0.0000
# 4 0.0000 0.0000 0.0000 56.2510 0.0000 29.6298
# 5 31.1699 31.4261 28.7829 0.0000 39.7308 0.0000
# 6 0.0000 0.0000 0.0000 29.6298 0.0000 33.2341
#
#
#
# Elastic Compliance Matrix: (Units=1/GPa)
#
#
# Indices 1 2 3 4 5 6 
#
# 1 0.028380 0.001598 0.002144 0.000000 -0.025082 0.000000
# 2 0.001598 0.009097 -0.003761 0.000000 -0.005725 0.000000
# 3 0.002144 -0.003761 0.010510 0.000000 -0.006321 0.000000
# 4 0.000000 0.000000 0.000000 0.033518 0.000000 -0.029883
# 5 -0.025082 -0.005725 -0.006321 0.000000 0.053954 0.000000
# 6 0.000000 0.000000 0.000000 -0.029883 0.000000 0.056732
#
#
# Mechanical properties :
#
#
# Convention : Reuss Voigt Hill
#
# Bulk Modulus (GPa) = 20.85540 60.94771 40.90155
# Shear Modulus (GPa) = 24.01378 43.01865 33.51622
#
# Velocity S-wave (km/s) = 3.24642 4.34513 3.83532
# Velocity P-wave (km/s) = 4.81720 7.20572 6.12894
#
# Compressibility (1/GPa) = 0.04794921
#
# Stress axis : x y z
#
# Youngs Moduli (GPa) = 35.23586 109.92114 95.14552
#
# Poissons Ratio (x) = -0.17563 -0.20400
# Poissons Ratio (y) = -0.05630 0.35786
# Poissons Ratio (z) = -0.07555 0.41344
#
# Static dielectric constant tensor:
#      x y z
#    x 2.043590 0.000000 -0.043590 
#    y 0.000000 1.863790 0.000000 
#    z -0.043590 0.000000 1.798240 
# 
# From -- ./inp_files/30628.got.cif
#   From: 2010.05.17/outbox.cif.g08.bks.cpg/sg10_16_cif.got.tgz:30628.got - 2010.06.03 11:33:40.
