data_PCOD9152065
_publ_section_title
;
Structure prediction by ZEFSAII (Michael W. Deem and Ramdas Pophale) SiO2 
 PCOD9152065
Probable space group: P 2/M
;
_chemical_formula_sum "Si O2"
_cell_formula_units_Z 32
_cell_length_a 9.627674
_cell_length_b 13.307705
_cell_length_c 13.717810
_cell_angle_alpha 90.000000
_cell_angle_beta 97.303893
_cell_angle_gamma 90.000000
_cell_volume 1743.295466
_symmetry_space_group_name_H-M "P 2/M"
_symmetry_group_IT_number 10
_symmetry_cell_setting 'monoclinic'
loop_
_space_group_symop_operation_xyz
x,y,z
-x,y,-z
-x,-y,-z
x,-y,z
loop_
_atom_site_type_symbol
_atom_site_label
_atom_site_fract_x
_atom_site_fract_y
_atom_site_fract_z
Si Si1 0.467188 0.109919 0.384134
Si Si2 0.017270 0.886038 0.618452
Si Si3 0.711737 0.218749 0.306505
Si Si4 0.221655 0.747883 0.356261
Si Si5 0.650897 0.387811 0.802048
Si Si6 0.152623 0.613232 0.994632
Si Si7 0.832487 0.380944 0.460530
Si Si8 0.402658 0.283110 0.900061
O O1 0.500000 0.101832 0.500000
O O2 0.568882 0.192670 0.348662
O O3 0.311680 0.151029 0.366675
O O4 0.484017 0.000000 0.339310
O O5 0.178356 0.867750 0.657467
O O6 0.000000 0.874394 0.500000
O O7 0.933526 0.794877 0.662091
O O8 0.974498 0.000000 0.639980
O O9 0.780047 0.320808 0.359076
O O10 0.670446 0.216168 0.189367
O O11 0.284660 0.683028 0.274535
O O12 0.233974 0.680608 0.454843
O O13 0.625780 0.500000 0.761132
O O14 0.769389 0.392017 0.895369
O O15 0.510733 0.349909 0.844789
O O16 0.126029 0.500000 0.954872
O O17 0.269388 0.661708 0.935865
O O18 0.000000 0.661448 0.000000
O O19 0.797123 0.500000 0.453418
O O20 0.000000 0.375629 0.500000
O O21 0.500000 0.245088 0.000000
#
# Coordination Sequence:
#
# PCOD9152065 Si02
#       8
#     4   4   4   4   4   4   4   4
#     4  11  22  37  60  88 119 151 194 250 295 344
#     4  11  22  39  64  89 118 154 201 255 300 347
#     4  12  21  40  60  89 119 159 205 238 299 359
#     4  12  20  38  56  88 123 158 194 237 296 362
#     4  10  21  36  56  83 121 163 193 234 293 355
#     4   9  19  35  57  86 110 145 204 254 290 336
#     4  11  23  38  55  85 130 167 195 233 290 362
#     4  10  22  39  59  84 119 160 199 248 295 347
#
# _framework density 18.35604
#
# number of rings (size 3 to 8) (size 9 to 14) (size 15 to 20)
#    0.000    1.250    5.000    1.500    1.750    4.500 
#    0.000    0.625    0.000    1.500    0.000    3.500 
#    0.000    0.000    0.000    0.000    0.000    0.000 
#
# Total GULP energy -178157.432106 kJ/mol
# GULP energy per Si atom -5567.419753 kJ/mol
# Density = 1.831426 g / cm^3
# Si number density = 18.356040 Si / 1000 Ang^3
#
#
#
# Elastic Constant Matrix: (Units=GPa)
#
#
# Indices 1 2 3 4 5 6 
#
# 1 89.7376 8.5255 19.2651 0.0000 -4.9822 0.0000
# 2 8.5255 77.9327 24.7625 0.0000 -0.8730 0.0000
# 3 19.2651 24.7625 88.5684 0.0000 -3.1447 0.0000
# 4 0.0000 0.0000 0.0000 4.2761 0.0000 -6.8964
# 5 -4.9822 -0.8730 -3.1447 0.0000 24.9931 0.0000
# 6 0.0000 0.0000 0.0000 -6.8964 0.0000 17.5510
#
#
#
# Elastic Compliance Matrix: (Units=1/GPa)
#
#
# Indices 1 2 3 4 5 6 
#
# 1 0.011811 -0.000522 -0.002351 0.000000 0.002040 0.000000
# 2 -0.000522 0.014106 -0.003833 0.000000 -0.000094 0.000000
# 3 -0.002351 -0.003833 0.012910 0.000000 0.001022 0.000000
# 4 0.000000 0.000000 0.000000 0.638447 0.000000 0.250867
# 5 0.002040 -0.000094 0.001022 0.000000 0.040543 0.000000
# 6 0.000000 0.000000 0.000000 0.250867 0.000000 0.155551
#
#
# Mechanical properties :
#
#
# Convention : Reuss Voigt Hill
#
# Bulk Modulus (GPa) = 39.34830 40.14944 39.74887
# Shear Modulus (GPa) = 5.58502 22.94309 14.26405
#
# Velocity S-wave (km/s) = 1.74620 3.53922 2.79063
# Velocity P-wave (km/s) = 5.05453 6.21462 5.66435
#
# Compressibility (1/GPa) = 0.02541406
#
# Stress axis : x y z
#
# Youngs Moduli (GPa) = 84.66576 70.89314 77.45879
#
# Poissons Ratio (x) = 0.03703 0.18208
# Poissons Ratio (y) = 0.04422 0.29694
# Poissons Ratio (z) = 0.19902 0.27177
#
# Static dielectric constant tensor:
#      x y z
#    x 1.522940 0.000000 0.009110 
#    y 0.000000 1.673450 0.000000 
#    z 0.009110 0.000000 1.630180 
# 
# From -- ./inp_files/29516.got.cif
#   From: 2010.05.17/outbox.cif.g08.bks.cpg/sg10_15_cif.got.tgz:29516.got - 2010.06.03 11:33:40.
