data_PCOD9152021
_publ_section_title
;
Structure prediction by ZEFSAII (Michael W. Deem and Ramdas Pophale) SiO2 
 PCOD9152021
Probable space group: P 2/M
;
_chemical_formula_sum "Si O2"
_cell_formula_units_Z 24
_cell_length_a 24.641289
_cell_length_b 7.396923
_cell_length_c 16.449953
_cell_angle_alpha 90.000000
_cell_angle_beta 160.798816
_cell_angle_gamma 90.000000
_cell_volume 986.108681
_symmetry_space_group_name_H-M "P 2/M"
_symmetry_group_IT_number 10
_symmetry_cell_setting 'monoclinic'
loop_
_space_group_symop_operation_xyz
x,y,z
-x,y,-z
-x,-y,-z
x,-y,z
loop_
_atom_site_type_symbol
_atom_site_label
_atom_site_fract_x
_atom_site_fract_y
_atom_site_fract_z
Si Si1 0.646505 0.720746 0.646507
Si Si2 0.709761 0.712445 0.555192
Si Si3 0.393661 0.218767 0.013405
Si Si4 0.845821 0.218772 0.465564
Si Si5 0.018897 0.287563 0.173466
Si Si6 0.128232 0.202925 0.756465
O O1 0.500000 0.782710 0.500000
O O2 0.638757 0.500000 0.638758
O O3 0.636527 0.779744 0.537391
O O4 0.834800 0.779749 0.933942
O O5 0.736923 0.500000 0.607290
O O6 0.577105 0.732920 0.295828
O O7 0.880769 0.788635 0.761536
O O8 0.381163 0.000000 0.996062
O O9 0.307949 0.278453 0.807950
O O10 0.284735 0.289373 0.935387
O O11 0.860337 0.267092 0.579059
O O12 0.016565 0.289369 0.667216
O O13 0.848626 0.000000 0.463529
O O14 0.996176 0.500000 0.125798
O O15 0.000000 0.186603 0.500000
O O16 0.174378 0.000000 0.848759
#
# Coordination Sequence:
#
# PCOD9152021 Si02
#       6
#     4   4   4   4   4   4
#     4   9  19  37  60  81 102 136 183 228 270 322
#     4  10  21  36  55  80 111 144 177 220 273 322
#     4   9  18  33  54  80 111 147 183 218 263 320
#     4   9  18  33  54  80 111 147 183 218 263 320
#     4  10  21  36  55  80 111 144 177 220 273 322
#     4   7  12  26  47  70  99 136 174 213 256 301
#
# _framework density 24.338087000000002
#
# number of rings (size 3 to 8) (size 9 to 14) (size 15 to 20)
#    0.000    3.000    0.000    2.500    2.333    4.000 
#    0.000    4.167    0.000    6.000    0.000    0.000 
#    0.000    0.000    0.000    0.000    0.000    0.000 
#
# Total GULP energy -133803.281522 kJ/mol
# GULP energy per Si atom -5575.136730 kJ/mol
# Density = 2.428269 g / cm^3
# Si number density = 24.338087 Si / 1000 Ang^3
#
#
#
# Elastic Constant Matrix: (Units=GPa)
#
#
# Indices 1 2 3 4 5 6 
#
# 1 221.9637 6.1741 90.1546 0.0000 13.1907 0.0000
# 2 6.1741 87.3586 -0.4396 0.0000 3.9437 0.0000
# 3 90.1546 -0.4396 177.5588 0.0000 13.3241 0.0000
# 4 0.0000 0.0000 0.0000 8.5249 0.0000 -7.6750
# 5 13.1907 3.9437 13.3241 0.0000 54.7813 0.0000
# 6 0.0000 0.0000 0.0000 -7.6750 0.0000 -4.3223
#
#
#
# Elastic Compliance Matrix: (Units=1/GPa)
#
#
# Indices 1 2 3 4 5 6 
#
# 1 0.005714 -0.000389 -0.002853 0.000000 -0.000654 0.000000
# 2 -0.000389 0.011512 0.000286 0.000000 -0.000805 0.000000
# 3 -0.002853 0.000286 0.007162 0.000000 -0.001076 0.000000
# 4 0.000000 0.000000 0.000000 0.045140 0.000000 -0.080154
# 5 -0.000654 -0.000805 -0.001076 0.000000 0.018731 0.000000
# 6 0.000000 0.000000 0.000000 -0.080154 0.000000 -0.089030
#
#
# Mechanical properties :
#
#
# Convention : Reuss Voigt Hill
#
# Bulk Modulus (GPa) = 54.12096 75.40657 64.76377
# Shear Modulus (GPa) = 442.53405 37.86294 240.19849
#
# Velocity S-wave (km/s) = 13.49898 3.94852 9.94518
# Velocity P-wave (km/s) = 16.28646 7.19986 12.59140
#
# Compressibility (1/GPa) = 0.01847713
#
# Stress axis : x y z
#
# Youngs Moduli (GPa) = 175.01766 86.86353 139.62675
#
# Poissons Ratio (x) = 0.03376 0.39835
# Poissons Ratio (y) = 0.06802 -0.03997
# Poissons Ratio (z) = 0.49933 -0.02486
#
# Static dielectric constant tensor:
#      x y z
#    x 1.981070 0.000000 0.030220 
#    y 0.000000 1.948000 0.000000 
#    z 0.030220 0.000000 1.930450 
# 
# From -- ./inp_files/71843.got.cif
#   From: 2010.05.17/outbox.cif.g08.bks.cpg/sg10_36_cif.got.tgz:71843.got - 2010.06.03 11:33:40.
