data_PCOD9152070
_publ_section_title
;
Structure prediction by ZEFSAII (Michael W. Deem and Ramdas Pophale) SiO2 
 PCOD9152070
Probable space group: P 2/M
;
_chemical_formula_sum "Si O2"
_cell_formula_units_Z 32
_cell_length_a 20.077924
_cell_length_b 8.486320
_cell_length_c 25.798438
_cell_angle_alpha 90.000000
_cell_angle_beta 21.627860
_cell_angle_gamma 90.000000
_cell_volume 1620.165557
_symmetry_space_group_name_H-M "P 2/M"
_symmetry_group_IT_number 10
_symmetry_cell_setting 'monoclinic'
loop_
_space_group_symop_operation_xyz
x,y,z
-x,y,-z
-x,-y,-z
x,-y,z
loop_
_atom_site_type_symbol
_atom_site_label
_atom_site_fract_x
_atom_site_fract_y
_atom_site_fract_z
Si Si1 0.003486 0.689686 0.437677
Si Si2 0.382010 0.686978 0.826830
Si Si3 0.656581 0.187653 0.032189
Si Si4 0.066083 0.807952 0.709838
Si Si5 0.707868 0.809611 0.352810
Si Si6 0.409323 0.689873 0.119778
Si Si7 0.243703 0.812319 0.474263
Si Si8 0.004650 0.309523 0.936567
O O1 0.988249 0.500000 0.449556
O O2 0.199080 0.733367 0.273394
O O3 0.000000 0.744511 0.500000
O O4 0.850032 0.751986 0.510473
O O5 0.389886 0.500000 0.813880
O O6 0.547834 0.762288 0.676193
O O7 0.400572 0.729153 0.873594
O O8 0.184347 0.743249 0.952140
O O9 0.859198 0.239673 0.869729
O O10 0.659489 0.000000 0.038562
O O11 0.517850 0.230908 0.087611
O O12 0.192282 0.756907 0.666478
O O13 0.140540 0.752924 0.600396
O O14 0.068574 0.000000 0.707385
O O15 0.500000 0.755527 0.500000
O O16 0.828132 0.755004 0.217323
O O17 0.706735 0.000000 0.354054
O O18 0.420997 0.500000 0.117422
O O19 0.500000 0.733602 0.000000
O O20 0.232640 0.000000 0.482176
O O21 0.012345 0.500000 0.928899
O O22 0.000000 0.261971 0.000000
#
# Coordination Sequence:
#
# PCOD9152070 Si02
#       8
#     4   4   4   4   4   4   4   4
#     4  10  21  38  57  79 113 154 194 241 293 346
#     4  11  23  40  60  85 118 157 199 243 295 352
#     4  11  21  37  62  87 116 155 197 247 298 350
#     4   9  20  38  57  86 124 153 191 244 293 345
#     4  10  21  39  64  91 121 159 198 238 289 349
#     4  10  21  36  56  84 118 154 194 240 291 353
#     4  11  23  38  60  88 119 155 196 246 297 350
#     4  10  23  42  62  88 123 158 197 247 295 346
#
# _framework density 19.751068
#
# number of rings (size 3 to 8) (size 9 to 14) (size 15 to 20)
#    0.000    1.750    1.250    2.625    1.750    3.000 
#    0.000    3.125    0.000    0.000    0.000    0.000 
#    0.000    0.000    0.000    0.000    0.000    0.000 
#
# Total GULP energy -178836.907302 kJ/mol
# GULP energy per Si atom -5588.653353 kJ/mol
# Density = 1.970611 g / cm^3
# Si number density = 19.751068 Si / 1000 Ang^3
#
#
#
# Elastic Constant Matrix: (Units=GPa)
#
#
# Indices 1 2 3 4 5 6 
#
# 1 83.6973 11.2981 22.4041 0.0000 2.3600 0.0000
# 2 11.2981 8.2454 13.7733 0.0000 -1.9961 0.0000
# 3 22.4041 13.7733 117.4250 0.0000 1.0957 0.0000
# 4 0.0000 0.0000 0.0000 -17.5560 0.0000 25.7727
# 5 2.3600 -1.9961 1.0957 0.0000 40.6088 0.0000
# 6 0.0000 0.0000 0.0000 25.7727 0.0000 -20.2670
#
#
#
# Elastic Compliance Matrix: (Units=1/GPa)
#
#
# Indices 1 2 3 4 5 6 
#
# 1 0.014820 -0.019968 -0.000468 0.000000 -0.001830 0.000000
# 2 -0.019968 0.180309 -0.017437 0.000000 0.010494 0.000000
# 3 -0.000468 -0.017437 0.010661 0.000000 -0.001118 0.000000
# 4 0.000000 0.000000 0.000000 0.065712 0.000000 0.083563
# 5 -0.001830 0.010494 -0.001118 0.000000 0.025278 0.000000
# 6 0.000000 0.000000 0.000000 0.083563 0.000000 0.056922
#
#
# Mechanical properties :
#
#
# Convention : Reuss Voigt Hill
#
# Bulk Modulus (GPa) = 7.68976 33.81320 20.75148
# Shear Modulus (GPa) = 10.57540 11.34997 10.96269
#
# Velocity S-wave (km/s) = 2.31646 2.39979 2.35849
# Velocity P-wave (km/s) = 3.32512 4.98352 4.23627
#
# Compressibility (1/GPa) = 0.13004303
#
# Stress axis : x y z
#
# Youngs Moduli (GPa) = 67.47559 5.54605 93.79801
#
# Poissons Ratio (x) = 0.11074 0.04394
# Poissons Ratio (y) = 1.34732 1.63560
# Poissons Ratio (z) = 0.03161 0.09671
#
# Static dielectric constant tensor:
#      x y z
#    x 1.668040 0.000000 0.000790 
#    y 0.000000 1.677630 0.000000 
#    z 0.000790 0.000000 1.673960 
# 
# From -- ./inp_files/93588.got.cif
#   From: 2010.05.17/outbox.cif.g08.bks.cpg/sg10_47_cif.got.tgz:93588.got - 2010.06.03 11:33:40.
