data_PCOD9152859
_publ_section_title
;
Structure prediction by ZEFSAII (Michael W. Deem and Ramdas Pophale) SiO2 
 PCOD9152859
Probable space group: P 2/M
;
_chemical_formula_sum "Si O2"
_cell_formula_units_Z 30
_cell_length_a 12.302679
_cell_length_b 7.664347
_cell_length_c 24.735396
_cell_angle_alpha 90.000000
_cell_angle_beta 40.047682
_cell_angle_gamma 90.000000
_cell_volume 1500.692043
_symmetry_space_group_name_H-M "P 2/M"
_symmetry_group_IT_number 10
_symmetry_cell_setting 'monoclinic'
loop_
_space_group_symop_operation_xyz
x,y,z
-x,y,-z
-x,-y,-z
x,-y,z
loop_
_atom_site_type_symbol
_atom_site_label
_atom_site_fract_x
_atom_site_fract_y
_atom_site_fract_z
Si Si1 0.532727 0.704973 0.427843
Si Si2 0.632074 0.798886 0.721622
Si Si3 0.003460 0.210107 0.382305
Si Si4 0.714837 0.294880 0.570472
Si Si5 0.422032 0.500000 0.855386
Si Si6 0.734002 0.294755 0.882269
Si Si7 0.593910 0.805288 0.051784
Si Si8 0.096326 0.790984 0.697815
O O1 0.500000 0.782241 0.500000
O O2 0.489108 0.500000 0.447455
O O3 0.415479 0.777008 0.425097
O O4 0.731326 0.723796 0.341820
O O5 0.687822 0.794957 0.637889
O O6 0.491508 0.656144 0.788023
O O7 0.800295 0.740306 0.690306
O O8 0.590494 0.000000 0.751766
O O9 0.898318 0.274684 0.473577
O O10 0.919244 0.271932 0.358504
O O11 0.998419 0.000000 0.385243
O O12 0.683092 0.500000 0.591130
O O13 0.371781 0.653696 0.918925
O O14 0.696120 0.500000 0.894769
O O15 0.604305 0.207044 0.889658
O O16 0.926317 0.263499 0.792728
O O17 0.691361 0.227044 0.958224
O O18 0.632658 0.000000 0.056285
O O19 0.103462 0.000000 0.694221
#
# Coordination Sequence:
#
# PCOD9152859 Si02
#       8
#     4   4   4   4   2   4   4   4
#     4  10  21  39  57  82 114 155 204 249 298 352
#     4  11  24  40  58  85 120 158 204 254 299 355
#     4  10  22  36  54  82 117 158 201 247 299 354
#     4  11  22  38  60  80 114 157 207 255 300 354
#     4  12  22  39  57  86 112 155 197 242 304 357
#     4  11  20  36  57  86 123 161 198 240 295 365
#     4  11  21  37  59  86 124 161 197 242 299 368
#     4  11  22  35  56  88 121 156 200 248 298 355
#
# _framework density 19.990777999999999
#
# number of rings (size 3 to 8) (size 9 to 14) (size 15 to 20)
#    0.000    1.200    3.333    4.400    0.933    4.533 
#    0.000    0.000    0.000    0.000    0.000    1.867 
#    0.000    3.200    0.000    0.000    0.000    0.000 
#
# Total GULP energy -167180.767233 kJ/mol
# GULP energy per Si atom -5572.692241 kJ/mol
# Density = 1.994528 g / cm^3
# Si number density = 19.990778 Si / 1000 Ang^3
#
#
#
# Elastic Constant Matrix: (Units=GPa)
#
#
# Indices 1 2 3 4 5 6 
#
# 1 33.8876 0.0193 -6.0285 0.0000 2.6440 0.0000
# 2 0.0193 112.8596 0.7409 0.0000 11.3279 0.0000
# 3 -6.0285 0.7409 108.6860 0.0000 12.0592 0.0000
# 4 0.0000 0.0000 0.0000 36.7897 0.0000 3.6096
# 5 2.6440 11.3279 12.0592 0.0000 24.5354 0.0000
# 6 0.0000 0.0000 0.0000 3.6096 0.0000 15.1523
#
#
#
# Elastic Compliance Matrix: (Units=1/GPa)
#
#
# Indices 1 2 3 4 5 6 
#
# 1 0.030250 0.000435 0.002178 0.000000 -0.004531 0.000000
# 2 0.000435 0.009317 0.000469 0.000000 -0.004579 0.000000
# 3 0.002178 0.000469 0.009909 0.000000 -0.005321 0.000000
# 4 0.000000 0.000000 0.000000 0.027832 0.000000 -0.006630
# 5 -0.004531 -0.004579 -0.005321 0.000000 0.045975 0.000000
# 6 0.000000 0.000000 0.000000 -0.006630 0.000000 0.067576
#
#
# Mechanical properties :
#
#
# Convention : Reuss Voigt Hill
#
# Bulk Modulus (GPa) = 17.97295 27.21073 22.59184
# Shear Modulus (GPa) = 24.60119 32.67557 28.63838
#
# Velocity S-wave (km/s) = 3.51184 4.04732 3.78905
# Velocity P-wave (km/s) = 5.04521 5.95670 5.51980
#
# Compressibility (1/GPa) = 0.05563918
#
# Stress axis : x y z
#
# Youngs Moduli (GPa) = 33.05787 107.33057 100.92009
#
# Poissons Ratio (x) = -0.04672 -0.21977
# Poissons Ratio (y) = -0.01439 -0.04730
# Poissons Ratio (z) = -0.07199 -0.05030
#
# Static dielectric constant tensor:
#      x y z
#    x 1.712020 0.000000 0.007820 
#    y 0.000000 1.729590 0.000000 
#    z 0.007820 0.000000 1.701530 
# 
# From -- ./inp_files/88657.got.cif
#   From: 2010.05.17/outbox.cif.g08.bks.cpg/sg10_45_cif.got.tgz:88657.got - 2010.06.03 11:33:40.
