data_PCOD9152769
_publ_section_title
;
Structure prediction by ZEFSAII (Michael W. Deem and Ramdas Pophale) SiO2 
 PCOD9152769
Probable space group: P 2/M
;
_chemical_formula_sum "Si O2"
_cell_formula_units_Z 28
_cell_length_a 9.492431
_cell_length_b 8.418574
_cell_length_c 27.860437
_cell_angle_alpha 90.000000
_cell_angle_beta 142.078238
_cell_angle_gamma 90.000000
_cell_volume 1368.313991
_symmetry_space_group_name_H-M "P 2/M"
_symmetry_group_IT_number 10
_symmetry_cell_setting 'monoclinic'
loop_
_space_group_symop_operation_xyz
x,y,z
-x,y,-z
-x,-y,-z
x,-y,z
loop_
_atom_site_type_symbol
_atom_site_label
_atom_site_fract_x
_atom_site_fract_y
_atom_site_fract_z
Si Si1 0.790900 0.814971 0.980364
Si Si2 0.051782 0.813308 0.238073
Si Si3 0.767283 0.314202 0.074557
Si Si4 0.697508 0.692146 0.516034
Si Si5 0.353303 0.806526 0.802480
Si Si6 0.208756 0.189781 0.661714
Si Si7 0.559746 0.312513 0.372929
O O1 0.564277 0.752610 0.892239
O O2 0.750286 0.000000 0.983467
O O3 0.853740 0.717610 0.044323
O O4 0.000000 0.812264 0.000000
O O5 0.289226 0.721260 0.298959
O O6 0.905502 0.784644 0.150698
O O7 0.886134 0.761037 0.236960
O O8 0.101547 0.000000 0.256989
O O9 0.781568 0.500000 0.091138
O O10 0.500000 0.267674 0.000000
O O11 0.500000 0.746638 0.500000
O O12 0.691469 0.500000 0.514262
O O13 0.648796 0.747958 0.448465
O O14 0.951028 0.746677 0.597908
O O15 0.353970 0.754991 0.747307
O O16 0.365076 0.000000 0.806261
O O17 0.317355 0.239869 0.640387
O O18 0.201305 0.000000 0.661223
O O19 0.603302 0.500000 0.382977
#
# Coordination Sequence:
#
# PCOD9152769 Si02
#       7
#     4   4   4   4   4   4   4
#     4  10  21  38  62  87 116 159 207 251 301 355
#     4  11  22  39  64  88 116 156 204 251 301 357
#     4  11  23  39  59  88 123 158 200 250 304 358
#     4  10  22  42  66  90 121 162 203 245 299 360
#     4   9  20  38  58  87 120 153 199 252 300 351
#     4  11  23  39  62  92 126 160 200 248 299 356
#     4  11  24  41  61  90 125 158 197 246 302 360
#
# _framework density 20.463138000000001
#
# number of rings (size 3 to 8) (size 9 to 14) (size 15 to 20)
#    0.000    1.571    1.429    3.000    2.000    4.000 
#    0.000    3.571    0.000    0.000    0.000    0.000 
#    0.000    0.000    0.000    0.000    0.000    0.000 
#
# Total GULP energy -156493.109346 kJ/mol
# GULP energy per Si atom -5589.039619 kJ/mol
# Density = 2.041656 g / cm^3
# Si number density = 20.463138 Si / 1000 Ang^3
#
#
#
# Elastic Constant Matrix: (Units=GPa)
#
#
# Indices 1 2 3 4 5 6 
#
# 1 98.0273 8.1715 15.6931 0.0000 -19.3362 0.0000
# 2 8.1715 2.8736 -2.1920 0.0000 -4.9013 0.0000
# 3 15.6931 -2.1920 63.8287 0.0000 -16.6917 0.0000
# 4 0.0000 0.0000 0.0000 19.2153 0.0000 2.6324
# 5 -19.3362 -4.9013 -16.6917 0.0000 37.4147 0.0000
# 6 0.0000 0.0000 0.0000 2.6324 0.0000 21.5446
#
#
#
# Elastic Compliance Matrix: (Units=1/GPa)
#
#
# Indices 1 2 3 4 5 6 
#
# 1 0.014946 -0.048889 -0.005670 0.000000 -0.001210 0.000000
# 2 -0.048889 0.688611 0.059604 0.000000 0.091532 0.000000
# 3 -0.005670 0.059604 0.023076 0.000000 0.015172 0.000000
# 4 0.000000 0.000000 0.000000 0.052928 0.000000 -0.006467
# 5 -0.001210 0.091532 0.015172 0.000000 0.044862 0.000000
# 6 0.000000 0.000000 0.000000 -0.006467 0.000000 0.047205
#
#
# Mechanical properties :
#
#
# Convention : Reuss Voigt Hill
#
# Bulk Modulus (GPa) = 1.35736 23.11943 12.23839
# Shear Modulus (GPa) = 4.51626 25.17205 14.84416
#
# Velocity S-wave (km/s) = 1.48722 3.51111 2.69626
# Velocity P-wave (km/s) = 1.90101 5.26875 3.96066
#
# Compressibility (1/GPa) = 0.73672368
#
# Stress axis : x y z
#
# Youngs Moduli (GPa) = 66.90935 1.45220 43.33583
#
# Poissons Ratio (x) = 0.07100 0.24571
# Poissons Ratio (y) = 3.27113 -2.58301
# Poissons Ratio (z) = 0.37937 -0.08656
#
# Static dielectric constant tensor:
#      x y z
#    x 1.729440 0.000000 -0.019380 
#    y 0.000000 1.714470 0.000000 
#    z -0.019380 0.000000 1.713060 
# 
# From -- ./inp_files/34307.got.cif
#   From: 2010.05.17/outbox.cif.g08.bks.cpg/sg10_18_cif.got.tgz:34307.got - 2010.06.03 11:33:40.
