data_PCOD9152516
_publ_section_title
;
Structure prediction by ZEFSAII (Michael W. Deem and Ramdas Pophale) SiO2 
 PCOD9152516
Probable space group: P 2/M
;
_chemical_formula_sum "Si O2"
_cell_formula_units_Z 28
_cell_length_a 14.114921
_cell_length_b 18.222498
_cell_length_c 8.229219
_cell_angle_alpha 90.000000
_cell_angle_beta 138.744330
_cell_angle_gamma 90.000000
_cell_volume 1395.748723
_symmetry_space_group_name_H-M "P 2/M"
_symmetry_group_IT_number 10
_symmetry_cell_setting 'monoclinic'
loop_
_space_group_symop_operation_xyz
x,y,z
-x,y,-z
-x,-y,-z
x,-y,z
loop_
_atom_site_type_symbol
_atom_site_label
_atom_site_fract_x
_atom_site_fract_y
_atom_site_fract_z
Si Si1 0.000000 0.853054 0.500000
Si Si2 0.893442 0.918364 0.022456
Si Si3 0.788727 0.738509 0.395524
Si Si4 0.524966 0.418817 0.287169
Si Si5 0.950626 0.419328 0.622649
Si Si6 0.257186 0.618043 0.151014
Si Si7 0.500000 0.696224 0.000000
Si Si8 0.826997 0.230061 0.807049
O O1 0.040129 0.900467 0.712974
O O2 0.116554 0.795617 0.581749
O O3 0.829316 0.000000 0.945593
O O4 0.800343 0.846665 0.861655
O O5 0.000000 0.919165 0.000000
O O6 0.764546 0.768686 0.546009
O O7 0.864387 0.658058 0.516309
O O8 0.635866 0.737836 0.108862
O O9 0.516509 0.500000 0.209430
O O10 0.646070 0.416670 0.581907
O O11 0.364620 0.397079 0.140244
O O12 0.568447 0.357649 0.218341
O O13 0.881854 0.500000 0.573278
O O14 0.000000 0.423143 0.500000
O O15 0.097730 0.412632 0.916725
O O16 0.232895 0.702736 0.165390
O O17 0.000000 0.240114 0.000000
#
# Coordination Sequence:
#
# PCOD9152516 Si02
#       8
#     2   4   4   4   4   4   2   4
#     4  12  21  40  71  94 134 168 214 260 311 392
#     4  10  21  37  64 106 140 161 194 259 332 384
#     4  12  24  41  59  93 122 171 218 267 318 381
#     4  11  24  40  59  83 121 167 219 276 327 379
#     4  11  22  35  56  83 116 156 211 271 324 370
#     4  11  21  40  61  84 116 164 215 261 327 384
#     4  12  27  40  58  86 127 164 222 266 333 368
#     4  11  20  40  61  88 127 156 201 266 318 379
#
# _framework density 20.060918000000001
#
# number of rings (size 3 to 8) (size 9 to 14) (size 15 to 20)
#    0.000    0.857    6.429    3.000    2.000    2.286 
#    0.000    0.714    0.000    0.000    0.000   11.500 
#    0.000    0.000    0.000    0.000    0.000    0.000 
#
# Total GULP energy -156074.315770 kJ/mol
# GULP energy per Si atom -5574.082706 kJ/mol
# Density = 2.001526 g / cm^3
# Si number density = 20.060918 Si / 1000 Ang^3
#
#
#
# Elastic Constant Matrix: (Units=GPa)
#
#
# Indices 1 2 3 4 5 6 
#
# 1 42.2639 32.7238 26.1816 0.0000 -4.2374 0.0000
# 2 32.7238 153.2654 29.9164 0.0000 2.4502 0.0000
# 3 26.1816 29.9164 64.1455 0.0000 1.1859 0.0000
# 4 0.0000 0.0000 0.0000 9.8782 0.0000 1.4197
# 5 -4.2374 2.4502 1.1859 0.0000 34.6782 0.0000
# 6 0.0000 0.0000 0.0000 1.4197 0.0000 21.3056
#
#
#
# Elastic Compliance Matrix: (Units=1/GPa)
#
#
# Indices 1 2 3 4 5 6 
#
# 1 0.035926 -0.005361 -0.012259 0.000000 0.005188 0.000000
# 2 -0.005361 0.007983 -0.001514 0.000000 -0.001167 0.000000
# 3 -0.012259 -0.001514 0.021339 0.000000 -0.002121 0.000000
# 4 0.000000 0.000000 0.000000 0.102212 0.000000 -0.006811
# 5 0.005188 -0.001167 -0.002121 0.000000 0.029625 0.000000
# 6 0.000000 0.000000 0.000000 -0.006811 0.000000 0.047390
#
#
# Mechanical properties :
#
#
# Convention : Reuss Voigt Hill
#
# Bulk Modulus (GPa) = 37.06386 48.59092 42.82739
# Shear Modulus (GPa) = 17.13879 24.56260 20.85070
#
# Velocity S-wave (km/s) = 2.92608 3.50294 3.22742
# Velocity P-wave (km/s) = 5.47098 6.37456 5.93998
#
# Compressibility (1/GPa) = 0.02698046
#
# Stress axis : x y z
#
# Youngs Moduli (GPa) = 27.83509 125.26153 46.86364
#
# Poissons Ratio (x) = 0.67147 0.57452
# Poissons Ratio (y) = 0.14921 0.07094
# Poissons Ratio (z) = 0.34124 0.18961
#
# Static dielectric constant tensor:
#      x y z
#    x 1.714550 0.000000 0.000950 
#    y 0.000000 1.713310 0.000000 
#    z 0.000950 0.000000 1.734710 
# 
# From -- ./inp_files/30225.got.cif
#   From: 2010.05.17/outbox.cif.g08.bks.cpg/sg10_16_cif.got.tgz:30225.got - 2010.06.03 11:33:40.
