data_PCOD9152207
_publ_section_title
;
Structure prediction by ZEFSAII (Michael W. Deem and Ramdas Pophale) SiO2 
 PCOD9152207
Probable space group: P 2/M
;
_chemical_formula_sum "Si O2"
_cell_formula_units_Z 32
_cell_length_a 9.532617
_cell_length_b 13.864510
_cell_length_c 28.237049
_cell_angle_alpha 90.000000
_cell_angle_beta 149.276334
_cell_angle_gamma 90.000000
_cell_volume 1906.646631
_symmetry_space_group_name_H-M "P 2/M"
_symmetry_group_IT_number 10
_symmetry_cell_setting 'monoclinic'
loop_
_space_group_symop_operation_xyz
x,y,z
-x,y,-z
-x,-y,-z
x,-y,z
loop_
_atom_site_type_symbol
_atom_site_label
_atom_site_fract_x
_atom_site_fract_y
_atom_site_fract_z
Si Si1 0.547921 0.882803 0.883616
Si Si2 0.869992 0.806064 0.410205
Si Si3 0.975465 0.395716 0.548652
Si Si4 0.986892 0.781403 0.729034
Si Si5 0.272315 0.115110 0.255388
Si Si6 0.825917 0.892685 0.588688
Si Si7 0.378618 0.613952 0.413331
Si Si8 0.899142 0.884744 0.896397
O O1 0.653807 0.856133 0.861235
O O2 0.302863 0.812885 0.828974
O O3 0.483392 0.000000 0.866494
O O4 0.812087 0.867152 0.993948
O O5 0.842598 0.695529 0.384153
O O6 0.587413 0.862699 0.333536
O O7 0.000000 0.802920 0.500000
O O8 0.077508 0.853902 0.433592
O O9 0.038462 0.500000 0.589638
O O10 0.000000 0.405095 0.500000
O O11 0.654957 0.374324 0.463289
O O12 0.818137 0.827125 0.723989
O O13 0.932887 0.833523 0.663649
O O14 0.865643 0.675311 0.681270
O O15 0.114278 0.148631 0.161765
O O16 0.233349 0.000000 0.252064
O O17 0.500000 0.894055 0.500000
O O18 0.937773 0.000000 0.625581
O O19 0.500000 0.646389 0.500000
O O20 0.310145 0.500000 0.397081
O O21 0.870072 0.000000 0.885010
#
# Coordination Sequence:
#
# PCOD9152207 Si02
#       8
#     4   4   4   4   4   4   4   4
#     4   9  17  32  54  77 103 134 168 205 246 293
#     4  11  21  33  48  68  96 132 169 208 251 297
#     4   9  17  31  50  68  88 119 161 208 250 285
#     4  12  21  32  51  76  99 127 165 209 252 298
#     4  11  22  33  47  72 107 140 170 204 247 303
#     4  11  22  33  45  64  96 134 166 195 234 293
#     4  10  21  37  54  72  97 129 167 212 257 298
#     4   8  17  34  52  72 101 137 172 205 242 288
#
# _framework density 16.783393
#
# number of rings (size 3 to 8) (size 9 to 14) (size 15 to 20)
#    0.000    1.875    0.000    7.125    0.000    3.500 
#    0.000    1.875    0.000    0.000    0.000    4.375 
#    0.000    0.000    0.000    0.000    0.000    0.000 
#
# Total GULP energy -178191.249365 kJ/mol
# GULP energy per Si atom -5568.476543 kJ/mol
# Density = 1.674519 g / cm^3
# Si number density = 16.783393 Si / 1000 Ang^3
#
#
#
# Elastic Constant Matrix: (Units=GPa)
#
#
# Indices 1 2 3 4 5 6 
#
# 1 117.1692 30.1909 35.4104 0.0000 7.5613 0.0000
# 2 30.1909 68.2749 16.9600 0.0000 0.3927 0.0000
# 3 35.4104 16.9600 49.7345 0.0000 -1.2990 0.0000
# 4 0.0000 0.0000 0.0000 18.5459 0.0000 4.4658
# 5 7.5613 0.3927 -1.2990 0.0000 21.7642 0.0000
# 6 0.0000 0.0000 0.0000 4.4658 0.0000 16.4128
#
#
#
# Elastic Compliance Matrix: (Units=1/GPa)
#
#
# Indices 1 2 3 4 5 6 
#
# 1 0.011965 -0.003408 -0.007475 0.000000 -0.004542 0.000000
# 2 -0.003408 0.016981 -0.003347 0.000000 0.000678 0.000000
# 3 -0.007475 -0.003347 0.026681 0.000000 0.004250 0.000000
# 4 0.000000 0.000000 0.000000 0.057701 0.000000 -0.015700
# 5 -0.004542 0.000678 0.004250 0.000000 0.047766 0.000000
# 6 0.000000 0.000000 0.000000 -0.015700 0.000000 0.065200
#
#
# Mechanical properties :
#
#
# Convention : Reuss Voigt Hill
#
# Bulk Modulus (GPa) = 36.80856 44.47790 40.64323
# Shear Modulus (GPa) = 18.95300 21.51906 20.23603
#
# Velocity S-wave (km/s) = 3.36411 3.58462 3.47611
# Velocity P-wave (km/s) = 6.08841 6.60994 6.35453
#
# Compressibility (1/GPa) = 0.02716760
#
# Stress axis : x y z
#
# Youngs Moduli (GPa) = 83.57674 58.88921 37.47918
#
# Poissons Ratio (x) = 0.20068 0.28018
# Poissons Ratio (y) = 0.28481 0.12543
# Poissons Ratio (z) = 0.62478 0.19708
#
# Static dielectric constant tensor:
#      x y z
#    x 1.571300 0.000000 0.009980 
#    y 0.000000 1.627290 0.000000 
#    z 0.009980 0.000000 1.626990 
# 
# From -- ./inp_files/92391.got.cif
#   From: 2010.05.17/outbox.cif.g08.bks.cpg/sg10_47_cif.got.tgz:92391.got - 2010.06.03 11:33:40.
