data_PCOD9152269
_publ_section_title
;
Structure prediction by ZEFSAII (Michael W. Deem and Ramdas Pophale) SiO2 
 PCOD9152269
Probable space group: P 2/M
;
_chemical_formula_sum "Si O2"
_cell_formula_units_Z 32
_cell_length_a 13.932901
_cell_length_b 13.346484
_cell_length_c 8.894316
_cell_angle_alpha 90.000000
_cell_angle_beta 83.692884
_cell_angle_gamma 90.000000
_cell_volume 1643.933869
_symmetry_space_group_name_H-M "P 2/M"
_symmetry_group_IT_number 10
_symmetry_cell_setting 'monoclinic'
loop_
_space_group_symop_operation_xyz
x,y,z
-x,y,-z
-x,-y,-z
x,-y,z
loop_
_atom_site_type_symbol
_atom_site_label
_atom_site_fract_x
_atom_site_fract_y
_atom_site_fract_z
Si Si1 0.275274 0.269326 0.402283
Si Si2 0.218083 0.618875 0.821129
Si Si3 0.397268 0.385643 0.578657
Si Si4 0.229635 0.222584 0.083721
Si Si5 0.079613 0.717711 0.606155
Si Si6 0.028561 0.117597 0.171495
Si Si7 0.589101 0.880182 0.085820
Si Si8 0.607390 0.888765 0.423312
O O1 0.324181 0.370840 0.452616
O O2 0.275570 0.268033 0.225134
O O3 0.168735 0.252998 0.484812
O O4 0.336522 0.182631 0.473444
O O5 0.216915 0.500000 0.854671
O O6 0.322806 0.644659 0.726471
O O7 0.131439 0.644584 0.718532
O O8 0.205484 0.691410 0.966466
O O9 0.500000 0.340522 0.500000
O O10 0.420236 0.500000 0.610960
O O11 0.136735 0.160376 0.152009
O O12 0.309282 0.149014 0.002007
O O13 0.000000 0.678391 0.500000
O O14 0.035119 0.810527 0.709492
O O15 0.022484 0.000000 0.215727
O O16 0.000000 0.125069 0.000000
O O17 0.594447 0.846981 0.257690
O O18 0.577837 0.000000 0.093691
O O19 0.500000 0.840690 0.000000
O O20 0.500000 0.899843 0.500000
O O21 0.653256 0.000000 0.408400
#
# Coordination Sequence:
#
# PCOD9152269 Si02
#       8
#     4   4   4   4   4   4   4   4
#     4  11  23  36  61  87 119 160 199 249 300 363
#     4  10  23  42  66  92 122 162 208 259 314 376
#     4   9  19  39  64  89 119 155 198 251 309 365
#     4  12  23  40  60  87 126 160 203 254 306 370
#     4  11  22  43  64  89 125 156 206 259 307 370
#     4  11  24  42  65  90 123 164 204 251 311 368
#     4  10  21  37  59  87 121 161 203 249 305 369
#     4  10  21  37  56  82 117 156 201 247 295 358
#
# _framework density 19.465502999999998
#
# number of rings (size 3 to 8) (size 9 to 14) (size 15 to 20)
#    0.000    1.500    2.500    3.000    0.000    4.500 
#    0.000    1.250    0.000    2.625    0.000    0.000 
#    0.000    0.000    0.000    0.000    0.000    0.000 
#
# Total GULP energy -178257.752196 kJ/mol
# GULP energy per Si atom -5570.554756 kJ/mol
# Density = 1.942120 g / cm^3
# Si number density = 19.465503 Si / 1000 Ang^3
#
#
#
# Elastic Constant Matrix: (Units=GPa)
#
#
# Indices 1 2 3 4 5 6 
#
# 1 109.0378 17.6998 21.4684 0.0000 -5.8428 0.0000
# 2 17.6998 58.8940 4.5261 0.0000 11.5369 0.0000
# 3 21.4684 4.5261 96.8848 0.0000 12.3799 0.0000
# 4 0.0000 0.0000 0.0000 7.5837 0.0000 -3.1993
# 5 -5.8428 11.5369 12.3799 0.0000 38.4692 0.0000
# 6 0.0000 0.0000 0.0000 -3.1993 0.0000 22.7756
#
#
#
# Elastic Compliance Matrix: (Units=1/GPa)
#
#
# Indices 1 2 3 4 5 6 
#
# 1 0.010460 -0.003633 -0.002597 0.000000 0.003514 0.000000
# 2 -0.003633 0.019303 0.000744 0.000000 -0.006580 0.000000
# 3 -0.002597 0.000744 0.011410 0.000000 -0.004290 0.000000
# 4 0.000000 0.000000 0.000000 0.140169 0.000000 0.019689
# 5 0.003514 -0.006580 -0.004290 0.000000 0.029882 0.000000
# 6 0.000000 0.000000 0.000000 0.019689 0.000000 0.046672
#
#
# Mechanical properties :
#
#
# Convention : Reuss Voigt Hill
#
# Bulk Modulus (GPa) = 33.10985 39.13393 36.12189
# Shear Modulus (GPa) = 17.92522 28.50718 23.21620
#
# Velocity S-wave (km/s) = 3.03788 3.83103 3.45727
# Velocity P-wave (km/s) = 5.41769 6.30214 5.87658
#
# Compressibility (1/GPa) = 0.03020249
#
# Stress axis : x y z
#
# Youngs Moduli (GPa) = 95.59822 51.80493 87.63926
#
# Poissons Ratio (x) = 0.18818 0.22762
# Poissons Ratio (y) = 0.34726 -0.06520
# Poissons Ratio (z) = 0.24829 -0.03854
#
# Static dielectric constant tensor:
#      x y z
#    x 1.648470 0.000000 -0.185710 
#    y 0.000000 1.716510 0.000000 
#    z -0.185710 0.000000 0.609510 
# 
# From -- ./inp_files/25348.got.cif
#   From: 2010.05.17/outbox.cif.g08.bks.cpg/sg10_13_cif.got.tgz:25348.got - 2010.06.03 11:33:40.
