data_PCOD9152778
_publ_section_title
;
Structure prediction by ZEFSAII (Michael W. Deem and Ramdas Pophale) SiO2 
 PCOD9152778
Probable space group: P 2/M
;
_chemical_formula_sum "Si O2"
_cell_formula_units_Z 15
_cell_length_a 5.198181
_cell_length_b 21.977221
_cell_length_c 7.382378
_cell_angle_alpha 90.000000
_cell_angle_beta 135.803744
_cell_angle_gamma 90.000000
_cell_volume 587.931740
_symmetry_space_group_name_H-M "P 2/M"
_symmetry_group_IT_number 10
_symmetry_cell_setting 'monoclinic'
loop_
_space_group_symop_operation_xyz
x,y,z
-x,y,-z
-x,-y,-z
x,-y,z
loop_
_atom_site_type_symbol
_atom_site_label
_atom_site_fract_x
_atom_site_fract_y
_atom_site_fract_z
Si Si1 0.938459 0.064662 0.753338
Si Si2 0.937765 0.196307 0.754894
Si Si3 0.410262 0.412830 0.659755
Si Si4 0.000000 0.705046 0.500000
Si Si5 0.500000 0.500000 0.000000
O O1 0.500000 0.064547 0.500000
O O2 0.081863 0.130048 0.760158
O O3 0.086011 0.000000 0.753761
O O4 0.000000 0.064670 0.000000
O O5 0.500000 0.196557 0.500000
O O6 0.084418 0.251556 0.710568
O O7 0.000000 0.202443 0.000000
O O8 0.500000 0.427778 0.500000
O O9 0.641422 0.446029 0.929373
O O10 0.000000 0.437780 0.500000
O O11 0.345532 0.340503 0.643410
#
# Coordination Sequence:
#
# PCOD9152778 Si02
#       5
#     4   4   4   2   1
#     4   8  14  27  50  81 115 161 216 275 335 393
#     4  10  21  38  62  88 129 175 225 280 339 404
#     4  10  25  44  66 101 133 169 219 271 334 400
#     4  10  24  41  61  92 132 170 226 272 336 406
#     4  12  24  46  80  96 136 174 218 274 338 402
#
# _framework density 25.513165000000001
#
# number of rings (size 3 to 8) (size 9 to 14) (size 15 to 20)
#    0.800    1.600    0.000    1.600    0.000    7.467 
#    0.000    0.667    0.000    0.000    0.000   18.667 
#    0.000    0.000    0.000    0.000    0.000    0.000 
#
# Total GULP energy -83598.179125 kJ/mol
# GULP energy per Si atom -5573.211942 kJ/mol
# Density = 2.545510 g / cm^3
# Si number density = 25.513165 Si / 1000 Ang^3
#
#
#
# Elastic Constant Matrix: (Units=GPa)
#
#
# Indices 1 2 3 4 5 6 
#
# 1 97.6560 28.9954 51.8058 0.0000 -17.9729 0.0000
# 2 28.9954 280.8685 61.5580 0.0000 -47.5326 0.0000
# 3 51.8058 61.5580 191.8740 0.0000 -24.9942 0.0000
# 4 0.0000 0.0000 0.0000 43.2100 0.0000 -25.8016
# 5 -17.9729 -47.5326 -24.9942 0.0000 64.1574 0.0000
# 6 0.0000 0.0000 0.0000 -25.8016 0.0000 -21.8825
#
#
#
# Elastic Compliance Matrix: (Units=1/GPa)
#
#
# Indices 1 2 3 4 5 6 
#
# 1 0.012272 -0.000265 -0.002956 0.000000 0.002090 0.000000
# 2 -0.000265 0.004252 -0.000940 0.000000 0.002710 0.000000
# 3 -0.002956 -0.000940 0.006440 0.000000 0.000984 0.000000
# 4 0.000000 0.000000 0.000000 0.013581 0.000000 -0.016013
# 5 0.002090 0.002710 0.000984 0.000000 0.018563 0.000000
# 6 0.000000 0.000000 0.000000 -0.016013 0.000000 -0.026817
#
#
# Mechanical properties :
#
#
# Convention : Reuss Voigt Hill
#
# Bulk Modulus (GPa) = 68.29874 95.01300 81.65587
# Shear Modulus (GPa) = 120.50317 45.63294 83.06805
#
# Velocity S-wave (km/s) = 6.87999 4.23378 5.71223
# Velocity P-wave (km/s) = 9.48370 7.82441 8.69373
#
# Compressibility (1/GPa) = 0.01464156
#
# Stress axis : x y z
#
# Youngs Moduli (GPa) = 81.48956 235.16431 155.29036
#
# Poissons Ratio (x) = 0.06240 0.45903
# Poissons Ratio (y) = 0.02162 0.14591
# Poissons Ratio (z) = 0.24088 0.22096
#
# Static dielectric constant tensor:
#      x y z
#    x 2.199960 0.000000 0.149610 
#    y 0.000000 2.077420 0.000000 
#    z 0.149610 0.000000 2.176280 
# 
# From -- ./inp_files/1858.got.cif
#   From: 2010.05.17/outbox.cif.g08.bks.cpg/sg10_1_cif.got.tgz:1858.got - 2010.06.03 11:33:40.
