data_PCOD9152631
_publ_section_title
;
Structure prediction by ZEFSAII (Michael W. Deem and Ramdas Pophale) SiO2 
 PCOD9152631
Probable space group: P 2/M
;
_chemical_formula_sum "Si O2"
_cell_formula_units_Z 28
_cell_length_a 11.158242
_cell_length_b 8.220542
_cell_length_c 14.295491
_cell_angle_alpha 90.000000
_cell_angle_beta 75.563507
_cell_angle_gamma 90.000000
_cell_volume 1269.875382
_symmetry_space_group_name_H-M "P 2/M"
_symmetry_group_IT_number 10
_symmetry_cell_setting 'monoclinic'
loop_
_space_group_symop_operation_xyz
x,y,z
-x,y,-z
-x,-y,-z
x,-y,z
loop_
_atom_site_type_symbol
_atom_site_label
_atom_site_fract_x
_atom_site_fract_y
_atom_site_fract_z
Si Si1 0.019420 0.318404 0.800874
Si Si2 0.737174 0.811048 0.200616
Si Si3 0.383269 0.314235 0.091295
Si Si4 0.169446 0.813813 0.017886
Si Si5 0.362961 0.815889 0.484201
Si Si6 0.800267 0.500000 0.488047
Si Si7 0.929194 0.500000 0.658690
Si Si8 0.529953 0.689386 0.715417
O O1 0.071253 0.500000 0.804149
O O2 0.138015 0.206356 0.763504
O O3 0.944496 0.269108 0.907449
O O4 0.928422 0.345153 0.729649
O O5 0.616463 0.723869 0.262999
O O6 0.703603 0.000000 0.196903
O O7 0.777262 0.745413 0.089960
O O8 0.333143 0.500000 0.097987
O O9 0.279851 0.197903 0.070882
O O10 0.429438 0.281873 0.186211
O O11 0.500000 0.306857 0.000000
O O12 0.136178 0.000000 0.005671
O O13 0.500000 0.790322 0.500000
O O14 0.273738 0.664330 0.524094
O O15 0.390666 0.800209 0.368518
O O16 0.321490 0.000000 0.517235
O O17 0.832463 0.500000 0.593497
O O18 0.933520 0.500000 0.412265
O O19 0.550572 0.500000 0.687362
#
# Coordination Sequence:
#
# PCOD9152631 Si02
#       8
#     4   4   4   4   4   2   2   4
#     4  10  23  40  62  87 117 155 221 264 310 376
#     4  11  23  38  57  88 132 174 215 264 321 382
#     4  10  21  38  59  88 125 168 219 262 310 383
#     4  11  23  37  57  87 129 173 213 262 319 374
#     4  11  26  44  71 108 138 172 217 271 342 411
#     4  11  23  52  76  93 138 171 210 285 336 411
#     4   9  26  46  71  97 119 165 225 270 340 396
#     4  11  23  39  64  95 129 173 216 266 329 394
#
# _framework density 22.049409000000001
#
# number of rings (size 3 to 8) (size 9 to 14) (size 15 to 20)
#    0.429    1.000    2.143    2.357    4.000    4.857 
#    0.000    2.857    0.000    0.000    0.000    0.000 
#    0.000    0.000    0.000    0.000    0.000    0.000 
#
# Total GULP energy -156446.256262 kJ/mol
# GULP energy per Si atom -5587.366295 kJ/mol
# Density = 2.199922 g / cm^3
# Si number density = 22.049409 Si / 1000 Ang^3
#
#
#
# Elastic Constant Matrix: (Units=GPa)
#
#
# Indices 1 2 3 4 5 6 
#
# 1 78.7556 34.9616 -2.4231 0.0000 -5.9489 0.0000
# 2 34.9616 78.4158 14.4474 0.0000 -3.8477 0.0000
# 3 -2.4231 14.4474 60.3243 0.0000 -1.5527 0.0000
# 4 0.0000 0.0000 0.0000 7.2127 0.0000 13.1761
# 5 -5.9489 -3.8477 -1.5527 0.0000 35.4881 0.0000
# 6 0.0000 0.0000 0.0000 13.1761 0.0000 -3.6367
#
#
#
# Elastic Compliance Matrix: (Units=1/GPa)
#
#
# Indices 1 2 3 4 5 6 
#
# 1 0.016322 -0.007646 0.002539 0.000000 0.002018 0.000000
# 2 -0.007646 0.016984 -0.004365 0.000000 0.000369 0.000000
# 3 0.002539 -0.004365 0.017743 0.000000 0.000729 0.000000
# 4 0.000000 0.000000 0.000000 0.018198 0.000000 0.065933
# 5 0.002018 0.000369 0.000729 0.000000 0.028589 0.000000
# 6 0.000000 0.000000 0.000000 0.065933 0.000000 -0.036092
#
#
# Mechanical properties :
#
#
# Convention : Reuss Voigt Hill
#
# Bulk Modulus (GPa) = 31.14822 34.60748 32.87785
# Shear Modulus (GPa) = 54.71030 19.18013 36.94522
#
# Velocity S-wave (km/s) = 4.98663 2.95256 4.09781
# Velocity P-wave (km/s) = 6.87841 5.23000 6.11005
#
# Compressibility (1/GPa) = 0.03210457
#
# Stress axis : x y z
#
# Youngs Moduli (GPa) = 61.26572 58.87944 56.35946
#
# Poissons Ratio (x) = 0.45019 -0.14308
# Poissons Ratio (y) = 0.46844 0.24602
# Poissons Ratio (z) = -0.15554 0.25702
#
# Static dielectric constant tensor:
#      x y z
#    x 1.821580 0.000000 0.026130 
#    y 0.000000 1.781920 0.000000 
#    z 0.026130 0.000000 1.841050 
# 
# From -- ./inp_files/63414.got.cif
#   From: 2010.05.17/outbox.cif.g08.bks.cpg/sg10_32_cif.got.tgz:63414.got - 2010.06.03 11:33:40.
