data_PCOD9152958
_publ_section_title
;
Structure prediction by ZEFSAII (Michael W. Deem and Ramdas Pophale) SiO2 
 PCOD9152958
Probable space group: P 2/M
;
_chemical_formula_sum "Si O2"
_cell_formula_units_Z 24
_cell_length_a 14.639452
_cell_length_b 14.742665
_cell_length_c 12.359271
_cell_angle_alpha 90.000000
_cell_angle_beta 150.621226
_cell_angle_gamma 90.000000
_cell_volume 1308.592320
_symmetry_space_group_name_H-M "P 2/M"
_symmetry_group_IT_number 10
_symmetry_cell_setting 'monoclinic'
loop_
_space_group_symop_operation_xyz
x,y,z
-x,y,-z
-x,-y,-z
x,-y,z
loop_
_atom_site_type_symbol
_atom_site_label
_atom_site_fract_x
_atom_site_fract_y
_atom_site_fract_z
Si Si1 0.187202 0.500000 0.336128
Si Si2 0.251253 0.500000 0.142588
Si Si3 0.000000 0.758106 0.500000
Si Si4 0.147993 0.892516 0.064170
Si Si5 0.532721 0.650325 0.341798
Si Si6 0.629812 0.244920 0.030817
Si Si7 0.085219 0.106515 0.751392
Si Si8 0.500000 0.218438 0.500000
O O1 0.288299 0.587083 0.491537
O O2 0.964962 0.500000 0.115208
O O3 0.245272 0.500000 0.267776
O O4 0.365504 0.586309 0.215072
O O5 0.178868 0.706921 0.729344
O O6 0.945786 0.828982 0.540266
O O7 0.338999 0.841103 0.280755
O O8 0.178843 0.000000 0.109863
O O9 0.070247 0.878831 0.863624
O O10 0.000000 0.861586 0.000000
O O11 0.578950 0.719624 0.485545
O O12 0.464844 0.702023 0.164886
O O13 0.714825 0.148805 0.077404
O O14 0.500000 0.234576 0.000000
O O15 0.067374 0.000000 0.708981
#
# Coordination Sequence:
#
# PCOD9152958 Si02
#       8
#     2   2   2   4   4   4   4   2
#     4  10  21  39  64  87 118 147 183 224 288 358
#     4  10  21  39  62  88 116 152 178 229 285 353
#     4   8  19  36  56  77 108 148 198 245 276 320
#     4  10  22  37  53  82 123 162 195 231 288 349
#     4  11  21  38  59  90 118 143 188 240 288 347
#     4  10  22  37  57  83 114 152 193 243 284 329
#     4   9  18  37  57  79 114 152 198 246 280 326
#     4  12  19  35  60  86 118 154 186 239 291 340
#
# _framework density 18.340319000000001
#
# number of rings (size 3 to 8) (size 9 to 14) (size 15 to 20)
#    1.000    1.000    3.333    1.000    0.000    4.333 
#    0.000    1.667    0.000    3.000    0.000    0.000 
#    0.000    0.000    0.000    0.000    0.000    0.000 
#
# Total GULP energy -133676.124644 kJ/mol
# GULP energy per Si atom -5569.838527 kJ/mol
# Density = 1.829858 g / cm^3
# Si number density = 18.340319 Si / 1000 Ang^3
#
#
#
# Elastic Constant Matrix: (Units=GPa)
#
#
# Indices 1 2 3 4 5 6 
#
# 1 61.6190 4.2097 1.5405 0.0000 -12.5912 0.0000
# 2 4.2097 27.7122 17.9420 0.0000 -11.4609 0.0000
# 3 1.5405 17.9420 85.8446 0.0000 -14.3783 0.0000
# 4 0.0000 0.0000 0.0000 17.1814 0.0000 -3.8591
# 5 -12.5912 -11.4609 -14.3783 0.0000 29.6902 0.0000
# 6 0.0000 0.0000 0.0000 -3.8591 0.0000 0.5605
#
#
#
# Elastic Compliance Matrix: (Units=1/GPa)
#
#
# Indices 1 2 3 4 5 6 
#
# 1 0.017852 -0.000054 0.001040 0.000000 0.008053 0.000000
# 2 -0.000054 0.046857 -0.007364 0.000000 0.014498 0.000000
# 3 0.001040 -0.007364 0.013894 0.000000 0.004327 0.000000
# 4 0.000000 0.000000 0.000000 -0.106482 0.000000 -0.733205
# 5 0.008053 0.014498 0.004327 0.000000 0.044789 0.000000
# 6 0.000000 0.000000 0.000000 -0.733205 0.000000 -3.264354
#
#
# Mechanical properties :
#
#
# Convention : Reuss Voigt Hill
#
# Bulk Modulus (GPa) = 15.18688 24.72890 19.95789
# Shear Modulus (GPa) = -1.55630 19.58532 9.01451
#
# Velocity S-wave (km/s) = -0.92218 3.27139 2.21941
# Velocity P-wave (km/s) = 2.67669 5.27086 4.18011
#
# Compressibility (1/GPa) = 0.06584630
#
# Stress axis : x y z
#
# Youngs Moduli (GPa) = 56.01573 21.34135 71.97258
#
# Poissons Ratio (x) = 0.00116 -0.07485
# Poissons Ratio (y) = 0.00305 0.53002
# Poissons Ratio (z) = -0.05825 0.15716
#
# Static dielectric constant tensor:
#      x y z
#    x 1.655670 0.000000 -0.007770 
#    y 0.000000 1.629270 0.000000 
#    z -0.007770 0.000000 1.634920 
# 
# From -- ./inp_files/51744.got.cif
#   From: 2010.05.17/outbox.cif.g08.bks.cpg/sg10_26_cif.got.tgz:51744.got - 2010.06.03 11:33:40.
