data_PCOD9152907
_publ_section_title
;
Structure prediction by ZEFSAII (Michael W. Deem and Ramdas Pophale) SiO2 
 PCOD9152907
Probable space group: P 2/M
;
_chemical_formula_sum "Si O2"
_cell_formula_units_Z 28
_cell_length_a 20.955873
_cell_length_b 7.647194
_cell_length_c 14.391788
_cell_angle_alpha 90.000000
_cell_angle_beta 146.249660
_cell_angle_gamma 90.000000
_cell_volume 1281.343128
_symmetry_space_group_name_H-M "P 2/M"
_symmetry_group_IT_number 10
_symmetry_cell_setting 'monoclinic'
loop_
_space_group_symop_operation_xyz
x,y,z
-x,y,-z
-x,-y,-z
x,-y,z
loop_
_atom_site_type_symbol
_atom_site_label
_atom_site_fract_x
_atom_site_fract_y
_atom_site_fract_z
Si Si1 0.832434 0.787967 0.357065
Si Si2 0.681321 0.701861 0.472767
Si Si3 0.866955 0.285361 0.840268
Si Si4 0.928202 0.789037 0.272936
Si Si5 0.237672 0.296642 0.091673
Si Si6 0.394742 0.702550 0.815600
Si Si7 0.489146 0.202023 0.382026
O O1 0.862273 0.737236 0.287641
O O2 0.715898 0.709956 0.253265
O O3 0.940059 0.735161 0.551958
O O4 0.825208 0.000000 0.350600
O O5 0.711855 0.500000 0.489742
O O6 0.791058 0.775575 0.660876
O O7 0.641755 0.783175 0.327453
O O8 0.573560 0.706634 0.412405
O O9 0.865697 0.500000 0.839256
O O10 0.804013 0.227720 0.858897
O O11 0.000000 0.231663 0.000000
O O12 0.926559 0.000000 0.267088
O O13 0.864700 0.720969 0.105706
O O14 0.265560 0.500000 0.137457
O O15 0.354352 0.210844 0.195775
O O16 0.427574 0.500000 0.835576
O O17 0.500000 0.783469 0.000000
O O18 0.500000 0.273394 0.500000
O O19 0.526168 0.000000 0.428883
#
# Coordination Sequence:
#
# PCOD9152907 Si02
#       7
#     4   4   4   4   4   4   4
#     4   9  20  40  62  82 113 156 195 235 287 349
#     4  10  21  39  61  82 115 157 192 239 292 340
#     4   9  19  35  56  84 116 151 191 230 281 348
#     4   9  20  39  60  85 117 151 190 238 290 340
#     4  11  22  35  60  90 116 149 191 237 288 346
#     4  10  23  39  57  86 120 150 192 248 293 336
#     4  11  23  39  59  83 117 152 191 240 285 336
#
# _framework density 21.852070000000001
#
# number of rings (size 3 to 8) (size 9 to 14) (size 15 to 20)
#    0.000    2.143    1.429    1.714    4.000    2.571 
#    0.000    1.429    0.000    2.143    0.000    0.000 
#    0.000    0.000    0.000    0.000    0.000    0.000 
#
# Total GULP energy -156424.029173 kJ/mol
# GULP energy per Si atom -5586.572470 kJ/mol
# Density = 2.180233 g / cm^3
# Si number density = 21.852070 Si / 1000 Ang^3
#
#
#
# Elastic Constant Matrix: (Units=GPa)
#
#
# Indices 1 2 3 4 5 6 
#
# 1 65.2247 -1.3086 72.2588 0.0000 4.8244 0.0000
# 2 -1.3086 44.1979 3.1131 0.0000 -5.3219 0.0000
# 3 72.2588 3.1131 185.6496 0.0000 -13.6007 0.0000
# 4 0.0000 0.0000 0.0000 16.1704 0.0000 -1.4661
# 5 4.8244 -5.3219 -13.6007 0.0000 38.9770 0.0000
# 6 0.0000 0.0000 0.0000 -1.4661 0.0000 2.3644
#
#
#
# Elastic Compliance Matrix: (Units=1/GPa)
#
#
# Indices 1 2 3 4 5 6 
#
# 1 0.029092 0.000779 -0.011897 0.000000 -0.007646 0.000000
# 2 0.000779 0.023029 -0.000478 0.000000 0.002881 0.000000
# 3 -0.011897 -0.000478 0.010394 0.000000 0.005034 0.000000
# 4 0.000000 0.000000 0.000000 0.065525 0.000000 0.040631
# 5 -0.007646 0.002881 0.005034 0.000000 0.028753 0.000000
# 6 0.000000 0.000000 0.000000 0.040631 0.000000 0.448128
#
#
# Mechanical properties :
#
#
# Convention : Reuss Voigt Hill
#
# Bulk Modulus (GPa) = 25.43041 49.24433 37.33737
# Shear Modulus (GPa) = 7.79763 26.23628 17.01695
#
# Velocity S-wave (km/s) = 1.89106 3.46877 2.79361
# Velocity P-wave (km/s) = 4.05351 6.21510 5.24683
#
# Compressibility (1/GPa) = 0.03932301
#
# Stress axis : x y z
#
# Youngs Moduli (GPa) = 34.37337 43.42323 96.21217
#
# Poissons Ratio (x) = -0.03381 1.14459
# Poissons Ratio (y) = -0.02676 0.04600
# Poissons Ratio (z) = 0.40892 0.02076
#
# Static dielectric constant tensor:
#      x y z
#    x 1.752000 0.000000 -0.022570 
#    y 0.000000 1.819890 0.000000 
#    z -0.022570 0.000000 1.799990 
# 
# From -- ./inp_files/49361.got.cif
#   From: 2010.05.17/outbox.cif.g08.bks.cpg/sg10_25_cif.got.tgz:49361.got - 2010.06.03 11:33:40.
