data_PCOD9152902
_publ_section_title
;
Structure prediction by ZEFSAII (Michael W. Deem and Ramdas Pophale) SiO2 
 PCOD9152902
Probable space group: P 2/M
;
_chemical_formula_sum "Si O2"
_cell_formula_units_Z 28
_cell_length_a 11.358668
_cell_length_b 8.021607
_cell_length_c 14.831103
_cell_angle_alpha 90.000000
_cell_angle_beta 112.873692
_cell_angle_gamma 90.000000
_cell_volume 1245.069135
_symmetry_space_group_name_H-M "P 2/M"
_symmetry_group_IT_number 10
_symmetry_cell_setting 'monoclinic'
loop_
_space_group_symop_operation_xyz
x,y,z
-x,y,-z
-x,-y,-z
x,-y,z
loop_
_atom_site_type_symbol
_atom_site_label
_atom_site_fract_x
_atom_site_fract_y
_atom_site_fract_z
Si Si1 0.399078 0.804050 0.157152
Si Si2 0.316524 0.190970 0.940102
Si Si3 0.673179 0.691502 0.255502
Si Si4 0.043463 0.300325 0.910590
Si Si5 0.216249 0.306686 0.254218
Si Si6 0.356912 0.806599 0.468713
Si Si7 0.855226 0.803340 0.454849
O O1 0.538056 0.773885 0.240530
O O2 0.294511 0.709688 0.184583
O O3 0.368995 0.000000 0.149200
O O4 0.395768 0.750875 0.051167
O O5 0.320766 0.294074 0.850238
O O6 0.170875 0.200949 0.929269
O O7 0.352850 0.000000 0.928924
O O8 0.672502 0.500000 0.282927
O O9 0.791883 0.779938 0.338291
O O10 0.067081 0.500000 0.907856
O O11 0.928036 0.253703 0.809754
O O12 0.000000 0.272068 0.000000
O O13 0.215414 0.500000 0.281747
O O14 0.288253 0.203940 0.351757
O O15 0.500000 0.732402 0.500000
O O16 0.253197 0.733659 0.508645
O O17 0.376206 0.000000 0.501900
O O18 0.000000 0.733720 0.500000
O O19 0.866513 0.000000 0.479873
#
# Coordination Sequence:
#
# PCOD9152902 Si02
#       7
#     4   4   4   4   4   4   4
#     4  11  23  41  64  93 128 166 211 259 308 372
#     4  11  24  40  63  92 125 167 215 260 307 372
#     4  12  26  42  65  93 126 166 207 258 321 380
#     4  10  21  39  60  88 129 168 204 253 314 377
#     4  11  23  38  63  95 128 165 205 255 317 376
#     4  10  22  41  65  92 124 165 212 265 321 379
#     4  10  23  44  67  93 126 167 215 268 322 380
#
# _framework density 22.488710000000001
#
# number of rings (size 3 to 8) (size 9 to 14) (size 15 to 20)
#    0.000    1.286    1.429    3.857    2.000    7.143 
#    0.000    0.000    0.000    0.000    0.000    0.000 
#    0.000    0.000    0.000    0.000    0.000    0.000 
#
# Total GULP energy -156556.703624 kJ/mol
# GULP energy per Si atom -5591.310844 kJ/mol
# Density = 2.243752 g / cm^3
# Si number density = 22.488710 Si / 1000 Ang^3
#
#
#
# Elastic Constant Matrix: (Units=GPa)
#
#
# Indices 1 2 3 4 5 6 
#
# 1 124.9422 16.5715 44.5461 0.0000 28.8767 0.0000
# 2 16.5715 21.8244 -3.4559 0.0000 -0.5493 0.0000
# 3 44.5461 -3.4559 90.6400 0.0000 21.0565 0.0000
# 4 0.0000 0.0000 0.0000 7.3693 0.0000 -10.7697
# 5 28.8767 -0.5493 21.0565 0.0000 44.7861 0.0000
# 6 0.0000 0.0000 0.0000 -10.7697 0.0000 15.2011
#
#
#
# Elastic Compliance Matrix: (Units=1/GPa)
#
#
# Indices 1 2 3 4 5 6 
#
# 1 0.012618 -0.010559 -0.005258 0.000000 -0.005793 0.000000
# 2 -0.010559 0.054938 0.006226 0.000000 0.004555 0.000000
# 3 -0.005258 0.006226 0.014649 0.000000 -0.003421 0.000000
# 4 0.000000 0.000000 0.000000 -3.833393 0.000000 -2.715903
# 5 -0.005793 0.004555 -0.003421 0.000000 0.027728 0.000000
# 6 0.000000 0.000000 0.000000 -2.715903 0.000000 -1.858393
#
#
# Mechanical properties :
#
#
# Convention : Reuss Voigt Hill
#
# Bulk Modulus (GPa) = 15.86731 39.19220 27.52976
# Shear Modulus (GPa) = -0.90226 25.45430 12.27602
#
# Velocity S-wave (km/s) = -0.63409 3.36798 2.33893
# Velocity P-wave (km/s) = 2.55634 5.70874 4.42293
#
# Compressibility (1/GPa) = 0.06302265
#
# Stress axis : x y z
#
# Youngs Moduli (GPa) = 79.25383 18.20223 68.26499
#
# Poissons Ratio (x) = 0.19220 0.35893
# Poissons Ratio (y) = 0.83685 -0.42502
# Poissons Ratio (z) = 0.41671 -0.11333
#
# Static dielectric constant tensor:
#      x y z
#    x 1.845300 0.000000 -0.015880 
#    y 0.000000 1.782810 0.000000 
#    z -0.015880 0.000000 1.815040 
# 
# From -- ./inp_files/49181.got.cif
#   From: 2010.05.17/outbox.cif.g08.bks.cpg/sg10_25_cif.got.tgz:49181.got - 2010.06.03 11:33:40.
