data_PCOD9152803
_publ_section_title
;
Structure prediction by ZEFSAII (Michael W. Deem and Ramdas Pophale) SiO2 
 PCOD9152803
Probable space group: P 2/M
;
_chemical_formula_sum "Si O2"
_cell_formula_units_Z 32
_cell_length_a 15.715786
_cell_length_b 23.623698
_cell_length_c 9.048002
_cell_angle_alpha 90.000000
_cell_angle_beta 29.719004
_cell_angle_gamma 90.000000
_cell_volume 1665.315610
_symmetry_space_group_name_H-M "P 2/M"
_symmetry_group_IT_number 10
_symmetry_cell_setting 'monoclinic'
loop_
_space_group_symop_operation_xyz
x,y,z
-x,y,-z
-x,-y,-z
x,-y,z
loop_
_atom_site_type_symbol
_atom_site_label
_atom_site_fract_x
_atom_site_fract_y
_atom_site_fract_z
Si Si1 0.675364 0.763438 0.649272
Si Si2 0.571791 0.934999 0.651058
Si Si3 0.777151 0.934999 0.651058
Si Si4 0.017562 0.432827 0.645726
Si Si5 0.336712 0.567173 0.645726
Si Si6 0.674974 0.371840 0.650052
Si Si7 0.661510 0.176698 0.353814
Si Si8 0.984676 0.176698 0.353814
O O1 0.689310 0.695847 0.621381
O O2 0.669663 0.789321 0.494554
O O3 0.835783 0.789321 0.494554
O O4 0.500000 0.778822 0.000000
O O5 0.688887 0.930103 0.622225
O O6 0.631322 0.888697 0.445212
O O7 0.583121 0.000000 0.582681
O O8 0.376901 0.923971 0.000000
O O9 0.923466 0.888696 0.445212
O O10 0.834198 0.000000 0.582681
O O11 0.058190 0.500000 0.593052
O O12 0.165525 0.398040 0.502623
O O13 0.000000 0.417796 0.500000
O O14 0.837236 0.423767 1.000000
O O15 0.500000 0.582204 0.500000
O O16 0.348758 0.500000 0.593052
O O17 0.331852 0.601960 0.502624
O O18 0.500000 0.386232 0.000000
O O19 0.500000 0.195565 0.500000
O O20 0.836329 0.183032 0.000000
O O21 0.000000 0.195565 0.500000
#
# Coordination Sequence:
#
# PCOD9152803 Si02
#       8
#     4   4   4   4   4   4   4   4
#     4  11  25  46  65  86 120 158 203 257 306 357
#     4   9  18  35  61  90 122 158 193 239 300 361
#     4   9  18  35  61  90 122 158 193 239 300 361
#     4  10  21  38  62  93 129 166 203 247 298 353
#     4  10  21  38  62  93 129 166 203 247 298 353
#     4  11  24  40  63  91 121 162 205 250 304 359
#     4  12  25  41  64  91 119 158 202 249 304 362
#     4  12  25  41  64  91 119 158 202 249 304 362
#
# _framework density 19.215575999999999
#
# number of rings (size 3 to 8) (size 9 to 14) (size 15 to 20)
#    0.000    1.500    1.250    4.875    0.000    7.000 
#    0.000    1.250    0.000    0.000    0.000    0.000 
#    0.000    0.000    0.000    0.000    0.000    0.000 
#
# Total GULP energy -178997.778170 kJ/mol
# GULP energy per Si atom -5593.680568 kJ/mol
# Density = 1.917184 g / cm^3
# Si number density = 19.215576 Si / 1000 Ang^3
#
#
#
# Elastic Constant Matrix: (Units=GPa)
#
#
# Indices 1 2 3 4 5 6 
#
# 1 170.2633 73.7331 104.9462 0.0000 0.3324 0.0000
# 2 73.7331 68.7592 77.4751 0.0000 0.1255 0.0000
# 3 104.9462 77.4751 164.6123 0.0000 -0.5220 0.0000
# 4 0.0000 0.0000 0.0000 31.2620 0.0000 1.2092
# 5 0.3324 0.1255 -0.5220 0.0000 37.5852 0.0000
# 6 0.0000 0.0000 0.0000 1.2092 0.0000 -4.7871
#
#
#
# Elastic Compliance Matrix: (Units=1/GPa)
#
#
# Indices 1 2 3 4 5 6 
#
# 1 0.011764 -0.008864 -0.003328 0.000000 -0.000121 0.000000
# 2 -0.008864 0.037647 -0.012068 0.000000 -0.000215 0.000000
# 3 -0.003328 -0.012068 0.013877 0.000000 0.000262 0.000000
# 4 0.000000 0.000000 0.000000 0.031678 0.000000 0.008002
# 5 -0.000121 -0.000215 0.000262 0.000000 0.026612 0.000000
# 6 0.000000 0.000000 0.000000 0.008002 0.000000 -0.206875
#
#
# Mechanical properties :
#
#
# Convention : Reuss Voigt Hill
#
# Bulk Modulus (GPa) = 67.71768 101.77152 84.74460
# Shear Modulus (GPa) = -156.97209 22.64405 -67.16402
#
# Velocity S-wave (km/s) = -9.04806 3.43654 -5.91851
# Velocity P-wave (km/s) = 8.59296 8.29605 1.58344
#
# Compressibility (1/GPa) = 0.01476719
#
# Stress axis : x y z
#
# Youngs Moduli (GPa) = 85.00820 26.56221 72.05992
#
# Poissons Ratio (x) = 0.23546 0.23982
# Poissons Ratio (y) = 0.75355 0.86963
# Poissons Ratio (z) = 0.28291 0.32056
#
# Static dielectric constant tensor:
#      x y z
#    x 1.652920 0.000000 -0.000530 
#    y 0.000000 1.657090 0.000000 
#    z -0.000530 0.000000 1.637130 
# 
# From -- ./inp_files/30587.got.cif
#   From: 2010.05.17/outbox.cif.g08.bks.cpg/sg10_16_cif.got.tgz:30587.got - 2010.06.03 11:33:40.
