data_PCOD9152931
_publ_section_title
;
Structure prediction by ZEFSAII (Michael W. Deem and Ramdas Pophale) SiO2 
 PCOD9152931
Probable space group: P 2/M
;
_chemical_formula_sum "Si O2"
_cell_formula_units_Z 32
_cell_length_a 7.901523
_cell_length_b 13.155285
_cell_length_c 26.989430
_cell_angle_alpha 90.000000
_cell_angle_beta 36.812768
_cell_angle_gamma 90.000000
_cell_volume 1681.040019
_symmetry_space_group_name_H-M "P 2/M"
_symmetry_group_IT_number 10
_symmetry_cell_setting 'monoclinic'
loop_
_space_group_symop_operation_xyz
x,y,z
-x,y,-z
-x,-y,-z
x,-y,z
loop_
_atom_site_type_symbol
_atom_site_label
_atom_site_fract_x
_atom_site_fract_y
_atom_site_fract_z
Si Si1 0.505281 0.619314 0.303248
Si Si2 0.746758 0.117376 0.519395
Si Si3 0.283203 0.276245 0.654031
Si Si4 0.716799 0.223755 0.845968
Si Si5 0.253241 0.617376 0.980606
Si Si6 0.973279 0.746865 0.131992
Si Si7 0.505285 0.119314 0.803247
Si Si8 0.973283 0.246865 0.631991
O O1 0.505114 0.500000 0.293388
O O2 0.557854 0.642393 0.349024
O O3 0.755444 0.674514 0.213469
O O4 0.218039 0.673341 0.352942
O O5 0.480929 0.177360 0.603665
O O6 0.000000 0.120319 0.500000
O O7 0.851468 0.176922 0.446463
O O8 0.680358 0.000000 0.524289
O O9 1.000000 0.250001 0.750000
O O10 0.178996 0.300998 0.623238
O O11 0.557858 0.142393 0.849023
O O12 0.821008 0.199002 0.876761
O O13 0.519070 0.322640 0.896336
O O14 0.319641 0.500000 0.975711
O O15 0.148529 0.676922 0.053538
O O16 0.000000 0.620320 0.000000
O O17 0.781957 0.826659 0.147059
O O18 0.755448 0.174514 0.713468
O O19 0.505118 0.000000 0.793387
#
# Coordination Sequence:
#
# PCOD9152931 Si02
#       8
#     4   4   4   4   4   4   4   4
#     4  10  21  39  61  88 125 164 202 250 309 367
#     4  11  22  39  66  95 124 159 204 259 313 359
#     4  10  22  39  59  89 126 159 201 249 303 368
#     4  10  22  39  59  89 126 159 201 249 303 368
#     4  11  22  39  66  95 124 159 204 259 313 359
#     4  10  21  39  62  92 123 159 205 257 305 362
#     4  10  21  39  61  88 125 164 202 250 309 367
#     4  10  21  39  62  92 123 159 205 257 305 362
#
# _framework density 19.035834999999999
#
# number of rings (size 3 to 8) (size 9 to 14) (size 15 to 20)
#    0.000    1.750    2.500    1.500    0.000    7.000 
#    0.000    2.500    0.000    3.000    0.000    0.000 
#    0.000    0.000    0.000    0.000    0.000    0.000 
#
# Total GULP energy -178633.773798 kJ/mol
# GULP energy per Si atom -5582.305431 kJ/mol
# Density = 1.899251 g / cm^3
# Si number density = 19.035835 Si / 1000 Ang^3
#
#
#
# Elastic Constant Matrix: (Units=GPa)
#
#
# Indices 1 2 3 4 5 6 
#
# 1 119.5840 52.1605 31.7587 0.0000 -2.8840 0.0000
# 2 52.1605 113.3145 36.6431 0.0000 -6.5057 0.0000
# 3 31.7587 36.6431 89.3493 0.0000 -3.9004 0.0000
# 4 0.0000 0.0000 0.0000 18.0434 0.0000 7.3737
# 5 -2.8840 -6.5057 -3.9004 0.0000 29.6914 0.0000
# 6 0.0000 0.0000 0.0000 7.3737 0.0000 10.5594
#
#
#
# Elastic Compliance Matrix: (Units=1/GPa)
#
#
# Indices 1 2 3 4 5 6 
#
# 1 0.010787 -0.004304 -0.002077 0.000000 -0.000168 0.000000
# 2 -0.004304 0.011976 -0.003305 0.000000 0.001772 0.000000
# 3 -0.002077 -0.003305 0.013321 0.000000 0.000824 0.000000
# 4 0.000000 0.000000 0.000000 0.077554 0.000000 -0.054157
# 5 -0.000168 0.001772 0.000824 0.000000 0.034160 0.000000
# 6 0.000000 0.000000 0.000000 -0.054157 0.000000 0.132521
#
#
# Mechanical properties :
#
#
# Convention : Reuss Voigt Hill
#
# Bulk Modulus (GPa) = 59.82566 62.59691 61.21129
# Shear Modulus (GPa) = 16.37945 25.10454 20.74199
#
# Velocity S-wave (km/s) = 2.93653 3.63547 3.30453
# Velocity P-wave (km/s) = 6.55696 7.11177 6.84000
#
# Compressibility (1/GPa) = 0.01671524
#
# Stress axis : x y z
#
# Youngs Moduli (GPa) = 92.70523 83.49801 75.06741
#
# Poissons Ratio (x) = 0.35933 0.15588
# Poissons Ratio (y) = 0.39896 0.24807
# Poissons Ratio (z) = 0.19251 0.27593
#
# Static dielectric constant tensor:
#      x y z
#    x 1.710710 0.000000 0.003330 
#    y 0.000000 1.662960 0.000000 
#    z 0.003330 0.000000 1.654280 
# 
# From -- ./inp_files/94644.got.cif
#   From: 2010.05.17/outbox.cif.g08.bks.cpg/sg10_48_cif.got.tgz:94644.got - 2010.06.03 11:33:40.
