data_PCOD9152461
_publ_section_title
;
Structure prediction by ZEFSAII (Michael W. Deem and Ramdas Pophale) SiO2 
 PCOD9152461
Probable space group: P 2/M
;
_chemical_formula_sum "Si O2"
_cell_formula_units_Z 24
_cell_length_a 11.169510
_cell_length_b 11.205244
_cell_length_c 16.637925
_cell_angle_alpha 90.000000
_cell_angle_beta 146.922457
_cell_angle_gamma 90.000000
_cell_volume 1136.493895
_symmetry_space_group_name_H-M "P 2/M"
_symmetry_group_IT_number 10
_symmetry_cell_setting 'monoclinic'
loop_
_space_group_symop_operation_xyz
x,y,z
-x,y,-z
-x,-y,-z
x,-y,z
loop_
_atom_site_type_symbol
_atom_site_label
_atom_site_fract_x
_atom_site_fract_y
_atom_site_fract_z
Si Si1 0.000000 0.713103 0.000000
Si Si2 0.914001 0.140669 0.805682
Si Si3 0.131685 0.856864 0.653730
Si Si4 0.413149 0.500000 0.545877
Si Si5 0.287539 0.500000 0.936910
Si Si6 0.306900 0.500000 0.130080
Si Si7 0.930366 0.303812 0.679582
Si Si8 0.418899 0.142672 0.041340
O O1 0.127322 0.799504 0.132223
O O2 0.162742 0.620525 0.049372
O O3 0.811584 0.222603 0.679672
O O4 0.867275 0.000000 0.776000
O O5 0.174110 0.161551 0.933558
O O6 0.034760 0.785517 0.673910
O O7 0.000000 0.828633 0.500000
O O8 0.387522 0.823200 0.789300
O O9 0.114772 0.000000 0.659149
O O10 0.500000 0.500000 0.500000
O O11 0.571602 0.500000 0.713785
O O12 0.253041 0.386898 0.462315
O O13 0.121736 0.388933 0.824845
O O14 0.500000 0.500000 0.000000
O O15 0.390279 0.500000 0.084804
O O16 0.427530 0.000000 0.038431
O O17 0.500000 0.190303 0.000000
#
# Coordination Sequence:
#
# PCOD9152461 Si02
#       8
#     2   4   4   2   2   2   4   4
#     4  11  23  40  68  96 125 161 222 274 326 377
#     4  11  21  36  64  97 131 166 211 264 320 386
#     4  10  21  37  60  92 134 173 203 250 327 407
#     4  11  26  45  67  91 125 177 230 270 329 385
#     4  11  26  42  67  99 124 163 223 282 334 375
#     4  11  24  47  71  90 126 174 224 278 333 386
#     4  11  23  41  62  94 127 166 217 264 324 393
#     4   9  17  31  55  86 120 166 206 242 307 383
#
# _framework density 21.117578000000002
#
# number of rings (size 3 to 8) (size 9 to 14) (size 15 to 20)
#    0.000    1.500    3.333    1.750    4.667    2.667 
#    0.000    1.667    0.000   10.000    0.000    0.000 
#    0.000    0.000    0.000    0.000    0.000    0.000 
#
# Total GULP energy -133817.939831 kJ/mol
# GULP energy per Si atom -5575.747493 kJ/mol
# Density = 2.106951 g / cm^3
# Si number density = 21.117578 Si / 1000 Ang^3
#
#
#
# Elastic Constant Matrix: (Units=GPa)
#
#
# Indices 1 2 3 4 5 6 
#
# 1 69.0788 11.9259 0.7885 0.0000 -21.5382 0.0000
# 2 11.9259 108.4751 9.8427 0.0000 -26.4748 0.0000
# 3 0.7885 9.8427 66.5557 0.0000 -19.4014 0.0000
# 4 0.0000 0.0000 0.0000 6.2120 0.0000 -29.0782
# 5 -21.5382 -26.4748 -19.4014 0.0000 30.4056 0.0000
# 6 0.0000 0.0000 0.0000 -29.0782 0.0000 -12.9158
#
#
#
# Elastic Compliance Matrix: (Units=1/GPa)
#
#
# Indices 1 2 3 4 5 6 
#
# 1 0.020054 0.002020 0.005058 0.000000 0.019192 0.000000
# 2 0.002020 0.012037 0.002050 0.000000 0.013220 0.000000
# 3 0.005058 0.002050 0.019935 0.000000 0.018088 0.000000
# 4 0.000000 0.000000 0.000000 0.013951 0.000000 -0.031410
# 5 0.019192 0.013220 0.018088 0.000000 0.069536 0.000000
# 6 0.000000 0.000000 0.000000 -0.031410 0.000000 -0.006710
#
#
# Mechanical properties :
#
#
# Convention : Reuss Voigt Hill
#
# Bulk Modulus (GPa) = 14.22847 32.13598 23.18222
# Shear Modulus (GPa) = 37.32088 19.51052 28.41570
#
# Velocity S-wave (km/s) = 4.20848 3.04287 3.67221
# Velocity P-wave (km/s) = 5.51066 5.25320 5.38347
#
# Compressibility (1/GPa) = 0.07028163
#
# Stress axis : x y z
#
# Youngs Moduli (GPa) = 49.86644 83.07648 50.16392
#
# Poissons Ratio (x) = -0.16784 -0.25374
# Poissons Ratio (y) = -0.10075 -0.10282
# Poissons Ratio (z) = -0.25223 -0.17027
#
# Static dielectric constant tensor:
#      x y z
#    x 1.775340 0.000000 -0.018320 
#    y 0.000000 1.754160 0.000000 
#    z -0.018320 0.000000 1.812310 
# 
# From -- ./inp_files/76763.got.cif
#   From: 2010.05.17/outbox.cif.g08.bks.cpg/sg10_39_cif.got.tgz:76763.got - 2010.06.03 11:33:40.
