data_PCOD9152061
_publ_section_title
;
Structure prediction by ZEFSAII (Michael W. Deem and Ramdas Pophale) SiO2 
 PCOD9152061
Probable space group: P 2/M
;
_chemical_formula_sum "Si O2"
_cell_formula_units_Z 21
_cell_length_a 17.964168
_cell_length_b 12.646157
_cell_length_c 11.872943
_cell_angle_alpha 90.000000
_cell_angle_beta 21.706199
_cell_angle_gamma 90.000000
_cell_volume 997.577143
_symmetry_space_group_name_H-M "P 2/M"
_symmetry_group_IT_number 10
_symmetry_cell_setting 'monoclinic'
loop_
_space_group_symop_operation_xyz
x,y,z
-x,y,-z
-x,-y,-z
x,-y,z
loop_
_atom_site_type_symbol
_atom_site_label
_atom_site_fract_x
_atom_site_fract_y
_atom_site_fract_z
Si Si1 0.645066 0.614069 0.121502
Si Si2 0.307384 0.164302 0.840422
Si Si3 0.225033 0.117492 0.204980
Si Si4 0.000000 0.500000 0.500000
Si Si5 0.913926 0.121933 0.247632
Si Si6 0.545735 0.277559 0.819165
O O1 0.580646 0.500000 0.259031
O O2 0.678011 0.709013 0.161542
O O3 0.493572 0.652357 0.236281
O O4 0.854821 0.590002 0.763183
O O5 0.500000 0.129455 0.500000
O O6 0.319182 0.116883 0.948335
O O7 0.101974 0.133176 0.068045
O O8 0.000000 0.156886 0.500000
O O9 0.212229 0.000000 0.271180
O O10 0.363615 0.192949 0.081232
O O11 0.747059 0.209197 0.515032
O O12 0.836534 0.000000 0.361353
O O13 0.000000 0.139197 0.000000
O O14 0.500000 0.339845 0.000000
#
# Coordination Sequence:
#
# PCOD9152061 Si02
#       6
#     4   4   4   1   4   4
#     4   9  22  40  64  87 117 148 203 246 301 353
#     4  11  23  39  64  88 116 161 207 251 299 352
#     4  10  21  36  56  83 117 159 207 246 285 347
#     4   8  20  40  68  88 110 156 198 254 300 352
#     4  11  24  40  58  86 126 163 197 240 295 357
#     4  11  23  35  59  88 123 153 190 246 303 351
#
# _framework density 21.051003000000001
#
# number of rings (size 3 to 8) (size 9 to 14) (size 15 to 20)
#    0.571    1.143    0.000    4.571    8.000    6.857 
#    0.000    0.952    0.000    2.286    0.000    0.000 
#    0.000    0.000    0.000    0.000    0.000    0.000 
#
# Total GULP energy -116948.001516 kJ/mol
# GULP energy per Si atom -5568.952453 kJ/mol
# Density = 2.100309 g / cm^3
# Si number density = 21.051003 Si / 1000 Ang^3
#
#
#
# Elastic Constant Matrix: (Units=GPa)
#
#
# Indices 1 2 3 4 5 6 
#
# 1 51.7734 -2.2970 -2.7541 0.0000 15.0939 0.0000
# 2 -2.2970 95.5858 4.6925 0.0000 -1.2518 0.0000
# 3 -2.7541 4.6925 96.2390 0.0000 12.1373 0.0000
# 4 0.0000 0.0000 0.0000 22.0588 0.0000 -10.9246
# 5 15.0939 -1.2518 12.1373 0.0000 32.2533 0.0000
# 6 0.0000 0.0000 0.0000 -10.9246 0.0000 -41.7531
#
#
#
# Elastic Compliance Matrix: (Units=1/GPa)
#
#
# Indices 1 2 3 4 5 6 
#
# 1 0.022770 0.000296 0.002078 0.000000 -0.011426 0.000000
# 2 0.000296 0.010503 -0.000564 0.000000 0.000482 0.000000
# 3 0.002078 -0.000564 0.011132 0.000000 -0.005183 0.000000
# 4 0.000000 0.000000 0.000000 0.040133 0.000000 -0.010501
# 5 -0.011426 0.000482 -0.005183 0.000000 0.038321 0.000000
# 6 0.000000 0.000000 0.000000 -0.010501 0.000000 -0.021203
#
#
# Mechanical properties :
#
#
# Convention : Reuss Voigt Hill
#
# Bulk Modulus (GPa) = 20.82337 26.98678 23.90508
# Shear Modulus (GPa) = 43.84260 18.77560 31.30910
#
# Velocity S-wave (km/s) = 4.56859 2.98973 3.86073
# Velocity P-wave (km/s) = 6.14351 4.97649 5.59054
#
# Compressibility (1/GPa) = 0.04802296
#
# Stress axis : x y z
#
# Youngs Moduli (GPa) = 43.91782 95.21162 89.83515
#
# Poissons Ratio (x) = -0.02814 -0.18670
# Poissons Ratio (y) = -0.01298 0.05070
# Poissons Ratio (z) = -0.09127 0.05374
#
# Static dielectric constant tensor:
#      x y z
#    x 1.799530 0.000000 0.035960 
#    y 0.000000 1.799850 0.000000 
#    z 0.035960 0.000000 1.780730 
# 
# From -- ./inp_files/53882.got.cif
#   From: 2010.05.17/outbox.cif.g08.bks.cpg/sg10_27_cif.got.tgz:53882.got - 2010.06.03 11:33:40.
