data_PCOD9152119
_publ_section_title
;
Structure prediction by ZEFSAII (Michael W. Deem and Ramdas Pophale) SiO2 
 PCOD9152119
Probable space group: P 2/M
;
_chemical_formula_sum "Si O2"
_cell_formula_units_Z 32
_cell_length_a 15.807503
_cell_length_b 24.315298
_cell_length_c 9.102771
_cell_angle_alpha 90.000000
_cell_angle_beta 150.259378
_cell_angle_gamma 90.000000
_cell_volume 1735.654570
_symmetry_space_group_name_H-M "P 2/M"
_symmetry_group_IT_number 10
_symmetry_cell_setting 'monoclinic'
loop_
_space_group_symop_operation_xyz
x,y,z
-x,y,-z
-x,-y,-z
x,-y,z
loop_
_atom_site_type_symbol
_atom_site_label
_atom_site_fract_x
_atom_site_fract_y
_atom_site_fract_z
Si Si1 0.178358 0.243721 0.856717
Si Si2 0.986741 0.171745 0.146604
Si Si3 0.517256 0.436068 0.856167
Si Si4 0.222970 0.062188 0.149585
Si Si5 0.679050 0.363300 0.858100
Si Si6 0.426615 0.062188 0.149585
Si Si7 0.161089 0.436068 0.143833
Si Si8 0.659863 0.171745 0.146604
O O1 0.136883 0.209098 0.940437
O O2 0.303554 0.209098 0.940437
O O3 0.000000 0.249238 0.500000
O O4 0.252264 0.303074 0.004528
O O5 0.170799 0.172118 0.500000
O O6 0.912232 0.110061 0.034001
O O7 0.000000 0.191749 0.000000
O O8 0.573758 0.500000 0.934705
O O9 0.640167 0.397419 0.947198
O O10 0.331800 0.433445 0.500000
O O11 0.500000 0.420135 0.000000
O O12 0.306161 0.066239 0.112323
O O13 0.380610 0.069317 0.500000
O O14 0.155603 0.000000 0.064851
O O15 0.500000 0.359716 0.500000
O O16 0.807031 0.397419 0.947198
O O17 0.409249 0.000000 0.064851
O O18 0.378231 0.110061 0.965999
O O19 0.139052 0.500000 0.065295
O O20 0.000000 0.420135 0.000000
O O21 0.500000 0.191749 0.000000
#
# Coordination Sequence:
#
# PCOD9152119 Si02
#       8
#     4   4   4   4   4   4   4   4
#     4  10  24  43  58  78 112 147 187 238 283 326
#     4  11  23  40  60  83 110 146 189 233 283 336
#     4   9  18  34  56  84 117 149 183 225 272 325
#     4   9  18  34  58  87 116 145 179 224 279 337
#     4  10  21  36  58  83 109 148 191 227 273 330
#     4   9  18  34  58  87 116 145 179 224 279 337
#     4   9  18  34  56  84 117 149 183 225 272 325
#     4  11  23  40  60  83 110 146 189 233 283 336
#
# _framework density 18.436848000000001
#
# number of rings (size 3 to 8) (size 9 to 14) (size 15 to 20)
#    0.000    2.250    1.250    1.875    0.000    6.500 
#    0.000    6.250    0.000    3.750    0.000    0.000 
#    0.000    0.000    0.000    0.000    0.000    0.000 
#
# Total GULP energy -178693.674922 kJ/mol
# GULP energy per Si atom -5584.177341 kJ/mol
# Density = 1.839489 g / cm^3
# Si number density = 18.436848 Si / 1000 Ang^3
#
#
#
# Elastic Constant Matrix: (Units=GPa)
#
#
# Indices 1 2 3 4 5 6 
#
# 1 169.3572 104.4831 56.0342 0.0000 1.6670 0.0000
# 2 104.4831 130.7484 44.9354 0.0000 1.9966 0.0000
# 3 56.0342 44.9354 30.0370 0.0000 3.0043 0.0000
# 4 0.0000 0.0000 0.0000 34.2534 0.0000 -1.2177
# 5 1.6670 1.9966 3.0043 0.0000 31.7578 0.0000
# 6 0.0000 0.0000 0.0000 -1.2177 0.0000 -2.0622
#
#
#
# Elastic Compliance Matrix: (Units=1/GPa)
#
#
# Indices 1 2 3 4 5 6 
#
# 1 0.017302 -0.005558 -0.024134 0.000000 0.001724 0.000000
# 2 -0.005558 0.017577 -0.015996 0.000000 0.000700 0.000000
# 3 -0.024134 -0.015996 0.102992 0.000000 -0.007471 0.000000
# 4 0.000000 0.000000 0.000000 0.028594 0.000000 -0.016884
# 5 0.001724 0.000700 -0.007471 0.000000 0.032061 0.000000
# 6 0.000000 0.000000 0.000000 -0.016884 0.000000 -0.474950
#
#
# Mechanical properties :
#
#
# Convention : Reuss Voigt Hill
#
# Bulk Modulus (GPa) = 21.50822 82.33867 51.92345
# Shear Modulus (GPa) = -29.48982 21.10246 -4.19368
#
# Velocity S-wave (km/s) = -4.00372 3.38684 -1.50982
# Velocity P-wave (km/s) = 3.11156 7.74926 5.01843
#
# Compressibility (1/GPa) = 0.04649385
#
# Stress axis : x y z
#
# Youngs Moduli (GPa) = 57.79703 56.89374 9.70949
#
# Poissons Ratio (x) = 0.31622 0.23433
# Poissons Ratio (y) = 0.32124 0.15531
# Poissons Ratio (z) = 1.39489 0.91007
#
# Static dielectric constant tensor:
#      x y z
#    x 1.638430 0.000000 0.000840 
#    y 0.000000 1.607690 0.000000 
#    z 0.000840 0.000000 1.613360 
# 
# From -- ./inp_files/30622.got.cif
#   From: 2010.05.17/outbox.cif.g08.bks.cpg/sg10_16_cif.got.tgz:30622.got - 2010.06.03 11:33:40.
