data_PCOD9152345
_publ_section_title
;
Structure prediction by ZEFSAII (Michael W. Deem and Ramdas Pophale) SiO2 
 PCOD9152345
Probable space group: P 2/M
;
_chemical_formula_sum "Si O2"
_cell_formula_units_Z 24
_cell_length_a 9.179260
_cell_length_b 8.569299
_cell_length_c 31.780931
_cell_angle_alpha 90.000000
_cell_angle_beta 150.000395
_cell_angle_gamma 90.000000
_cell_volume 1249.926287
_symmetry_space_group_name_H-M "P 2/M"
_symmetry_group_IT_number 10
_symmetry_cell_setting 'monoclinic'
loop_
_space_group_symop_operation_xyz
x,y,z
-x,y,-z
-x,-y,-z
x,-y,z
loop_
_atom_site_type_symbol
_atom_site_label
_atom_site_fract_x
_atom_site_fract_y
_atom_site_fract_z
Si Si1 0.836360 0.688612 0.084930
Si Si2 0.166520 0.187246 0.748958
Si Si3 0.838733 0.188806 0.416768
Si Si4 0.164017 0.811511 0.248913
Si Si5 0.822918 0.688810 0.914076
Si Si6 0.837561 0.312903 0.584658
O O1 0.838110 0.500000 0.086415
O O2 0.998865 0.749690 0.166728
O O3 0.004607 0.737983 0.084746
O O4 0.500000 0.740235 0.000000
O O5 0.497643 0.245811 0.832720
O O6 0.998406 0.239451 0.749129
O O7 0.002036 0.249481 0.666757
O O8 0.164321 0.000000 0.747278
O O9 0.501273 0.238401 0.333104
O O10 0.000000 0.236930 0.500000
O O11 0.001906 0.254110 0.416979
O O12 0.846302 0.000000 0.416685
O O13 0.159609 0.000000 0.246938
O O14 0.807239 0.500000 0.910199
O O15 0.000000 0.736970 0.000000
O O16 0.500000 0.261481 0.500000
O O17 0.844872 0.500000 0.587396
#
# Coordination Sequence:
#
# PCOD9152345 Si02
#       6
#     4   4   4   4   4   4
#     4  10  21  37  58  83 111 148 190 231 281 337
#     4  11  23  39  60  85 115 152 193 236 285 341
#     4  10  21  39  62  86 115 151 190 232 281 339
#     4  10  22  38  57  84 114 147 188 233 281 333
#     4  10  21  38  60  86 117 152 191 236 286 341
#     4  11  24  40  59  86 118 151 190 236 286 341
#
# _framework density 19.201132000000001
#
# number of rings (size 3 to 8) (size 9 to 14) (size 15 to 20)
#    0.000    1.667    0.000    4.000    0.000   10.333 
#    0.000    0.000    0.000    0.000    0.000    0.000 
#    0.000    0.000    0.000    0.000    0.000    0.000 
#
# Total GULP energy -134195.638450 kJ/mol
# GULP energy per Si atom -5591.484935 kJ/mol
# Density = 1.915743 g / cm^3
# Si number density = 19.201132 Si / 1000 Ang^3
#
#
#
# Elastic Constant Matrix: (Units=GPa)
#
#
# Indices 1 2 3 4 5 6 
#
# 1 244.2182 41.1221 150.4988 0.0000 0.3627 0.0000
# 2 41.1221 15.5207 39.7430 0.0000 1.1274 0.0000
# 3 150.4988 39.7430 243.4450 0.0000 0.4614 -0.0001
# 4 0.0000 0.0000 0.0000 63.3369 0.0000 -24.3130
# 5 0.3627 1.1274 0.4614 0.0000 46.5983 0.0000
# 6 0.0000 0.0000 -0.0001 -24.3130 0.0000 32.9411
#
#
#
# Elastic Compliance Matrix: (Units=1/GPa)
#
#
# Indices 1 2 3 4 5 6 
#
# 1 0.008280 -0.015212 -0.002636 0.000000 0.000330 0.000000
# 2 -0.015212 0.138950 -0.013274 0.000000 -0.003112 0.000000
# 3 -0.002636 -0.013274 0.007904 0.000000 0.000263 0.000000
# 4 0.000000 0.000000 0.000000 0.022030 0.000000 0.016260
# 5 0.000330 -0.003112 0.000263 0.000000 0.021530 0.000000
# 6 0.000000 0.000000 0.000000 0.016260 0.000000 0.042358
#
#
# Mechanical properties :
#
#
# Convention : Reuss Voigt Hill
#
# Bulk Modulus (GPa) = 10.76543 107.32352 59.04447
# Shear Modulus (GPa) = 14.95842 46.69661 30.82752
#
# Velocity S-wave (km/s) = 2.79415 4.93685 4.01122
# Velocity P-wave (km/s) = 4.00357 9.40810 7.22983
#
# Compressibility (1/GPa) = 0.09288997
#
# Stress axis : x y z
#
# Youngs Moduli (GPa) = 120.77142 7.19683 126.52202
#
# Poissons Ratio (x) = 0.10948 0.33351
# Poissons Ratio (y) = 1.83720 1.67942
# Poissons Ratio (z) = 0.31835 0.09553
#
# Static dielectric constant tensor:
#      x y z
#    x 1.639410 0.000000 0.009910 
#    y 0.000000 1.659690 0.000000 
#    z 0.009910 0.000000 1.626360 
# 
# From -- ./inp_files/60291.got.cif
#   From: 2010.05.17/outbox.cif.g08.bks.cpg/sg10_31_cif.got.tgz:60291.got - 2010.06.03 11:33:40.
