data_PCOD9152667
_publ_section_title
;
Structure prediction by ZEFSAII (Michael W. Deem and Ramdas Pophale) SiO2 
 PCOD9152667
Probable space group: P 2/M
;
_chemical_formula_sum "Si O2"
_cell_formula_units_Z 32
_cell_length_a 22.139303
_cell_length_b 14.104726
_cell_length_c 15.905266
_cell_angle_alpha 90.000000
_cell_angle_beta 19.451726
_cell_angle_gamma 90.000000
_cell_volume 1653.979437
_symmetry_space_group_name_H-M "P 2/M"
_symmetry_group_IT_number 10
_symmetry_cell_setting 'monoclinic'
loop_
_space_group_symop_operation_xyz
x,y,z
-x,y,-z
-x,-y,-z
x,-y,z
loop_
_atom_site_type_symbol
_atom_site_label
_atom_site_fract_x
_atom_site_fract_y
_atom_site_fract_z
Si Si1 0.372330 0.786000 0.933792
Si Si2 0.937769 0.114257 0.947598
Si Si3 0.034433 0.611194 0.751757
Si Si4 0.015302 0.213996 0.290908
Si Si5 0.672048 0.384907 0.327905
Si Si6 0.291528 0.114253 0.593905
Si Si7 0.319858 0.888325 0.180092
Si Si8 0.606932 0.388802 0.606792
O O1 0.524320 0.839694 0.679030
O O2 0.449090 0.680004 0.844702
O O3 0.183983 0.784815 0.132023
O O4 0.351992 0.839197 0.048578
O O5 0.931271 0.160289 0.865270
O O6 0.127877 0.138926 0.744295
O O7 0.933577 0.000000 0.945639
O O8 0.777981 0.141973 0.221974
O O9 0.014671 0.500000 0.756126
O O10 0.215959 0.622336 0.568074
O O11 0.036845 0.680016 0.669248
O O12 0.861633 0.640042 0.035690
O O13 0.846831 0.160782 0.553851
O O14 0.500000 0.349690 0.500000
O O15 0.665991 0.500000 0.333961
O O16 0.656487 0.359979 0.446079
O O17 0.308004 0.000000 0.571291
O O18 0.283034 0.000000 0.216904
O O19 0.500000 0.878941 0.000000
O O20 0.556371 0.500000 0.672741
#
# Coordination Sequence:
#
# PCOD9152667 Si02
#       8
#     4   4   4   4   4   4   4   4
#     4  12  25  39  61  92 126 160 200 254 315 369
#     4   9  19  37  60  86 119 160 204 249 300 363
#     4  10  21  38  60  86 120 165 213 255 299 360
#     4  12  25  39  61  92 126 160 200 254 315 369
#     4   9  17  31  53  83 120 159 200 251 307 357
#     4   9  19  37  60  86 119 160 204 249 300 363
#     4  11  25  47  72  93 118 157 207 258 306 365
#     4  10  21  38  60  86 120 165 213 255 299 360
#
# _framework density 19.347277999999999
#
# number of rings (size 3 to 8) (size 9 to 14) (size 15 to 20)
#    0.000    1.750    0.000    5.250    1.750    8.000 
#    0.000    1.875    0.000    3.750    0.000    0.000 
#    0.000    0.000    0.000    0.000    0.000    0.000 
#
# Total GULP energy -178950.499038 kJ/mol
# GULP energy per Si atom -5592.203095 kJ/mol
# Density = 1.930324 g / cm^3
# Si number density = 19.347278 Si / 1000 Ang^3
#
#
#
# Elastic Constant Matrix: (Units=GPa)
#
#
# Indices 1 2 3 4 5 6 
#
# 1 158.2978 77.5542 45.6240 0.0000 13.3348 0.0000
# 2 77.5542 126.8328 81.8600 0.0000 7.0791 0.0000
# 3 45.6240 81.8600 161.4432 0.0000 -7.0771 0.0000
# 4 0.0000 0.0000 0.0000 27.6783 0.0000 5.1282
# 5 13.3348 7.0791 -7.0771 0.0000 29.8196 0.0000
# 6 0.0000 0.0000 0.0000 5.1282 0.0000 24.2251
#
#
#
# Elastic Compliance Matrix: (Units=1/GPa)
#
#
# Indices 1 2 3 4 5 6 
#
# 1 0.009250 -0.005549 0.000077 0.000000 -0.002801 0.000000
# 2 -0.005549 0.015604 -0.006465 0.000000 -0.002757 0.000000
# 3 0.000077 -0.006465 0.009616 0.000000 0.003782 0.000000
# 4 0.000000 0.000000 0.000000 0.037604 0.000000 -0.007961
# 5 -0.002801 -0.002757 0.003782 0.000000 0.036340 0.000000
# 6 0.000000 0.000000 0.000000 -0.007961 0.000000 0.042965
#
#
# Mechanical properties :
#
#
# Convention : Reuss Voigt Hill
#
# Bulk Modulus (GPa) = 94.37613 95.18337 94.77975
# Shear Modulus (GPa) = 27.96673 32.44694 30.20684
#
# Velocity S-wave (km/s) = 3.80611 4.09966 3.95561
# Velocity P-wave (km/s) = 8.25841 8.46839 8.36406
#
# Compressibility (1/GPa) = 0.01059590
#
# Stress axis : x y z
#
# Youngs Moduli (GPa) = 108.11199 64.08681 103.99292
#
# Poissons Ratio (x) = 0.35564 -0.00801
# Poissons Ratio (y) = 0.59994 0.67227
# Poissons Ratio (z) = -0.00833 0.41429
#
# Static dielectric constant tensor:
#      x y z
#    x 1.641900 0.000000 -0.000760 
#    y 0.000000 1.710470 0.000000 
#    z -0.000760 0.000000 1.641360 
# 
# From -- ./inp_files/70766.got.cif
#   From: 2010.05.17/outbox.cif.g08.bks.cpg/sg10_36_cif.got.tgz:70766.got - 2010.06.03 11:33:40.
