data_PCOD9152060
_publ_section_title
;
Structure prediction by ZEFSAII (Michael W. Deem and Ramdas Pophale) SiO2 
 PCOD9152060
Probable space group: P 2/M
;
_chemical_formula_sum "Si O2"
_cell_formula_units_Z 32
_cell_length_a 28.747507
_cell_length_b 8.929622
_cell_length_c 12.295081
_cell_angle_alpha 90.000000
_cell_angle_beta 30.204520
_cell_angle_gamma 90.000000
_cell_volume 1587.847266
_symmetry_space_group_name_H-M "P 2/M"
_symmetry_group_IT_number 10
_symmetry_cell_setting 'monoclinic'
loop_
_space_group_symop_operation_xyz
x,y,z
-x,y,-z
-x,-y,-z
x,-y,z
loop_
_atom_site_type_symbol
_atom_site_label
_atom_site_fract_x
_atom_site_fract_y
_atom_site_fract_z
Si Si1 0.304054 0.319246 0.637889
Si Si2 0.822027 0.822608 0.605335
Si Si3 0.030122 0.678643 0.562072
Si Si4 0.893170 0.821250 0.014241
Si Si5 0.136834 0.672757 0.700005
Si Si6 0.606106 0.176348 0.993997
Si Si7 0.529993 0.319754 0.557922
Si Si8 0.358747 0.329130 0.295016
O O1 0.286347 0.500000 0.670610
O O2 0.208559 0.232193 0.819323
O O3 0.365609 0.280585 0.617622
O O4 0.366066 0.283739 0.405748
O O5 0.868036 0.736537 0.612660
O O6 0.870720 0.763636 0.396419
O O7 0.712900 0.793455 0.812393
O O8 0.836228 0.000000 0.586690
O O9 0.024514 0.500000 0.588224
O O10 0.000000 0.713709 0.500000
O O11 0.963453 0.759735 0.782643
O O12 0.908128 0.747030 0.102912
O O13 0.897589 0.000000 0.014559
O O14 0.108384 0.500000 0.743754
O O15 0.247485 0.672968 0.500799
O O16 0.596654 0.230792 0.888789
O O17 0.590313 0.000000 0.031871
O O18 0.539536 0.259772 0.211056
O O19 0.500000 0.265013 0.500000
O O20 0.525432 0.500000 0.567989
O O21 0.389974 0.500000 0.218970
#
# Coordination Sequence:
#
# PCOD9152060 Si02
#       8
#     4   4   4   4   4   4   4   4
#     4   9  19  37  59  84 114 148 187 232 281 333
#     4  10  21  38  60  88 120 151 186 232 288 342
#     4  11  25  43  61  82 110 149 198 243 281 333
#     4  11  22  37  60  88 118 150 184 231 291 346
#     4   9  17  33  58  87 118 151 188 228 275 337
#     4  10  21  36  56  83 116 148 179 226 283 337
#     4  10  22  39  58  80 108 147 196 240 275 325
#     4   8  15  30  54  81 110 144 181 223 272 331
#
# _framework density 20.153072000000002
#
# number of rings (size 3 to 8) (size 9 to 14) (size 15 to 20)
#    0.000    2.250    0.000    3.375    0.000    8.250 
#    0.000    8.750    0.000    0.000    0.000    0.000 
#    0.000    0.000    0.000    0.000    0.000    0.000 
#
# Total GULP energy -178808.632737 kJ/mol
# GULP energy per Si atom -5587.769773 kJ/mol
# Density = 2.010720 g / cm^3
# Si number density = 20.153072 Si / 1000 Ang^3
#
#
#
# Elastic Constant Matrix: (Units=GPa)
#
#
# Indices 1 2 3 4 5 6 
#
# 1 103.8096 23.3228 2.6533 0.0000 1.2744 0.0000
# 2 23.3228 49.8748 13.4766 0.0000 -0.6794 0.0000
# 3 2.6533 13.4766 46.3914 0.0000 -1.6120 0.0000
# 4 0.0000 0.0000 0.0000 -6.4229 0.0000 -23.5503
# 5 1.2744 -0.6794 -1.6120 0.0000 17.7745 0.0000
# 6 0.0000 0.0000 0.0000 -23.5503 0.0000 1.2870
#
#
#
# Elastic Compliance Matrix: (Units=1/GPa)
#
#
# Indices 1 2 3 4 5 6 
#
# 1 0.010814 -0.005311 0.000893 0.000000 -0.000897 0.000000
# 2 -0.005311 0.024367 -0.006751 0.000000 0.000700 0.000000
# 3 0.000893 -0.006751 0.023529 0.000000 0.001812 0.000000
# 4 0.000000 0.000000 0.000000 -0.002286 0.000000 -0.041839
# 5 -0.000897 0.000700 0.001812 0.000000 0.056516 0.000000
# 6 0.000000 0.000000 0.000000 -0.041839 0.000000 0.011411
#
#
# Mechanical properties :
#
#
# Convention : Reuss Voigt Hill
#
# Bulk Modulus (GPa) = 27.49226 30.99791 29.24509
# Shear Modulus (GPa) = 31.48396 13.23593 22.35995
#
# Velocity S-wave (km/s) = 3.95681 2.56553 3.33454
# Velocity P-wave (km/s) = 5.87762 4.91839 5.41927
#
# Compressibility (1/GPa) = 0.03637387
#
# Stress axis : x y z
#
# Youngs Moduli (GPa) = 92.46982 41.03882 42.50140
#
# Poissons Ratio (x) = 0.21794 -0.03795
# Poissons Ratio (y) = 0.49107 0.28691
# Poissons Ratio (z) = -0.08258 0.27704
#
# Static dielectric constant tensor:
#      x y z
#    x 1.750930 0.000000 -0.039330 
#    y 0.000000 1.667090 0.000000 
#    z -0.039330 0.000000 1.708260 
# 
# From -- ./inp_files/58113.got.cif
#   From: 2010.05.17/outbox.cif.g08.bks.cpg/sg10_30_cif.got.tgz:58113.got - 2010.06.03 11:33:40.
