data_PCOD9152483
_publ_section_title
;
Structure prediction by ZEFSAII (Michael W. Deem and Ramdas Pophale) SiO2 
 PCOD9152483
Probable space group: P 2/M
;
_chemical_formula_sum "Si O2"
_cell_formula_units_Z 26
_cell_length_a 14.123682
_cell_length_b 7.511789
_cell_length_c 12.227392
_cell_angle_alpha 90.000000
_cell_angle_beta 115.474898
_cell_angle_gamma 90.000000
_cell_volume 1171.127282
_symmetry_space_group_name_H-M "P 2/M"
_symmetry_group_IT_number 10
_symmetry_cell_setting 'monoclinic'
loop_
_space_group_symop_operation_xyz
x,y,z
-x,y,-z
-x,-y,-z
x,-y,z
loop_
_atom_site_type_symbol
_atom_site_label
_atom_site_fract_x
_atom_site_fract_y
_atom_site_fract_z
Si Si1 0.179833 0.286905 0.872890
Si Si2 0.986957 0.716646 0.617783
Si Si3 0.577525 0.795844 0.368932
Si Si4 0.772317 0.292070 0.613741
Si Si5 0.742688 0.000000 0.944437
Si Si6 0.596356 0.284892 0.123778
Si Si7 0.349380 0.703729 0.238048
O O1 0.178147 0.500000 0.893550
O O2 0.291699 0.237340 0.872966
O O3 0.087176 0.244767 0.742128
O O4 0.176123 0.159109 0.974857
O O5 0.979494 0.500000 0.608502
O O6 0.879607 0.783634 0.619199
O O7 0.000000 0.779838 0.500000
O O8 0.679309 0.721205 0.479690
O O9 0.590832 0.780374 0.245016
O O10 0.467431 0.704843 0.342319
O O11 0.568947 0.000000 0.397827
O O12 0.791044 0.500000 0.644637
O O13 0.728902 0.223074 0.707488
O O14 0.660136 0.157209 0.863685
O O15 0.590957 0.500000 0.125813
O O16 0.500000 0.223482 0.000000
O O17 0.325131 0.500000 0.194099
#
# Coordination Sequence:
#
# PCOD9152483 Si02
#       7
#     4   4   4   4   2   4   4
#     4  10  22  41  66  96 132 171 214 267 320 378
#     4   9  18  39  70  99 128 166 213 262 318 383
#     4  12  24  37  62  97 132 169 211 264 324 387
#     4  10  22  41  66  93 126 170 216 263 322 384
#     4  12  24  42  66  92 127 170 220 266 319 380
#     4  10  21  37  61  91 128 172 211 253 314 381
#     4  11  24  43  65  92 128 170 216 267 320 382
#
# _framework density 22.200828999999999
#
# number of rings (size 3 to 8) (size 9 to 14) (size 15 to 20)
#    0.000    1.538    0.769    4.154    2.154    5.846 
#    1.385    1.923    0.000    3.692    0.000    0.000 
#    0.000    0.000    0.000    0.000    0.000    0.000 
#
# Total GULP energy -144849.146402 kJ/mol
# GULP energy per Si atom -5571.121015 kJ/mol
# Density = 2.215030 g / cm^3
# Si number density = 22.200829 Si / 1000 Ang^3
#
#
#
# Elastic Constant Matrix: (Units=GPa)
#
#
# Indices 1 2 3 4 5 6 
#
# 1 127.0891 18.8659 41.8267 0.0000 18.7068 0.0000
# 2 18.8659 97.5867 9.7921 0.0000 6.3150 0.0000
# 3 41.8267 9.7921 74.8042 0.0000 29.3034 0.0000
# 4 0.0000 0.0000 0.0000 69.1253 0.0000 -0.7600
# 5 18.7068 6.3150 29.3034 0.0000 35.8372 0.0000
# 6 0.0000 0.0000 0.0000 -0.7600 0.0000 -3.0330
#
#
#
# Elastic Compliance Matrix: (Units=1/GPa)
#
#
# Indices 1 2 3 4 5 6 
#
# 1 0.009835 -0.001347 -0.005009 0.000000 -0.000800 0.000000
# 2 -0.001347 0.010595 -0.000262 0.000000 -0.000950 0.000000
# 3 -0.005009 -0.000262 0.022306 0.000000 -0.015578 0.000000
# 4 0.000000 0.000000 0.000000 0.014427 0.000000 -0.003615
# 5 -0.000800 -0.000950 -0.015578 0.000000 0.041227 0.000000
# 6 0.000000 0.000000 0.000000 -0.003615 0.000000 -0.328806
#
#
# Mechanical properties :
#
#
# Convention : Reuss Voigt Hill
#
# Bulk Modulus (GPa) = 33.89777 48.93881 41.41829
# Shear Modulus (GPa) = -24.11428 35.65226 5.76899
#
# Velocity S-wave (km/s) = -3.29931 4.01171 1.61375
# Velocity P-wave (km/s) = 0.88763 6.59924 4.70839
#
# Compressibility (1/GPa) = 0.02950047
#
# Stress axis : x y z
#
# Youngs Moduli (GPa) = 101.67887 94.38038 44.83102
#
# Poissons Ratio (x) = 0.12712 0.22457
# Poissons Ratio (y) = 0.13695 0.01173
# Poissons Ratio (z) = 0.50934 0.02470
#
# Static dielectric constant tensor:
#      x y z
#    x 1.853720 0.000000 -0.040030 
#    y 0.000000 1.839010 0.000000 
#    z -0.040030 0.000000 1.839670 
# 
# From -- ./inp_files/49479.got.cif
#   From: 2010.05.17/outbox.cif.g08.bks.cpg/sg10_25_cif.got.tgz:49479.got - 2010.06.03 11:33:40.
