data_PCOD9152080
_publ_section_title
;
Structure prediction by ZEFSAII (Michael W. Deem and Ramdas Pophale) SiO2 
 PCOD9152080
Probable space group: P 2/M
;
_chemical_formula_sum "Si O2"
_cell_formula_units_Z 32
_cell_length_a 11.534778
_cell_length_b 14.122666
_cell_length_c 17.314647
_cell_angle_alpha 90.000000
_cell_angle_beta 146.673368
_cell_angle_gamma 90.000000
_cell_volume 1549.662496
_symmetry_space_group_name_H-M "P 2/M"
_symmetry_group_IT_number 10
_symmetry_cell_setting 'monoclinic'
loop_
_space_group_symop_operation_xyz
x,y,z
-x,y,-z
-x,-y,-z
x,-y,z
loop_
_atom_site_type_symbol
_atom_site_label
_atom_site_fract_x
_atom_site_fract_y
_atom_site_fract_z
Si Si1 0.154447 0.111920 0.309345
Si Si2 0.694943 0.785837 0.459957
Si Si3 0.667309 0.113507 0.030639
Si Si4 0.482194 0.613456 0.082612
Si Si5 0.340164 0.708520 0.340566
Si Si6 0.343623 0.888310 0.724270
Si Si7 0.099786 0.720975 0.638163
Si Si8 0.938474 0.613382 0.054120
O O1 0.275528 0.138087 0.455522
O O2 0.254910 0.184525 0.304935
O O3 0.907906 0.140906 0.176340
O O4 0.170701 0.000000 0.301371
O O5 0.494468 0.717864 0.354095
O O6 0.676635 0.842421 0.370505
O O7 0.900730 0.718975 0.583256
O O8 0.668818 0.000000 0.041198
O O9 0.500000 0.151708 0.000000
O O10 0.566098 0.130881 0.890399
O O11 0.491334 0.500000 0.095559
O O12 0.693256 0.661048 0.232962
O O13 0.500000 0.633089 0.000000
O O14 0.273660 0.645228 0.016054
O O15 0.500000 0.685292 0.500000
O O16 0.141916 0.642008 0.218130
O O17 0.169783 0.831390 0.676311
O O18 0.305803 0.000000 0.703011
O O19 0.000000 0.696576 0.500000
O O20 0.919767 0.500000 0.038396
O O21 0.000000 0.647164 0.000000
#
# Coordination Sequence:
#
# PCOD9152080 Si02
#       8
#     4   4   4   4   4   4   4   4
#     4  10  21  37  56  85 122 166 216 261 314 376
#     4  10  22  37  56  87 123 172 211 258 317 376
#     4   9  18  32  51  77 109 149 200 258 310 359
#     4  10  24  45  71 101 130 164 211 266 329 392
#     4  10  24  40  62  91 127 167 214 264 320 379
#     4  10  21  36  56  87 123 164 213 261 315 376
#     4  10  23  37  61  92 128 167 209 261 327 379
#     4  10  24  46  73 100 128 169 215 261 325 395
#
# _framework density 20.649657999999999
#
# number of rings (size 3 to 8) (size 9 to 14) (size 15 to 20)
#    0.000    2.125    0.000    1.125    8.750    7.500 
#    0.000    0.625    0.000    2.625    0.000    0.000 
#    0.000    0.000    0.000    0.000    0.000    0.000 
#
# Total GULP energy -178348.213696 kJ/mol
# GULP energy per Si atom -5573.381678 kJ/mol
# Density = 2.060266 g / cm^3
# Si number density = 20.649658 Si / 1000 Ang^3
#
#
#
# Elastic Constant Matrix: (Units=GPa)
#
#
# Indices 1 2 3 4 5 6 
#
# 1 94.3487 24.6007 50.9852 0.0000 24.1506 0.0000
# 2 24.6007 39.0416 24.7152 0.0000 6.0530 0.0000
# 3 50.9852 24.7152 141.0170 0.0000 18.5157 0.0000
# 4 0.0000 0.0000 0.0000 17.2953 0.0000 -2.5573
# 5 24.1506 6.0530 18.5157 0.0000 30.7518 0.0000
# 6 0.0000 0.0000 0.0000 -2.5573 0.0000 -3.1811
#
#
#
# Elastic Compliance Matrix: (Units=1/GPa)
#
#
# Indices 1 2 3 4 5 6 
#
# 1 0.016802 -0.006800 -0.003612 0.000000 -0.009682 0.000000
# 2 -0.006800 0.031795 -0.003250 0.000000 0.001039 0.000000
# 3 -0.003612 -0.003250 0.009241 0.000000 -0.002088 0.000000
# 4 0.000000 0.000000 0.000000 0.051676 0.000000 -0.041544
# 5 -0.009682 0.001039 -0.002088 0.000000 0.041175 0.000000
# 6 0.000000 0.000000 0.000000 -0.041544 0.000000 -0.280963
#
#
# Mechanical properties :
#
#
# Convention : Reuss Voigt Hill
#
# Bulk Modulus (GPa) = 32.77167 52.77883 42.77525
# Shear Modulus (GPa) = -53.89196 20.58028 -16.65584
#
# Velocity S-wave (km/s) = -5.11419 3.16039 -2.84314
# Velocity P-wave (km/s) = 4.35527 6.23956 3.15940
#
# Compressibility (1/GPa) = 0.03051416
#
# Stress axis : x y z
#
# Youngs Moduli (GPa) = 59.51615 31.45154 108.21308
#
# Poissons Ratio (x) = 0.21386 0.39085
# Poissons Ratio (y) = 0.40469 0.35174
# Poissons Ratio (z) = 0.21496 0.10223
#
# Static dielectric constant tensor:
#      x y z
#    x 2.304100 0.000000 0.018710 
#    y 0.000000 1.714930 0.000000 
#    z 0.018710 0.000000 1.757420 
# 
# From -- ./inp_files/77061.got.cif
#   From: 2010.05.17/outbox.cif.g08.bks.cpg/sg10_39_cif.got.tgz:77061.got - 2010.06.03 11:33:40.
