data_PCOD9152503
_publ_section_title
;
Structure prediction by ZEFSAII (Michael W. Deem and Ramdas Pophale) SiO2 
 PCOD9152503
Probable space group: P 2/M
;
_chemical_formula_sum "Si O2"
_cell_formula_units_Z 28
_cell_length_a 10.285180
_cell_length_b 8.044361
_cell_length_c 25.954200
_cell_angle_alpha 90.000000
_cell_angle_beta 140.234810
_cell_angle_gamma 90.000000
_cell_volume 1373.563111
_symmetry_space_group_name_H-M "P 2/M"
_symmetry_group_IT_number 10
_symmetry_cell_setting 'monoclinic'
loop_
_space_group_symop_operation_xyz
x,y,z
-x,y,-z
-x,-y,-z
x,-y,z
loop_
_atom_site_type_symbol
_atom_site_label
_atom_site_fract_x
_atom_site_fract_y
_atom_site_fract_z
Si Si1 0.473638 0.298482 0.433336
Si Si2 0.329823 0.305922 0.801908
Si Si3 0.945991 0.190141 0.745657
Si Si4 0.510287 0.703514 0.748184
Si Si5 0.767664 0.703014 0.432843
Si Si6 0.033758 0.307756 0.134863
Si Si7 0.402192 0.194194 0.024157
O O1 0.500000 0.242360 0.500000
O O2 0.466421 0.500000 0.431013
O O3 0.264960 0.235387 0.345354
O O4 0.657717 0.246908 0.452177
O O5 0.278736 0.500000 0.780182
O O6 0.412908 0.243683 0.772538
O O7 0.500687 0.285726 0.897769
O O8 0.129881 0.217173 0.762278
O O9 0.977388 0.297574 0.806522
O O10 0.944331 0.000000 0.762646
O O11 0.514723 0.500000 0.748753
O O12 0.371950 0.756224 0.657789
O O13 0.743956 0.757722 0.813179
O O14 0.770536 0.500000 0.432754
O O15 0.000000 0.759854 0.500000
O O16 0.018742 0.500000 0.114223
O O17 0.839213 0.214874 0.053071
O O18 0.456881 0.000000 0.045560
O O19 0.500000 0.255497 0.000000
#
# Coordination Sequence:
#
# PCOD9152503 Si02
#       7
#     4   4   4   4   4   4   4
#     4  10  21  37  62  93 119 153 204 252 295 351
#     4  11  23  39  63  91 119 156 205 252 298 353
#     4  12  24  39  59  87 125 165 201 244 300 358
#     4   9  20  37  59  90 122 153 197 253 303 351
#     4   9  17  32  57  89 123 151 187 245 303 345
#     4  11  21  39  66  90 117 156 204 251 297 353
#     4  11  23  39  59  88 126 159 196 244 303 362
#
# _framework density 20.384938999999999
#
# number of rings (size 3 to 8) (size 9 to 14) (size 15 to 20)
#    0.000    1.571    2.857    2.571    2.000    1.429 
#    0.000    5.714    0.000    0.429    0.000    0.000 
#    0.000    0.000    0.000    0.000    0.000    0.000 
#
# Total GULP energy -156513.078796 kJ/mol
# GULP energy per Si atom -5589.752814 kJ/mol
# Density = 2.033854 g / cm^3
# Si number density = 20.384939 Si / 1000 Ang^3
#
#
#
# Elastic Constant Matrix: (Units=GPa)
#
#
# Indices 1 2 3 4 5 6 
#
# 1 156.5876 -0.8280 60.5787 0.0000 12.3222 0.0000
# 2 -0.8280 23.0977 -2.9459 0.0000 -0.8737 0.0000
# 3 60.5787 -2.9459 106.8198 0.0000 23.3554 0.0000
# 4 0.0000 0.0000 0.0000 41.4779 0.0000 27.9871
# 5 12.3222 -0.8737 23.3554 0.0000 38.6419 0.0000
# 6 0.0000 0.0000 0.0000 27.9871 0.0000 5.3663
#
#
#
# Elastic Compliance Matrix: (Units=1/GPa)
#
#
# Indices 1 2 3 4 5 6 
#
# 1 0.008185 -0.000297 -0.004699 0.000000 0.000223 0.000000
# 2 -0.000297 0.043461 0.001304 0.000000 0.000289 0.000000
# 3 -0.004699 0.001304 0.013514 0.000000 -0.006640 0.000000
# 4 0.000000 0.000000 0.000000 -0.009571 0.000000 0.049915
# 5 0.000223 0.000289 -0.006640 0.000000 0.029827 0.000000
# 6 0.000000 0.000000 0.000000 0.049915 0.000000 -0.073976
#
#
# Mechanical properties :
#
#
# Convention : Reuss Voigt Hill
#
# Bulk Modulus (GPa) = 17.30835 44.45718 30.88276
# Shear Modulus (GPa) = 131.29145 32.41058 81.85101
#
# Velocity S-wave (km/s) = 8.03405 3.99172 6.34349
# Velocity P-wave (km/s) = 9.72473 6.56515 8.29674
#
# Compressibility (1/GPa) = 0.05777559
#
# Stress axis : x y z
#
# Youngs Moduli (GPa) = 122.17703 23.00913 73.99717
#
# Poissons Ratio (x) = 0.00684 0.34769
# Poissons Ratio (y) = 0.03634 -0.09649
# Poissons Ratio (z) = 0.57408 -0.03000
#
# Static dielectric constant tensor:
#      x y z
#    x 1.707060 0.000000 0.005100 
#    y 0.000000 1.708250 0.000000 
#    z 0.005100 0.000000 1.679130 
# 
# From -- ./inp_files/92100.got.cif
#   From: 2010.05.17/outbox.cif.g08.bks.cpg/sg10_47_cif.got.tgz:92100.got - 2010.06.03 11:33:40.
