data_PCOD9152475
_publ_section_title
;
Structure prediction by ZEFSAII (Michael W. Deem and Ramdas Pophale) SiO2 
 PCOD9152475
Probable space group: P 2/M
;
_chemical_formula_sum "Si O2"
_cell_formula_units_Z 32
_cell_length_a 11.999043
_cell_length_b 8.345790
_cell_length_c 15.407237
_cell_angle_alpha 90.000000
_cell_angle_beta 87.418218
_cell_angle_gamma 90.000000
_cell_volume 1541.337582
_symmetry_space_group_name_H-M "P 2/M"
_symmetry_group_IT_number 10
_symmetry_cell_setting 'monoclinic'
loop_
_space_group_symop_operation_xyz
x,y,z
-x,y,-z
-x,-y,-z
x,-y,z
loop_
_atom_site_type_symbol
_atom_site_label
_atom_site_fract_x
_atom_site_fract_y
_atom_site_fract_z
Si Si1 0.113418 0.807556 0.192187
Si Si2 0.584889 0.809146 0.421027
Si Si3 0.921387 0.194187 0.080812
Si Si4 0.332747 0.689181 0.105453
Si Si5 0.073085 0.810188 0.385187
Si Si6 0.332056 0.191269 0.917726
Si Si7 0.837051 0.686620 0.439212
Si Si8 0.492535 0.310397 0.762928
O O1 0.204040 0.726077 0.128245
O O2 0.125224 0.763742 0.291655
O O3 0.989182 0.767601 0.164960
O O4 0.126854 0.000000 0.182533
O O5 0.500000 0.750600 0.500000
O O6 0.710957 0.741981 0.424920
O O7 0.535556 0.769312 0.327780
O O8 0.593558 0.000000 0.429917
O O9 0.795622 0.250680 0.082563
O O10 0.914896 0.000000 0.073232
O O11 0.000000 0.251046 0.000000
O O12 0.352745 0.500000 0.096017
O O13 0.397500 0.747703 0.189255
O O14 0.369608 0.770937 0.014665
O O15 0.131820 0.717057 0.461103
O O16 0.939912 0.777342 0.388875
O O17 0.089078 0.000000 0.399028
O O18 0.399219 0.275724 0.838942
O O19 0.337528 0.000000 0.903804
O O20 0.846479 0.500000 0.418154
O O21 0.501902 0.500000 0.747014
#
# Coordination Sequence:
#
# PCOD9152475 Si02
#       8
#     4   4   4   4   4   4   4   4
#     4  10  21  37  61  90 122 162 209 259 310 367
#     4  11  26  47  70  95 123 161 213 268 317 379
#     4   9  17  34  58  87 121 156 197 249 304 355
#     4  11  24  41  61  89 130 170 209 262 320 376
#     4  10  21  38  64  95 127 165 212 263 310 370
#     4  11  22  39  67  94 123 167 216 262 310 373
#     4  11  23  41  65  92 128 166 204 255 322 386
#     4  11  26  45  64  92 127 166 208 260 325 381
#
# _framework density 20.761189000000002
#
# number of rings (size 3 to 8) (size 9 to 14) (size 15 to 20)
#    0.000    1.500    1.250    4.125    3.500    5.500 
#    0.000    1.875    0.000    0.000    0.000    0.000 
#    0.000    0.000    0.000    0.000    0.000    0.000 
#
# Total GULP energy -178761.935818 kJ/mol
# GULP energy per Si atom -5586.310494 kJ/mol
# Density = 2.071394 g / cm^3
# Si number density = 20.761189 Si / 1000 Ang^3
#
#
#
# Elastic Constant Matrix: (Units=GPa)
#
#
# Indices 1 2 3 4 5 6 
#
# 1 92.9788 -4.2900 20.9788 0.0000 15.9751 0.0000
# 2 -4.2900 16.4311 -5.5682 0.0000 3.8610 0.0000
# 3 20.9788 -5.5682 93.7887 0.0000 0.7291 0.0000
# 4 0.0000 0.0000 0.0000 295.3042 0.0000 -188.7241
# 5 15.9751 3.8610 0.7291 0.0000 27.8560 0.0000
# 6 0.0000 0.0000 0.0000 -188.7241 0.0000 181.5759
#
#
#
# Elastic Compliance Matrix: (Units=1/GPa)
#
#
# Indices 1 2 3 4 5 6 
#
# 1 0.012898 0.004363 -0.002564 0.000000 -0.007935 0.000000
# 2 0.004363 0.065771 0.003020 0.000000 -0.011697 0.000000
# 3 -0.002564 0.003020 0.011409 0.000000 0.000753 0.000000
# 4 0.000000 0.000000 0.000000 0.010086 0.000000 0.010483
# 5 -0.007935 -0.011697 0.000753 0.000000 0.042051 0.000000
# 6 0.000000 0.000000 0.000000 0.010483 0.000000 0.016403
#
#
# Mechanical properties :
#
#
# Convention : Reuss Voigt Hill
#
# Bulk Modulus (GPa) = 10.02851 25.04888 17.53869
# Shear Modulus (GPa) = 27.43938 113.75243 70.59590
#
# Velocity S-wave (km/s) = 3.63942 7.41012 5.83760
# Velocity P-wave (km/s) = 4.74356 9.23605 7.34186
#
# Compressibility (1/GPa) = 0.09971566
#
# Stress axis : x y z
#
# Youngs Moduli (GPa) = 77.52937 15.20424 87.64777
#
# Poissons Ratio (x) = -0.06634 0.22476
# Poissons Ratio (y) = -0.33826 -0.26468
# Poissons Ratio (z) = 0.19882 -0.04591
#
# Static dielectric constant tensor:
#      x y z
#    x 1.750810 0.000000 0.013570 
#    y 0.000000 1.716180 0.000000 
#    z 0.013570 0.000000 1.732650 
# 
# From -- ./inp_files/63760.got.cif
#   From: 2010.05.17/outbox.cif.g08.bks.cpg/sg10_32_cif.got.tgz:63760.got - 2010.06.03 11:33:40.
