data_PCOD9152084
_publ_section_title
;
Structure prediction by ZEFSAII (Michael W. Deem and Ramdas Pophale) SiO2 
 PCOD9152084
Probable space group: P 2/M
;
_chemical_formula_sum "Si O2"
_cell_formula_units_Z 30
_cell_length_a 17.913753
_cell_length_b 14.386216
_cell_length_c 11.067110
_cell_angle_alpha 90.000000
_cell_angle_beta 148.059665
_cell_angle_gamma 90.000000
_cell_volume 1508.872340
_symmetry_space_group_name_H-M "P 2/M"
_symmetry_group_IT_number 10
_symmetry_cell_setting 'monoclinic'
loop_
_space_group_symop_operation_xyz
x,y,z
-x,y,-z
-x,-y,-z
x,-y,z
loop_
_atom_site_type_symbol
_atom_site_label
_atom_site_fract_x
_atom_site_fract_y
_atom_site_fract_z
Si Si1 0.195057 0.889603 0.624583
Si Si2 0.747602 0.241382 0.065484
Si Si3 0.000000 0.792046 0.000000
Si Si4 0.557547 0.896830 0.712678
Si Si5 0.005484 0.740887 0.272400
Si Si6 0.455386 0.393778 0.130613
Si Si7 0.271814 0.606325 0.632284
Si Si8 0.712822 0.889761 0.512828
O O1 0.237302 0.821293 0.792333
O O2 0.049043 0.845535 0.374060
O O3 0.293347 0.877785 0.640910
O O4 0.186853 0.000000 0.642226
O O5 0.889475 0.287239 0.211092
O O6 0.694873 0.165682 0.897979
O O7 0.627216 0.318721 0.906398
O O8 0.038810 0.739282 0.928772
O O9 0.856889 0.846336 0.763897
O O10 0.500000 0.903546 0.500000
O O11 0.431986 0.857508 0.624202
O O12 0.592079 0.000000 0.806555
O O13 0.143526 0.676466 0.468607
O O14 0.454497 0.500000 0.175245
O O15 0.616052 0.368131 0.317972
O O16 0.364428 0.393982 0.881404
O O17 0.223894 0.500000 0.546045
O O18 0.721637 0.000000 0.548680
#
# Coordination Sequence:
#
# PCOD9152084 Si02
#       8
#     4   4   2   4   4   4   4   4
#     4  10  22  37  55  84 122 157 193 239 293 348
#     4  12  23  35  60  90 122 150 194 243 303 344
#     4  10  21  36  57  78 116 154 204 240 284 342
#     4  10  22  38  56  83 119 163 207 243 285 341
#     4  11  23  38  57  88 115 158 198 239 291 347
#     4   9  20  37  62  91 117 148 188 238 299 360
#     4   9  19  39  63  87 117 153 191 236 295 357
#     4   9  19  36  56  79 110 157 208 246 286 339
#
# _framework density 19.882398999999999
#
# number of rings (size 3 to 8) (size 9 to 14) (size 15 to 20)
#    0.000    2.000    1.333    2.600    3.733    3.200 
#    0.000    3.667    0.000    0.400    0.000    0.000 
#    0.000    0.000    0.000    0.000    0.000    0.000 
#
# Total GULP energy -167202.526197 kJ/mol
# GULP energy per Si atom -5573.417540 kJ/mol
# Density = 1.983715 g / cm^3
# Si number density = 19.882399 Si / 1000 Ang^3
#
#
#
# Elastic Constant Matrix: (Units=GPa)
#
#
# Indices 1 2 3 4 5 6 
#
# 1 70.2576 43.8968 26.3019 0.0000 21.7143 0.0000
# 2 43.8968 92.7163 36.4229 0.0000 22.2778 0.0000
# 3 26.3019 36.4229 62.5340 0.0000 9.8462 0.0000
# 4 0.0000 0.0000 0.0000 18.4731 0.0000 7.1640
# 5 21.7143 22.2778 9.8462 0.0000 36.6925 0.0000
# 6 0.0000 0.0000 0.0000 7.1640 0.0000 7.1850
#
#
#
# Elastic Compliance Matrix: (Units=1/GPa)
#
#
# Indices 1 2 3 4 5 6 
#
# 1 0.022760 -0.007253 -0.004094 0.000000 -0.007967 0.000000
# 2 -0.007253 0.018007 -0.006674 0.000000 -0.004849 0.000000
# 3 -0.004094 -0.006674 0.021489 0.000000 0.000708 0.000000
# 4 0.000000 0.000000 0.000000 0.088261 0.000000 -0.088002
# 5 -0.007967 -0.004849 0.000708 0.000000 0.034722 0.000000
# 6 0.000000 0.000000 0.000000 -0.088002 0.000000 0.226922
#
#
# Mechanical properties :
#
#
# Convention : Reuss Voigt Hill
#
# Bulk Modulus (GPa) = 38.14778 48.75013 43.44895
# Shear Modulus (GPa) = 10.94235 20.39586 15.66910
#
# Velocity S-wave (km/s) = 2.34851 3.20632 2.81034
# Velocity P-wave (km/s) = 5.15581 6.18707 5.69483
#
# Compressibility (1/GPa) = 0.02621385
#
# Stress axis : x y z
#
# Youngs Moduli (GPa) = 43.93658 55.53520 46.53607
#
# Poissons Ratio (x) = 0.40282 0.19051
# Poissons Ratio (y) = 0.31869 0.31056
# Poissons Ratio (z) = 0.17987 0.37062
#
# Static dielectric constant tensor:
#      x y z
#    x 1.753500 0.000000 0.005930 
#    y 0.000000 1.718530 0.000000 
#    z 0.005930 0.000000 1.704970 
# 
# From -- ./inp_files/53940.got.cif
#   From: 2010.05.17/outbox.cif.g08.bks.cpg/sg10_27_cif.got.tgz:53940.got - 2010.06.03 11:33:40.
