data_PCOD9152279
_publ_section_title
;
Structure prediction by ZEFSAII (Michael W. Deem and Ramdas Pophale) SiO2 
 PCOD9152279
Probable space group: P 2/M
;
_chemical_formula_sum "Si O2"
_cell_formula_units_Z 32
_cell_length_a 24.840791
_cell_length_b 13.390380
_cell_length_c 9.382732
_cell_angle_alpha 90.000000
_cell_angle_beta 148.118864
_cell_angle_gamma 90.000000
_cell_volume 1648.360306
_symmetry_space_group_name_H-M "P 2/M"
_symmetry_group_IT_number 10
_symmetry_cell_setting 'monoclinic'
loop_
_space_group_symop_operation_xyz
x,y,z
-x,y,-z
-x,-y,-z
x,-y,z
loop_
_atom_site_type_symbol
_atom_site_label
_atom_site_fract_x
_atom_site_fract_y
_atom_site_fract_z
Si Si1 0.215597 0.740726 0.855944
Si Si2 0.199948 0.620189 0.105211
Si Si3 0.610331 0.615708 0.288268
Si Si4 0.462651 0.113960 0.077083
Si Si5 0.088790 0.751078 0.083754
Si Si6 0.028350 0.885051 0.395557
Si Si7 0.603715 0.115599 0.643049
Si Si8 0.283552 0.273991 0.706223
O O1 0.124392 0.812476 0.602839
O O2 0.252977 0.690837 0.794153
O O3 0.183883 0.669002 0.914214
O O4 0.307347 0.811077 0.114195
O O5 0.194946 0.500000 0.089481
O O6 0.313747 0.651828 0.416536
O O7 0.120868 0.663719 0.044361
O O8 0.593051 0.500000 0.282003
O O9 0.675418 0.633583 0.292913
O O10 0.500000 0.660561 0.000000
O O11 0.372501 0.190633 0.909352
O O12 0.429847 0.000000 0.039823
O O13 0.500000 0.115911 0.000000
O O14 0.563692 0.134839 0.394997
O O15 0.188671 0.770628 0.404154
O O16 0.000000 0.728652 0.000000
O O17 0.054175 0.840706 0.900804
O O18 0.000000 0.881993 0.500000
O O19 0.050516 0.000000 0.409461
O O20 0.500000 0.129186 0.500000
O O21 0.636309 0.000000 0.731107
#
# Coordination Sequence:
#
# PCOD9152279 Si02
#       8
#     4   4   4   4   4   4   4   4
#     4  12  23  39  62  89 126 164 206 255 306 370
#     4  10  24  43  66  94 123 159 209 264 316 379
#     4   9  20  40  63  88 121 160 201 252 313 369
#     4  10  22  37  56  87 124 160 206 248 297 365
#     4  11  23  44  66  91 125 161 207 261 309 371
#     4  11  24  43  65  92 127 166 208 250 305 368
#     4  10  21  37  56  85 125 167 204 246 300 364
#     4  11  23  36  62  89 123 162 204 253 305 363
#
# _framework density 19.413233000000002
#
# number of rings (size 3 to 8) (size 9 to 14) (size 15 to 20)
#    0.000    1.500    3.750    0.750    5.250    2.000 
#    0.000    1.250    0.000    2.625    0.000    0.000 
#    0.000    0.000    0.000    0.000    0.000    0.000 
#
# Total GULP energy -178454.024651 kJ/mol
# GULP energy per Si atom -5576.688270 kJ/mol
# Density = 1.936905 g / cm^3
# Si number density = 19.413233 Si / 1000 Ang^3
#
#
#
# Elastic Constant Matrix: (Units=GPa)
#
#
# Indices 1 2 3 4 5 6 
#
# 1 94.0491 15.3781 17.1183 0.0000 -21.1914 0.0000
# 2 15.3781 63.4763 9.5634 0.0000 -3.0321 0.0000
# 3 17.1183 9.5634 60.6166 0.0000 -15.4981 0.0000
# 4 0.0000 0.0000 0.0000 14.4629 0.0000 9.9977
# 5 -21.1914 -3.0321 -15.4981 0.0000 34.1817 0.0000
# 6 0.0000 0.0000 0.0000 9.9977 0.0000 -0.0818
#
#
#
# Elastic Compliance Matrix: (Units=1/GPa)
#
#
# Indices 1 2 3 4 5 6 
#
# 1 0.012920 -0.002576 -0.001417 0.000000 0.007139 0.000000
# 2 -0.002576 0.016654 -0.002184 0.000000 -0.001110 0.000000
# 3 -0.001417 -0.002184 0.019193 0.000000 0.007630 0.000000
# 4 0.000000 0.000000 0.000000 0.000809 0.000000 0.098853
# 5 0.007139 -0.001110 0.007630 0.000000 0.037042 0.000000
# 6 0.000000 0.000000 0.000000 0.098853 0.000000 -0.143004
#
#
# Mechanical properties :
#
#
# Convention : Reuss Voigt Hill
#
# Bulk Modulus (GPa) = 27.46207 33.58462 30.52335
# Shear Modulus (GPa) = -156.76569 21.45137 -67.65716
#
# Velocity S-wave (km/s) = -8.99596 3.32774 -5.90988
# Velocity P-wave (km/s) = 9.68123 5.66591 5.55084
#
# Compressibility (1/GPa) = 0.03641386
#
# Stress axis : x y z
#
# Youngs Moduli (GPa) = 77.39661 60.04596 52.10342
#
# Poissons Ratio (x) = 0.15466 0.07384
# Poissons Ratio (y) = 0.19935 0.11378
# Poissons Ratio (z) = 0.10968 0.13113
#
# Static dielectric constant tensor:
#      x y z
#    x 1.725550 0.000000 -0.024810 
#    y 0.000000 1.660660 0.000000 
#    z -0.024810 0.000000 1.716890 
# 
# From -- ./inp_files/36385.got.cif
#   From: 2010.05.17/outbox.cif.g08.bks.cpg/sg10_19_cif.got.tgz:36385.got - 2010.06.03 11:33:40.
