data_PCOD9152172
_publ_section_title
;
Structure prediction by ZEFSAII (Michael W. Deem and Ramdas Pophale) SiO2 
 PCOD9152172
Probable space group: P 2/M
;
_chemical_formula_sum "Si O2"
_cell_formula_units_Z 32
_cell_length_a 11.213185
_cell_length_b 18.680675
_cell_length_c 11.567769
_cell_angle_alpha 90.000000
_cell_angle_beta 132.897316
_cell_angle_gamma 90.000000
_cell_volume 1775.101237
_symmetry_space_group_name_H-M "P 2/M"
_symmetry_group_IT_number 10
_symmetry_cell_setting 'monoclinic'
loop_
_space_group_symop_operation_xyz
x,y,z
-x,y,-z
-x,-y,-z
x,-y,z
loop_
_atom_site_type_symbol
_atom_site_label
_atom_site_fract_x
_atom_site_fract_y
_atom_site_fract_z
Si Si1 0.130530 0.734719 0.826434
Si Si2 0.754003 0.419580 0.427623
Si Si3 0.831317 0.084356 0.459597
Si Si4 0.373534 0.806741 0.816548
Si Si5 0.533835 0.712429 0.337429
Si Si6 0.795646 0.804306 0.633035
Si Si7 0.871242 0.580632 0.243638
Si Si8 0.818932 0.251580 0.888752
O O1 0.222066 0.767617 0.778158
O O2 0.167957 0.650104 0.858293
O O3 0.938964 0.749672 0.688860
O O4 0.185396 0.772872 0.981225
O O5 0.693405 0.500000 0.408400
O O6 0.634519 0.360412 0.398441
O O7 0.779729 0.410882 0.306313
O O8 0.936108 0.415169 0.600210
O O9 0.692712 0.124683 0.294876
O O10 0.830093 0.124445 0.582586
O O11 0.000000 0.094984 0.500000
O O12 0.804438 0.000000 0.453683
O O13 0.449376 0.750915 0.776081
O O14 0.500000 0.824905 0.000000
O O15 0.627251 0.767869 0.483181
O O16 0.343536 0.702579 0.239042
O O17 0.809868 0.807458 0.781180
O O18 0.836751 0.500000 0.176806
O O19 0.000000 0.286080 0.000000
#
# Coordination Sequence:
#
# PCOD9152172 Si02
#       8
#     4   4   4   4   4   4   4   4
#     4  11  18  34  56  85 119 152 187 243 286 337
#     4   9  17  28  49  83 118 147 183 238 300 350
#     4  10  21  37  62  93 121 148 179 229 292 342
#     4  11  21  33  57  90 120 150 183 233 288 347
#     4  11  19  33  59  82 110 144 196 245 285 326
#     4  10  21  36  60  83 112 147 197 237 270 332
#     4   9  17  29  50  84 124 152 182 237 305 351
#     4  10  23  37  54  78 110 152 193 237 282 333
#
# _framework density 18.027141
#
# number of rings (size 3 to 8) (size 9 to 14) (size 15 to 20)
#    0.000    1.875    5.000    1.125    0.000    0.250 
#    0.000    0.625    0.000   21.375    0.000    0.000 
#    0.000    0.000    0.000    0.000    0.000    0.000 
#
# Total GULP energy -178267.280069 kJ/mol
# GULP energy per Si atom -5570.852502 kJ/mol
# Density = 1.798611 g / cm^3
# Si number density = 18.027141 Si / 1000 Ang^3
#
#
#
# Elastic Constant Matrix: (Units=GPa)
#
#
# Indices 1 2 3 4 5 6 
#
# 1 79.6497 31.2407 26.0773 0.0000 4.3101 0.0000
# 2 31.2407 118.8529 29.1793 0.0000 -11.2601 0.0000
# 3 26.0773 29.1793 69.3199 0.0000 -9.7028 0.0000
# 4 0.0000 0.0000 0.0000 7.8245 0.0000 4.7892
# 5 4.3101 -11.2601 -9.7028 0.0000 36.0275 0.0000
# 6 0.0000 0.0000 0.0000 4.7892 0.0000 14.7793
#
#
#
# Elastic Compliance Matrix: (Units=1/GPa)
#
#
# Indices 1 2 3 4 5 6 
#
# 1 0.015762 -0.003287 -0.005148 0.000000 -0.004299 0.000000
# 2 -0.003287 0.010201 -0.002657 0.000000 0.002866 0.000000
# 3 -0.005148 -0.002657 0.018134 0.000000 0.004669 0.000000
# 4 0.000000 0.000000 0.000000 0.159424 0.000000 -0.051661
# 5 -0.004299 0.002866 0.004669 0.000000 0.030424 0.000000
# 6 0.000000 0.000000 0.000000 -0.051661 0.000000 0.084403
#
#
# Mechanical properties :
#
#
# Convention : Reuss Voigt Hill
#
# Bulk Modulus (GPa) = 45.62933 48.97968 47.30451
# Shear Modulus (GPa) = 14.37459 23.81464 19.09461
#
# Velocity S-wave (km/s) = 2.82687 3.63856 3.25809
# Velocity P-wave (km/s) = 6.00178 6.69934 6.36013
#
# Compressibility (1/GPa) = 0.02191573
#
# Stress axis : x y z
#
# Youngs Moduli (GPa) = 63.44335 98.02584 55.14419
#
# Poissons Ratio (x) = 0.32217 0.28387
# Poissons Ratio (y) = 0.20851 0.14650
# Poissons Ratio (z) = 0.32660 0.26042
#
# Static dielectric constant tensor:
#      x y z
#    x 1.648450 0.000000 0.000230 
#    y 0.000000 1.579480 0.000000 
#    z 0.000230 0.000000 1.655450 
# 
# From -- ./inp_files/47837.got.cif
#   From: 2010.05.17/outbox.cif.g08.bks.cpg/sg10_24_cif.got.tgz:47837.got - 2010.06.03 11:33:40.
