data_PCOD9152565
_publ_section_title
;
Structure prediction by ZEFSAII (Michael W. Deem and Ramdas Pophale) SiO2 
 PCOD9152565
Probable space group: P 2/M
;
_chemical_formula_sum "Si O2"
_cell_formula_units_Z 22
_cell_length_a 12.689840
_cell_length_b 20.613322
_cell_length_c 12.781005
_cell_angle_alpha 90.000000
_cell_angle_beta 23.312343
_cell_angle_gamma 90.000000
_cell_volume 1323.069826
_symmetry_space_group_name_H-M "P 2/M"
_symmetry_group_IT_number 10
_symmetry_cell_setting 'monoclinic'
loop_
_space_group_symop_operation_xyz
x,y,z
-x,y,-z
-x,-y,-z
x,-y,z
loop_
_atom_site_type_symbol
_atom_site_label
_atom_site_fract_x
_atom_site_fract_y
_atom_site_fract_z
Si Si1 0.278489 0.869045 0.520511
Si Si2 0.906302 0.352401 0.964510
Si Si3 0.591805 0.574005 0.538795
Si Si4 0.834300 0.797186 0.042610
Si Si5 0.787604 0.000000 0.288418
Si Si6 0.296906 0.075873 0.274880
O O1 0.554788 0.835382 0.305656
O O2 0.313342 0.884975 0.367009
O O3 0.205428 0.935762 0.647185
O O4 0.026842 0.824517 0.777141
O O5 0.167456 0.375740 0.665333
O O6 0.667192 0.402061 0.164043
O O7 0.802793 0.279162 0.048777
O O8 0.000000 0.357298 0.000000
O O9 0.500000 0.575505 0.500000
O O10 0.669007 0.500000 0.491190
O O11 0.000000 0.804615 0.000000
O O12 0.500000 0.000000 0.500000
O O13 0.000000 0.000000 0.000000
O O14 0.000000 0.078660 0.500000
O O15 0.360314 0.000000 0.240255
O O16 0.500000 0.097979 0.000000
#
# Coordination Sequence:
#
# PCOD9152565 Si02
#       6
#     4   4   4   4   2   4
#     4  12  22  37  53  74  95 129 166 204 256 297
#     4   9  17  28  40  60  88 125 164 200 233 272
#     4   9  15  24  40  60  84 116 163 212 241 260
#     4  11  22  34  50  69 102 138 171 200 235 297
#     4  12  24  36  50  72 100 126 160 206 243 282
#     4  10  21  38  58  76  94 116 154 209 263 309
#
# _framework density 16.627996
#
# number of rings (size 3 to 8) (size 9 to 14) (size 15 to 20)
#    0.000    1.636    0.909    6.000    0.000    5.091 
#    0.000    0.000    0.000    0.000    0.000    0.000 
#    0.000    0.000    0.000    0.000    0.000  229.091 
#
# Total GULP energy -122715.655932 kJ/mol
# GULP energy per Si atom -5577.984361 kJ/mol
# Density = 1.659015 g / cm^3
# Si number density = 16.627996 Si / 1000 Ang^3
#
#
#
# Elastic Constant Matrix: (Units=GPa)
#
#
# Indices 1 2 3 4 5 6 
#
# 1 36.1291 15.4203 14.7451 0.0000 12.8377 0.0000
# 2 15.4203 81.8733 32.1836 0.0000 -1.2620 0.0000
# 3 14.7451 32.1836 119.8433 0.0000 5.7997 0.0000
# 4 0.0000 0.0000 0.0000 26.8228 0.0000 0.7378
# 5 12.8377 -1.2620 5.7997 0.0000 22.6970 0.0000
# 6 0.0000 0.0000 0.0000 0.7378 0.0000 2.2567
#
#
#
# Elastic Compliance Matrix: (Units=1/GPa)
#
#
# Indices 1 2 3 4 5 6 
#
# 1 0.039303 -0.007003 -0.001884 0.000000 -0.022138 0.000000
# 2 -0.007003 0.014970 -0.003433 0.000000 0.005671 0.000000
# 3 -0.001884 -0.003433 0.009574 0.000000 -0.001572 0.000000
# 4 0.000000 0.000000 0.000000 0.037620 0.000000 -0.012299
# 5 -0.022138 0.005671 -0.001572 0.000000 0.057297 0.000000
# 6 0.000000 0.000000 0.000000 -0.012299 0.000000 0.447141
#
#
# Mechanical properties :
#
#
# Convention : Reuss Voigt Hill
#
# Bulk Modulus (GPa) = 25.50561 40.28263 32.89412
# Shear Modulus (GPa) = 7.76863 22.05508 14.91186
#
# Velocity S-wave (km/s) = 2.16383 3.64590 2.99790
# Velocity P-wave (km/s) = 4.64921 6.48089 5.63990
#
# Compressibility (1/GPa) = 0.03920706
#
# Stress axis : x y z
#
# Youngs Moduli (GPa) = 25.44355 66.80104 104.45022
#
# Poissons Ratio (x) = 0.46782 0.19675
# Poissons Ratio (y) = 0.17819 0.35856
# Poissons Ratio (z) = 0.04793 0.22932
#
# Static dielectric constant tensor:
#      x y z
#    x 1.519090 0.000000 -0.001580 
#    y 0.000000 1.696710 0.000000 
#    z -0.001580 0.000000 1.563400 
# 
# From -- ./inp_files/48094.got.cif
#   From: 2010.05.17/outbox.cif.g08.bks.cpg/sg10_25_cif.got.tgz:48094.got - 2010.06.03 11:33:40.
