data_PCOD9152671
_publ_section_title
;
Structure prediction by ZEFSAII (Michael W. Deem and Ramdas Pophale) SiO2 
 PCOD9152671
Probable space group: P 2/M
;
_chemical_formula_sum "Si O2"
_cell_formula_units_Z 20
_cell_length_a 8.902700
_cell_length_b 13.582027
_cell_length_c 11.942218
_cell_angle_alpha 90.000000
_cell_angle_beta 134.231730
_cell_angle_gamma 90.000000
_cell_volume 1034.671091
_symmetry_space_group_name_H-M "P 2/M"
_symmetry_group_IT_number 10
_symmetry_cell_setting 'monoclinic'
loop_
_space_group_symop_operation_xyz
x,y,z
-x,y,-z
-x,-y,-z
x,-y,z
loop_
_atom_site_type_symbol
_atom_site_label
_atom_site_fract_x
_atom_site_fract_y
_atom_site_fract_z
Si Si1 0.604980 0.196497 0.434290
Si Si2 0.107240 0.389390 0.434652
Si Si3 0.104391 0.000000 0.923470
Si Si4 0.770609 0.798704 0.935957
Si Si5 0.879497 0.000000 0.558645
Si Si6 0.727519 0.607585 0.060806
O O1 0.500000 0.187716 0.500000
O O2 0.734884 0.298455 0.496081
O O3 0.414849 0.194967 0.248771
O O4 0.748238 0.101204 0.488604
O O5 0.202570 0.500000 0.473491
O O6 0.000000 0.383095 0.500000
O O7 0.917073 0.383006 0.247496
O O8 0.981176 0.000000 0.739390
O O9 0.000000 0.000000 0.000000
O O10 0.229876 0.102014 0.990833
O O11 0.740008 0.699596 0.987572
O O12 0.000000 0.793037 0.000000
O O13 0.000000 0.000000 0.500000
O O14 0.748923 0.500000 0.016150
O O15 0.500000 0.609192 0.000000
#
# Coordination Sequence:
#
# PCOD9152671 Si02
#       6
#     4   4   2   4   2   4
#     4  12  24  41  65  92 126 167 212 262 322 383
#     4  10  21  39  62  90 125 164 209 262 319 379
#     4  10  21  42  66  89 124 163 204 254 313 374
#     4  11  23  40  62  89 121 161 207 255 309 373
#     4  12  26  44  67  97 131 167 213 266 324 386
#     4  10  21  38  60  87 121 161 203 251 309 370
#
# _framework density 19.329815
#
# number of rings (size 3 to 8) (size 9 to 14) (size 15 to 20)
#    0.000    1.200    0.000    7.500    0.000    4.800 
#    0.000    1.500    0.000    0.000    0.000    0.000 
#    0.000    0.000    0.000    0.000    0.000    0.000 
#
# Total GULP energy -111571.168821 kJ/mol
# GULP energy per Si atom -5578.558441 kJ/mol
# Density = 1.928582 g / cm^3
# Si number density = 19.329815 Si / 1000 Ang^3
#
#
#
# Elastic Constant Matrix: (Units=GPa)
#
#
# Indices 1 2 3 4 5 6 
#
# 1 96.1292 93.5504 52.2186 0.0000 -0.5779 0.0000
# 2 93.5504 238.4312 105.5507 0.0000 3.3624 0.0000
# 3 52.2186 105.5507 176.3335 0.0000 -0.2248 0.0000
# 4 0.0000 0.0000 0.0000 23.4731 0.0000 -15.1722
# 5 -0.5779 3.3624 -0.2248 0.0000 33.4080 0.0000
# 6 0.0000 0.0000 0.0000 -15.1722 0.0000 26.1957
#
#
#
# Elastic Compliance Matrix: (Units=1/GPa)
#
#
# Indices 1 2 3 4 5 6 
#
# 1 0.017114 -0.006101 -0.001415 0.000000 0.000901 0.000000
# 2 -0.006101 0.007893 -0.002919 0.000000 -0.000920 0.000000
# 3 -0.001415 -0.002919 0.007838 0.000000 0.000322 0.000000
# 4 0.000000 0.000000 0.000000 0.068094 0.000000 0.039439
# 5 0.000901 -0.000920 0.000322 0.000000 0.030043 0.000000
# 6 0.000000 0.000000 0.000000 0.039439 0.000000 0.061017
#
#
# Mechanical properties :
#
#
# Convention : Reuss Voigt Hill
#
# Bulk Modulus (GPa) = 83.50904 112.61483 98.06193
# Shear Modulus (GPa) = 23.05620 33.92030 28.48825
#
# Velocity S-wave (km/s) = 3.45741 4.19360 3.84317
# Velocity P-wave (km/s) = 7.69638 9.04624 8.39847
#
# Compressibility (1/GPa) = 0.01197475
#
# Stress axis : x y z
#
# Youngs Moduli (GPa) = 58.43093 126.69150 127.58657
#
# Poissons Ratio (x) = 0.77298 0.18052
# Poissons Ratio (y) = 0.35650 0.37244
# Poissons Ratio (z) = 0.08267 0.36983
#
# Static dielectric constant tensor:
#      x y z
#    x 1.666550 0.000000 -0.022680 
#    y 0.000000 1.680440 0.000000 
#    z -0.022680 0.000000 1.630240 
# 
# From -- ./inp_files/42172.got.cif
#   From: 2010.05.17/outbox.cif.g08.bks.cpg/sg10_22_cif.got.tgz:42172.got - 2010.06.03 11:33:40.
