data_PCOD9152566
_publ_section_title
;
Structure prediction by ZEFSAII (Michael W. Deem and Ramdas Pophale) SiO2 
 PCOD9152566
Probable space group: P 2/M
;
_chemical_formula_sum "Si O2"
_cell_formula_units_Z 32
_cell_length_a 23.992329
_cell_length_b 8.964380
_cell_length_c 17.770794
_cell_angle_alpha 90.000000
_cell_angle_beta 148.524887
_cell_angle_gamma 90.000000
_cell_volume 1995.614347
_symmetry_space_group_name_H-M "P 2/M"
_symmetry_group_IT_number 10
_symmetry_cell_setting 'monoclinic'
loop_
_space_group_symop_operation_xyz
x,y,z
-x,y,-z
-x,-y,-z
x,-y,z
loop_
_atom_site_type_symbol
_atom_site_label
_atom_site_fract_x
_atom_site_fract_y
_atom_site_fract_z
Si Si1 0.745842 0.322560 0.161830
Si Si2 0.917578 0.822052 0.253847
Si Si3 0.703358 0.178239 0.398032
Si Si4 0.818703 0.322976 0.663664
Si Si5 0.042888 0.178972 0.873902
Si Si6 0.142218 0.321866 0.548775
Si Si7 0.521900 0.178556 0.938288
Si Si8 0.873686 0.171848 0.875688
O O1 0.746464 0.500000 0.151162
O O2 0.815340 0.242933 0.178135
O O3 0.802461 0.291612 0.307424
O O4 0.626068 0.261410 0.028620
O O5 0.917096 0.791231 0.163811
O O6 0.024152 0.746135 0.409418
O O7 0.923920 0.000000 0.271506
O O8 0.729593 0.247333 0.509101
O O9 0.786501 0.248085 0.434326
O O10 0.584389 0.210398 0.231740
O O11 0.718591 0.000000 0.417251
O O12 0.814498 0.500000 0.652946
O O13 0.815526 0.270934 0.746759
O O14 0.932002 0.263240 0.761564
O O15 0.022491 0.000000 0.857362
O O16 0.125158 0.218257 0.035610
O O17 0.137391 0.500000 0.532057
O O18 0.540679 0.000000 0.958428
O O19 0.500000 0.220845 0.000000
O O20 0.838440 0.000000 0.828153
O O21 0.000000 0.175567 0.000000
#
# Coordination Sequence:
#
# PCOD9152566 Si02
#       8
#     4   4   4   4   4   4   4   4
#     4  11  24  38  53  74 105 138 172 216 264 309
#     4  11  22  35  54  76 103 140 180 214 250 302
#     4  11  21  34  54  76 101 135 173 214 259 305
#     4  11  20  29  46  74 106 135 167 208 252 307
#     4   9  18  32  49  71 100 137 173 208 251 301
#     4  11  22  35  51  75 105 137 172 212 260 308
#     4  10  21  38  58  77  97 128 176 223 258 303
#     4   8  15  29  47  67  98 135 169 204 247 302
#
# _framework density 16.035163000000001
#
# number of rings (size 3 to 8) (size 9 to 14) (size 15 to 20)
#    0.000    1.750    2.500    3.750    0.000    7.000 
#    0.000    0.000    0.000    0.000    0.000    0.875 
#    0.000    7.000    0.000    0.000    0.000    0.000 
#
# Total GULP energy -178643.807562 kJ/mol
# GULP energy per Si atom -5582.618986 kJ/mol
# Density = 1.599867 g / cm^3
# Si number density = 16.035163 Si / 1000 Ang^3
#
#
#
# Elastic Constant Matrix: (Units=GPa)
#
#
# Indices 1 2 3 4 5 6 
#
# 1 57.0921 43.0448 58.4735 0.0000 0.1064 0.0000
# 2 43.0448 66.6781 61.2152 0.0000 -9.0816 0.0000
# 3 58.4735 61.2152 108.9337 0.0000 -13.2188 0.0000
# 4 0.0000 0.0000 0.0000 15.5446 0.0000 -9.8974
# 5 0.1064 -9.0816 -13.2188 0.0000 27.6791 0.0000
# 6 0.0000 0.0000 0.0000 -9.8974 0.0000 -2.1561
#
#
#
# Elastic Compliance Matrix: (Units=1/GPa)
#
#
# Indices 1 2 3 4 5 6 
#
# 1 0.049517 -0.016379 -0.019161 0.000000 -0.014715 0.000000
# 2 -0.016379 0.036499 -0.010889 0.000000 0.006838 0.000000
# 3 -0.019161 -0.010889 0.026707 0.000000 0.009256 0.000000
# 4 0.000000 0.000000 0.000000 0.016399 0.000000 -0.075280
# 5 -0.014715 0.006838 0.009256 0.000000 0.042849 0.000000
# 6 0.000000 0.000000 0.000000 -0.075280 0.000000 -0.118234
#
#
# Mechanical properties :
#
#
# Convention : Reuss Voigt Hill
#
# Bulk Modulus (GPa) = 50.33934 62.01900 56.17917
# Shear Modulus (GPa) = 32.63320 12.87822 22.75571
#
# Velocity S-wave (km/s) = 4.51611 2.83702 3.77120
# Velocity P-wave (km/s) = 7.65865 7.03508 7.35348
#
# Compressibility (1/GPa) = 0.01986518
#
# Stress axis : x y z
#
# Youngs Moduli (GPa) = 20.19519 27.39770 37.44277
#
# Poissons Ratio (x) = 0.44875 0.71744
# Poissons Ratio (y) = 0.33078 0.40772
# Poissons Ratio (z) = 0.38696 0.29833
#
# Static dielectric constant tensor:
#      x y z
#    x 1.528020 0.000000 -0.032950 
#    y 0.000000 1.532210 0.000000 
#    z -0.032950 0.000000 1.530140 
# 
# From -- ./inp_files/56464.got.cif
#   From: 2010.05.17/outbox.cif.g08.bks.cpg/sg10_29_cif.got.tgz:56464.got - 2010.06.03 11:33:40.
