data_PCOD9152226
_publ_section_title
;
Structure prediction by ZEFSAII (Michael W. Deem and Ramdas Pophale) SiO2 
 PCOD9152226
Probable space group: P 2/M
;
_chemical_formula_sum "Si O2"
_cell_formula_units_Z 32
_cell_length_a 22.535826
_cell_length_b 7.696159
_cell_length_c 29.044972
_cell_angle_alpha 90.000000
_cell_angle_beta 18.283989
_cell_angle_gamma 90.000000
_cell_volume 1580.412855
_symmetry_space_group_name_H-M "P 2/M"
_symmetry_group_IT_number 10
_symmetry_cell_setting 'monoclinic'
loop_
_space_group_symop_operation_xyz
x,y,z
-x,y,-z
-x,-y,-z
x,-y,z
loop_
_atom_site_type_symbol
_atom_site_label
_atom_site_fract_x
_atom_site_fract_y
_atom_site_fract_z
Si Si1 0.013572 0.790956 0.542173
Si Si2 0.325376 0.792607 0.382941
Si Si3 0.833497 0.700020 0.327382
Si Si4 0.709874 0.788510 0.140291
Si Si5 0.870162 0.703001 0.198323
Si Si6 0.026700 0.289556 0.680720
Si Si7 0.572351 0.799429 0.341953
Si Si8 0.285563 0.290619 0.160183
O O1 0.194937 0.723411 0.437506
O O2 0.000000 0.725041 0.500000
O O3 0.829099 0.752963 0.708946
O O4 0.031454 0.000000 0.526807
O O5 0.538552 0.729475 0.233368
O O6 0.207455 0.759056 0.516501
O O7 0.337361 0.000000 0.368252
O O8 0.897377 0.500000 0.275493
O O9 0.850382 0.778876 0.264308
O O10 0.615289 0.703234 0.503442
O O11 0.948890 0.776775 0.285402
O O12 0.654646 0.735106 0.232847
O O13 0.719068 0.000000 0.132751
O O14 0.913362 0.719784 0.976410
O O15 0.814328 0.500000 0.240574
O O16 0.732669 0.789144 0.262621
O O17 0.021868 0.500000 0.685972
O O18 0.844134 0.228062 0.786794
O O19 0.516124 0.000000 0.376525
O O20 0.291821 0.500000 0.152633
O O21 0.500000 0.225312 0.000000
#
# Coordination Sequence:
#
# PCOD9152226 Si02
#       8
#     4   4   4   4   4   4   4   4
#     4   9  18  33  54  79 108 140 175 214 258 308
#     4   9  17  33  55  77 104 137 175 217 257 303
#     4  10  21  37  55  77 106 138 174 216 260 310
#     4  10  21  37  55  77 105 136 174 218 262 308
#     4  11  24  38  52  77 110 140 171 212 264 314
#     4   9  17  32  55  77 102 137 177 215 254 304
#     4  11  22  37  59  81 101 133 177 218 261 313
#     4   9  18  33  53  79 108 139 175 215 258 305
#
# _framework density 20.247872000000001
#
# number of rings (size 3 to 8) (size 9 to 14) (size 15 to 20)
#    0.000    2.250    1.250    1.500    0.000    6.000 
#    2.250    0.000    0.000    0.000    0.000    0.000 
#    0.000    0.000    0.000    0.000    0.000    0.000 
#
# Total GULP energy -178620.895157 kJ/mol
# GULP energy per Si atom -5581.902974 kJ/mol
# Density = 2.020179 g / cm^3
# Si number density = 20.247872 Si / 1000 Ang^3
#
#
#
# Elastic Constant Matrix: (Units=GPa)
#
#
# Indices 1 2 3 4 5 6 
#
# 1 163.2343 0.2048 67.5515 0.0000 2.8330 0.0000
# 2 0.2048 36.1838 -8.7390 0.0000 0.2883 0.0000
# 3 67.5515 -8.7390 87.5913 0.0000 -4.5632 0.0000
# 4 0.0000 0.0000 0.0000 23.9257 0.0000 0.8604
# 5 2.8330 0.2883 -4.5632 0.0000 30.4237 0.0000
# 6 0.0000 0.0000 0.0000 0.8604 0.0000 -32.6765
#
#
#
# Elastic Compliance Matrix: (Units=1/GPa)
#
#
# Indices 1 2 3 4 5 6 
#
# 1 0.009223 -0.001823 -0.007397 0.000000 -0.001951 0.000000
# 2 -0.001823 0.028680 0.004296 0.000000 0.000542 0.000000
# 3 -0.007397 0.004296 0.017722 0.000000 0.003306 0.000000
# 4 0.000000 0.000000 0.000000 0.041756 0.000000 0.001099
# 5 -0.001951 0.000542 0.003306 0.000000 0.033542 0.000000
# 6 0.000000 0.000000 0.000000 0.001099 0.000000 -0.030574
#
#
# Mechanical properties :
#
#
# Convention : Reuss Voigt Hill
#
# Bulk Modulus (GPa) = 21.84496 45.00489 33.42493
# Shear Modulus (GPa) = 39.85452 19.53407 29.69430
#
# Velocity S-wave (km/s) = 4.44140 3.10941 3.83370
# Velocity P-wave (km/s) = 6.09209 5.93013 6.01166
#
# Compressibility (1/GPa) = 0.04577715
#
# Stress axis : x y z
#
# Youngs Moduli (GPa) = 108.42139 34.86735 56.42753
#
# Poissons Ratio (x) = 0.06357 0.41737
# Poissons Ratio (y) = 0.19766 -0.24239
# Poissons Ratio (z) = 0.80195 -0.14978
#
# Static dielectric constant tensor:
#      x y z
#    x 1.745640 0.000000 -0.016140 
#    y 0.000000 1.769690 0.000000 
#    z -0.016140 0.000000 1.669220 
# 
# From -- ./inp_files/86761.got.cif
#   From: 2010.05.17/outbox.cif.g08.bks.cpg/sg10_44_cif.got.tgz:86761.got - 2010.06.03 11:33:40.
