data_PCOD9152087
_publ_section_title
;
Structure prediction by ZEFSAII (Michael W. Deem and Ramdas Pophale) SiO2 
 PCOD9152087
Probable space group: P 2/M
;
_chemical_formula_sum "Si O2"
_cell_formula_units_Z 28
_cell_length_a 8.485108
_cell_length_b 22.355312
_cell_length_c 15.349339
_cell_angle_alpha 90.000000
_cell_angle_beta 25.973958
_cell_angle_gamma 90.000000
_cell_volume 1275.160338
_symmetry_space_group_name_H-M "P 2/M"
_symmetry_group_IT_number 10
_symmetry_cell_setting 'monoclinic'
loop_
_space_group_symop_operation_xyz
x,y,z
-x,y,-z
-x,-y,-z
x,-y,z
loop_
_atom_site_type_symbol
_atom_site_label
_atom_site_fract_x
_atom_site_fract_y
_atom_site_fract_z
Si Si1 0.433529 0.932634 0.633292
Si Si2 0.489797 0.369236 0.102565
Si Si3 0.419363 0.500000 0.757271
Si Si4 0.576016 0.294395 0.700155
Si Si5 0.566519 0.154472 0.217333
Si Si6 0.368440 0.612043 0.465821
Si Si7 0.426874 0.932934 0.934955
Si Si8 0.396571 0.500000 0.950432
O O1 0.500000 0.916729 0.500000
O O2 0.570597 0.883981 0.632744
O O3 0.004347 0.935444 0.859839
O O4 0.575259 0.000000 0.577538
O O5 0.591676 0.326193 0.131403
O O6 0.727509 0.429925 0.990734
O O7 0.067670 0.387478 0.319529
O O8 0.500000 0.342574 0.000000
O O9 0.506314 0.557006 0.656056
O O10 0.626883 0.500000 0.746368
O O11 0.000000 0.500000 0.000000
O O12 0.520848 0.223838 0.730220
O O13 0.485366 0.328351 0.655455
O O14 0.000000 0.304643 0.500000
O O15 0.439128 0.119530 0.194252
O O16 0.000000 0.151881 0.000000
O O17 0.500000 0.607248 0.500000
O O18 0.561842 0.000000 0.845383
O O19 0.500000 0.921882 0.000000
O O20 0.500000 0.500000 0.000000
#
# Coordination Sequence:
#
# PCOD9152087 Si02
#       8
#     4   4   2   4   4   4   4   2
#     4   9  18  34  56  82 112 146 187 234 287 341
#     4  10  22  41  66  86 113 154 197 240 290 348
#     4  12  26  40  63  97 128 151 189 244 295 345
#     4  10  23  42  58  83 114 155 196 239 285 342
#     4  10  21  36  57  82 112 152 192 233 288 343
#     4  11  25  41  62  89 120 152 195 242 293 345
#     4   9  18  34  56  83 114 147 189 236 285 344
#     4  10  21  38  65  90 116 151 192 228 291 347
#
# _framework density 21.958022
#
# number of rings (size 3 to 8) (size 9 to 14) (size 15 to 20)
#    0.000    2.000    1.429    1.071    4.000    6.286 
#    0.000    5.714    0.000    4.286    0.000    0.000 
#    0.000    0.000    0.000    0.000    0.000    0.000 
#
# Total GULP energy -156208.910600 kJ/mol
# GULP energy per Si atom -5578.889664 kJ/mol
# Density = 2.190804 g / cm^3
# Si number density = 21.958022 Si / 1000 Ang^3
#
#
#
# Elastic Constant Matrix: (Units=GPa)
#
#
# Indices 1 2 3 4 5 6 
#
# 1 111.8126 72.2200 37.0325 0.0000 43.7101 0.0000
# 2 72.2200 163.0518 34.0125 0.0000 53.3799 0.0000
# 3 37.0325 34.0125 93.3733 0.0000 14.8054 0.0000
# 4 0.0000 0.0000 0.0000 4.5377 0.0000 -34.9674
# 5 43.7101 53.3799 14.8054 0.0000 56.8788 0.0000
# 6 0.0000 0.0000 0.0000 -34.9674 0.0000 -46.8073
#
#
#
# Elastic Compliance Matrix: (Units=1/GPa)
#
#
# Indices 1 2 3 4 5 6 
#
# 1 0.015407 -0.003614 -0.003603 0.000000 -0.007511 0.000000
# 2 -0.003614 0.010070 -0.001227 0.000000 -0.006354 0.000000
# 3 -0.003603 -0.001227 0.012479 0.000000 0.000673 0.000000
# 4 0.000000 0.000000 0.000000 0.032616 0.000000 -0.024366
# 5 -0.007511 -0.006354 0.000673 0.000000 0.029141 0.000000
# 6 0.000000 0.000000 0.000000 -0.024366 0.000000 -0.003162
#
#
# Mechanical properties :
#
#
# Convention : Reuss Voigt Hill
#
# Bulk Modulus (GPa) = 47.46693 72.75196 60.10945
# Shear Modulus (GPa) = 41.50682 17.92003 29.71342
#
# Velocity S-wave (km/s) = 4.35245 2.85985 3.68257
# Velocity P-wave (km/s) = 6.85000 6.64148 6.74654
#
# Compressibility (1/GPa) = 0.02106730
#
# Stress axis : x y z
#
# Youngs Moduli (GPa) = 64.90477 99.30718 80.13316
#
# Poissons Ratio (x) = 0.35887 0.28875
# Poissons Ratio (y) = 0.23455 0.09835
# Poissons Ratio (z) = 0.23387 0.12188
#
# Static dielectric constant tensor:
#      x y z
#    x 1.599430 0.000000 0.058280 
#    y 0.000000 1.786330 0.000000 
#    z 0.058280 0.000000 1.808530 
# 
# From -- ./inp_files/62579.got.cif
#   From: 2010.05.17/outbox.cif.g08.bks.cpg/sg10_32_cif.got.tgz:62579.got - 2010.06.03 11:33:40.
