data_PCOD9152897
_publ_section_title
;
Structure prediction by ZEFSAII (Michael W. Deem and Ramdas Pophale) SiO2 
 PCOD9152897
Probable space group: P 2/M
;
_chemical_formula_sum "Si O2"
_cell_formula_units_Z 18
_cell_length_a 5.386057
_cell_length_b 25.665806
_cell_length_c 5.502548
_cell_angle_alpha 90.000000
_cell_angle_beta 98.996514
_cell_angle_gamma 90.000000
_cell_volume 751.300717
_symmetry_space_group_name_H-M "P 2/M"
_symmetry_group_IT_number 10
_symmetry_cell_setting 'monoclinic'
loop_
_space_group_symop_operation_xyz
x,y,z
-x,y,-z
-x,-y,-z
x,-y,z
loop_
_atom_site_type_symbol
_atom_site_label
_atom_site_fract_x
_atom_site_fract_y
_atom_site_fract_z
Si Si1 0.224827 0.443999 0.333133
Si Si2 0.342712 0.000000 0.221686
Si Si3 0.342724 0.221344 0.221612
Si Si4 0.222313 0.667931 0.337162
Si Si5 0.779592 0.889329 0.659632
O O1 0.500000 0.444028 0.500000
O O2 0.210998 0.500000 0.198422
O O3 0.211977 0.387934 0.199157
O O4 0.000000 0.444062 0.500000
O O5 0.500000 0.000000 0.500000
O O6 0.202771 0.944696 0.204401
O O7 0.500000 0.000000 0.000000
O O8 0.500000 0.221255 0.500000
O O9 0.201285 0.276520 0.204668
O O10 0.204232 0.165878 0.203106
O O11 0.500000 0.221767 0.000000
O O12 0.500000 0.668271 0.500000
O O13 0.000000 0.667125 0.500000
O O14 0.500000 0.889415 0.500000
O O15 0.000000 0.889056 0.500000
#
# Coordination Sequence:
#
# PCOD9152897 Si02
#       5
#     4   2   4   4   4
#     4   8  13  22  40  67  99 135 176 222 273 329
#     4  10  21  40  62  90 122 158 198 242 292 346
#     4  10  21  39  60  86 117 153 194 240 291 346
#     4   9  17  31  50  76 108 144 185 231 282 338
#     4  10  21  40  62  89 120 156 197 242 292 346
#
# _framework density 23.958449999999999
#
# number of rings (size 3 to 8) (size 9 to 14) (size 15 to 20)
#    0.000    2.667    0.000    1.667    0.000    0.000 
#    0.000   35.556    0.000    0.667    0.000    0.000 
#    0.000   39.111    0.000    0.000    0.000    9.333 
#
# Total GULP energy -100353.200870 kJ/mol
# GULP energy per Si atom -5575.177826 kJ/mol
# Density = 2.390392 g / cm^3
# Si number density = 23.958450 Si / 1000 Ang^3
#
#
#
# Elastic Constant Matrix: (Units=GPa)
#
#
# Indices 1 2 3 4 5 6 
#
# 1 174.9870 33.7128 60.9748 0.0000 6.5867 0.0000
# 2 33.7128 386.3372 53.3650 0.0000 -24.9036 0.0000
# 3 60.9748 53.3650 108.4413 0.0000 0.1150 0.0000
# 4 0.0000 0.0000 0.0000 1886.4695 0.0000-4935.6223
# 5 6.5867 -24.9036 0.1150 0.0000 64.1527 0.0000
# 6 0.0000 0.0000 0.0000-4935.6223 0.000012515.7106
#
#
#
# Elastic Compliance Matrix: (Units=1/GPa)
#
#
# Indices 1 2 3 4 5 6 
#
# 1 0.007147 -0.000127 -0.003955 0.000000 -0.000776 0.000000
# 2 -0.000127 0.002856 -0.001335 0.000000 0.001124 0.000000
# 3 -0.003955 -0.001335 0.012103 0.000000 -0.000134 0.000000
# 4 0.000000 0.000000 0.000000 -0.016691 0.000000 -0.006582
# 5 -0.000776 0.001124 -0.000134 0.000000 0.016104 0.000000
# 6 0.000000 0.000000 0.000000 -0.006582 0.000000 -0.002516
#
#
# Mechanical properties :
#
#
# Convention : Reuss Voigt Hill
#
# Bulk Modulus (GPa) = 88.72680 107.31898 98.02289
# Shear Modulus (GPa) = 148.83082 2928.04742 1538.43912
#
# Velocity S-wave (km/s) = 7.89020 34.99698 25.36773
# Velocity P-wave (km/s) = 10.95997 40.96270 29.98386
#
# Compressibility (1/GPa) = 0.01127055
#
# Stress axis : x y z
#
# Youngs Moduli (GPa) = 139.92748 350.08597 82.62689
#
# Poissons Ratio (x) = 0.04459 0.32678
# Poissons Ratio (y) = 0.01782 0.11033
# Poissons Ratio (z) = 0.55340 0.46746
#
# Static dielectric constant tensor:
#      x y z
#    x 1.861530 0.000000 0.089520 
#    y 0.000000 1.953220 0.000000 
#    z 0.089520 0.000000 1.704320 
# 
# From -- ./inp_files/2019.got.cif
#   From: 2010.05.17/outbox.cif.g08.bks.cpg/sg10_2_cif.got.tgz:2019.got - 2010.06.03 11:33:40.
