data_PCOD9152244
_publ_section_title
;
Structure prediction by ZEFSAII (Michael W. Deem and Ramdas Pophale) SiO2 
 PCOD9152244
Probable space group: P 2/M
;
_chemical_formula_sum "Si O2"
_cell_formula_units_Z 28
_cell_length_a 25.459798
_cell_length_b 7.641215
_cell_length_c 23.243214
_cell_angle_alpha 90.000000
_cell_angle_beta 16.979674
_cell_angle_gamma 90.000000
_cell_volume 1320.518953
_symmetry_space_group_name_H-M "P 2/M"
_symmetry_group_IT_number 10
_symmetry_cell_setting 'monoclinic'
loop_
_space_group_symop_operation_xyz
x,y,z
-x,y,-z
-x,-y,-z
x,-y,z
loop_
_atom_site_type_symbol
_atom_site_label
_atom_site_fract_x
_atom_site_fract_y
_atom_site_fract_z
Si Si1 0.053564 0.198319 0.383052
Si Si2 0.454867 0.287029 0.982284
Si Si3 0.112545 0.705784 0.665171
Si Si4 0.296386 0.785609 0.703757
Si Si5 0.959789 0.793908 0.128326
Si Si6 0.563689 0.291569 0.749316
Si Si7 0.853870 0.209441 0.833643
O O1 0.268097 0.196966 0.163282
O O2 0.035183 0.279616 0.338688
O O3 0.000000 0.285295 0.500000
O O4 0.977861 0.000000 0.462634
O O5 0.434299 0.500000 0.001827
O O6 0.500000 0.240226 0.000000
O O7 0.585026 0.233797 0.793633
O O8 0.140123 0.500000 0.643337
O O9 0.072939 0.772446 0.770202
O O10 0.289823 0.782658 0.448020
O O11 0.949129 0.734815 0.792252
O O12 0.500000 0.723958 0.500000
O O13 0.202785 0.728065 0.741883
O O14 0.305309 0.000000 0.694843
O O15 0.152556 0.727883 0.903125
O O16 0.965529 0.000000 0.110610
O O17 0.589417 0.500000 0.723199
O O18 0.356171 0.260348 0.949094
O O19 0.861692 0.000000 0.820947
#
# Coordination Sequence:
#
# PCOD9152244 Si02
#       7
#     4   4   4   4   4   4   4
#     4   9  19  34  50  73 102 130 165 217 281 338
#     4   9  18  32  51  74  97 127 174 223 267 324
#     4  11  23  37  56  80 114 154 186 225 279 331
#     4   8  15  31  56  83 112 144 177 221 269 307
#     4   9  18  33  54  83 112 140 185 228 259 313
#     4   9  20  38  54  74 107 144 182 227 278 331
#     4  10  21  37  56  78 105 140 185 232 278 334
#
# _framework density 21.203785
#
# number of rings (size 3 to 8) (size 9 to 14) (size 15 to 20)
#    0.000    2.714    0.000    1.714    2.000    3.429 
#    0.000    2.857    0.000    0.857    0.000    0.000 
#    0.000    0.000    0.000    0.000    0.000    0.000 
#
# Total GULP energy -156052.593532 kJ/mol
# GULP energy per Si atom -5573.306912 kJ/mol
# Density = 2.115552 g / cm^3
# Si number density = 21.203785 Si / 1000 Ang^3
#
#
#
# Elastic Constant Matrix: (Units=GPa)
#
#
# Indices 1 2 3 4 5 6 
#
# 1 168.8633 -6.7476 103.3917 0.0000 30.0333 0.0000
# 2 -6.7476 37.5280 -1.5377 0.0000 4.2737 0.0000
# 3 103.3917 -1.5377 147.3112 0.0000 12.4365 0.0000
# 4 0.0000 0.0000 0.0000 17.0816 0.0000 3.6393
# 5 30.0333 4.2737 12.4365 0.0000 36.5741 0.0000
# 6 0.0000 0.0000 0.0000 3.6393 0.0000 11.3046
#
#
#
# Elastic Compliance Matrix: (Units=1/GPa)
#
#
# Indices 1 2 3 4 5 6 
#
# 1 0.012247 0.002753 -0.007918 0.000000 -0.007686 0.000000
# 2 0.002753 0.027671 -0.001214 0.000000 -0.005081 0.000000
# 3 -0.007918 -0.001214 0.012120 0.000000 0.002523 0.000000
# 4 0.000000 0.000000 0.000000 0.062854 0.000000 -0.020234
# 5 -0.007686 -0.005081 0.002523 0.000000 0.033389 0.000000
# 6 0.000000 0.000000 0.000000 -0.020234 0.000000 0.094973
#
#
# Mechanical properties :
#
#
# Convention : Reuss Voigt Hill
#
# Bulk Modulus (GPa) = 25.45913 60.43503 42.94708
# Shear Modulus (GPa) = 18.58006 30.23181 24.40593
#
# Velocity S-wave (km/s) = 2.96338 3.78004 3.39635
# Velocity P-wave (km/s) = 4.87256 6.90040 5.97316
#
# Compressibility (1/GPa) = 0.03927864
#
# Stress axis : x y z
#
# Youngs Moduli (GPa) = 81.65236 36.13945 82.50777
#
# Poissons Ratio (x) = -0.09949 0.65330
# Poissons Ratio (y) = -0.22478 0.10019
# Poissons Ratio (z) = 0.64653 0.04389
#
# Static dielectric constant tensor:
#      x y z
#    x 1.787530 0.000000 0.044290 
#    y 0.000000 1.811360 0.000000 
#    z 0.044290 0.000000 1.790050 
# 
# From -- ./inp_files/86457.got.cif
#   From: 2010.05.17/outbox.cif.g08.bks.cpg/sg10_44_cif.got.tgz:86457.got - 2010.06.03 11:33:40.
