data_PCOD9152929
_publ_section_title
;
Structure prediction by ZEFSAII (Michael W. Deem and Ramdas Pophale) SiO2 
 PCOD9152929
Probable space group: P 2/M
;
_chemical_formula_sum "Si O2"
_cell_formula_units_Z 28
_cell_length_a 21.630942
_cell_length_b 8.587397
_cell_length_c 14.858802
_cell_angle_alpha 90.000000
_cell_angle_beta 151.243937
_cell_angle_gamma 90.000000
_cell_volume 1327.820785
_symmetry_space_group_name_H-M "P 2/M"
_symmetry_group_IT_number 10
_symmetry_cell_setting 'monoclinic'
loop_
_space_group_symop_operation_xyz
x,y,z
-x,y,-z
-x,-y,-z
x,-y,z
loop_
_atom_site_type_symbol
_atom_site_label
_atom_site_fract_x
_atom_site_fract_y
_atom_site_fract_z
Si Si1 0.258588 0.182275 0.914333
Si Si2 0.082833 0.318224 0.827485
Si Si3 0.636771 0.681263 0.223837
Si Si4 0.126875 0.820621 0.565704
Si Si5 0.899666 0.312743 0.947836
Si Si6 0.530216 0.318361 0.279635
Si Si7 0.609049 0.816007 0.568533
O O1 0.199841 0.219233 0.936493
O O2 0.153076 0.220667 0.703145
O O3 0.288823 0.000000 0.943506
O O4 0.385373 0.283044 0.063552
O O5 0.118098 0.500000 0.870366
O O6 0.965881 0.285238 0.611415
O O7 0.050339 0.275048 0.888117
O O8 0.679452 0.500000 0.267823
O O9 0.734682 0.798317 0.303201
O O10 0.619337 0.713393 0.307332
O O11 0.500000 0.693127 0.000000
O O12 0.082521 0.000000 0.504278
O O13 0.895001 0.500000 0.932781
O O14 0.752359 0.254987 0.756726
O O15 0.000000 0.254382 0.000000
O O16 0.543605 0.500000 0.320093
O O17 0.559765 0.218408 0.405022
O O18 0.500000 0.756165 0.500000
O O19 0.620976 0.000000 0.599116
#
# Coordination Sequence:
#
# PCOD9152929 Si02
#       7
#     4   4   4   4   4   4   4
#     4  11  23  40  61  91 130 166 204 253 309 370
#     4  11  24  41  65  91 121 163 210 258 309 368
#     4  10  21  39  61  88 123 162 206 254 303 366
#     4  11  24  39  60  90 127 166 204 251 308 370
#     4  10  24  46  68  93 126 165 214 270 324 381
#     4  11  23  39  65  94 124 164 208 256 310 368
#     4  11  25  44  67  97 131 167 211 267 325 385
#
# _framework density 21.087183
#
# number of rings (size 3 to 8) (size 9 to 14) (size 15 to 20)
#    0.000    1.286    1.429    3.429    2.000    9.714 
#    0.000    0.000    0.000    0.000    0.000    0.000 
#    0.000    0.000    0.000    0.000    0.000    0.000 
#
# Total GULP energy -156510.947033 kJ/mol
# GULP energy per Si atom -5589.676680 kJ/mol
# Density = 2.103919 g / cm^3
# Si number density = 21.087183 Si / 1000 Ang^3
#
#
#
# Elastic Constant Matrix: (Units=GPa)
#
#
# Indices 1 2 3 4 5 6 
#
# 1 144.5529 32.6915 32.6552 0.0000 -1.0794 0.0000
# 2 32.6915 14.6633 8.5916 0.0000 0.6307 0.0000
# 3 32.6552 8.5916 59.3651 0.0000 -0.3162 0.0000
# 4 0.0000 0.0000 0.0000 46.3082 0.0000 16.1583
# 5 -1.0794 0.6307 -0.3162 0.0000 31.1507 0.0000
# 6 0.0000 0.0000 0.0000 16.1583 0.0000 26.4722
#
#
#
# Elastic Compliance Matrix: (Units=1/GPa)
#
#
# Indices 1 2 3 4 5 6 
#
# 1 0.014675 -0.030637 -0.003633 0.000000 0.001092 0.000000
# 2 -0.030637 0.138556 -0.003221 0.000000 -0.003900 0.000000
# 3 -0.003633 -0.003221 0.019310 0.000000 0.000135 0.000000
# 4 0.000000 0.000000 0.000000 0.027438 0.000000 -0.016748
# 5 0.001092 -0.003900 0.000135 0.000000 0.032220 0.000000
# 6 0.000000 0.000000 0.000000 -0.016748 0.000000 0.047998
#
#
# Mechanical properties :
#
#
# Convention : Reuss Voigt Hill
#
# Bulk Modulus (GPa) = 10.25004 40.71756 25.48380
# Shear Modulus (GPa) = 12.89660 30.42907 21.66284
#
# Velocity S-wave (km/s) = 2.47571 3.80282 3.20863
# Velocity P-wave (km/s) = 3.61158 6.21555 5.08313
#
# Compressibility (1/GPa) = 0.09756059
#
# Stress axis : x y z
#
# Youngs Moduli (GPa) = 68.14136 7.21731 51.78640
#
# Poissons Ratio (x) = 0.22111 0.18813
# Poissons Ratio (y) = 2.08763 0.16679
# Poissons Ratio (z) = 0.24755 0.02325
#
# Static dielectric constant tensor:
#      x y z
#    x 1.770830 0.000000 0.009570 
#    y 0.000000 1.721510 0.000000 
#    z 0.009570 0.000000 1.765890 
# 
# From -- ./inp_files/49603.got.cif
#   From: 2010.05.17/outbox.cif.g08.bks.cpg/sg10_25_cif.got.tgz:49603.got - 2010.06.03 11:33:40.
