data_PCOD9152665
_publ_section_title
;
Structure prediction by ZEFSAII (Michael W. Deem and Ramdas Pophale) SiO2 
 PCOD9152665
Probable space group: P 2/M
;
_chemical_formula_sum "Si O2"
_cell_formula_units_Z 24
_cell_length_a 27.509490
_cell_length_b 8.718562
_cell_length_c 10.317161
_cell_angle_alpha 90.000000
_cell_angle_beta 147.158757
_cell_angle_gamma 90.000000
_cell_volume 1341.954305
_symmetry_space_group_name_H-M "P 2/M"
_symmetry_group_IT_number 10
_symmetry_cell_setting 'monoclinic'
loop_
_space_group_symop_operation_xyz
x,y,z
-x,y,-z
-x,-y,-z
x,-y,z
loop_
_atom_site_type_symbol
_atom_site_label
_atom_site_fract_x
_atom_site_fract_y
_atom_site_fract_z
Si Si1 0.556633 0.682657 0.495951
Si Si2 0.730918 0.816717 0.002305
Si Si3 0.554140 0.182886 0.990995
Si Si4 0.926048 0.815877 0.726298
Si Si5 0.074701 0.683965 0.560052
Si Si6 0.731735 0.316900 0.291462
O O1 0.500000 0.710900 0.500000
O O2 0.563595 0.500000 0.493678
O O3 0.503663 0.756647 0.258915
O O4 0.654195 0.755046 0.735970
O O5 0.829800 0.757104 0.188651
O O6 0.712310 0.748620 0.103925
O O7 0.729668 0.000000 0.005599
O O8 0.565594 0.000000 0.006696
O O9 0.500000 0.218367 0.000000
O O10 0.651374 0.260999 0.202068
O O11 0.948505 0.748098 0.634771
O O12 0.828946 0.748627 0.546231
O O13 0.919297 0.000000 0.700414
O O14 0.000000 0.778061 0.000000
O O15 0.084464 0.500000 0.573216
O O16 0.000000 0.719818 0.500000
O O17 0.734567 0.500000 0.291528
#
# Coordination Sequence:
#
# PCOD9152665 Si02
#       6
#     4   4   4   4   4   4
#     4  11  22  37  61  89 116 150 193 239 282 339
#     4  11  21  35  60  88 116 152 193 238 286 338
#     4  11  24  41  60  85 118 154 192 237 289 342
#     4  10  21  38  61  87 114 150 193 239 285 340
#     4  10  21  38  60  86 118 152 188 237 291 342
#     4  11  21  36  60  86 115 153 193 236 287 343
#
# _framework density 17.884366
#
# number of rings (size 3 to 8) (size 9 to 14) (size 15 to 20)
#    0.000    1.333    1.667    7.000    0.000    4.667 
#    3.000    0.000    0.000    0.000    0.000    0.000 
#    0.000    0.000    0.000    0.000    0.000    0.000 
#
# Total GULP energy -134140.548973 kJ/mol
# GULP energy per Si atom -5589.189541 kJ/mol
# Density = 1.784366 g / cm^3
# Si number density = 17.884366 Si / 1000 Ang^3
#
#
#
# Elastic Constant Matrix: (Units=GPa)
#
#
# Indices 1 2 3 4 5 6 
#
# 1 105.9250 64.1216 72.2613 0.0000 20.3785 0.0000
# 2 64.1216 86.7893 50.8704 0.0000 12.2832 0.0000
# 3 72.2613 50.8704 139.3621 0.0000 8.1311 0.0000
# 4 0.0000 0.0000 0.0000 48.7049 0.0000 -5.6554
# 5 20.3785 12.2832 8.1311 0.0000 24.4134 0.0000
# 6 0.0000 0.0000 0.0000 -5.6554 0.0000 28.7731
#
#
#
# Elastic Compliance Matrix: (Units=1/GPa)
#
#
# Indices 1 2 3 4 5 6 
#
# 1 0.023682 -0.011532 -0.007399 0.000000 -0.011501 0.000000
# 2 -0.011532 0.021097 -0.001697 0.000000 -0.000423 0.000000
# 3 -0.007399 -0.001697 0.011443 0.000000 0.003218 0.000000
# 4 0.000000 0.000000 0.000000 0.021011 0.000000 0.004130
# 5 -0.011501 -0.000423 0.003218 0.000000 0.049703 0.000000
# 6 0.000000 0.000000 0.000000 0.004130 0.000000 0.035566
#
#
# Mechanical properties :
#
#
# Convention : Reuss Voigt Hill
#
# Bulk Modulus (GPa) = 66.81363 78.50924 72.66143
# Shear Modulus (GPa) = 23.95263 30.03314 26.99289
#
# Velocity S-wave (km/s) = 3.66362 4.10237 3.88919
# Velocity P-wave (km/s) = 7.43881 8.15063 7.80284
#
# Compressibility (1/GPa) = 0.01496701
#
# Stress axis : x y z
#
# Youngs Moduli (GPa) = 42.22697 47.40120 87.38642
#
# Poissons Ratio (x) = 0.54663 0.64655
# Poissons Ratio (y) = 0.48696 0.14825
# Poissons Ratio (z) = 0.31243 0.08042
#
# Static dielectric constant tensor:
#      x y z
#    x 1.594740 0.000000 0.011860 
#    y 0.000000 1.596370 0.000000 
#    z 0.011860 0.000000 1.600960 
# 
# From -- ./inp_files/57324.got.cif
#   From: 2010.05.17/outbox.cif.g08.bks.cpg/sg10_29_cif.got.tgz:57324.got - 2010.06.03 11:33:40.
