data_PCOD9152570
_publ_section_title
;
Structure prediction by ZEFSAII (Michael W. Deem and Ramdas Pophale) SiO2 
 PCOD9152570
Probable space group: P 2/M
;
_chemical_formula_sum "Si O2"
_cell_formula_units_Z 28
_cell_length_a 18.924638
_cell_length_b 9.791948
_cell_length_c 14.428204
_cell_angle_alpha 90.000000
_cell_angle_beta 145.834896
_cell_angle_gamma 90.000000
_cell_volume 1501.482346
_symmetry_space_group_name_H-M "P 2/M"
_symmetry_group_IT_number 10
_symmetry_cell_setting 'monoclinic'
loop_
_space_group_symop_operation_xyz
x,y,z
-x,y,-z
-x,-y,-z
x,-y,z
loop_
_atom_site_type_symbol
_atom_site_label
_atom_site_fract_x
_atom_site_fract_y
_atom_site_fract_z
Si Si1 0.795583 0.341218 0.494447
Si Si2 0.676738 0.341446 0.563226
Si Si3 0.278098 0.159309 0.947012
Si Si4 0.647035 0.336620 0.145927
Si Si5 0.441756 0.154149 0.303751
Si Si6 0.032870 0.162248 0.806740
Si Si7 0.810993 0.842981 0.845938
O O1 0.835116 0.500000 0.529512
O O2 0.703715 0.332398 0.483091
O O3 0.723707 0.303247 0.322424
O O4 0.914275 0.247460 0.645313
O O5 0.672710 0.500000 0.586114
O O6 0.546290 0.264310 0.440745
O O7 0.786245 0.260995 0.736419
O O8 0.298727 0.255979 0.882548
O O9 0.149745 0.187673 0.864030
O O10 0.275507 0.000000 0.916038
O O11 0.389648 0.174860 0.143356
O O12 0.655590 0.500000 0.140099
O O13 0.500000 0.302788 0.000000
O O14 0.318773 0.159289 0.235084
O O15 0.495112 0.000000 0.369769
O O16 0.007434 0.000000 0.777471
O O17 0.081062 0.194701 0.963171
O O18 0.830753 0.000000 0.836336
#
# Coordination Sequence:
#
# PCOD9152570 Si02
#       7
#     4   4   4   4   4   4   4
#     4  10  23  39  53  75 109 144 178 219 264 312
#     4  11  22  34  51  78 110 143 180 222 265 309
#     4   9  19  36  58  83 108 136 175 223 268 310
#     4  10  21  38  58  80 109 144 177 211 260 320
#     4   9  18  34  55  79 109 141 173 215 268 322
#     4   9  20  39  59  79 105 139 179 220 264 316
#     4   9  19  36  56  78 106 140 177 218 266 319
#
# _framework density 18.648237999999999
#
# number of rings (size 3 to 8) (size 9 to 14) (size 15 to 20)
#    0.000    2.429    0.000    3.429    0.000    8.286 
#    0.000    8.571    0.000    0.000    0.000    0.000 
#    0.000    0.000    0.000    0.000    0.000    0.000 
#
# Total GULP energy -156359.322340 kJ/mol
# GULP energy per Si atom -5584.261512 kJ/mol
# Density = 1.860579 g / cm^3
# Si number density = 18.648238 Si / 1000 Ang^3
#
#
#
# Elastic Constant Matrix: (Units=GPa)
#
#
# Indices 1 2 3 4 5 6 
#
# 1 32.6926 27.1669 20.6238 0.0000 -13.0570 0.0000
# 2 27.1669 67.0168 57.0250 0.0000 -5.9818 0.0000
# 3 20.6238 57.0250 108.7615 0.0000 -3.8784 0.0000
# 4 0.0000 0.0000 0.0000 35.0997 0.0000 -2.8901
# 5 -13.0570 -5.9818 -3.8784 0.0000 34.2452 0.0000
# 6 0.0000 0.0000 0.0000 -2.8901 0.0000 32.5919
#
#
#
# Elastic Compliance Matrix: (Units=1/GPa)
#
#
# Indices 1 2 3 4 5 6 
#
# 1 0.054787 -0.022308 0.001921 0.000000 0.017210 0.000000
# 2 -0.022308 0.036360 -0.014971 0.000000 -0.003850 0.000000
# 3 0.001921 -0.014971 0.016680 0.000000 0.000006 0.000000
# 4 0.000000 0.000000 0.000000 0.028700 0.000000 0.002545
# 5 0.017210 -0.003850 0.000006 0.000000 0.035091 0.000000
# 6 0.000000 0.000000 0.000000 0.002545 0.000000 0.030908
#
#
# Mechanical properties :
#
#
# Convention : Reuss Voigt Hill
#
# Bulk Modulus (GPa) = 26.94610 46.45580 36.70095
# Shear Modulus (GPa) = 17.50625 27.29771 22.40198
#
# Velocity S-wave (km/s) = 3.06725 3.83014 3.46973
# Velocity P-wave (km/s) = 5.19856 6.67276 5.98125
#
# Compressibility (1/GPa) = 0.03711112
#
# Stress axis : x y z
#
# Youngs Moduli (GPa) = 18.25255 27.50272 59.95206
#
# Poissons Ratio (x) = 0.61352 -0.11517
# Poissons Ratio (y) = 0.40717 0.89756
# Poissons Ratio (z) = -0.03506 0.41175
#
# Static dielectric constant tensor:
#      x y z
#    x 1.648060 0.000000 -0.001280 
#    y 0.000000 1.620540 0.000000 
#    z -0.001280 0.000000 1.635170 
# 
# From -- ./inp_files/49341.got.cif
#   From: 2010.05.17/outbox.cif.g08.bks.cpg/sg10_25_cif.got.tgz:49341.got - 2010.06.03 11:33:40.
