data_PCOD9152164
_publ_section_title
;
Structure prediction by ZEFSAII (Michael W. Deem and Ramdas Pophale) SiO2 
 PCOD9152164
Probable space group: P 2/M
;
_chemical_formula_sum "Si O2"
_cell_formula_units_Z 20
_cell_length_a 7.341684
_cell_length_b 12.471571
_cell_length_c 8.709472
_cell_angle_alpha 90.000000
_cell_angle_beta 98.671197
_cell_angle_gamma 90.000000
_cell_volume 788.344457
_symmetry_space_group_name_H-M "P 2/M"
_symmetry_group_IT_number 10
_symmetry_cell_setting 'monoclinic'
loop_
_space_group_symop_operation_xyz
x,y,z
-x,y,-z
-x,-y,-z
x,-y,z
loop_
_atom_site_type_symbol
_atom_site_label
_atom_site_fract_x
_atom_site_fract_y
_atom_site_fract_z
Si Si1 0.656872 0.500000 0.879527
Si Si2 0.051593 0.500000 0.326324
Si Si3 0.893562 0.115055 0.148591
Si Si4 0.555724 0.728627 0.351451
Si Si5 0.770502 0.345551 0.132485
Si Si6 0.752888 0.125703 0.599806
O O1 0.740794 0.500000 0.715709
O O2 0.500000 0.500000 0.000000
O O3 0.762185 0.395685 0.965699
O O4 0.000000 0.500000 0.500000
O O5 0.941542 0.397559 0.242714
O O6 0.768221 0.218165 0.125520
O O7 0.048705 0.128802 0.298677
O O8 0.799791 0.000000 0.159321
O O9 0.000000 0.112240 0.000000
O O10 0.500000 0.668006 0.500000
O O11 0.598010 0.641300 0.228613
O O12 0.392037 0.814155 0.305029
O O13 0.720380 0.804449 0.441197
O O14 0.708734 0.000000 0.570316
#
# Coordination Sequence:
#
# PCOD9152164 Si02
#       6
#     2   2   4   4   4   4
#     4  11  27  51  74  98 136 188 228 289 358 423
#     4  11  27  45  74 100 132 177 231 298 347 413
#     4  10  21  36  59  91 132 177 223 279 343 417
#     4   8  19  34  59  91 129 172 228 282 339 396
#     4  11  23  42  66 100 133 173 231 283 351 413
#     4   8  17  35  57  86 138 187 234 282 338 407
#
# _framework density 25.369622
#
# number of rings (size 3 to 8) (size 9 to 14) (size 15 to 20)
#    1.200    1.000    0.000    3.600    2.800    6.400 
#    0.000    4.000    0.000    4.200    0.000    0.000 
#    0.000    0.000    0.000    0.000    0.000    0.000 
#
# Total GULP energy -111373.221918 kJ/mol
# GULP energy per Si atom -5568.661096 kJ/mol
# Density = 2.531188 g / cm^3
# Si number density = 25.369622 Si / 1000 Ang^3
#
#
#
# Elastic Constant Matrix: (Units=GPa)
#
#
# Indices 1 2 3 4 5 6 
#
# 1 71.5606 -13.4787 29.1914 0.0000 -28.3526 0.0000
# 2 -13.4787 69.7701 20.6691 0.0000 -6.2066 0.0000
# 3 29.1914 20.6691 104.1344 0.0000 -24.1658 0.0000
# 4 0.0000 0.0000 0.0000 20.8065 0.0000 9.1600
# 5 -28.3526 -6.2066 -24.1658 0.0000 41.7848 0.0000
# 6 0.0000 0.0000 0.0000 9.1600 0.0000 -66.6940
#
#
#
# Elastic Compliance Matrix: (Units=1/GPa)
#
#
# Indices 1 2 3 4 5 6 
#
# 1 0.022553 0.006914 -0.004510 0.000000 0.013721 0.000000
# 2 0.006914 0.017360 -0.004270 0.000000 0.004800 0.000000
# 3 -0.004510 -0.004270 0.012540 0.000000 0.003558 0.000000
# 4 0.000000 0.000000 0.000000 0.045322 0.000000 0.006225
# 5 0.013721 0.004800 0.003558 0.000000 0.036014 0.000000
# 6 0.000000 0.000000 0.000000 0.006225 0.000000 -0.014139
#
#
# Mechanical properties :
#
#
# Convention : Reuss Voigt Hill
#
# Bulk Modulus (GPa) = 20.52511 35.35875 27.94193
# Shear Modulus (GPa) = 35.81087 13.11833 24.46460
#
# Velocity S-wave (km/s) = 3.76116 2.27642 3.10873
# Velocity P-wave (km/s) = 5.19324 4.56915 4.89116
#
# Compressibility (1/GPa) = 0.04872080
#
# Stress axis : x y z
#
# Youngs Moduli (GPa) = 44.34084 57.60259 79.74187
#
# Poissons Ratio (x) = -0.39824 0.35964
# Poissons Ratio (y) = -0.30655 0.34048
# Poissons Ratio (z) = 0.19998 0.24595
#
# Static dielectric constant tensor:
#      x y z
#    x 2.473480 0.000000 -0.160520 
#    y 0.000000 2.029090 0.000000 
#    z -0.160520 0.000000 2.082010 
# 
# From -- ./inp_files/17902.got.cif
#   From: 2010.05.17/outbox.cif.g08.bks.cpg/sg10_9_cif.got.tgz:17902.got - 2010.06.03 11:33:40.
