data_PCOD9152114
_publ_section_title
;
Structure prediction by ZEFSAII (Michael W. Deem and Ramdas Pophale) SiO2 
 PCOD9152114
Probable space group: P 2/M
;
_chemical_formula_sum "Si O2"
_cell_formula_units_Z 30
_cell_length_a 5.379650
_cell_length_b 15.122282
_cell_length_c 19.371926
_cell_angle_alpha 90.000000
_cell_angle_beta 76.274232
_cell_angle_gamma 90.000000
_cell_volume 1530.950885
_symmetry_space_group_name_H-M "P 2/M"
_symmetry_group_IT_number 10
_symmetry_cell_setting 'monoclinic'
loop_
_space_group_symop_operation_xyz
x,y,z
-x,y,-z
-x,-y,-z
x,-y,z
loop_
_atom_site_type_symbol
_atom_site_label
_atom_site_fract_x
_atom_site_fract_y
_atom_site_fract_z
Si Si1 0.409942 0.732369 0.829509
Si Si2 0.612935 0.900752 0.417609
Si Si3 0.288384 0.605000 0.454623
Si Si4 0.435305 0.744568 0.330793
Si Si5 0.713818 0.606173 0.041859
Si Si6 0.788557 0.000000 0.953099
Si Si7 0.899895 0.904195 0.692539
Si Si8 0.085176 0.155718 0.159873
O O1 0.420322 0.710997 0.746848
O O2 0.365008 0.648422 0.880564
O O3 0.668351 0.783036 0.837547
O O4 0.158786 0.792845 0.853341
O O5 0.500000 0.881973 0.500000
O O6 0.564738 0.816620 0.372477
O O7 0.913864 0.910725 0.385484
O O8 0.511290 0.000000 0.405739
O O9 0.500000 0.624670 0.500000
O O10 0.307058 0.500000 0.438166
O O11 0.341308 0.664985 0.384569
O O12 0.000000 0.622712 0.500000
O O13 0.229736 0.810749 0.311645
O O14 0.712804 0.500000 0.046225
O O15 0.500000 0.633337 0.000000
O O16 0.000000 0.633778 0.000000
O O17 0.828274 0.084403 0.901453
O O18 0.500000 0.000000 0.000000
O O19 0.000000 0.000000 0.000000
O O20 0.010070 0.891652 0.762576
O O21 0.760443 0.000000 0.706237
#
# Coordination Sequence:
#
# PCOD9152114 Si02
#       8
#     4   4   4   4   4   2   4   4
#     4  11  24  39  65  93 126 161 211 249 320 374
#     4  10  21  36  57  88 125 164 216 266 312 371
#     4  10  24  44  66  91 125 169 211 262 326 381
#     4  11  23  36  62  92 124 164 218 259 319 375
#     4  10  22  42  67  94 125 161 199 253 322 380
#     4  12  26  42  62  92 121 165 221 259 308 364
#     4  10  21  39  59  86 127 172 212 259 319 375
#     4  11  23  42  60  88 127 170 203 262 307 369
#
# _framework density 19.595663999999999
#
# number of rings (size 3 to 8) (size 9 to 14) (size 15 to 20)
#    0.000    1.467    2.000    2.400    3.733    3.733 
#    1.200    2.000    0.000    5.600    0.000    0.000 
#    0.000    0.000    0.000    0.000    0.000    0.000 
#
# Total GULP energy -167079.965823 kJ/mol
# GULP energy per Si atom -5569.332194 kJ/mol
# Density = 1.955106 g / cm^3
# Si number density = 19.595664 Si / 1000 Ang^3
#
#
#
# Elastic Constant Matrix: (Units=GPa)
#
#
# Indices 1 2 3 4 5 6 
#
# 1 81.8294 21.6950 18.8959 0.0000 -10.7072 0.0000
# 2 21.6950 71.9380 55.5190 0.0000 -5.4059 0.0000
# 3 18.8959 55.5190 111.9012 0.0000 -18.0177 0.0000
# 4 0.0000 0.0000 0.0000 21.9165 0.0000 -8.9637
# 5 -10.7072 -5.4059 -18.0177 0.0000 25.4103 0.0000
# 6 0.0000 0.0000 0.0000 -8.9637 0.0000 6.5558
#
#
#
# Elastic Compliance Matrix: (Units=1/GPa)
#
#
# Indices 1 2 3 4 5 6 
#
# 1 0.013917 -0.004293 0.000651 0.000000 0.005413 0.000000
# 2 -0.004293 0.024136 -0.012095 0.000000 -0.005250 0.000000
# 3 0.000651 -0.012095 0.016321 0.000000 0.009274 0.000000
# 4 0.000000 0.000000 0.000000 0.103516 0.000000 0.141538
# 5 0.005413 -0.005250 0.009274 0.000000 0.047093 0.000000
# 6 0.000000 0.000000 0.000000 0.141538 0.000000 0.346064
#
#
# Mechanical properties :
#
#
# Convention : Reuss Voigt Hill
#
# Bulk Modulus (GPa) = 43.66945 50.87651 47.27298
# Shear Modulus (GPa) = 8.47239 22.08044 15.27642
#
# Velocity S-wave (km/s) = 2.08158 3.36043 2.79513
# Velocity P-wave (km/s) = 5.30198 6.40907 5.88163
#
# Compressibility (1/GPa) = 0.02289930
#
# Stress axis : x y z
#
# Youngs Moduli (GPa) = 71.85704 41.43269 61.27238
#
# Poissons Ratio (x) = 0.17787 -0.03992
# Poissons Ratio (y) = 0.30848 0.74110
# Poissons Ratio (z) = -0.04681 0.50113
#
# Static dielectric constant tensor:
#      x y z
#    x 0.374430 0.000000 0.002670 
#    y 0.000000 1.684230 0.000000 
#    z 0.002670 0.000000 1.686110 
# 
# From -- ./inp_files/13326.got.cif
#   From: 2010.05.17/outbox.cif.g08.bks.cpg/sg10_7_cif.got.tgz:13326.got - 2010.06.03 11:33:40.
