data_PCOD9152235
_publ_section_title
;
Structure prediction by ZEFSAII (Michael W. Deem and Ramdas Pophale) SiO2 
 PCOD9152235
Probable space group: P 2/M
;
_chemical_formula_sum "Si O2"
_cell_formula_units_Z 20
_cell_length_a 9.454612
_cell_length_b 12.680408
_cell_length_c 19.034031
_cell_angle_alpha 90.000000
_cell_angle_beta 23.531715
_cell_angle_gamma 90.000000
_cell_volume 911.086993
_symmetry_space_group_name_H-M "P 2/M"
_symmetry_group_IT_number 10
_symmetry_cell_setting 'monoclinic'
loop_
_space_group_symop_operation_xyz
x,y,z
-x,y,-z
-x,-y,-z
x,-y,z
loop_
_atom_site_type_symbol
_atom_site_label
_atom_site_fract_x
_atom_site_fract_y
_atom_site_fract_z
Si Si1 0.708108 0.287384 0.585672
Si Si2 0.590437 0.879305 0.165944
Si Si3 0.774906 0.380359 0.308994
Si Si4 0.221991 0.819838 0.071139
Si Si5 0.438921 0.884992 0.445213
O O1 0.568122 0.202007 0.705850
O O2 0.436863 0.362754 0.668293
O O3 0.795094 0.206716 0.481861
O O4 0.000000 0.345226 0.500000
O O5 0.449760 0.000000 0.231521
O O6 0.590242 0.826883 0.089171
O O7 0.000000 0.887368 0.000000
O O8 0.500000 0.364770 0.500000
O O9 0.904475 0.500000 0.255299
O O10 0.085172 0.293445 0.162957
O O11 0.844316 0.877990 0.233544
O O12 0.500000 0.865736 0.000000
O O13 0.500000 0.872891 0.500000
O O14 0.292592 0.000000 0.496948
#
# Coordination Sequence:
#
# PCOD9152235 Si02
#       5
#     4   4   4   4   4
#     4  11  23  38  61  88 122 156 201 250 297 355
#     4  11  22  38  58  87 126 167 197 234 293 349
#     4  10  23  45  68  86 114 156 202 255 311 364
#     4  11  23  38  61  88 122 156 201 250 297 355
#     4  10  21  37  55  82 121 166 207 241 284 349
#
# _framework density 21.951801
#
# number of rings (size 3 to 8) (size 9 to 14) (size 15 to 20)
#    0.000    1.400    4.000    3.600    5.600    4.000 
#    0.000    2.000    0.000    0.000    0.000    0.000 
#    0.000    0.000    0.000    0.000    0.000    0.000 
#
# Total GULP energy -111483.988454 kJ/mol
# GULP energy per Si atom -5574.199423 kJ/mol
# Density = 2.190184 g / cm^3
# Si number density = 21.951801 Si / 1000 Ang^3
#
#
#
# Elastic Constant Matrix: (Units=GPa)
#
#
# Indices 1 2 3 4 5 6 
#
# 1 134.5557 -11.3966 35.4541 0.0000 3.1890 0.0000
# 2 -11.3966 94.3015 1.0599 0.0000 19.1893 0.0000
# 3 35.4541 1.0599 67.7539 0.0000 18.3685 0.0000
# 4 0.0000 0.0000 0.0000 7.8774 0.0000 20.4548
# 5 3.1890 19.1893 18.3685 0.0000 47.9686 0.0000
# 6 0.0000 0.0000 0.0000 20.4548 0.0000 5.7258
#
#
#
# Elastic Compliance Matrix: (Units=1/GPa)
#
#
# Indices 1 2 3 4 5 6 
#
# 1 0.008766 0.000931 -0.004846 0.000000 0.000901 0.000000
# 2 0.000931 0.011730 0.000690 0.000000 -0.005019 0.000000
# 3 -0.004846 0.000690 0.019272 0.000000 -0.007334 0.000000
# 4 0.000000 0.000000 0.000000 -0.015339 0.000000 0.054795
# 5 0.000901 -0.005019 -0.007334 0.000000 0.025603 0.000000
# 6 0.000000 0.000000 0.000000 0.054795 0.000000 -0.021102
#
#
# Mechanical properties :
#
#
# Convention : Reuss Voigt Hill
#
# Bulk Modulus (GPa) = 30.01316 38.53844 34.27580
# Shear Modulus (GPa) = 107.55573 30.41394 68.98484
#
# Velocity S-wave (km/s) = 7.00733 3.72625 5.61194
# Velocity P-wave (km/s) = 8.89788 6.00894 7.59209
#
# Compressibility (1/GPa) = 0.03331871
#
# Stress axis : x y z
#
# Youngs Moduli (GPa) = 114.07481 85.24970 51.88746
#
# Poissons Ratio (x) = -0.07934 0.25144
# Poissons Ratio (y) = -0.10616 -0.03581
# Poissons Ratio (z) = 0.55279 -0.05883
#
# Static dielectric constant tensor:
#      x y z
#    x 1.897130 0.000000 0.028200 
#    y 0.000000 1.833660 0.000000 
#    z 0.028200 0.000000 1.871870 
# 
# From -- ./inp_files/18538.got.cif
#   From: 2010.05.17/outbox.cif.g08.bks.cpg/sg10_10_cif.got.tgz:18538.got - 2010.06.03 11:33:40.
