data_PCOD9152545
_publ_section_title
;
Structure prediction by ZEFSAII (Michael W. Deem and Ramdas Pophale) SiO2 
 PCOD9152545
Probable space group: P 2/M
;
_chemical_formula_sum "Si O2"
_cell_formula_units_Z 32
_cell_length_a 11.983080
_cell_length_b 7.880118
_cell_length_c 20.109211
_cell_angle_alpha 90.000000
_cell_angle_beta 50.110824
_cell_angle_gamma 90.000000
_cell_volume 1456.980248
_symmetry_space_group_name_H-M "P 2/M"
_symmetry_group_IT_number 10
_symmetry_cell_setting 'monoclinic'
loop_
_space_group_symop_operation_xyz
x,y,z
-x,y,-z
-x,-y,-z
x,-y,z
loop_
_atom_site_type_symbol
_atom_site_label
_atom_site_fract_x
_atom_site_fract_y
_atom_site_fract_z
Si Si1 0.098963 0.205226 0.308981
Si Si2 0.580833 0.701374 0.583113
Si Si3 0.840507 0.300496 0.573859
Si Si4 0.258511 0.802338 0.736875
Si Si5 0.695615 0.803425 0.883686
Si Si6 0.398672 0.307574 0.939314
Si Si7 0.784698 0.205895 0.392193
Si Si8 0.836719 0.205150 0.081920
O O1 0.184175 0.278824 0.338704
O O2 0.172904 0.256916 0.212044
O O3 0.930838 0.258461 0.374706
O O4 0.105133 0.000000 0.309764
O O5 0.560258 0.500000 0.600963
O O6 0.709377 0.770598 0.581173
O O7 0.431495 0.788956 0.660152
O O8 0.643972 0.730816 0.485255
O O9 0.847817 0.500000 0.554142
O O10 0.000000 0.223274 0.500000
O O11 0.201185 0.730304 0.688815
O O12 0.208017 0.731179 0.827174
O O13 0.214580 0.000000 0.754575
O O14 0.548739 0.792712 0.895277
O O15 0.718657 0.000000 0.893211
O O16 0.676705 0.704657 0.959419
O O17 0.441615 0.500000 0.908800
O O18 0.286167 0.251015 0.925572
O O19 0.778168 0.000000 0.393491
O O20 0.840037 0.000000 0.082563
O O21 0.000000 0.263022 0.000000
#
# Coordination Sequence:
#
# PCOD9152545 Si02
#       8
#     4   4   4   4   4   4   4   4
#     4  10  22  36  60  91 117 150 198 249 295 348
#     4  11  23  39  60  87 120 161 201 244 296 358
#     4  10  21  38  56  80 119 160 195 233 289 351
#     4  10  23  41  63  89 117 154 201 249 302 355
#     4  10  21  39  64  92 121 156 202 250 296 359
#     4  11  23  40  62  90 125 159 196 245 305 365
#     4  10  21  39  61  88 120 155 199 253 301 348
#     4  10  23  43  68  91 118 159 204 254 306 362
#
# _framework density 21.963235999999998
#
# number of rings (size 3 to 8) (size 9 to 14) (size 15 to 20)
#    0.000    1.750    1.250    3.000    3.500    5.000 
#    0.000    0.000    0.000    0.000    0.000    0.000 
#    0.000    0.000    0.000    0.000    0.000    0.000 
#
# Total GULP energy -178733.199725 kJ/mol
# GULP energy per Si atom -5585.412491 kJ/mol
# Density = 2.191325 g / cm^3
# Si number density = 21.963236 Si / 1000 Ang^3
#
#
#
# Elastic Constant Matrix: (Units=GPa)
#
#
# Indices 1 2 3 4 5 6 
#
# 1 111.7888 -7.5998 30.6679 0.0000 23.7131 0.0000
# 2 -7.5998 29.7199 -8.2694 0.0000 3.1524 0.0000
# 3 30.6679 -8.2694 112.2540 0.0000 11.2918 0.0000
# 4 0.0000 0.0000 0.0000 17.5584 0.0000 20.2536
# 5 23.7131 3.1524 11.2918 0.0000 27.0492 0.0000
# 6 0.0000 0.0000 0.0000 20.2536 0.0000 10.0759
#
#
#
# Elastic Compliance Matrix: (Units=1/GPa)
#
#
# Indices 1 2 3 4 5 6 
#
# 1 0.011842 0.003537 -0.001972 0.000000 -0.009970 0.000000
# 2 0.003537 0.036147 0.002539 0.000000 -0.008373 0.000000
# 3 -0.001972 0.002539 0.009906 0.000000 -0.002703 0.000000
# 4 0.000000 0.000000 0.000000 -0.043190 0.000000 0.086816
# 5 -0.009970 -0.008373 -0.002703 0.000000 0.047814 0.000000
# 6 0.000000 0.000000 0.000000 0.086816 0.000000 -0.075263
#
#
# Mechanical properties :
#
#
# Convention : Reuss Voigt Hill
#
# Bulk Modulus (GPa) = 15.12802 31.48446 23.30624
# Shear Modulus (GPa) = 4624.15186 26.86764 2325.50975
#
# Velocity S-wave (km/s) = 45.93448 3.50137 32.57480
# Velocity P-wave (km/s) = 53.10560 5.54187 37.75524
#
# Compressibility (1/GPa) = 0.06610252
#
# Stress axis : x y z
#
# Youngs Moduli (GPa) = 84.44673 27.66517 100.94977
#
# Poissons Ratio (x) = -0.09785 0.19904
# Poissons Ratio (y) = -0.29870 -0.25629
# Poissons Ratio (z) = 0.16650 -0.07023
#
# Static dielectric constant tensor:
#      x y z
#    x 1.809060 0.000000 0.003330 
#    y 0.000000 1.783530 0.000000 
#    z 0.003330 0.000000 1.805400 
# 
# From -- ./inp_files/83542.got.cif
#   From: 2010.05.17/outbox.cif.g08.bks.cpg/sg10_42_cif.got.tgz:83542.got - 2010.06.03 11:33:40.
