data_PCOD9152800
_publ_section_title
;
Structure prediction by ZEFSAII (Michael W. Deem and Ramdas Pophale) SiO2 
 PCOD9152800
Probable space group: P 2/M
;
_chemical_formula_sum "Si O2"
_cell_formula_units_Z 28
_cell_length_a 9.501167
_cell_length_b 13.553220
_cell_length_c 21.886841
_cell_angle_alpha 90.000000
_cell_angle_beta 26.515262
_cell_angle_gamma 90.000000
_cell_volume 1258.235426
_symmetry_space_group_name_H-M "P 2/M"
_symmetry_group_IT_number 10
_symmetry_cell_setting 'monoclinic'
loop_
_space_group_symop_operation_xyz
x,y,z
-x,y,-z
-x,-y,-z
x,-y,z
loop_
_atom_site_type_symbol
_atom_site_label
_atom_site_fract_x
_atom_site_fract_y
_atom_site_fract_z
Si Si1 0.230194 0.886695 0.852642
Si Si2 0.725680 0.766615 0.730799
Si Si3 0.154475 0.802636 0.664135
Si Si4 0.770567 0.386989 0.029494
Si Si5 0.167179 0.886631 0.104514
Si Si6 0.100549 0.612119 0.769150
Si Si7 0.843852 0.606666 0.494334
O O1 0.532468 0.823042 0.753796
O O2 0.011021 0.842879 0.884635
O O3 0.320238 0.000000 0.802782
O O4 0.000000 0.889154 0.000000
O O5 0.897178 0.833718 0.713661
O O6 0.004091 0.698055 0.598126
O O7 0.491005 0.693857 0.856813
O O8 0.500000 0.798292 0.500000
O O9 0.064692 0.697231 0.731783
O O10 0.097367 0.878748 0.740743
O O11 0.652409 0.500000 0.078233
O O12 0.919357 0.375372 0.904036
O O13 0.000000 0.377051 0.000000
O O14 0.238772 0.000000 0.059973
O O15 0.500000 0.843805 0.000000
O O16 0.029888 0.500000 0.774188
O O17 0.470026 0.615801 0.642922
O O18 0.913601 0.500000 0.437439
O O19 0.000000 0.604838 0.500000
#
# Coordination Sequence:
#
# PCOD9152800 Si02
#       7
#     4   4   4   4   4   4   4
#     4  10  23  43  69 103 133 166 212 268 336 399
#     4  12  24  38  66  98 131 173 219 284 323 390
#     4  12  27  43  62  98 135 179 228 272 333 390
#     4  10  22  39  62  97 133 168 216 276 339 394
#     4  10  24  47  75 102 133 172 216 268 332 407
#     4  10  23  42  62  89 136 184 224 272 329 399
#     4  10  21  38  62  92 129 178 226 268 326 395
#
# _framework density 22.253387
#
# number of rings (size 3 to 8) (size 9 to 14) (size 15 to 20)
#    0.000    1.429    1.429    2.571    8.000    5.714 
#    0.000    1.429    0.000    2.143    0.000    0.000 
#    0.000    0.000    0.000    0.000    0.000    0.000 
#
# Total GULP energy -156405.425972 kJ/mol
# GULP energy per Si atom -5585.908070 kJ/mol
# Density = 2.220274 g / cm^3
# Si number density = 22.253387 Si / 1000 Ang^3
#
#
#
# Elastic Constant Matrix: (Units=GPa)
#
#
# Indices 1 2 3 4 5 6 
#
# 1 135.9925 6.8924 24.8393 0.0000 -15.4756 0.0000
# 2 6.8924 54.9191 7.6625 0.0000 -13.5147 0.0000
# 3 24.8393 7.6625 77.7857 0.0000 4.1823 0.0000
# 4 0.0000 0.0000 0.0000 357.3016 0.0000 -405.4797
# 5 -15.4756 -13.5147 4.1823 0.0000 30.7915 0.0000
# 6 0.0000 0.0000 0.0000 -405.4797 0.0000 537.5024
#
#
#
# Elastic Compliance Matrix: (Units=1/GPa)
#
#
# Indices 1 2 3 4 5 6 
#
# 1 0.008432 0.000567 -0.003012 0.000000 0.004896 0.000000
# 2 0.000567 0.020950 -0.002775 0.000000 0.009857 0.000000
# 3 -0.003012 -0.002775 0.014342 0.000000 -0.004680 0.000000
# 4 0.000000 0.000000 0.000000 0.019449 0.000000 0.014672
# 5 0.004896 0.009857 -0.004680 0.000000 0.039899 0.000000
# 6 0.000000 0.000000 0.000000 0.014672 0.000000 0.012929
#
#
# Mechanical properties :
#
#
# Convention : Reuss Voigt Hill
#
# Bulk Modulus (GPa) = 30.04326 38.60952 34.32639
# Shear Modulus (GPa) = 36.35437 200.40597 118.38017
#
# Velocity S-wave (km/s) = 4.04624 9.50010 7.30150
# Velocity P-wave (km/s) = 5.94636 11.73556 9.30276
#
# Compressibility (1/GPa) = 0.03328533
#
# Stress axis : x y z
#
# Youngs Moduli (GPa) = 118.59865 47.73213 69.72308
#
# Poissons Ratio (x) = -0.02705 0.20998
# Poissons Ratio (y) = -0.06721 0.19346
# Poissons Ratio (z) = 0.35717 0.13244
#
# Static dielectric constant tensor:
#      x y z
#    x 1.854290 0.000000 0.018130 
#    y 0.000000 1.884340 0.000000 
#    z 0.018130 0.000000 1.789970 
# 
# From -- ./inp_files/82896.got.cif
#   From: 2010.05.17/outbox.cif.g08.bks.cpg/sg10_42_cif.got.tgz:82896.got - 2010.06.03 11:33:40.
