data_PCOD9152724
_publ_section_title
;
Structure prediction by ZEFSAII (Michael W. Deem and Ramdas Pophale) SiO2 
 PCOD9152724
Probable space group: P 2/M
;
_chemical_formula_sum "Si O2"
_cell_formula_units_Z 28
_cell_length_a 32.225718
_cell_length_b 8.471521
_cell_length_c 32.220040
_cell_angle_alpha 90.000000
_cell_angle_beta 9.402898
_cell_angle_gamma 90.000000
_cell_volume 1437.070131
_symmetry_space_group_name_H-M "P 2/M"
_symmetry_group_IT_number 10
_symmetry_cell_setting 'monoclinic'
loop_
_space_group_symop_operation_xyz
x,y,z
-x,y,-z
-x,-y,-z
x,-y,z
loop_
_atom_site_type_symbol
_atom_site_label
_atom_site_fract_x
_atom_site_fract_y
_atom_site_fract_z
Si Si1 0.763022 0.809215 0.262644
Si Si2 0.498936 0.307074 0.953189
Si Si3 0.025163 0.692682 0.571713
Si Si4 0.106693 0.689292 0.586222
Si Si5 0.316575 0.811517 0.848025
Si Si6 0.629435 0.810955 0.109278
Si Si7 0.206298 0.686484 0.674128
O O1 0.500000 0.764269 0.500000
O O2 0.783600 0.737851 0.287929
O O3 0.766553 0.000000 0.263098
O O4 0.000000 0.762734 0.000000
O O5 0.499608 0.500000 0.952816
O O6 0.747012 0.256460 0.683126
O O7 0.500000 0.256019 0.000000
O O8 0.244635 0.256220 0.180429
O O9 0.024053 0.500000 0.572892
O O10 0.070232 0.742689 0.574546
O O11 0.128767 0.500000 0.564435
O O12 0.362057 0.759264 0.353750
O O13 0.862062 0.738346 0.854128
O O14 0.353884 0.761569 0.858999
O O15 0.564498 0.767599 0.577002
O O16 0.283521 0.000000 0.879712
O O17 0.064344 0.735444 0.077832
O O18 0.649374 0.000000 0.088046
O O19 0.238707 0.500000 0.638831
#
# Coordination Sequence:
#
# PCOD9152724 Si02
#       7
#     4   4   4   4   4   4   4
#     4  10  21  38  61  87 118 160 203 238 282 346
#     4   9  15  24  40  64 100 143 180 219 273 336
#     4   9  17  28  43  69 104 140 179 223 279 340
#     4  11  22  37  59  85 117 154 189 236 296 354
#     4  11  24  43  64  85 117 160 199 238 290 353
#     4  11  24  41  61  86 116 152 197 245 288 341
#     4  12  25  40  63  95 126 154 193 249 300 343
#
# _framework density 19.484086999999999
#
# number of rings (size 3 to 8) (size 9 to 14) (size 15 to 20)
#    0.000    1.571    0.000    5.571    0.000   11.429 
#    0.000    0.000    0.000    0.000    0.000    0.000 
#    0.000   40.000    0.000    0.000    0.000    0.000 
#
# Total GULP energy -156579.296428 kJ/mol
# GULP energy per Si atom -5592.117730 kJ/mol
# Density = 1.943974 g / cm^3
# Si number density = 19.484087 Si / 1000 Ang^3
#
#
#
# Elastic Constant Matrix: (Units=GPa)
#
#
# Indices 1 2 3 4 5 6 
#
# 1 116.5552 4.9765 7.0016 0.0000 -1.5701 0.0000
# 2 4.9765 15.0183 -17.2967 0.0000 -1.0961 0.0000
# 3 7.0016 -17.2967 73.6856 0.0000 -1.9420 0.0000
# 4 0.0000 0.0000 0.0000 26.5220 0.0000 -1.1153
# 5 -1.5701 -1.0961 -1.9420 0.0000 45.0414 0.0000
# 6 0.0000 0.0000 0.0000 -1.1153 0.0000 35.2633
#
#
#
# Elastic Compliance Matrix: (Units=1/GPa)
#
#
# Indices 1 2 3 4 5 6 
#
# 1 0.008938 -0.005387 -0.002111 0.000000 0.000089 0.000000
# 2 -0.005387 0.094952 0.022882 0.000000 0.003110 0.000000
# 3 -0.002111 0.022882 0.019178 0.000000 0.001310 0.000000
# 4 0.000000 0.000000 0.000000 0.037755 0.000000 0.001194
# 5 0.000089 0.003110 0.001310 0.000000 0.022337 0.000000
# 6 0.000000 0.000000 0.000000 0.001194 0.000000 0.028396
#
#
# Mechanical properties :
#
#
# Convention : Reuss Voigt Hill
#
# Bulk Modulus (GPa) = 6.50045 21.62465 14.06255
# Shear Modulus (GPa) = 21.54573 35.40384 28.47478
#
# Velocity S-wave (km/s) = 3.32898 4.26733 3.82702
# Velocity P-wave (km/s) = 4.25672 5.95003 5.17313
#
# Compressibility (1/GPa) = 0.15383546
#
# Stress axis : x y z
#
# Youngs Moduli (GPa) = 111.88601 10.53169 52.14389
#
# Poissons Ratio (x) = 0.05673 0.11010
# Poissons Ratio (y) = 0.60271 -1.19318
# Poissons Ratio (z) = 0.23623 -0.24099
#
# Static dielectric constant tensor:
#      x y z
#    x 1.652240 0.000000 0.000350 
#    y 0.000000 1.672350 0.000000 
#    z 0.000350 0.000000 1.636850 
# 
# From -- ./inp_files/96001.got.cif
#   From: 2010.05.17/outbox.cif.g08.bks.cpg/sg10_49_cif.got.tgz:96001.got - 2010.06.03 11:33:40.
