data_PCOD9152959
_publ_section_title
;
Structure prediction by ZEFSAII (Michael W. Deem and Ramdas Pophale) SiO2 
 PCOD9152959
Probable space group: P 2/M
;
_chemical_formula_sum "Si O2"
_cell_formula_units_Z 28
_cell_length_a 21.932690
_cell_length_b 7.630338
_cell_length_c 14.710248
_cell_angle_alpha 90.000000
_cell_angle_beta 28.951553
_cell_angle_gamma 90.000000
_cell_volume 1191.691257
_symmetry_space_group_name_H-M "P 2/M"
_symmetry_group_IT_number 10
_symmetry_cell_setting 'monoclinic'
loop_
_space_group_symop_operation_xyz
x,y,z
-x,y,-z
-x,-y,-z
x,-y,z
loop_
_atom_site_type_symbol
_atom_site_label
_atom_site_fract_x
_atom_site_fract_y
_atom_site_fract_z
Si Si1 0.638256 0.199209 0.845744
Si Si2 0.690686 0.704700 0.275700
Si Si3 0.404368 0.799990 0.411203
Si Si4 0.145329 0.785858 0.295119
Si Si5 0.211091 0.300265 0.521480
Si Si6 0.670640 0.211664 0.095608
Si Si7 0.972452 0.285794 0.933171
O O1 0.744100 0.271487 0.778283
O O2 0.714033 0.198991 0.652607
O O3 0.611231 0.000000 0.913242
O O4 0.500000 0.278028 0.000000
O O5 0.687523 0.500000 0.304165
O O6 0.615479 0.795965 0.454414
O O7 0.653845 0.722324 0.219488
O O8 0.833225 0.771508 0.091850
O O9 0.294564 0.698436 0.504007
O O10 0.544140 0.733079 0.207378
O O11 0.394447 0.000000 0.393088
O O12 0.000000 0.727576 0.500000
O O13 0.142347 0.000000 0.304268
O O14 0.203002 0.734977 0.121651
O O15 0.195583 0.500000 0.509389
O O16 0.077060 0.224776 0.725972
O O17 0.668526 0.000000 0.101574
O O18 0.977334 0.500000 0.925018
O O19 0.000000 0.230821 0.000000
#
# Coordination Sequence:
#
# PCOD9152959 Si02
#       7
#     4   4   4   4   4   4   4
#     4  10  21  39  62  88 118 154 195 246 304 351
#     4  11  22  37  59  85 116 155 194 235 287 348
#     4  11  22  38  58  85 120 156 191 234 289 346
#     4   9  19  37  60  84 113 151 197 244 288 345
#     4  11  22  37  61  88 117 153 193 239 291 347
#     4  10  22  39  59  83 115 152 190 240 293 340
#     4   9  18  36  56  78 115 155 186 230 291 343
#
# _framework density 23.496020000000001
#
# number of rings (size 3 to 8) (size 9 to 14) (size 15 to 20)
#    0.000    1.857    1.429    2.571    2.000    5.429 
#    0.000    3.571    0.000    0.857    0.000    0.000 
#    0.000    0.000    0.000    0.000    0.000    0.000 
#
# Total GULP energy -156377.538525 kJ/mol
# GULP energy per Si atom -5584.912090 kJ/mol
# Density = 2.344254 g / cm^3
# Si number density = 23.496020 Si / 1000 Ang^3
#
#
#
# Elastic Constant Matrix: (Units=GPa)
#
#
# Indices 1 2 3 4 5 6 
#
# 1 75.8508 -5.5226 17.5281 0.0000 -6.4171 0.0000
# 2 -5.5226 50.1638 1.1715 0.0000 -1.7499 0.0000
# 3 17.5281 1.1715 147.0169 0.0000 -7.6467 0.0000
# 4 0.0000 0.0000 0.0000 2.0678 0.0000 8.8485
# 5 -6.4171 -1.7499 -7.6467 0.0000 45.1474 0.0000
# 6 0.0000 0.0000 0.0000 8.8485 0.0000 20.7813
#
#
#
# Elastic Compliance Matrix: (Units=1/GPa)
#
#
# Indices 1 2 3 4 5 6 
#
# 1 0.013813 0.001619 -0.001568 0.000000 0.001760 0.000000
# 2 0.001619 0.020153 -0.000304 0.000000 0.000960 0.000000
# 3 -0.001568 -0.000304 0.007041 0.000000 0.000958 0.000000
# 4 0.000000 0.000000 0.000000 -0.588289 0.000000 0.250490
# 5 0.001760 0.000960 0.000958 0.000000 0.022599 0.000000
# 6 0.000000 0.000000 0.000000 0.250490 0.000000 -0.058537
#
#
# Mechanical properties :
#
#
# Convention : Reuss Voigt Hill
#
# Bulk Modulus (GPa) = 24.69054 33.26504 28.97779
# Shear Modulus (GPa) = -8.78407 30.92294 11.06944
#
# Velocity S-wave (km/s) = -1.93563 3.63173 2.17288
# Velocity P-wave (km/s) = 2.35280 5.63688 4.31915
#
# Compressibility (1/GPa) = 0.04050133
#
# Stress axis : x y z
#
# Youngs Moduli (GPa) = 72.39580 49.61928 142.02231
#
# Poissons Ratio (x) = -0.08032 0.22272
# Poissons Ratio (y) = -0.11719 0.04313
# Poissons Ratio (z) = 0.11353 0.01507
#
# Static dielectric constant tensor:
#      x y z
#    x 1.890430 0.000000 -0.016250 
#    y 0.000000 1.906220 0.000000 
#    z -0.016250 0.000000 1.863160 
# 
# From -- ./inp_files/49593.got.cif
#   From: 2010.05.17/outbox.cif.g08.bks.cpg/sg10_25_cif.got.tgz:49593.got - 2010.06.03 11:33:40.
