data_PCOD9152833
_publ_section_title
;
Structure prediction by ZEFSAII (Michael W. Deem and Ramdas Pophale) SiO2 
 PCOD9152833
Probable space group: P 2/M
;
_chemical_formula_sum "Si O2"
_cell_formula_units_Z 21
_cell_length_a 28.222750
_cell_length_b 7.471825
_cell_length_c 9.460109
_cell_angle_alpha 90.000000
_cell_angle_beta 152.841296
_cell_angle_gamma 90.000000
_cell_volume 910.587752
_symmetry_space_group_name_H-M "P 2/M"
_symmetry_group_IT_number 10
_symmetry_cell_setting 'monoclinic'
loop_
_space_group_symop_operation_xyz
x,y,z
-x,y,-z
-x,-y,-z
x,-y,z
loop_
_atom_site_type_symbol
_atom_site_label
_atom_site_fract_x
_atom_site_fract_y
_atom_site_fract_z
Si Si1 0.585290 0.795806 0.120399
Si Si2 0.779698 0.285900 0.822831
Si Si3 0.603653 0.707985 0.845938
Si Si4 0.034442 0.286634 0.884855
Si Si5 0.200510 0.281671 0.804632
Si Si6 0.000000 0.000000 0.000000
O O1 0.693176 0.791105 0.490133
O O2 0.552515 0.000000 0.006743
O O3 0.500000 0.713662 0.000000
O O4 0.596424 0.713611 0.995385
O O5 0.763864 0.500000 0.780910
O O6 0.892998 0.254693 0.057670
O O7 0.771562 0.224412 0.962327
O O8 0.500000 0.787065 0.500000
O O9 0.605803 0.500000 0.807306
O O10 0.711273 0.781629 0.069169
O O11 0.038706 0.500000 0.928110
O O12 0.916415 0.225377 0.541744
O O13 0.068024 0.159315 0.100654
O O14 0.195195 0.500000 0.789700
#
# Coordination Sequence:
#
# PCOD9152833 Si02
#       6
#     4   4   4   4   4   1
#     4  11  25  41  59  87 126 166 205 255 316 379
#     4  10  21  40  67  92 121 163 209 262 314 373
#     4  10  21  38  64  92 118 156 209 259 308 374
#     4  10  23  41  65  95 130 171 216 259 318 383
#     4   9  19  39  64  91 126 162 203 261 320 372
#     4  12  26  40  62  94 136 176 208 272 312 372
#
# _framework density 23.06203
#
# number of rings (size 3 to 8) (size 9 to 14) (size 15 to 20)
#    0.000    1.905    0.000    2.571    4.000    5.714 
#    1.714    0.952    0.000    0.000    0.000    0.000 
#    0.000    0.000    0.000    0.000    0.000    0.000 
#
# Total GULP energy -117125.672755 kJ/mol
# GULP energy per Si atom -5577.412988 kJ/mol
# Density = 2.300954 g / cm^3
# Si number density = 23.062030 Si / 1000 Ang^3
#
#
#
# Elastic Constant Matrix: (Units=GPa)
#
#
# Indices 1 2 3 4 5 6 
#
# 1 178.9974 12.8143 66.4418 0.0000 16.1502 0.0000
# 2 12.8143 76.9661 -5.9830 0.0000 8.0174 0.0000
# 3 66.4418 -5.9830 133.6396 0.0000 12.0607 0.0000
# 4 0.0000 0.0000 0.0000 9.0592 0.0000 -17.5981
# 5 16.1502 8.0174 12.0607 0.0000 40.7880 0.0000
# 6 0.0000 0.0000 0.0000 -17.5981 0.0000 -25.1847
#
#
#
# Elastic Compliance Matrix: (Units=1/GPa)
#
#
# Indices 1 2 3 4 5 6 
#
# 1 0.007097 -0.001290 -0.003448 0.000000 -0.001537 0.000000
# 2 -0.001290 0.013594 0.001484 0.000000 -0.002600 0.000000
# 3 -0.003448 0.001484 0.009418 0.000000 -0.001711 0.000000
# 4 0.000000 0.000000 0.000000 0.046825 0.000000 -0.032719
# 5 -0.001537 -0.002600 -0.001711 0.000000 0.026143 0.000000
# 6 0.000000 0.000000 0.000000 -0.032719 0.000000 -0.016844
#
#
# Mechanical properties :
#
#
# Convention : Reuss Voigt Hill
#
# Bulk Modulus (GPa) = 42.36690 59.57212 50.96951
# Shear Modulus (GPa) = 49.69851 26.02118 37.85984
#
# Velocity S-wave (km/s) = 4.64723 3.36268 4.05613
# Velocity P-wave (km/s) = 6.87069 6.40033 6.63967
#
# Compressibility (1/GPa) = 0.02360333
#
# Stress axis : x y z
#
# Youngs Moduli (GPa) = 140.89638 73.56359 106.18214
#
# Poissons Ratio (x) = 0.09486 0.36608
# Poissons Ratio (y) = 0.18169 -0.15761
# Poissons Ratio (z) = 0.48576 -0.10920
#
# Static dielectric constant tensor:
#      x y z
#    x 1.867540 0.000000 -0.002890 
#    y 0.000000 1.875330 0.000000 
#    z -0.002890 0.000000 1.885130 
# 
# From -- ./inp_files/36863.got.cif
#   From: 2010.05.17/outbox.cif.g08.bks.cpg/sg10_19_cif.got.tgz:36863.got - 2010.06.03 11:33:40.
