data_PCOD9152482
_publ_section_title
;
Structure prediction by ZEFSAII (Michael W. Deem and Ramdas Pophale) SiO2 
 PCOD9152482
Probable space group: P 2/M
;
_chemical_formula_sum "Si O2"
_cell_formula_units_Z 24
_cell_length_a 9.021525
_cell_length_b 15.728524
_cell_length_c 8.411255
_cell_angle_alpha 90.000000
_cell_angle_beta 76.637902
_cell_angle_gamma 90.000000
_cell_volume 1161.207577
_symmetry_space_group_name_H-M "P 2/M"
_symmetry_group_IT_number 10
_symmetry_cell_setting 'monoclinic'
loop_
_space_group_symop_operation_xyz
x,y,z
-x,y,-z
-x,-y,-z
x,-y,z
loop_
_atom_site_type_symbol
_atom_site_label
_atom_site_fract_x
_atom_site_fract_y
_atom_site_fract_z
Si Si1 0.236714 0.097183 0.685939
Si Si2 0.868021 0.342774 0.139993
Si Si3 0.385138 0.214660 0.883412
Si Si4 0.316659 0.407925 0.525384
Si Si5 0.035691 0.197639 0.304072
Si Si6 0.323338 0.772458 0.382519
O O1 0.299872 0.131591 0.837646
O O2 0.299077 0.159622 0.530468
O O3 0.054958 0.113802 0.725439
O O4 0.276153 0.000000 0.646980
O O5 0.740087 0.289347 0.074794
O O6 0.772992 0.399801 0.285690
O O7 0.960882 0.272113 0.219558
O O8 0.000000 0.383949 0.000000
O O9 0.502766 0.236446 0.711466
O O10 0.500000 0.204552 0.000000
O O11 0.500000 0.405896 0.500000
O O12 0.278283 0.500000 0.461471
O O13 0.273112 0.322850 0.441700
O O14 0.217283 0.196057 0.262852
O O15 0.000000 0.210852 0.500000
#
# Coordination Sequence:
#
# PCOD9152482 Si02
#       6
#     4   4   4   4   4   4
#     4  10  21  37  61  91 124 163 209 260 313 370
#     4  11  21  38  60  91 124 162 204 255 315 362
#     4  11  22  37  61  88 123 167 208 254 314 365
#     4  11  21  38  66  94 126 166 208 254 307 367
#     4   9  18  34  60  84 123 157 203 248 303 371
#     4  11  19  39  63  92 118 163 214 254 303 371
#
# _framework density 20.668137000000002
#
# number of rings (size 3 to 8) (size 9 to 14) (size 15 to 20)
#    0.000    1.500    6.667    1.500    0.000    5.000 
#    0.000    1.667    0.000   21.000    0.000    0.000 
#    0.000    0.000    0.000    0.000    0.000    0.000 
#
# Total GULP energy -133759.409607 kJ/mol
# GULP energy per Si atom -5573.308734 kJ/mol
# Density = 2.062109 g / cm^3
# Si number density = 20.668137 Si / 1000 Ang^3
#
#
#
# Elastic Constant Matrix: (Units=GPa)
#
#
# Indices 1 2 3 4 5 6 
#
# 1 136.2599 25.4781 38.5411 0.0000 -0.5487 0.0000
# 2 25.4781 127.4104 19.0095 0.0000 8.7891 0.0000
# 3 38.5411 19.0095 45.5150 0.0000 -0.9587 0.0000
# 4 0.0000 0.0000 0.0000 5.6473 0.0000 1.4935
# 5 -0.5487 8.7891 -0.9587 0.0000 54.5213 0.0000
# 6 0.0000 0.0000 0.0000 1.4935 0.0000 5.6524
#
#
#
# Elastic Compliance Matrix: (Units=1/GPa)
#
#
# Indices 1 2 3 4 5 6 
#
# 1 0.009720 -0.000770 -0.007907 0.000000 0.000083 0.000000
# 2 -0.000770 0.008541 -0.002946 0.000000 -0.001436 0.000000
# 3 -0.007907 -0.002946 0.029916 0.000000 0.000921 0.000000
# 4 0.000000 0.000000 0.000000 0.190381 0.000000 -0.050304
# 5 0.000083 -0.001436 0.000921 0.000000 0.018590 0.000000
# 6 0.000000 0.000000 0.000000 -0.050304 0.000000 0.190208
#
#
# Mechanical properties :
#
#
# Convention : Reuss Voigt Hill
#
# Bulk Modulus (GPa) = 40.10958 52.80474 46.45716
# Shear Modulus (GPa) = 10.44034 28.24131 19.34082
#
# Velocity S-wave (km/s) = 2.24997 3.70052 3.06237
# Velocity P-wave (km/s) = 5.11844 6.62290 5.91867
#
# Compressibility (1/GPa) = 0.02493170
#
# Stress axis : x y z
#
# Youngs Moduli (GPa) = 102.88363 117.08031 33.42671
#
# Poissons Ratio (x) = 0.09010 0.26431
# Poissons Ratio (y) = 0.07918 0.09847
# Poissons Ratio (z) = 0.81353 0.34490
#
# Static dielectric constant tensor:
#      x y z
#    x 1.820310 0.000000 -0.055040 
#    y 0.000000 1.707750 0.000000 
#    z -0.055040 0.000000 1.832090 
# 
# From -- ./inp_files/18777.got.cif
#   From: 2010.05.17/outbox.cif.g08.bks.cpg/sg10_10_cif.got.tgz:18777.got - 2010.06.03 11:33:40.
