data_PCOD9152427
_publ_section_title
;
Structure prediction by ZEFSAII (Michael W. Deem and Ramdas Pophale) SiO2 
 PCOD9152427
Probable space group: P 2/M
;
_chemical_formula_sum "Si O2"
_cell_formula_units_Z 28
_cell_length_a 14.122941
_cell_length_b 19.745493
_cell_length_c 5.288276
_cell_angle_alpha 90.000000
_cell_angle_beta 60.365566
_cell_angle_gamma 90.000000
_cell_volume 1281.816678
_symmetry_space_group_name_H-M "P 2/M"
_symmetry_group_IT_number 10
_symmetry_cell_setting 'monoclinic'
loop_
_space_group_symop_operation_xyz
x,y,z
-x,y,-z
-x,-y,-z
x,-y,z
loop_
_atom_site_type_symbol
_atom_site_label
_atom_site_fract_x
_atom_site_fract_y
_atom_site_fract_z
Si Si1 0.426786 0.923696 0.848993
Si Si2 0.842253 0.421740 0.961381
Si Si3 0.660229 0.285348 0.681308
Si Si4 0.388419 0.575576 0.496140
Si Si5 0.312697 0.210472 0.858028
Si Si6 0.050424 0.788663 0.184192
Si Si7 0.102012 0.340204 0.615668
O O1 0.500000 0.924741 0.500000
O O2 0.382302 0.000000 0.944735
O O3 0.500000 0.908163 0.000000
O O4 0.340191 0.865417 0.906821
O O5 0.871905 0.500000 0.906957
O O6 0.880512 0.385063 0.657532
O O7 0.712227 0.415569 0.176005
O O8 0.888710 0.389399 0.156286
O O9 0.616345 0.360471 0.682985
O O10 0.634945 0.256879 0.990488
O O11 0.790911 0.293627 0.509080
O O12 0.638294 0.234909 0.475308
O O13 0.500000 0.576315 0.500000
O O14 0.374288 0.500000 0.396566
O O15 0.180828 0.217013 0.019549
O O16 0.000000 0.822074 0.500000
O O17 0.996020 0.713419 0.256017
O O18 0.000000 0.821444 0.000000
#
# Coordination Sequence:
#
# PCOD9152427 Si02
#       7
#     4   4   4   4   4   4   4
#     4  10  23  45  73 104 143 184 211 247 314 384
#     4  10  21  37  60  82 112 158 216 276 333 405
#     4  11  22  37  62  91 124 169 213 273 326 386
#     4   9  20  39  60  84 120 168 220 279 346 401
#     4  12  23  41  66 101 130 164 219 269 311 374
#     4  12  22  38  64  91 122 168 209 259 319 390
#     4  11  20  37  59  84 117 158 209 258 336 403
#
# _framework density 21.843997000000002
#
# number of rings (size 3 to 8) (size 9 to 14) (size 15 to 20)
#    0.000    1.286    2.857    3.857    0.000    2.286 
#    0.000    7.857    0.000   34.286    0.000    0.000 
#    0.000    0.000    0.000    0.000    0.000    0.000 
#
# Total GULP energy -156594.110892 kJ/mol
# GULP energy per Si atom -5592.646818 kJ/mol
# Density = 2.179428 g / cm^3
# Si number density = 21.843997 Si / 1000 Ang^3
#
#
#
# Elastic Constant Matrix: (Units=GPa)
#
#
# Indices 1 2 3 4 5 6 
#
# 1 112.1215 61.4905 56.8235 0.0000 7.6127 0.0000
# 2 61.4905 116.1108 22.8334 0.0000 4.9915 0.0000
# 3 56.8235 22.8334 106.4097 0.0000 33.7183 0.0000
# 4 0.0000 0.0000 0.0000 34.9913 0.0000 1.8575
# 5 7.6127 4.9915 33.7183 0.0000 51.5969 0.0000
# 6 0.0000 0.0000 0.0000 1.8575 0.0000 -6.7308
#
#
#
# Elastic Compliance Matrix: (Units=1/GPa)
#
#
# Indices 1 2 3 4 5 6 
#
# 1 0.017312 -0.007594 -0.008877 0.000000 0.003981 0.000000
# 2 -0.007594 0.012333 0.001806 0.000000 -0.001253 0.000000
# 3 -0.008877 0.001806 0.016888 0.000000 -0.009901 0.000000
# 4 0.000000 0.000000 0.000000 0.028166 0.000000 0.007773
# 5 0.003981 -0.001253 -0.009901 0.000000 0.025385 0.000000
# 6 0.000000 0.000000 0.000000 0.007773 0.000000 -0.146425
#
#
# Mechanical properties :
#
#
# Convention : Reuss Voigt Hill
#
# Bulk Modulus (GPa) = 58.12990 68.54853 63.33922
# Shear Modulus (GPa) = -443.34814 28.87111 -207.23852
#
# Velocity S-wave (km/s) = -14.26190 3.63946 -9.75080
# Velocity P-wave (km/s) = 15.63755 7.00785 9.88492
#
# Compressibility (1/GPa) = 0.01720285
#
# Stress axis : x y z
#
# Youngs Moduli (GPa) = 57.76355 81.08509 59.21416
#
# Poissons Ratio (x) = 0.61573 0.52563
# Poissons Ratio (y) = 0.43864 -0.10692
# Poissons Ratio (z) = 0.51276 -0.14641
#
# Static dielectric constant tensor:
#      x y z
#    x 1.865600 0.000000 0.031590 
#    y 0.000000 1.792450 0.000000 
#    z 0.031590 0.000000 1.917070 
# 
# From -- ./inp_files/9767.got.cif
#   From: 2010.05.17/outbox.cif.g08.bks.cpg/sg10_5_cif.got.tgz:9767.got - 2010.06.03 11:33:40.
