data_PCOD9152409
_publ_section_title
;
Structure prediction by ZEFSAII (Michael W. Deem and Ramdas Pophale) SiO2 
 PCOD9152409
Probable space group: P 2/M
;
_chemical_formula_sum "Si O2"
_cell_formula_units_Z 30
_cell_length_a 12.589582
_cell_length_b 12.128728
_cell_length_c 10.034752
_cell_angle_alpha 90.000000
_cell_angle_beta 76.161662
_cell_angle_gamma 90.000000
_cell_volume 1487.787876
_symmetry_space_group_name_H-M "P 2/M"
_symmetry_group_IT_number 10
_symmetry_cell_setting 'monoclinic'
loop_
_space_group_symop_operation_xyz
x,y,z
-x,y,-z
-x,-y,-z
x,-y,z
loop_
_atom_site_type_symbol
_atom_site_label
_atom_site_fract_x
_atom_site_fract_y
_atom_site_fract_z
Si Si1 0.171233 0.875533 0.527723
Si Si2 0.372779 0.625999 0.069135
Si Si3 0.708335 0.302979 0.189422
Si Si4 0.183051 0.500000 0.707435
Si Si5 0.798071 0.785999 0.776076
Si Si6 0.984212 0.675850 0.353919
Si Si7 0.603824 0.125188 0.373774
Si Si8 0.869343 0.124886 0.033928
O O1 0.193700 0.849661 0.365688
O O2 0.080877 0.790649 0.607007
O O3 0.285379 0.863786 0.572113
O O4 0.131463 0.000000 0.555978
O O5 0.360516 0.500000 0.122749
O O6 0.312269 0.639380 0.945689
O O7 0.500000 0.645799 0.000000
O O8 0.314115 0.717459 0.177426
O O9 0.729355 0.400621 0.285940
O O10 0.611609 0.221078 0.262555
O O11 0.809582 0.218915 0.136554
O O12 0.089691 0.594508 0.706453
O O13 0.821905 0.860156 0.898552
O O14 0.898009 0.698620 0.743777
O O15 0.000000 0.632500 0.500000
O O16 0.500000 0.138459 0.500000
O O17 0.600519 0.000000 0.319733
O O18 0.846102 0.000000 0.088283
O O19 0.000000 0.140077 0.000000
#
# Coordination Sequence:
#
# PCOD9152409 Si02
#       8
#     4   4   4   2   4   4   4   4
#     4  10  21  39  63  92 124 158 195 246 305 362
#     4  10  23  43  62  83 117 160 204 250 296 344
#     4  11  22  40  63  87 118 157 199 245 296 352
#     4  12  21  38  59  84 123 158 196 242 282 364
#     4  10  22  38  60  93 115 158 201 245 299 360
#     4  10  22  38  59  90 125 162 194 242 298 359
#     4  10  22  40  64  91 121 154 197 247 301 359
#     4  10  21  37  59  88 120 152 194 246 298 354
#
# _framework density 20.164164
#
# number of rings (size 3 to 8) (size 9 to 14) (size 15 to 20)
#    0.000    1.733    2.000    1.800    2.800    2.933 
#    1.200    2.000    0.000    2.400    0.000    0.000 
#    0.000    0.000    0.000    0.000    0.000    0.000 
#
# Total GULP energy -167010.592165 kJ/mol
# GULP energy per Si atom -5567.019739 kJ/mol
# Density = 2.011827 g / cm^3
# Si number density = 20.164164 Si / 1000 Ang^3
#
#
#
# Elastic Constant Matrix: (Units=GPa)
#
#
# Indices 1 2 3 4 5 6 
#
# 1 53.9141 26.9797 0.4629 0.0000 -19.8668 0.0000
# 2 26.9797 138.3225 23.5688 0.0000 -20.3405 0.0000
# 3 0.4629 23.5688 41.4263 0.0000 -9.9491 0.0000
# 4 0.0000 0.0000 0.0000 -23.5180 0.0000 25.9694
# 5 -19.8668 -20.3405 -9.9491 0.0000 30.1290 0.0000
# 6 0.0000 0.0000 0.0000 25.9694 0.0000 -7.7678
#
#
#
# Elastic Compliance Matrix: (Units=1/GPa)
#
#
# Indices 1 2 3 4 5 6 
#
# 1 0.026609 -0.003694 0.005886 0.000000 0.016995 0.000000
# 2 -0.003694 0.009049 -0.004589 0.000000 0.002158 0.000000
# 3 0.005886 -0.004589 0.029187 0.000000 0.010421 0.000000
# 4 0.000000 0.000000 0.000000 0.015797 0.000000 0.052813
# 5 0.016995 0.002158 0.010421 0.000000 0.049296 0.000000
# 6 0.000000 0.000000 0.000000 0.052813 0.000000 0.047827
#
#
# Mechanical properties :
#
#
# Convention : Reuss Voigt Hill
#
# Bulk Modulus (GPa) = 16.65238 37.29841 26.97539
# Shear Modulus (GPa) = 24.68220 11.94540 18.31380
#
# Velocity S-wave (km/s) = 3.50246 2.43658 3.01696
# Velocity P-wave (km/s) = 4.96312 5.14329 5.05401
#
# Compressibility (1/GPa) = 0.06005148
#
# Stress axis : x y z
#
# Youngs Moduli (GPa) = 37.58191 110.50705 34.26188
#
# Poissons Ratio (x) = 0.40818 -0.20166
# Poissons Ratio (y) = 0.13881 0.15722
# Poissons Ratio (z) = -0.22120 0.50709
#
# Static dielectric constant tensor:
#      x y z
#    x 1.705480 0.000000 0.026430 
#    y 0.000000 1.702150 0.000000 
#    z 0.026430 0.000000 1.756740 
# 
# From -- ./inp_files/46584.got.cif
#   From: 2010.05.17/outbox.cif.g08.bks.cpg/sg10_24_cif.got.tgz:46584.got - 2010.06.03 11:33:40.
