data_PCOD9152456
_publ_section_title
;
Structure prediction by ZEFSAII (Michael W. Deem and Ramdas Pophale) SiO2 
 PCOD9152456
Probable space group: P 2/M
;
_chemical_formula_sum "Si O2"
_cell_formula_units_Z 28
_cell_length_a 8.992395
_cell_length_b 20.299541
_cell_length_c 14.419792
_cell_angle_alpha 90.000000
_cell_angle_beta 29.285152
_cell_angle_gamma 90.000000
_cell_volume 1287.562639
_symmetry_space_group_name_H-M "P 2/M"
_symmetry_group_IT_number 10
_symmetry_cell_setting 'monoclinic'
loop_
_space_group_symop_operation_xyz
x,y,z
-x,y,-z
-x,-y,-z
x,-y,z
loop_
_atom_site_type_symbol
_atom_site_label
_atom_site_fract_x
_atom_site_fract_y
_atom_site_fract_z
Si Si1 0.815721 0.106247 0.366088
Si Si2 0.828959 0.161899 0.000097
Si Si3 0.254726 0.746831 0.551353
Si Si4 0.158917 0.308072 0.078672
Si Si5 0.343091 0.651910 0.336402
Si Si6 0.213307 0.572130 0.793398
Si Si7 0.261101 0.928245 0.281402
O O1 0.500000 0.075903 0.500000
O O2 0.742412 0.174513 0.460079
O O3 0.068875 0.072082 0.291045
O O4 0.986393 0.129389 0.182533
O O5 0.491756 0.132141 0.171270
O O6 0.866429 0.240412 0.965923
O O7 0.000000 0.142673 0.000000
O O8 0.500000 0.733366 0.500000
O O9 0.345629 0.714663 0.404708
O O10 0.932300 0.718885 0.768378
O O11 0.922064 0.367848 0.191918
O O12 0.462948 0.337513 0.863724
O O13 0.473430 0.594591 0.331261
O O14 0.000000 0.638141 0.500000
O O15 0.220480 0.500000 0.744811
O O16 0.000000 0.568886 0.000000
O O17 0.000000 0.924569 0.500000
O O18 0.419979 0.000000 0.203761
#
# Coordination Sequence:
#
# PCOD9152456 Si02
#       7
#     4   4   4   4   4   4   4
#     4  10  23  40  63  94 125 167 210 271 320 372
#     4  11  23  39  66  94 128 166 213 269 321 390
#     4  10  21  37  60  91 127 157 216 268 313 386
#     4  10  22  39  62  92 127 163 218 263 321 375
#     4  11  23  35  58  91 124 169 200 267 328 374
#     4   9  18  37  62  87 123 169 216 260 314 387
#     4  11  26  45  65  93 131 173 215 260 318 388
#
# _framework density 21.746516
#
# number of rings (size 3 to 8) (size 9 to 14) (size 15 to 20)
#    0.000    1.714    1.429    2.571    8.000    2.571 
#    0.000    1.429    0.000    0.000    0.000    5.000 
#    0.000    0.000    0.000    0.000    0.000    0.000 
#
# Total GULP energy -156065.623432 kJ/mol
# GULP energy per Si atom -5573.772265 kJ/mol
# Density = 2.169702 g / cm^3
# Si number density = 21.746516 Si / 1000 Ang^3
#
#
#
# Elastic Constant Matrix: (Units=GPa)
#
#
# Indices 1 2 3 4 5 6 
#
# 1 78.1733 37.4811 11.3105 0.0000 -26.7188 0.0000
# 2 37.4811 124.6543 19.6851 0.0000 -12.5470 0.0000
# 3 11.3105 19.6851 66.6164 0.0000 -21.3775 0.0000
# 4 0.0000 0.0000 0.0000 21.0540 0.0000 -4.4522
# 5 -26.7188 -12.5470 -21.3775 0.0000 29.7296 0.0000
# 6 0.0000 0.0000 0.0000 -4.4522 0.0000 38.3827
#
#
#
# Elastic Compliance Matrix: (Units=1/GPa)
#
#
# Indices 1 2 3 4 5 6 
#
# 1 0.021588 -0.005132 0.004397 0.000000 0.020398 0.000000
# 2 -0.005132 0.009757 -0.002822 0.000000 -0.002524 0.000000
# 3 0.004397 -0.002822 0.020779 0.000000 0.017702 0.000000
# 4 0.000000 0.000000 0.000000 0.048691 0.000000 0.005648
# 5 0.020398 -0.002524 0.017702 0.000000 0.063632 0.000000
# 6 0.000000 0.000000 0.000000 0.005648 0.000000 0.026709
#
#
# Mechanical properties :
#
#
# Convention : Reuss Voigt Hill
#
# Bulk Modulus (GPa) = 22.21710 45.15526 33.68618
# Shear Modulus (GPa) = 23.44394 31.23109 27.33751
#
# Velocity S-wave (km/s) = 3.28694 3.79376 3.54941
# Velocity P-wave (km/s) = 4.96426 6.32452 5.68522
#
# Compressibility (1/GPa) = 0.04501036
#
# Stress axis : x y z
#
# Youngs Moduli (GPa) = 46.32114 102.49082 48.12470
#
# Poissons Ratio (x) = 0.52603 -0.21160
# Poissons Ratio (y) = 0.23774 0.13579
# Poissons Ratio (z) = -0.20367 0.28919
#
# Static dielectric constant tensor:
#      x y z
#    x 1.486180 0.000000 0.072540 
#    y 0.000000 1.852930 0.000000 
#    z 0.072540 0.000000 1.811910 
# 
# From -- ./inp_files/62536.got.cif
#   From: 2010.05.17/outbox.cif.g08.bks.cpg/sg10_32_cif.got.tgz:62536.got - 2010.06.03 11:33:40.
