data_PCOD9152505
_publ_section_title
;
Structure prediction by ZEFSAII (Michael W. Deem and Ramdas Pophale) SiO2 
 PCOD9152505
Probable space group: P 2/M
;
_chemical_formula_sum "Si O2"
_cell_formula_units_Z 32
_cell_length_a 21.209472
_cell_length_b 15.357455
_cell_length_c 15.249388
_cell_angle_alpha 90.000000
_cell_angle_beta 18.778488
_cell_angle_gamma 90.000000
_cell_volume 1598.955311
_symmetry_space_group_name_H-M "P 2/M"
_symmetry_group_IT_number 10
_symmetry_cell_setting 'monoclinic'
loop_
_space_group_symop_operation_xyz
x,y,z
-x,y,-z
-x,-y,-z
x,-y,z
loop_
_atom_site_type_symbol
_atom_site_label
_atom_site_fract_x
_atom_site_fract_y
_atom_site_fract_z
Si Si1 0.172595 0.845750 0.019286
Si Si2 0.440534 0.728056 0.893827
Si Si3 0.127242 0.698259 0.599617
Si Si4 0.540104 0.735668 0.567981
Si Si5 0.713170 0.598816 0.768119
Si Si6 0.204143 0.094040 0.783061
Si Si7 0.206936 0.901254 0.175729
Si Si8 0.868218 0.398052 0.085567
O O1 0.192006 0.890383 0.088963
O O2 0.977708 0.789093 0.279010
O O3 0.351351 0.777302 0.770063
O O4 0.173323 0.900528 0.928752
O O5 0.656901 0.718588 0.648713
O O6 0.459014 0.704213 0.767992
O O7 0.306477 0.660719 0.122742
O O8 0.352406 0.825019 0.015220
O O9 0.143295 0.642216 0.490615
O O10 0.001363 0.644060 0.835020
O O11 0.676468 0.820956 0.402340
O O12 0.672065 0.658960 0.355244
O O13 0.764079 0.500000 0.722951
O O14 0.500000 0.597327 0.000000
O O15 0.300840 0.000000 0.636308
O O16 0.000000 0.096750 0.000000
O O17 0.000000 0.889678 0.500000
O O18 0.273578 0.000000 0.106308
O O19 0.827664 0.500000 0.123321
O O20 0.000000 0.390862 0.000000
#
# Coordination Sequence:
#
# PCOD9152505 Si02
#       8
#     4   4   4   4   4   4   4   4
#     4  11  23  38  64  87 129 171 206 259 320 385
#     4  10  21  37  63  87 123 161 206 259 314 374
#     4  11  20  37  61  90 123 163 208 261 320 370
#     4  11  22  39  58  88 125 165 208 256 314 379
#     4   9  19  35  59  91 120 152 204 260 312 371
#     4  11  23  39  62  91 123 161 211 265 316 376
#     4  10  22  42  65  92 125 166 214 259 317 386
#     4  11  22  37  62  91 125 169 217 260 315 383
#
# _framework density 20.013066999999999
#
# number of rings (size 3 to 8) (size 9 to 14) (size 15 to 20)
#    0.000    1.500    2.500    3.000    0.000    4.000 
#    0.000    3.125    0.000   12.750    0.000    0.000 
#    0.000    0.000    0.000    0.000    0.000    0.000 
#
# Total GULP energy -178728.014635 kJ/mol
# GULP energy per Si atom -5585.250457 kJ/mol
# Density = 1.996752 g / cm^3
# Si number density = 20.013067 Si / 1000 Ang^3
#
#
#
# Elastic Constant Matrix: (Units=GPa)
#
#
# Indices 1 2 3 4 5 6 
#
# 1 87.8426 48.4175 35.4250 0.0000 19.4016 0.0000
# 2 48.4175 122.9122 38.0529 0.0000 19.7328 0.0000
# 3 35.4250 38.0529 84.9456 0.0000 25.3372 0.0000
# 4 0.0000 0.0000 0.0000 -422.2344 0.0000 364.3896
# 5 19.4016 19.7328 25.3372 0.0000 37.4316 0.0000
# 6 0.0000 0.0000 0.0000 364.3896 0.0000 -292.0453
#
#
#
# Elastic Compliance Matrix: (Units=1/GPa)
#
#
# Indices 1 2 3 4 5 6 
#
# 1 0.016202 -0.004706 -0.003613 0.000000 -0.003471 0.000000
# 2 -0.004706 0.011028 -0.002470 0.000000 -0.001702 0.000000
# 3 -0.003613 -0.002470 0.016838 0.000000 -0.008223 0.000000
# 4 0.000000 0.000000 0.000000 0.030845 0.000000 0.038486
# 5 -0.003471 -0.001702 -0.008223 0.000000 0.034978 0.000000
# 6 0.000000 0.000000 0.000000 0.038486 0.000000 0.044595
#
#
# Mechanical properties :
#
#
# Convention : Reuss Voigt Hill
#
# Bulk Modulus (GPa) = 44.46510 59.94347 52.20428
# Shear Modulus (GPa) = 27.23907 -123.78262 -48.27177
#
# Velocity S-wave (km/s) = 3.69326 -7.87307 -4.91655
# Velocity P-wave (km/s) = 6.36028 7.25463 2.46744
#
# Compressibility (1/GPa) = 0.02248955
#
# Stress axis : x y z
#
# Youngs Moduli (GPa) = 61.72163 90.68077 59.38956
#
# Poissons Ratio (x) = 0.42678 0.21458
# Poissons Ratio (y) = 0.29048 0.14667
# Poissons Ratio (z) = 0.22300 0.22394
#
# Static dielectric constant tensor:
#      x y z
#    x 1.732160 0.000000 0.000650 
#    y 0.000000 1.683710 0.000000 
#    z 0.000650 0.000000 1.708610 
# 
# From -- ./inp_files/70749.got.cif
#   From: 2010.05.17/outbox.cif.g08.bks.cpg/sg10_36_cif.got.tgz:70749.got - 2010.06.03 11:33:40.
