data_PCOD9152758
_publ_section_title
;
Structure prediction by ZEFSAII (Michael W. Deem and Ramdas Pophale) SiO2 
 PCOD9152758
Probable space group: P 2/M
;
_chemical_formula_sum "Si O2"
_cell_formula_units_Z 24
_cell_length_a 23.884858
_cell_length_b 11.055858
_cell_length_c 5.289458
_cell_angle_alpha 90.000000
_cell_angle_beta 126.418805
_cell_angle_gamma 90.000000
_cell_volume 1123.983004
_symmetry_space_group_name_H-M "P 2/M"
_symmetry_group_IT_number 10
_symmetry_cell_setting 'monoclinic'
loop_
_space_group_symop_operation_xyz
x,y,z
-x,y,-z
-x,-y,-z
x,-y,z
loop_
_atom_site_type_symbol
_atom_site_label
_atom_site_fract_x
_atom_site_fract_y
_atom_site_fract_z
Si Si1 0.632901 0.635713 0.412819
Si Si2 0.456369 0.202453 0.122457
Si Si3 0.031094 0.860859 0.333388
Si Si4 0.659100 0.867817 0.840448
Si Si5 0.185093 0.787075 0.722481
Si Si6 0.208812 0.362141 0.293683
O O1 0.625232 0.500000 0.501689
O O2 0.637455 0.747917 0.622601
O O3 0.706814 0.637664 0.467771
O O4 0.571195 0.668921 0.055587
O O5 0.500000 0.205073 0.500000
O O6 0.385177 0.137911 0.019222
O O7 0.500000 0.151206 0.000000
O O8 0.114096 0.860552 0.553518
O O9 0.000000 0.801713 0.500000
O O10 0.005393 0.000000 0.264702
O O11 0.000000 0.801905 0.000000
O O12 0.643758 0.000000 0.681604
O O13 0.741905 0.857913 0.100545
O O14 0.180640 0.706508 0.460251
O O15 0.190459 0.705197 0.986326
O O16 0.185303 0.500000 0.223590
#
# Coordination Sequence:
#
# PCOD9152758 Si02
#       6
#     4   4   4   4   4   4
#     4  10  23  45  69  97 131 171 222 277 336 395
#     4  12  25  46  64  98 131 175 216 277 338 394
#     4  10  21  38  61  93 130 166 203 252 320 390
#     4  11  25  45  69 100 132 170 225 277 329 393
#     4  11  21  40  66  96 125 168 212 265 318 376
#     4  10  21  38  65  94 126 164 215 268 319 378
#
# _framework density 21.352636
#
# number of rings (size 3 to 8) (size 9 to 14) (size 15 to 20)
#    0.000    1.333    3.333    2.000    0.000    3.333 
#    0.000    1.667    0.000   10.000    0.000    0.000 
#    0.000    0.000    0.000    0.000    0.000    0.000 
#
# Total GULP energy -133905.398624 kJ/mol
# GULP energy per Si atom -5579.391609 kJ/mol
# Density = 2.130404 g / cm^3
# Si number density = 21.352636 Si / 1000 Ang^3
#
#
#
# Elastic Constant Matrix: (Units=GPa)
#
#
# Indices 1 2 3 4 5 6 
#
# 1 142.1148 27.6384 47.1490 0.0000 -18.5174 0.0000
# 2 27.6384 118.0992 21.3860 0.0000 -16.9861 0.0000
# 3 47.1490 21.3860 127.4650 0.0000 -15.6071 0.0000
# 4 0.0000 0.0000 0.0000 14.4700 0.0000 5.3428
# 5 -18.5174 -16.9861 -15.6071 0.0000 41.1277 0.0000
# 6 0.0000 0.0000 0.0000 5.3428 0.0000 48.2083
#
#
#
# Elastic Compliance Matrix: (Units=1/GPa)
#
#
# Indices 1 2 3 4 5 6 
#
# 1 0.008442 -0.001164 -0.002644 0.000000 0.002317 0.000000
# 2 -0.001164 0.009314 -0.000761 0.000000 0.003034 0.000000
# 3 -0.002644 -0.000761 0.009194 0.000000 0.001984 0.000000
# 4 0.000000 0.000000 0.000000 0.072057 0.000000 -0.007986
# 5 0.002317 0.003034 0.001984 0.000000 0.027364 0.000000
# 6 0.000000 0.000000 0.000000 -0.007986 0.000000 0.021628
#
#
# Mechanical properties :
#
#
# Convention : Reuss Voigt Hill
#
# Bulk Modulus (GPa) = 56.13739 64.44733 60.29236
# Shear Modulus (GPa) = 30.66107 40.19490 35.42799
#
# Velocity S-wave (km/s) = 3.79349 4.34341 4.07773
# Velocity P-wave (km/s) = 6.74797 7.44322 7.10410
#
# Compressibility (1/GPa) = 0.01781344
#
# Stress axis : x y z
#
# Youngs Moduli (GPa) = 118.45719 107.36601 108.76904
#
# Poissons Ratio (x) = 0.12493 0.28755
# Poissons Ratio (y) = 0.13784 0.08275
# Poissons Ratio (z) = 0.31316 0.08168
#
# Static dielectric constant tensor:
#      x y z
#    x 1.637560 0.000000 0.154790 
#    y 0.000000 1.770880 0.000000 
#    z 0.154790 0.000000 1.626070 
# 
# From -- ./inp_files/13214.got.cif
#   From: 2010.05.17/outbox.cif.g08.bks.cpg/sg10_7_cif.got.tgz:13214.got - 2010.06.03 11:33:40.
