data_PCOD9152046
_publ_section_title
;
Structure prediction by ZEFSAII (Michael W. Deem and Ramdas Pophale) SiO2 
 PCOD9152046
Probable space group: P 2/M
;
_chemical_formula_sum "Si O2"
_cell_formula_units_Z 26
_cell_length_a 5.512503
_cell_length_b 10.151835
_cell_length_c 29.427215
_cell_angle_alpha 90.000000
_cell_angle_beta 57.005437
_cell_angle_gamma 90.000000
_cell_volume 1381.213181
_symmetry_space_group_name_H-M "P 2/M"
_symmetry_group_IT_number 10
_symmetry_cell_setting 'monoclinic'
loop_
_space_group_symop_operation_xyz
x,y,z
-x,y,-z
-x,-y,-z
x,-y,z
loop_
_atom_site_type_symbol
_atom_site_label
_atom_site_fract_x
_atom_site_fract_y
_atom_site_fract_z
Si Si1 0.500000 0.756683 0.500000
Si Si2 0.231993 0.660660 0.845088
Si Si3 0.166072 0.660355 0.028955
Si Si4 0.045746 0.849278 0.394721
Si Si5 0.105039 0.658816 0.210363
Si Si6 0.977406 0.646966 0.326130
Si Si7 0.326005 0.641715 0.429130
O O1 0.325963 0.664542 0.482959
O O2 0.712895 0.839587 0.446109
O O3 0.242437 0.500000 0.842532
O O4 0.560571 0.705003 0.821676
O O5 0.020895 0.697585 0.907929
O O6 0.090998 0.706146 0.811719
O O7 0.172902 0.500000 0.026851
O O8 0.500000 0.703749 0.000000
O O9 0.000000 0.703071 0.000000
O O10 0.204815 0.771025 0.418163
O O11 0.108360 0.761576 0.343792
O O12 0.129228 0.000000 0.380847
O O13 0.117045 0.500000 0.203821
O O14 0.974711 0.683195 0.273509
O O15 0.117606 0.500000 0.316054
O O16 0.656263 0.634829 0.378517
O O17 0.194428 0.500000 0.429389
#
# Coordination Sequence:
#
# PCOD9152046 Si02
#       7
#     2   4   4   4   4   4   4
#     4  10  22  38  56  76 102 132 168 208 254 314
#     4   9  16  25  39  62  89 124 171 220 263 306
#     4   9  15  22  33  51  83 125 168 211 254 303
#     4  11  23  37  55  77 103 134 168 208 260 321
#     4   9  17  28  45  66  92 123 168 223 268 306
#     4   9  20  36  54  74  98 132 171 219 266 313
#     4  10  21  36  56  79 103 130 168 212 262 315
#
# _framework density 18.824031000000002
#
# number of rings (size 3 to 8) (size 9 to 14) (size 15 to 20)
#    0.000    2.462    0.000    2.308    2.154    9.846 
#    0.000    0.000    0.000    0.000    0.000    0.000 
#    0.000    0.000    0.000    0.000    0.000   15.385 
#
# Total GULP energy -144865.498750 kJ/mol
# GULP energy per Si atom -5571.749952 kJ/mol
# Density = 1.878119 g / cm^3
# Si number density = 18.824031 Si / 1000 Ang^3
#
#
#
# Elastic Constant Matrix: (Units=GPa)
#
#
# Indices 1 2 3 4 5 6 
#
# 1 79.0579 22.2864 17.9105 0.0000 26.0835 0.0000
# 2 22.2864 85.1189 14.9757 0.0000 14.0102 0.0000
# 3 17.9105 14.9757 80.8198 0.0000 28.1272 0.0000
# 4 0.0000 0.0000 0.0000 -16.1847 0.0000 -2.3559
# 5 26.0835 14.0102 28.1272 0.0000 32.6015 0.0000
# 6 0.0000 0.0000 0.0000 -2.3559 0.0000 4.8004
#
#
#
# Elastic Compliance Matrix: (Units=1/GPa)
#
#
# Indices 1 2 3 4 5 6 
#
# 1 0.017795 -0.002550 0.001576 0.000000 -0.014501 0.000000
# 2 -0.002550 0.013031 -0.000873 0.000000 -0.002807 0.000000
# 3 0.001576 -0.000873 0.017855 0.000000 -0.016290 0.000000
# 4 0.000000 0.000000 0.000000 -0.057667 0.000000 -0.028301
# 5 -0.014501 -0.002807 -0.016290 0.000000 0.057536 0.000000
# 6 0.000000 0.000000 0.000000 -0.028301 0.000000 0.194429
#
#
# Mechanical properties :
#
#
# Convention : Reuss Voigt Hill
#
# Bulk Modulus (GPa) = 22.22808 39.48241 30.85525
# Shear Modulus (GPa) = 19.10814 16.89836 18.00325
#
# Velocity S-wave (km/s) = 3.18951 2.99942 3.09592
# Velocity P-wave (km/s) = 5.03964 5.74590 5.40432
#
# Compressibility (1/GPa) = 0.04498814
#
# Stress axis : x y z
#
# Youngs Moduli (GPa) = 56.19550 76.73742 56.00637
#
# Poissons Ratio (x) = 0.19565 -0.08824
# Poissons Ratio (y) = 0.14328 0.04887
# Poissons Ratio (z) = -0.08854 0.06696
#
# Static dielectric constant tensor:
#      x y z
#    x 1.727340 0.000000 -0.019700 
#    y 0.000000 1.629680 0.000000 
#    z -0.019700 0.000000 1.660200 
# 
# From -- ./inp_files/94270.got.cif
#   From: 2010.05.17/outbox.cif.g08.bks.cpg/sg10_48_cif.got.tgz:94270.got - 2010.06.03 11:33:40.
