data_PCOD9152346
_publ_section_title
;
Structure prediction by ZEFSAII (Michael W. Deem and Ramdas Pophale) SiO2 
 PCOD9152346
Probable space group: P 2/M
;
_chemical_formula_sum "Si O2"
_cell_formula_units_Z 14
_cell_length_a 7.322969
_cell_length_b 9.902841
_cell_length_c 12.105689
_cell_angle_alpha 90.000000
_cell_angle_beta 53.083736
_cell_angle_gamma 90.000000
_cell_volume 701.879715
_symmetry_space_group_name_H-M "P 2/M"
_symmetry_group_IT_number 10
_symmetry_cell_setting 'monoclinic'
loop_
_space_group_symop_operation_xyz
x,y,z
-x,y,-z
-x,-y,-z
x,-y,z
loop_
_atom_site_type_symbol
_atom_site_label
_atom_site_fract_x
_atom_site_fract_y
_atom_site_fract_z
Si Si1 0.000000 0.244284 0.500000
Si Si2 0.255352 0.654044 0.858374
Si Si3 0.982524 0.346382 0.272174
Si Si4 0.353508 0.153902 0.205194
O O1 0.083047 0.330591 0.575177
O O2 0.205120 0.159433 0.372768
O O3 0.341652 0.500000 0.841899
O O4 0.218230 0.680458 0.741359
O O5 0.421239 0.760880 0.853284
O O6 0.000000 0.660202 0.000000
O O7 0.060873 0.500000 0.223337
O O8 0.188132 0.239210 0.184086
O O9 0.390679 0.000000 0.159110
#
# Coordination Sequence:
#
# PCOD9152346 Si02
#       4
#     2   4   4   4
#     4   8  20  36  58  84 110 144 182 226 278 326
#     4  10  22  39  58  82 111 146 188 228 272 325
#     4   9  19  36  59  83 109 145 183 229 275 321
#     4  10  21  37  58  83 114 148 180 226 278 330
#
# _framework density 19.946438000000001
#
# number of rings (size 3 to 8) (size 9 to 14) (size 15 to 20)
#    1.714    0.857    0.000    1.714    0.000    4.000 
#    0.000   10.000    0.000    0.000    0.000    0.000 
#    0.000    0.000    0.000    0.000    0.000    0.000 
#
# Total GULP energy -77947.135087 kJ/mol
# GULP energy per Si atom -5567.652506 kJ/mol
# Density = 1.990104 g / cm^3
# Si number density = 19.946438 Si / 1000 Ang^3
#
#
#
# Elastic Constant Matrix: (Units=GPa)
#
#
# Indices 1 2 3 4 5 6 
#
# 1 29.8988 49.2190 5.3795 0.0000 -10.8195 0.0000
# 2 49.2190 161.7733 2.9017 0.0000 -20.9483 0.0000
# 3 5.3795 2.9017 70.4837 0.0000 8.4368 0.0000
# 4 0.0000 0.0000 0.0000 30.7352 0.0000 -39.0367
# 5 -10.8195 -20.9483 8.4368 0.0000 28.3120 0.0000
# 6 0.0000 0.0000 0.0000 -39.0367 0.0000 25.7329
#
#
#
# Elastic Compliance Matrix: (Units=1/GPa)
#
#
# Indices 1 2 3 4 5 6 
#
# 1 0.073460 -0.020287 -0.006569 0.000000 0.015020 0.000000
# 2 -0.020287 0.012497 0.000887 0.000000 0.001230 0.000000
# 3 -0.006569 0.000887 0.015425 0.000000 -0.006451 0.000000
# 4 0.000000 0.000000 0.000000 -0.035109 0.000000 -0.053259
# 5 0.015020 0.001230 -0.006451 0.000000 0.043893 0.000000
# 6 0.000000 0.000000 0.000000 -0.053259 0.000000 -0.041933
#
#
# Mechanical properties :
#
#
# Convention : Reuss Voigt Hill
#
# Bulk Modulus (GPa) = 20.22561 41.90624 31.06593
# Shear Modulus (GPa) = 36.58890 30.59973 33.59431
#
# Velocity S-wave (km/s) = 4.28759 3.92100 4.10838
# Velocity P-wave (km/s) = 5.88839 6.44624 6.17362
#
# Compressibility (1/GPa) = 0.04944227
#
# Stress axis : x y z
#
# Youngs Moduli (GPa) = 13.61283 80.01829 64.83102
#
# Poissons Ratio (x) = 1.62335 0.42590
# Poissons Ratio (y) = 0.27617 -0.05749
# Poissons Ratio (z) = 0.08943 -0.07095
#
# Static dielectric constant tensor:
#      x y z
#    x 1.676190 0.000000 0.032130 
#    y 0.000000 1.680430 0.000000 
#    z 0.032130 0.000000 1.773680 
# 
# From -- ./inp_files/8718.got.cif
#   From: 2010.05.17/outbox.cif.g08.bks.cpg/sg10_5_cif.got.tgz:8718.got - 2010.06.03 11:33:40.
