data_PCOD9152040
_publ_section_title
;
Structure prediction by ZEFSAII (Michael W. Deem and Ramdas Pophale) SiO2 
 PCOD9152040
Probable space group: P 2/M
;
_chemical_formula_sum "Si O2"
_cell_formula_units_Z 24
_cell_length_a 9.896254
_cell_length_b 13.005153
_cell_length_c 14.316333
_cell_angle_alpha 90.000000
_cell_angle_beta 29.995707
_cell_angle_gamma 90.000000
_cell_volume 921.152911
_symmetry_space_group_name_H-M "P 2/M"
_symmetry_group_IT_number 10
_symmetry_cell_setting 'monoclinic'
loop_
_space_group_symop_operation_xyz
x,y,z
-x,y,-z
-x,-y,-z
x,-y,z
loop_
_atom_site_type_symbol
_atom_site_label
_atom_site_fract_x
_atom_site_fract_y
_atom_site_fract_z
Si Si1 0.835371 0.611099 0.301809
Si Si2 0.757871 0.887777 0.778620
Si Si3 0.741688 0.164079 0.287291
Si Si4 0.354194 0.837710 0.867814
Si Si5 0.977867 0.326580 0.624960
Si Si6 0.556340 0.388545 0.125583
O O1 0.742629 0.500000 0.321919
O O2 0.737624 0.711997 0.306242
O O3 0.818301 0.623133 0.424394
O O4 0.154204 0.610378 0.094815
O O5 0.609983 0.885594 0.766793
O O6 0.962176 0.793586 0.661178
O O7 0.872903 0.000000 0.729373
O O8 0.500000 0.868580 0.000000
O O9 0.500000 0.124957 0.500000
O O10 0.674683 0.132384 0.221877
O O11 0.069704 0.140634 0.093960
O O12 0.421201 0.715371 0.827483
O O13 0.677167 0.372145 0.810353
O O14 0.000000 0.338378 0.500000
O O15 0.513320 0.500000 0.197776
#
# Coordination Sequence:
#
# PCOD9152040 Si02
#       6
#     4   4   4   4   4   4
#     4  10  21  36  55  84 120 163 210 245 283 346
#     4  10  21  41  68  91 113 147 193 246 312 377
#     4  10  21  36  59  83 118 169 204 246 291 346
#     4   9  20  39  59  88 119 158 203 248 301 360
#     4  11  22  34  55  87 122 154 189 244 307 366
#     4   9  18  34  55  78 113 157 200 243 294 355
#
# _framework density 26.054306
#
# number of rings (size 3 to 8) (size 9 to 14) (size 15 to 20)
#    0.000    2.167    0.000    4.000    4.667    4.000 
#    0.000    5.000    0.000    2.000    0.000    0.000 
#    0.000    0.000    0.000    0.000    0.000    0.000 
#
# Total GULP energy -134044.880260 kJ/mol
# GULP energy per Si atom -5585.203344 kJ/mol
# Density = 2.599501 g / cm^3
# Si number density = 26.054306 Si / 1000 Ang^3
#
#
#
# Elastic Constant Matrix: (Units=GPa)
#
#
# Indices 1 2 3 4 5 6 
#
# 1 58.1678 -4.1332 7.9330 0.0000 0.7688 0.0000
# 2 -4.1332 127.1752 10.9710 0.0000 7.5263 0.0000
# 3 7.9330 10.9710 99.3727 0.0000 2.2471 0.0000
# 4 0.0000 0.0000 0.0000 -6.3084 0.0000 6.1967
# 5 0.7688 7.5263 2.2471 0.0000 45.1963 0.0000
# 6 0.0000 0.0000 0.0000 6.1967 0.0000 -26.8492
#
#
#
# Elastic Compliance Matrix: (Units=1/GPa)
#
#
# Indices 1 2 3 4 5 6 
#
# 1 0.017447 0.000714 -0.001464 0.000000 -0.000343 0.000000
# 2 0.000714 0.008043 -0.000915 0.000000 -0.001306 0.000000
# 3 -0.001464 -0.000915 0.010289 0.000000 -0.000334 0.000000
# 4 0.000000 0.000000 0.000000 -0.204993 0.000000 -0.047312
# 5 -0.000343 -0.001306 -0.000334 0.000000 0.022366 0.000000
# 6 0.000000 0.000000 0.000000 -0.047312 0.000000 -0.048164
#
#
# Mechanical properties :
#
#
# Convention : Reuss Voigt Hill
#
# Bulk Modulus (GPa) = 30.81992 34.91748 32.86870
# Shear Modulus (GPa) = -27.64462 20.40407 -3.62027
#
# Velocity S-wave (km/s) = -3.26089 2.80149 -1.18005
# Velocity P-wave (km/s) = 1.52417 4.88829 3.28423
#
# Compressibility (1/GPa) = 0.03244655
#
# Stress axis : x y z
#
# Youngs Moduli (GPa) = 57.31809 124.33781 97.19495
#
# Poissons Ratio (x) = -0.08872 0.14227
# Poissons Ratio (y) = -0.04090 0.08897
# Poissons Ratio (z) = 0.08390 0.11381
#
# Static dielectric constant tensor:
#      x y z
#    x 2.031390 0.000000 0.008920 
#    y 0.000000 2.064480 0.000000 
#    z 0.008920 0.000000 2.198950 
# 
# From -- ./inp_files/65025.got.cif
#   From: 2010.05.17/outbox.cif.g08.bks.cpg/sg10_33_cif.got.tgz:65025.got - 2010.06.03 11:33:40.
