data_PCOD9152342
_publ_section_title
;
Structure prediction by ZEFSAII (Michael W. Deem and Ramdas Pophale) SiO2 
 PCOD9152342
Probable space group: P 2/M
;
_chemical_formula_sum "Si O2"
_cell_formula_units_Z 28
_cell_length_a 15.131274
_cell_length_b 8.619864
_cell_length_c 22.538693
_cell_angle_alpha 90.000000
_cell_angle_beta 149.386994
_cell_angle_gamma 90.000000
_cell_volume 1497.008990
_symmetry_space_group_name_H-M "P 2/M"
_symmetry_group_IT_number 10
_symmetry_cell_setting 'monoclinic'
loop_
_space_group_symop_operation_xyz
x,y,z
-x,y,-z
-x,-y,-z
x,-y,z
loop_
_atom_site_type_symbol
_atom_site_label
_atom_site_fract_x
_atom_site_fract_y
_atom_site_fract_z
Si Si1 0.460710 0.688865 0.383019
Si Si2 0.766440 0.685610 0.231282
Si Si3 0.777795 0.311010 0.646676
Si Si4 0.175917 0.687671 0.868306
Si Si5 0.557334 0.184053 0.883302
Si Si6 0.914818 0.184025 0.515623
Si Si7 0.526069 0.313991 0.290415
O O1 0.460860 0.500000 0.383359
O O2 0.311772 0.737157 0.343121
O O3 0.645718 0.737666 0.518209
O O4 0.443551 0.738624 0.305261
O O5 0.753014 0.500000 0.227943
O O6 0.745223 0.730460 0.150197
O O7 0.620896 0.759810 0.188746
O O8 0.955300 0.738383 0.362557
O O9 0.779534 0.500000 0.646681
O O10 0.975405 0.260185 0.754355
O O11 0.179380 0.500000 0.873994
O O12 0.287422 0.754750 0.986141
O O13 0.561935 0.248632 0.819351
O O14 0.557496 0.000000 0.881493
O O15 0.725574 0.258790 0.406696
O O16 0.000000 0.206918 0.500000
O O17 0.902266 0.000000 0.519032
O O18 0.522118 0.500000 0.285651
#
# Coordination Sequence:
#
# PCOD9152342 Si02
#       7
#     4   4   4   4   4   4   4
#     4   8  15  29  55  89 115 137 168 218 279 327
#     4  11  22  37  59  84 108 140 185 232 274 321
#     4   8  14  30  56  86 116 136 166 221 278 327
#     4  10  21  37  58  83 108 141 185 230 274 321
#     4  12  25  39  53  74 109 152 189 225 274 328
#     4  11  22  35  53  80 114 147 179 217 268 325
#     4  11  21  35  57  83 111 145 186 228 272 319
#
# _framework density 18.703962000000001
#
# number of rings (size 3 to 8) (size 9 to 14) (size 15 to 20)
#    0.000    1.857    1.429    4.714    0.000    5.714 
#    0.000    0.714    0.000    6.000    0.000    6.000 
#    0.000    0.000    0.000    0.000    0.000    0.000 
#
# Total GULP energy -156400.765935 kJ/mol
# GULP energy per Si atom -5585.741641 kJ/mol
# Density = 1.866139 g / cm^3
# Si number density = 18.703962 Si / 1000 Ang^3
#
#
#
# Elastic Constant Matrix: (Units=GPa)
#
#
# Indices 1 2 3 4 5 6 
#
# 1 95.4002 -16.6711 -25.5486 0.0000 -17.1525 0.0000
# 2 -16.6711 -449.6146 -706.8488 0.0000 216.0095 0.0000
# 3 -25.5486 -706.8488 -991.6684 0.0000 308.3313 0.0000
# 4 0.0000 0.0000 0.0000 -31.1434 0.0000 -7.1569
# 5 -17.1525 216.0095 308.3313 0.0000 -75.5174 0.0000
# 6 0.0000 0.0000 0.0000 -7.1569 0.0000 -12.0880
#
#
#
# Elastic Compliance Matrix: (Units=1/GPa)
#
#
# Indices 1 2 3 4 5 6 
#
# 1 0.015402 0.000893 0.004924 0.000000 0.019159 0.000000
# 2 0.000893 0.018736 -0.011957 0.000000 0.004568 0.000000
# 3 0.004924 -0.011957 0.013338 0.000000 0.019139 0.000000
# 4 0.000000 0.000000 0.000000 -0.037166 0.000000 0.022005
# 5 0.019159 0.004568 0.019139 0.000000 0.073614 0.000000
# 6 0.000000 0.000000 0.000000 0.022005 0.000000 -0.095755
#
#
# Mechanical properties :
#
#
# Convention : Reuss Voigt Hill
#
# Bulk Modulus (GPa) = 28.41346 -316.00219 -143.79437
# Shear Modulus (GPa) = 410.45746 -63.53738 173.46004
#
# Velocity S-wave (km/s) = 14.82990 -5.83470 9.64059
# Velocity P-wave (km/s) = 17.56299 14.65291 6.84656
#
# Compressibility (1/GPa) = 0.03519459
#
# Stress axis : x y z
#
# Youngs Moduli (GPa) = 64.92857 53.37378 74.97148
#
# Poissons Ratio (x) = -0.04767 -0.36913
# Poissons Ratio (y) = -0.05799 0.89646
# Poissons Ratio (z) = -0.31968 0.63821
#
# Static dielectric constant tensor:
#      x y z
#    x 1.654220 0.000000 -0.011550 
#    y 0.000000 1.626600 0.000000 
#    z -0.011550 0.000000 1.626630 
# 
# From -- ./inp_files/49107.got.cif
#   From: 2010.05.17/outbox.cif.g08.bks.cpg/sg10_25_cif.got.tgz:49107.got - 2010.06.03 11:33:40.
