data_PCOD9152601
_publ_section_title
;
Structure prediction by ZEFSAII (Michael W. Deem and Ramdas Pophale) SiO2 
 PCOD9152601
Probable space group: P 2/M
;
_chemical_formula_sum "Si O2"
_cell_formula_units_Z 32
_cell_length_a 28.312673
_cell_length_b 9.147249
_cell_length_c 22.057391
_cell_angle_alpha 90.000000
_cell_angle_beta 16.908440
_cell_angle_gamma 90.000000
_cell_volume 1661.438740
_symmetry_space_group_name_H-M "P 2/M"
_symmetry_group_IT_number 10
_symmetry_cell_setting 'monoclinic'
loop_
_space_group_symop_operation_xyz
x,y,z
-x,y,-z
-x,-y,-z
x,-y,z
loop_
_atom_site_type_symbol
_atom_site_label
_atom_site_fract_x
_atom_site_fract_y
_atom_site_fract_z
Si Si1 0.593276 0.328606 0.113281
Si Si2 0.032878 0.331929 0.855371
Si Si3 0.083357 0.826087 0.580881
Si Si4 0.262724 0.825074 0.478846
Si Si5 0.775619 0.668642 0.012890
Si Si6 0.950392 0.324264 0.629308
Si Si7 0.442286 0.834349 0.639736
Si Si8 0.746694 0.331531 0.295133
O O1 0.564725 0.500000 0.134690
O O2 0.434072 0.240341 0.290298
O O3 0.638864 0.318625 0.128364
O O4 0.762381 0.281960 0.873240
O O5 0.017004 0.500000 0.853863
O O6 0.117456 0.238138 0.699324
O O7 0.153319 0.332356 0.765477
O O8 0.864252 0.287918 0.094850
O O9 0.225412 0.787458 0.454127
O O10 0.068078 0.748626 0.534511
O O11 0.082516 0.000000 0.573793
O O12 0.921322 0.771451 0.813812
O O13 0.263724 0.000000 0.483015
O O14 0.827144 0.500000 0.951248
O O15 0.699765 0.724253 0.168132
O O16 0.957750 0.500000 0.628588
O O17 0.000000 0.288551 0.500000
O O18 0.500000 0.826706 0.500000
O O19 0.601046 0.780231 0.479904
O O20 0.395597 0.000000 0.712310
O O21 0.690963 0.500000 0.352921
#
# Coordination Sequence:
#
# PCOD9152601 Si02
#       8
#     4   4   4   4   4   4   4   4
#     4   9  19  36  59  86 112 142 182 227 274 326
#     4   9  19  35  55  75 100 135 178 232 283 331
#     4  10  22  38  56  84 120 152 186 227 276 335
#     4  11  23  35  52  81 116 149 185 227 274 331
#     4  10  21  38  59  80 104 142 193 241 284 335
#     4   9  19  39  66  93 118 147 188 231 269 321
#     4  11  24  36  48  71 106 141 178 230 287 338
#     4   9  19  36  53  73  98 131 182 233 281 339
#
# _framework density 19.260414999999998
#
# number of rings (size 3 to 8) (size 9 to 14) (size 15 to 20)
#    0.000    2.250    0.000    3.750    1.750    9.750 
#    0.000    1.875    0.000    3.750    0.000    0.000 
#    0.000    0.000    0.000    0.000    0.000    0.000 
#
# Total GULP energy -178595.944449 kJ/mol
# GULP energy per Si atom -5581.123264 kJ/mol
# Density = 1.921658 g / cm^3
# Si number density = 19.260415 Si / 1000 Ang^3
#
#
#
# Elastic Constant Matrix: (Units=GPa)
#
#
# Indices 1 2 3 4 5 6 
#
# 1 104.1509 30.8354 27.1423 0.0000 5.9590 0.0000
# 2 30.8354 29.0247 15.7931 0.0000 9.4872 0.0000
# 3 27.1423 15.7931 35.9173 0.0000 13.9421 0.0000
# 4 0.0000 0.0000 0.0000 20.2294 0.0000 2.6463
# 5 5.9590 9.4872 13.9421 0.0000 27.5818 0.0000
# 6 0.0000 0.0000 0.0000 2.6463 0.0000 28.4612
#
#
#
# Elastic Compliance Matrix: (Units=1/GPa)
#
#
# Indices 1 2 3 4 5 6 
#
# 1 0.015409 -0.013996 -0.007548 0.000000 0.005300 0.000000
# 2 -0.013996 0.059068 -0.010803 0.000000 -0.011833 0.000000
# 3 -0.007548 -0.010803 0.045062 0.000000 -0.017432 0.000000
# 4 0.000000 0.000000 0.000000 0.050042 0.000000 -0.004653
# 5 0.005300 -0.011833 -0.017432 0.000000 0.047992 0.000000
# 6 0.000000 0.000000 0.000000 -0.004653 0.000000 0.035568
#
#
# Mechanical properties :
#
#
# Convention : Reuss Voigt Hill
#
# Bulk Modulus (GPa) = 18.23275 35.18161 26.70718
# Shear Modulus (GPa) = 14.87580 21.60928 18.24254
#
# Velocity S-wave (km/s) = 2.78214 3.35319 3.08092
# Velocity P-wave (km/s) = 4.45055 5.77042 5.15292
#
# Compressibility (1/GPa) = 0.05484638
#
# Stress axis : x y z
#
# Youngs Moduli (GPa) = 64.89800 16.92956 22.19157
#
# Poissons Ratio (x) = 0.23694 0.16750
# Poissons Ratio (y) = 0.90829 0.23974
# Poissons Ratio (z) = 0.48983 0.18289
#
# Static dielectric constant tensor:
#      x y z
#    x 1.709310 0.000000 -0.010760 
#    y 0.000000 1.651500 0.000000 
#    z -0.010760 0.000000 1.676160 
# 
# From -- ./inp_files/86916.got.cif
#   From: 2010.05.17/outbox.cif.g08.bks.cpg/sg10_44_cif.got.tgz:86916.got - 2010.06.03 11:33:40.
