data_PCOD9152478
_publ_section_title
;
Structure prediction by ZEFSAII (Michael W. Deem and Ramdas Pophale) SiO2 
 PCOD9152478
Probable space group: P 2/M
;
_chemical_formula_sum "Si O2"
_cell_formula_units_Z 32
_cell_length_a 13.819690
_cell_length_b 27.690919
_cell_length_c 10.002449
_cell_angle_alpha 90.000000
_cell_angle_beta 152.139279
_cell_angle_gamma 90.000000
_cell_volume 1788.792451
_symmetry_space_group_name_H-M "P 2/M"
_symmetry_group_IT_number 10
_symmetry_cell_setting 'monoclinic'
loop_
_space_group_symop_operation_xyz
x,y,z
-x,y,-z
-x,-y,-z
x,-y,z
loop_
_atom_site_type_symbol
_atom_site_label
_atom_site_fract_x
_atom_site_fract_y
_atom_site_fract_z
Si Si1 0.349797 0.945085 0.187975
Si Si2 0.492505 0.694140 0.646175
Si Si3 0.384908 0.194635 0.223797
Si Si4 0.150846 0.623693 0.307714
Si Si5 0.483706 0.442861 0.139819
Si Si6 0.023173 0.137036 0.868119
Si Si7 0.855284 0.369765 0.199464
Si Si8 0.446120 0.880181 0.778788
O O1 0.500000 0.944326 0.500000
O O2 0.475256 0.925884 0.212192
O O3 0.277309 0.000000 0.079788
O O4 0.166883 0.907777 0.998615
O O5 0.500000 0.678109 0.500000
O O6 0.536479 0.751068 0.700202
O O7 0.275110 0.673859 0.434933
O O8 0.675765 0.668817 0.951561
O O9 0.500000 0.175930 0.500000
O O10 0.445800 0.163977 0.168687
O O11 0.144290 0.184545 0.962821
O O12 0.329321 0.584233 0.555451
O O13 0.003568 0.626728 0.254561
O O14 0.000000 0.612711 0.000000
O O15 0.491215 0.500000 0.171168
O O16 0.500000 0.433593 0.000000
O O17 0.268521 0.419336 0.924341
O O18 0.797398 0.128865 0.533563
O O19 0.000000 0.139236 0.000000
O O20 0.000000 0.357111 0.500000
O O21 0.500000 0.883522 0.000000
#
# Coordination Sequence:
#
# PCOD9152478 Si02
#       8
#     4   4   4   4   4   4   4   4
#     4  10  21  37  61  91 121 157 209 251 287 362
#     4  10  22  40  61  88 118 153 201 249 296 362
#     4  10  21  40  61  88 114 152 206 243 289 367
#     4  11  22  40  63  87 124 159 196 247 305 354
#     4  10  22  39  62  91 122 159 205 249 294 357
#     4  11  19  38  65  85 115 160 200 243 298 352
#     4  11  22  40  61  90 120 161 199 247 301 358
#     4  11  23  40  58  88 125 156 192 256 310 348
#
# _framework density 17.889163
#
# number of rings (size 3 to 8) (size 9 to 14) (size 15 to 20)
#    0.000    1.500    5.000    0.750    0.000    5.000 
#    4.500    1.250    0.000    0.000    0.000    0.000 
#    0.000    0.000    0.000    0.000    0.000    0.000 
#
# Total GULP energy -178546.871045 kJ/mol
# GULP energy per Si atom -5579.589720 kJ/mol
# Density = 1.784845 g / cm^3
# Si number density = 17.889163 Si / 1000 Ang^3
#
#
#
# Elastic Constant Matrix: (Units=GPa)
#
#
# Indices 1 2 3 4 5 6 
#
# 1 145.5310 44.1223 59.7469 0.0000 -1.4821 0.0000
# 2 44.1223 97.5820 27.9257 0.0000 0.6287 0.0000
# 3 59.7469 27.9257 126.1210 0.0000 -10.1840 0.0000
# 4 0.0000 0.0000 0.0000 18.8734 0.0000 -8.5504
# 5 -1.4821 0.6287 -10.1840 0.0000 41.9547 0.0000
# 6 0.0000 0.0000 0.0000 -8.5504 0.0000 27.5199
#
#
#
# Elastic Compliance Matrix: (Units=1/GPa)
#
#
# Indices 1 2 3 4 5 6 
#
# 1 0.009377 -0.003152 -0.003788 0.000000 -0.000541 0.000000
# 2 -0.003152 0.012025 -0.001217 0.000000 -0.000587 0.000000
# 3 -0.003788 -0.001217 0.010183 0.000000 0.002356 0.000000
# 4 0.000000 0.000000 0.000000 0.061665 0.000000 0.019159
# 5 -0.000541 -0.000587 0.002356 0.000000 0.024397 0.000000
# 6 0.000000 0.000000 0.000000 0.019159 0.000000 0.042290
#
#
# Mechanical properties :
#
#
# Convention : Reuss Voigt Hill
#
# Bulk Modulus (GPa) = 65.48206 70.31376 67.89791
# Shear Modulus (GPa) = 27.57259 33.49886 30.53573
#
# Velocity S-wave (km/s) = 3.93020 4.33202 4.13600
# Velocity P-wave (km/s) = 7.56829 8.02574 7.80037
#
# Compressibility (1/GPa) = 0.01527136
#
# Stress axis : x y z
#
# Youngs Moduli (GPa) = 106.64862 83.15964 98.20430
#
# Poissons Ratio (x) = 0.26214 0.37196
# Poissons Ratio (y) = 0.33618 0.11948
# Poissons Ratio (z) = 0.40395 0.10118
#
# Static dielectric constant tensor:
#      x y z
#    x 1.599720 0.000000 0.006520 
#    y 0.000000 1.619290 0.000000 
#    z 0.006520 0.000000 1.594820 
# 
# From -- ./inp_files/26212.got.cif
#   From: 2010.05.17/outbox.cif.g08.bks.cpg/sg10_14_cif.got.tgz:26212.got - 2010.06.03 11:33:40.
