data_PCOD9152237
_publ_section_title
;
Structure prediction by ZEFSAII (Michael W. Deem and Ramdas Pophale) SiO2 
 PCOD9152237
Probable space group: P 2/M
;
_chemical_formula_sum "Si O2"
_cell_formula_units_Z 32
_cell_length_a 12.801482
_cell_length_b 24.935321
_cell_length_c 5.269899
_cell_angle_alpha 90.000000
_cell_angle_beta 77.920167
_cell_angle_gamma 90.000000
_cell_volume 1644.950507
_symmetry_space_group_name_H-M "P 2/M"
_symmetry_group_IT_number 10
_symmetry_cell_setting 'monoclinic'
loop_
_space_group_symop_operation_xyz
x,y,z
-x,y,-z
-x,-y,-z
x,-y,z
loop_
_atom_site_type_symbol
_atom_site_label
_atom_site_fract_x
_atom_site_fract_y
_atom_site_fract_z
Si Si1 0.102980 0.151564 0.320223
Si Si2 0.930507 0.436589 0.781847
Si Si3 0.750723 0.650181 0.873577
Si Si4 0.626307 0.680365 0.457089
Si Si5 0.898276 0.258192 0.925890
Si Si6 0.374681 0.095030 0.605082
Si Si7 0.745764 0.060270 0.851306
Si Si8 0.273255 0.792998 0.605825
O O1 0.053749 0.204457 0.218343
O O2 0.164016 0.105159 0.138625
O O3 0.196613 0.179371 0.437724
O O4 0.000000 0.125017 0.500000
O O5 0.907220 0.500000 0.768248
O O6 0.823244 0.402220 0.858409
O O7 0.000000 0.420211 0.500000
O O8 0.000000 0.428896 0.000000
O O9 0.674544 0.648235 0.669764
O O10 0.835020 0.699362 0.788420
O O11 0.685578 0.663299 0.165100
O O12 0.500000 0.673326 0.500000
O O13 0.652831 0.742947 0.506453
O O14 0.808573 0.233248 0.154143
O O15 0.000000 0.286787 0.000000
O O16 0.500000 0.088973 0.500000
O O17 0.311583 0.074684 0.386652
O O18 0.344868 0.157706 0.665177
O O19 0.336360 0.064491 0.874971
O O20 0.788683 0.000000 0.813341
#
# Coordination Sequence:
#
# PCOD9152237 Si02
#       8
#     4   4   4   4   4   4   4   4
#     4  11  21  37  60  83 120 153 188 239 295 366
#     4  10  21  39  64  95 132 171 209 254 310 367
#     4  11  23  38  61  93 126 163 207 255 303 362
#     4  11  23  39  60  87 126 167 208 256 306 359
#     4  11  20  34  58  88 121 157 190 239 300 364
#     4  11  23  40  64  85 110 147 192 247 304 356
#     4  11  25  42  60  85 114 148 195 243 293 361
#     4  10  21  37  55  86 119 154 195 240 298 366
#
# _framework density 19.453472999999999
#
# number of rings (size 3 to 8) (size 9 to 14) (size 15 to 20)
#    0.000    1.250    3.750    2.625    0.000    3.250 
#    0.000    2.500    0.000    4.875    0.000    0.000 
#    0.000    0.000    0.000    0.000    0.000    0.000 
#
# Total GULP energy -178535.505584 kJ/mol
# GULP energy per Si atom -5579.234550 kJ/mol
# Density = 1.940920 g / cm^3
# Si number density = 19.453473 Si / 1000 Ang^3
#
#
#
# Elastic Constant Matrix: (Units=GPa)
#
#
# Indices 1 2 3 4 5 6 
#
# 1 108.1522 42.5398 37.3134 0.0000 -7.5897 0.0000
# 2 42.5398 88.9357 28.6681 0.0000 -7.4579 0.0000
# 3 37.3134 28.6681 96.0881 0.0000 -4.5878 0.0000
# 4 0.0000 0.0000 0.0000 -1.9911 0.0000 1.9407
# 5 -7.5897 -7.4579 -4.5878 0.0000 33.7840 0.0000
# 6 0.0000 0.0000 0.0000 1.9407 0.0000 12.1332
#
#
#
# Elastic Compliance Matrix: (Units=1/GPa)
#
#
# Indices 1 2 3 4 5 6 
#
# 1 0.012340 -0.004725 -0.003321 0.000000 0.001278 0.000000
# 2 -0.004725 0.014423 -0.002382 0.000000 0.001799 0.000000
# 3 -0.003321 -0.002382 0.012428 0.000000 0.000416 0.000000
# 4 0.000000 0.000000 0.000000 -0.434506 0.000000 0.069498
# 5 0.001278 0.001799 0.000416 0.000000 0.030340 0.000000
# 6 0.000000 0.000000 0.000000 0.069498 0.000000 0.071302
#
#
# Mechanical properties :
#
#
# Convention : Reuss Voigt Hill
#
# Bulk Modulus (GPa) = 54.54505 56.69096 55.61800
# Shear Modulus (GPa) = -18.74735 21.09555 1.17410
#
# Velocity S-wave (km/s) = -3.10772 3.29661 0.77772
# Velocity P-wave (km/s) = 3.90158 6.61024 5.42760
#
# Compressibility (1/GPa) = 0.01833347
#
# Stress axis : x y z
#
# Youngs Moduli (GPa) = 81.03577 69.33435 80.46655
#
# Poissons Ratio (x) = 0.32759 0.26726
# Poissons Ratio (y) = 0.38288 0.19171
# Poissons Ratio (z) = 0.26915 0.16519
#
# Static dielectric constant tensor:
#      x y z
#    x 1.673560 0.000000 0.038100 
#    y 0.000000 1.701610 0.000000 
#    z 0.038100 0.000000 1.807700 
# 
# From -- ./inp_files/8077.got.cif
#   From: 2010.05.17/outbox.cif.g08.bks.cpg/sg10_5_cif.got.tgz:8077.got - 2010.06.03 11:33:40.
