data_PCOD9152563
_publ_section_title
;
Structure prediction by ZEFSAII (Michael W. Deem and Ramdas Pophale) SiO2 
 PCOD9152563
Probable space group: P 2/M
;
_chemical_formula_sum "Si O2"
_cell_formula_units_Z 26
_cell_length_a 5.724562
_cell_length_b 30.516116
_cell_length_c 7.585336
_cell_angle_alpha 90.000000
_cell_angle_beta 63.098418
_cell_angle_gamma 90.000000
_cell_volume 1181.698066
_symmetry_space_group_name_H-M "P 2/M"
_symmetry_group_IT_number 10
_symmetry_cell_setting 'monoclinic'
loop_
_space_group_symop_operation_xyz
x,y,z
-x,y,-z
-x,-y,-z
x,-y,z
loop_
_atom_site_type_symbol
_atom_site_label
_atom_site_fract_x
_atom_site_fract_y
_atom_site_fract_z
Si Si1 0.748653 0.773982 0.216695
Si Si2 0.180287 0.952223 0.619795
Si Si3 0.024873 0.405486 0.701854
Si Si4 0.183641 0.500000 0.617715
Si Si5 0.500000 0.636175 0.000000
Si Si6 0.748500 0.321667 0.216600
Si Si7 0.500000 0.184139 0.000000
Si Si8 0.024277 0.142191 0.702231
O O1 0.733013 0.726154 0.306599
O O2 0.512386 0.784686 0.165777
O O3 0.788604 0.816780 0.319903
O O4 0.000000 0.772619 0.000000
O O5 0.500000 0.951523 0.500000
O O6 0.114373 0.905873 0.731760
O O7 0.000000 0.951906 0.500000
O O8 0.116934 0.000000 0.723564
O O9 0.752990 0.393876 0.890059
O O10 0.000000 0.406867 0.500000
O O11 0.117522 0.453459 0.729148
O O12 0.211161 0.364371 0.679961
O O13 0.500000 0.500000 0.500000
O O14 0.000000 0.500000 0.500000
O O15 0.512484 0.667410 0.165637
O O16 0.000000 0.320284 0.000000
O O17 0.752685 0.154063 0.889968
O O18 0.000000 0.140770 0.500000
#
# Coordination Sequence:
#
# PCOD9152563 Si02
#       8
#     4   4   4   2   2   4   2   4
#     4   9  19  36  58  86 124 163 204 252 314 366
#     4   9  19  36  61  90 122 162 205 257 318 374
#     4  10  23  40  65  91 124 163 206 258 312 370
#     4  10  24  43  69  95 130 167 207 257 321 376
#     4  10  21  39  62  92 123 163 209 253 310 368
#     4   9  19  37  60  89 123 162 205 256 307 372
#     4  10  21  38  57  86 123 168 202 253 312 370
#     4  10  22  36  61  88 122 159 210 258 309 373
#
# _framework density 22.002237999999998
#
# number of rings (size 3 to 8) (size 9 to 14) (size 15 to 20)
#    0.000    2.462    0.000    0.462    8.615    2.154 
#    0.000    5.385    0.000    4.154    0.000    0.000 
#    0.000    0.000    0.000    0.000    0.000    0.000 
#
# Total GULP energy -144885.525364 kJ/mol
# GULP energy per Si atom -5572.520206 kJ/mol
# Density = 2.195216 g / cm^3
# Si number density = 22.002238 Si / 1000 Ang^3
#
#
#
# Elastic Constant Matrix: (Units=GPa)
#
#
# Indices 1 2 3 4 5 6 
#
# 1 86.4009 53.9275 7.4976 0.0000 -10.0880 0.0000
# 2 53.9275 274.7707 26.3290 0.0000 1.9086 0.0000
# 3 7.4976 26.3290 49.3686 0.0000 -10.7267 0.0000
# 4 0.0000 0.0000 0.0000 22.1847 0.0000 5.4415
# 5 -10.0880 1.9086 -10.7267 0.0000 34.2554 0.0000
# 6 0.0000 0.0000 0.0000 5.4415 0.0000 22.6046
#
#
#
# Elastic Compliance Matrix: (Units=1/GPa)
#
#
# Indices 1 2 3 4 5 6 
#
# 1 0.013775 -0.002764 0.000319 0.000000 0.004310 0.000000
# 2 -0.002764 0.004417 -0.002324 0.000000 -0.001788 0.000000
# 3 0.000319 -0.002324 0.023065 0.000000 0.007446 0.000000
# 4 0.000000 0.000000 0.000000 0.047905 0.000000 -0.011532
# 5 0.004310 -0.001788 0.007446 0.000000 0.032893 0.000000
# 6 0.000000 0.000000 0.000000 -0.011532 0.000000 0.047015
#
#
# Mechanical properties :
#
#
# Convention : Reuss Voigt Hill
#
# Bulk Modulus (GPa) = 31.52863 65.11646 48.32254
# Shear Modulus (GPa) = 26.42972 37.32801 31.87887
#
# Velocity S-wave (km/s) = 3.46963 4.12339 3.81056
# Velocity P-wave (km/s) = 5.51471 7.23391 6.43201
#
# Compressibility (1/GPa) = 0.03171721
#
# Stress axis : x y z
#
# Youngs Moduli (GPa) = 72.59690 226.39783 43.35600
#
# Poissons Ratio (x) = 0.62575 -0.01381
# Poissons Ratio (y) = 0.20065 0.10078
# Poissons Ratio (z) = -0.02313 0.52623
#
# Static dielectric constant tensor:
#      x y z
#    x 1.915240 0.000000 0.017060 
#    y 0.000000 1.822770 0.000000 
#    z 0.017060 0.000000 1.846180 
# 
# From -- ./inp_files/15819.got.cif
#   From: 2010.05.17/outbox.cif.g08.bks.cpg/sg10_8_cif.got.tgz:15819.got - 2010.06.03 11:33:40.
