data_PCOD9152412
_publ_section_title
;
Structure prediction by ZEFSAII (Michael W. Deem and Ramdas Pophale) SiO2 
 PCOD9152412
Probable space group: P 2/M
;
_chemical_formula_sum "Si O2"
_cell_formula_units_Z 28
_cell_length_a 7.515955
_cell_length_b 14.266794
_cell_length_c 15.655687
_cell_angle_alpha 90.000000
_cell_angle_beta 112.302589
_cell_angle_gamma 90.000000
_cell_volume 1553.155105
_symmetry_space_group_name_H-M "P 2/M"
_symmetry_group_IT_number 10
_symmetry_cell_setting 'monoclinic'
loop_
_space_group_symop_operation_xyz
x,y,z
-x,y,-z
-x,-y,-z
x,-y,z
loop_
_atom_site_type_symbol
_atom_site_label
_atom_site_fract_x
_atom_site_fract_y
_atom_site_fract_z
Si Si1 0.942535 0.389682 0.237815
Si Si2 0.495675 0.610448 0.900638
Si Si3 0.867673 0.699437 0.894909
Si Si4 0.007587 0.251066 0.596737
Si Si5 0.759721 0.895329 0.812820
Si Si6 0.637812 0.891556 0.340954
Si Si7 0.716661 0.894119 0.609790
O O1 0.984550 0.500000 0.256160
O O2 0.716669 0.379408 0.175417
O O3 0.988697 0.329254 0.329782
O O4 0.054825 0.349096 0.176517
O O5 0.546305 0.500000 0.909814
O O6 0.654064 0.664431 0.875863
O O7 0.500000 0.642481 0.000000
O O8 0.858191 0.810898 0.879113
O O9 0.000000 0.674832 0.000000
O O10 0.193185 0.182461 0.636927
O O11 0.000000 0.291414 0.500000
O O12 0.823249 0.184295 0.576328
O O13 0.527254 0.882201 0.762312
O O14 0.817028 0.891984 0.722701
O O15 0.798430 0.000000 0.852197
O O16 0.505637 0.879086 0.402422
O O17 0.705647 0.000000 0.352487
O O18 0.738669 0.000000 0.580424
#
# Coordination Sequence:
#
# PCOD9152412 Si02
#       7
#     4   4   4   4   4   4   4
#     4  11  24  41  58  81 115 150 187 237 289 334
#     4  10  21  37  59  89 115 137 181 241 291 336
#     4  12  21  35  63  88 113 149 185 227 287 342
#     4  12  23  35  57  85 112 151 197 233 280 338
#     4   8  17  36  56  79 116 154 184 218 270 334
#     4   8  17  35  57  80 113 150 185 233 283 325
#     4   8  17  35  55  79 112 145 184 234 279 324
#
# _framework density 18.027819000000001
#
# number of rings (size 3 to 8) (size 9 to 14) (size 15 to 20)
#    0.857    1.286    2.857    1.714    0.000    2.857 
#    0.000    1.429    0.000    0.429    0.000    6.000 
#    0.000    0.000    0.000    0.000    0.000    0.000 
#
# Total GULP energy -156114.039090 kJ/mol
# GULP energy per Si atom -5575.501396 kJ/mol
# Density = 1.798679 g / cm^3
# Si number density = 18.027819 Si / 1000 Ang^3
#
#
#
# Elastic Constant Matrix: (Units=GPa)
#
#
# Indices 1 2 3 4 5 6 
#
# 1 82.7533 67.3811 36.7305 0.0000 -17.0586 0.0000
# 2 67.3811 125.6379 61.8484 0.0000 -12.7022 0.0000
# 3 36.7305 61.8484 91.0110 0.0000 -20.4140 0.0000
# 4 0.0000 0.0000 0.0000 14.9726 0.0000 3.7056
# 5 -17.0586 -12.7022 -20.4140 0.0000 20.2531 0.0000
# 6 0.0000 0.0000 0.0000 3.7056 0.0000 25.8752
#
#
#
# Elastic Compliance Matrix: (Units=1/GPa)
#
#
# Indices 1 2 3 4 5 6 
#
# 1 0.024542 -0.012658 0.002007 0.000000 0.014755 0.000000
# 2 -0.012658 0.018502 -0.009372 0.000000 -0.008505 0.000000
# 3 0.002007 -0.009372 0.020167 0.000000 0.016140 0.000000
# 4 0.000000 0.000000 0.000000 0.069243 0.000000 -0.009916
# 5 0.014755 -0.008505 0.016140 0.000000 0.072737 0.000000
# 6 0.000000 0.000000 0.000000 -0.009916 0.000000 0.040067
#
#
# Mechanical properties :
#
#
# Convention : Reuss Voigt Hill
#
# Bulk Modulus (GPa) = 43.17101 70.14690 56.65896
# Shear Modulus (GPa) = 17.06332 21.11632 19.08982
#
# Velocity S-wave (km/s) = 3.07986 3.42617 3.25762
# Velocity P-wave (km/s) = 6.05362 7.39231 6.75620
#
# Compressibility (1/GPa) = 0.02316369
#
# Stress axis : x y z
#
# Youngs Moduli (GPa) = 40.74695 54.04761 49.58594
#
# Poissons Ratio (x) = 0.68415 -0.09953
# Poissons Ratio (y) = 0.51579 0.46474
# Poissons Ratio (z) = -0.08179 0.50656
#
# Static dielectric constant tensor:
#      x y z
#    x 1.609610 0.000000 -0.004440 
#    y 0.000000 1.595120 0.000000 
#    z -0.004440 0.000000 1.654700 
# 
# From -- ./inp_files/28352.got.cif
#   From: 2010.05.17/outbox.cif.g08.bks.cpg/sg10_15_cif.got.tgz:28352.got - 2010.06.03 11:33:40.
