data_PCOD9152690
_publ_section_title
;
Structure prediction by ZEFSAII (Michael W. Deem and Ramdas Pophale) SiO2 
 PCOD9152690
Probable space group: P 2/M
;
_chemical_formula_sum "Si O2"
_cell_formula_units_Z 32
_cell_length_a 8.829157
_cell_length_b 24.237780
_cell_length_c 15.434444
_cell_angle_alpha 90.000000
_cell_angle_beta 149.099870
_cell_angle_gamma 90.000000
_cell_volume 1696.211683
_symmetry_space_group_name_H-M "P 2/M"
_symmetry_group_IT_number 10
_symmetry_cell_setting 'monoclinic'
loop_
_space_group_symop_operation_xyz
x,y,z
-x,y,-z
-x,-y,-z
x,-y,z
loop_
_atom_site_type_symbol
_atom_site_label
_atom_site_fract_x
_atom_site_fract_y
_atom_site_fract_z
Si Si1 0.016027 0.561982 0.297459
Si Si2 0.376350 0.438018 0.297459
Si Si3 0.184251 0.743422 0.500000
Si Si4 0.202655 0.065464 0.181324
Si Si5 0.817728 0.871307 0.500000
Si Si6 0.332699 0.673983 0.175660
Si Si7 0.841317 0.065464 0.181324
Si Si8 0.305719 0.326017 0.824340
O O1 0.892658 0.500000 0.246073
O O2 0.796410 0.611264 0.209431
O O3 0.297330 0.566190 0.500000
O O4 0.149695 0.567605 0.266463
O O5 0.345559 0.500000 0.246072
O O6 0.331884 0.388736 0.209431
O O7 0.229211 0.807127 0.500000
O O8 0.484642 0.710848 0.666748
O O9 0.000000 0.741941 0.500000
O O10 0.984398 0.710848 0.333252
O O11 0.505179 0.098838 0.334056
O O12 0.019234 0.073453 0.179490
O O13 0.269005 0.000000 0.205796
O O14 0.000000 0.081193 0.000000
O O15 0.000000 0.874232 0.500000
O O16 0.003010 0.901162 0.665944
O O17 0.501457 0.676348 0.167638
O O18 0.000000 0.693428 0.000000
O O19 0.848383 0.000000 0.205796
O O20 0.500000 0.081193 0.000000
O O21 0.500000 0.306572 0.000000
#
# Coordination Sequence:
#
# PCOD9152690 Si02
#       8
#     4   4   4   4   4   4   4   4
#     4   9  18  34  57  85 115 144 179 228 284 341
#     4   9  18  34  57  85 115 144 179 228 284 341
#     4   9  22  42  59  80 114 151 192 241 286 333
#     4  10  21  38  60  89 124 158 195 239 287 342
#     4  11  22  38  61  87 119 156 196 243 292 345
#     4  11  22  39  60  83 111 147 190 235 284 340
#     4  10  21  38  60  89 124 158 195 239 287 342
#     4  11  22  39  60  83 111 147 190 235 284 340
#
# _framework density 18.865570999999999
#
# number of rings (size 3 to 8) (size 9 to 14) (size 15 to 20)
#    0.000    2.000    1.250    3.000    0.000    5.000 
#    0.000    8.750    0.000    0.000    0.000    0.000 
#    0.000    0.000    0.000    0.000    0.000    0.000 
#
# Total GULP energy -178781.373968 kJ/mol
# GULP energy per Si atom -5586.917936 kJ/mol
# Density = 1.882263 g / cm^3
# Si number density = 18.865571 Si / 1000 Ang^3
#
#
#
# Elastic Constant Matrix: (Units=GPa)
#
#
# Indices 1 2 3 4 5 6 
#
# 1 53.9781 51.6634 61.6650 0.0000 2.5297 0.0000
# 2 51.6634 118.3464 102.7576 0.0000 1.6731 0.0000
# 3 61.6650 102.7576 182.8847 0.0000 1.6913 0.0000
# 4 0.0000 0.0000 0.0000 -8.1557 0.0000 -1.0148
# 5 2.5297 1.6731 1.6913 0.0000 34.7568 0.0000
# 6 0.0000 0.0000 0.0000 -1.0148 0.0000 22.8337
#
#
#
# Elastic Compliance Matrix: (Units=1/GPa)
#
#
# Indices 1 2 3 4 5 6 
#
# 1 0.035311 -0.009892 -0.006332 0.000000 -0.001786 0.000000
# 2 -0.009892 0.019274 -0.007496 0.000000 0.000157 0.000000
# 3 -0.006332 -0.007496 0.011812 0.000000 0.000247 0.000000
# 4 0.000000 0.000000 0.000000 -0.121939 0.000000 -0.005419
# 5 -0.001786 0.000157 0.000247 0.000000 0.028882 0.000000
# 6 0.000000 0.000000 0.000000 -0.005419 0.000000 0.043554
#
#
# Mechanical properties :
#
#
# Convention : Reuss Voigt Hill
#
# Bulk Modulus (GPa) = 52.74629 87.48680 70.11655
# Shear Modulus (GPa) = 70.77019 19.16184 44.96602
#
# Velocity S-wave (km/s) = 6.13142 3.19047 4.88740
# Velocity P-wave (km/s) = 8.83999 7.74897 8.31240
#
# Compressibility (1/GPa) = 0.01895868
#
# Stress axis : x y z
#
# Youngs Moduli (GPa) = 28.32012 51.88309 84.65860
#
# Poissons Ratio (x) = 0.51322 0.53602
# Poissons Ratio (y) = 0.28014 0.63458
# Poissons Ratio (z) = 0.17931 0.38890
#
# Static dielectric constant tensor:
#      x y z
#    x 1.631920 0.000000 0.000430 
#    y 0.000000 1.633760 0.000000 
#    z 0.000430 0.000000 1.645170 
# 
# From -- ./inp_files/62712.got.cif
#   From: 2010.05.17/outbox.cif.g08.bks.cpg/sg10_32_cif.got.tgz:62712.got - 2010.06.03 11:33:40.
