data_PCOD9152663
_publ_section_title
;
Structure prediction by ZEFSAII (Michael W. Deem and Ramdas Pophale) SiO2 
 PCOD9152663
Probable space group: P 2/M
;
_chemical_formula_sum "Si O2"
_cell_formula_units_Z 16
_cell_length_a 16.115485
_cell_length_b 7.857745
_cell_length_c 20.542069
_cell_angle_alpha 90.000000
_cell_angle_beta 161.423604
_cell_angle_gamma 90.000000
_cell_volume 828.683666
_symmetry_space_group_name_H-M "P 2/M"
_symmetry_group_IT_number 10
_symmetry_cell_setting 'monoclinic'
loop_
_space_group_symop_operation_xyz
x,y,z
-x,y,-z
-x,-y,-z
x,-y,z
loop_
_atom_site_type_symbol
_atom_site_label
_atom_site_fract_x
_atom_site_fract_y
_atom_site_fract_z
Si Si1 0.566422 0.500000 0.672734
Si Si2 0.991839 0.500000 0.885488
Si Si3 0.265511 0.806304 0.024577
Si Si4 0.714763 0.705137 0.107342
Si Si5 0.301674 0.806290 0.542569
O O1 0.396656 0.667086 0.561157
O O2 0.715214 0.500000 0.715186
O O3 0.792830 0.500000 0.896394
O O4 0.054898 0.667079 0.890342
O O5 0.512077 0.787310 0.256085
O O6 0.169379 0.000000 0.959154
O O7 0.344172 0.770524 0.008987
O O8 0.720388 0.500000 0.110152
O O9 0.003306 0.770536 0.338433
O O10 0.500000 0.759711 0.000000
O O11 0.328413 0.000000 0.538598
#
# Coordination Sequence:
#
# PCOD9152663 Si02
#       5
#     2   2   4   4   4
#     4   9  18  35  59  86 117 151 188 232 282 336
#     4   9  18  35  59  86 117 151 188 232 282 336
#     4  10  21  38  60  86 117 151 189 234 283 337
#     4  11  23  39  61  85 113 152 193 236 286 340
#     4  10  21  38  60  86 117 151 189 234 283 337
#
# _framework density 19.307731
#
# number of rings (size 3 to 8) (size 9 to 14) (size 15 to 20)
#    0.000    2.000    2.500    0.750    0.000    4.000 
#    0.000   12.500    0.000    3.000    0.000    0.000 
#    0.000    0.000    0.000    0.000    0.000    0.000 
#
# Total GULP energy -89372.178444 kJ/mol
# GULP energy per Si atom -5585.761153 kJ/mol
# Density = 1.926379 g / cm^3
# Si number density = 19.307731 Si / 1000 Ang^3
#
#
#
# Elastic Constant Matrix: (Units=GPa)
#
#
# Indices 1 2 3 4 5 6 
#
# 1 152.1305 85.5393 62.8263 0.0000 31.3869 0.0000
# 2 85.5393 172.8840 64.8124 0.0000 25.7085 0.0000
# 3 62.8263 64.8124 107.6748 0.0000 23.6913 0.0000
# 4 0.0000 0.0000 0.0000 10.7237 0.0000 -6.0673
# 5 31.3869 25.7085 23.6913 0.0000 41.5391 0.0000
# 6 0.0000 0.0000 0.0000 -6.0673 0.0000 5.8491
#
#
#
# Elastic Compliance Matrix: (Units=1/GPa)
#
#
# Indices 1 2 3 4 5 6 
#
# 1 0.010716 -0.003471 -0.003264 0.000000 -0.004087 0.000000
# 2 -0.003471 0.008801 -0.003031 0.000000 -0.001096 0.000000
# 3 -0.003264 -0.003031 0.013792 0.000000 -0.003523 0.000000
# 4 0.000000 0.000000 0.000000 0.225735 0.000000 0.234158
# 5 -0.004087 -0.001096 -0.003523 0.000000 0.029850 0.000000
# 6 0.000000 0.000000 0.000000 0.234158 0.000000 0.413863
#
#
# Mechanical properties :
#
#
# Convention : Reuss Voigt Hill
#
# Bulk Modulus (GPa) = 72.58893 95.44947 84.01920
# Shear Modulus (GPa) = 6.87870 26.25646 16.56758
#
# Velocity S-wave (km/s) = 1.88955 3.69167 2.93248
# Velocity P-wave (km/s) = 6.51444 8.22888 7.42133
#
# Compressibility (1/GPa) = 0.01377621
#
# Stress axis : x y z
#
# Youngs Moduli (GPa) = 93.31781 113.62740 72.50710
#
# Poissons Ratio (x) = 0.39435 0.23668
# Poissons Ratio (y) = 0.32386 0.21979
# Poissons Ratio (z) = 0.30462 0.34444
#
# Static dielectric constant tensor:
#      x y z
#    x 1.646790 0.000000 -0.034650 
#    y 0.000000 1.679060 0.000000 
#    z -0.034650 0.000000 1.674500 
# 
# From -- ./inp_files/69149.got.cif
#   From: 2010.05.17/outbox.cif.g08.bks.cpg/sg10_35_cif.got.tgz:69149.got - 2010.06.03 11:33:40.
