data_PCOD9152855
_publ_section_title
;
Structure prediction by ZEFSAII (Michael W. Deem and Ramdas Pophale) SiO2 
 PCOD9152855
Probable space group: P 2/M
;
_chemical_formula_sum "Si O2"
_cell_formula_units_Z 28
_cell_length_a 12.443356
_cell_length_b 14.221036
_cell_length_c 9.103947
_cell_angle_alpha 90.000000
_cell_angle_beta 60.361497
_cell_angle_gamma 90.000000
_cell_volume 1400.230761
_symmetry_space_group_name_H-M "P 2/M"
_symmetry_group_IT_number 10
_symmetry_cell_setting 'monoclinic'
loop_
_space_group_symop_operation_xyz
x,y,z
-x,y,-z
-x,-y,-z
x,-y,z
loop_
_atom_site_type_symbol
_atom_site_label
_atom_site_fract_x
_atom_site_fract_y
_atom_site_fract_z
Si Si1 0.811736 0.759874 0.253923
Si Si2 0.405957 0.218245 0.371204
Si Si3 0.651774 0.890478 0.177124
Si Si4 0.733308 0.888896 0.796276
Si Si5 0.828604 0.610039 0.998003
Si Si6 0.464616 0.603917 0.853498
Si Si7 0.959927 0.246947 0.692288
O O1 0.689357 0.755409 0.436613
O O2 0.771044 0.837210 0.161615
O O3 0.924096 0.783478 0.285982
O O4 0.845342 0.666238 0.139668
O O5 0.524444 0.152809 0.322205
O O6 0.330904 0.164755 0.294173
O O7 0.463828 0.314829 0.276139
O O8 0.659083 0.000000 0.207518
O O9 0.653918 0.878668 0.999362
O O10 0.862868 0.837764 0.740134
O O11 0.746573 0.000000 0.756913
O O12 0.863074 0.500000 0.982236
O O13 0.896816 0.666958 0.822724
O O14 0.681956 0.616096 0.064729
O O15 0.497732 0.500000 0.775058
O O16 0.500000 0.608535 0.000000
O O17 0.000000 0.274332 0.500000
#
# Coordination Sequence:
#
# PCOD9152855 Si02
#       7
#     4   4   4   4   4   4   4
#     4  12  26  41  66  97 137 178 217 274 340 393
#     4  12  22  41  66 100 140 176 218 276 326 401
#     4  11  24  42  67  99 133 177 225 273 336 401
#     4  11  24  44  71 100 133 181 229 277 331 391
#     4  11  25  47  71  99 135 176 224 277 342 403
#     4  10  21  38  68 100 132 175 219 271 332 395
#     4  12  25  47  69  96 131 176 230 283 328 394
#
# _framework density 19.996704000000001
#
# number of rings (size 3 to 8) (size 9 to 14) (size 15 to 20)
#    0.000    0.714    4.286    3.429    0.000    5.714 
#    0.000    2.857    0.000    0.000    0.000    0.000 
#    0.000    0.000    0.000    0.000    0.000    0.000 
#
# Total GULP energy -156563.836158 kJ/mol
# GULP energy per Si atom -5591.565577 kJ/mol
# Density = 1.995119 g / cm^3
# Si number density = 19.996704 Si / 1000 Ang^3
#
#
#
# Elastic Constant Matrix: (Units=GPa)
#
#
# Indices 1 2 3 4 5 6 
#
# 1 112.2178 27.3249 23.1260 0.0000 8.4340 0.0000
# 2 27.3249 129.1222 70.2471 0.0000 -6.8143 0.0000
# 3 23.1260 70.2471 125.4664 0.0000 -0.5818 0.0000
# 4 0.0000 0.0000 0.0000 -11.2418 0.0000 -5.6883
# 5 8.4340 -6.8143 -0.5818 0.0000 28.2294 0.0000
# 6 0.0000 0.0000 0.0000 -5.6883 0.0000 20.2381
#
#
#
# Elastic Compliance Matrix: (Units=1/GPa)
#
#
# Indices 1 2 3 4 5 6 
#
# 1 0.009771 -0.001808 -0.000804 0.000000 -0.003372 0.000000
# 2 -0.001808 0.011660 -0.006180 0.000000 0.003227 0.000000
# 3 -0.000804 -0.006180 0.011574 0.000000 -0.001013 0.000000
# 4 0.000000 0.000000 0.000000 -0.077878 0.000000 -0.021889
# 5 -0.003372 0.003227 -0.001013 0.000000 0.037190 0.000000
# 6 0.000000 0.000000 0.000000 -0.021889 0.000000 0.043259
#
#
# Mechanical properties :
#
#
# Convention : Reuss Voigt Hill
#
# Bulk Modulus (GPa) = 64.85186 67.57805 66.21495
# Shear Modulus (GPa) = 85.76399 23.85236 54.80818
#
# Velocity S-wave (km/s) = 6.55608 3.45746 5.24100
# Velocity P-wave (km/s) = 9.47688 7.05738 8.35518
#
# Compressibility (1/GPa) = 0.01541976
#
# Stress axis : x y z
#
# Youngs Moduli (GPa) = 102.34680 85.76621 86.40199
#
# Poissons Ratio (x) = 0.15508 0.06949
# Poissons Ratio (y) = 0.18505 0.53395
# Poissons Ratio (z) = 0.08231 0.53002
#
# Static dielectric constant tensor:
#      x y z
#    x 1.720790 0.000000 0.010030 
#    y 0.000000 1.688640 0.000000 
#    z 0.010030 0.000000 1.713200 
# 
# From -- ./inp_files/25159.got.cif
#   From: 2010.05.17/outbox.cif.g08.bks.cpg/sg10_13_cif.got.tgz:25159.got - 2010.06.03 11:33:40.
