data_PCOD9152978
_publ_section_title
;
Structure prediction by ZEFSAII (Michael W. Deem and Ramdas Pophale) SiO2 
 PCOD9152978
Probable space group: P 2/M
;
_chemical_formula_sum "Si O2"
_cell_formula_units_Z 12
_cell_length_a 8.255075
_cell_length_b 14.042801
_cell_length_c 5.013003
_cell_angle_alpha 90.000000
_cell_angle_beta 90.880921
_cell_angle_gamma 90.000000
_cell_volume 581.060557
_symmetry_space_group_name_H-M "P 2/M"
_symmetry_group_IT_number 10
_symmetry_cell_setting 'monoclinic'
loop_
_space_group_symop_operation_xyz
x,y,z
-x,y,-z
-x,-y,-z
x,-y,z
loop_
_atom_site_type_symbol
_atom_site_label
_atom_site_fract_x
_atom_site_fract_y
_atom_site_fract_z
Si Si1 0.319540 0.712198 0.382587
Si Si2 0.820043 0.611488 0.114399
Si Si3 0.115501 0.108443 0.246704
O O1 0.500000 0.714142 0.500000
O O2 0.208512 0.670876 0.618160
O O3 0.299329 0.646384 0.122172
O O4 0.256332 0.816056 0.296316
O O5 0.796948 0.500000 0.173310
O O6 0.000000 0.624558 0.000000
O O7 0.000000 0.107536 0.500000
O O8 0.173122 0.000000 0.199240
O O9 0.000000 0.137484 0.000000
#
# Coordination Sequence:
#
# PCOD9152978 Si02
#       3
#     4   4   4
#     4  12  24  38  61  92 125 156 191 247 306 352
#     4  11  24  42  63  86 117 161 207 245 287 350
#     4  10  21  39  63  87 115 156 201 242 288 350
#
# _framework density 20.651893000000001
#
# number of rings (size 3 to 8) (size 9 to 14) (size 15 to 20)
#    0.000    1.000    0.000    8.000    0.000    7.333 
#    0.000    0.000    0.000   10.000    0.000    0.000 
#    0.000    0.000    0.000    0.000    0.000    0.000 
#
# Total GULP energy -67187.476836 kJ/mol
# GULP energy per Si atom -5598.956403 kJ/mol
# Density = 2.060489 g / cm^3
# Si number density = 20.651893 Si / 1000 Ang^3
#
#
#
# Elastic Constant Matrix: (Units=GPa)
#
#
# Indices 1 2 3 4 5 6 
#
# 1 49.1839 33.4177 20.9821 0.0000 15.0359 0.0000
# 2 33.4177 137.4881 38.2266 0.0000 21.0312 0.0000
# 3 20.9821 38.2266 137.5061 0.0000 6.8403 0.0000
# 4 0.0000 0.0000 0.0000 32.0917 0.0000 4.2175
# 5 15.0359 21.0312 6.8403 0.0000 42.1464 0.0000
# 6 0.0000 0.0000 0.0000 4.2175 0.0000 -11.5479
#
#
#
# Elastic Compliance Matrix: (Units=1/GPa)
#
#
# Indices 1 2 3 4 5 6 
#
# 1 0.026666 -0.004783 -0.002404 0.000000 -0.006737 0.000000
# 2 -0.004783 0.009325 -0.001730 0.000000 -0.002666 0.000000
# 3 -0.002404 -0.001730 0.008100 0.000000 0.000406 0.000000
# 4 0.000000 0.000000 0.000000 0.029734 0.000000 0.010859
# 5 -0.006737 -0.002666 0.000406 0.000000 0.027395 0.000000
# 6 0.000000 0.000000 0.000000 0.010859 0.000000 -0.082630
#
#
# Mechanical properties :
#
#
# Convention : Reuss Voigt Hill
#
# Bulk Modulus (GPa) = 38.08432 56.60342 47.34387
# Shear Modulus (GPa) = 110.68042 27.97484 69.32763
#
# Velocity S-wave (km/s) = 7.32869 3.68447 5.80022
# Velocity P-wave (km/s) = 9.49179 6.75043 8.23597
#
# Compressibility (1/GPa) = 0.02625752
#
# Stress axis : x y z
#
# Youngs Moduli (GPa) = 37.50028 107.24359 123.45730
#
# Poissons Ratio (x) = 0.51289 0.29684
# Poissons Ratio (y) = 0.17935 0.21356
# Poissons Ratio (z) = 0.09017 0.18551
#
# Static dielectric constant tensor:
#      x y z
#    x 1.713620 0.000000 0.002020 
#    y 0.000000 1.746270 0.000000 
#    z 0.002020 0.000000 1.702710 
# 
# From -- ./inp_files/704.got.cif
#   From: 2010.05.17/outbox.cif.g08.bks.cpg/sg10_1_cif.got.tgz:704.got - 2010.06.03 11:33:40.
