data_PCOD9152121
_publ_section_title
;
Structure prediction by ZEFSAII (Michael W. Deem and Ramdas Pophale) SiO2 
 PCOD9152121
Probable space group: P 2/M
;
_chemical_formula_sum "Si O2"
_cell_formula_units_Z 24
_cell_length_a 9.761058
_cell_length_b 11.708609
_cell_length_c 25.227402
_cell_angle_alpha 90.000000
_cell_angle_beta 27.516801
_cell_angle_gamma 90.000000
_cell_volume 1332.063329
_symmetry_space_group_name_H-M "P 2/M"
_symmetry_group_IT_number 10
_symmetry_cell_setting 'monoclinic'
loop_
_space_group_symop_operation_xyz
x,y,z
-x,y,-z
-x,-y,-z
x,-y,z
loop_
_atom_site_type_symbol
_atom_site_label
_atom_site_fract_x
_atom_site_fract_y
_atom_site_fract_z
Si Si1 0.716141 0.636586 0.349994
Si Si2 0.833913 0.361644 0.896560
Si Si3 0.968220 0.000000 0.314710
Si Si4 0.615396 0.000000 0.547727
Si Si5 0.240311 0.362377 0.960928
Si Si6 0.853702 0.755881 0.720000
Si Si7 0.130922 0.758773 0.512769
O O1 0.727672 0.500000 0.353106
O O2 0.392469 0.675523 0.442827
O O3 0.936123 0.674011 0.226860
O O4 0.853674 0.697197 0.354499
O O5 0.834805 0.500000 0.894026
O O6 0.500000 0.323179 0.000000
O O7 0.890983 0.327678 0.937145
O O8 0.777901 0.000000 0.434665
O O9 0.732533 0.000000 0.347524
O O10 0.151593 0.116179 0.255038
O O11 0.722701 0.114839 0.539430
O O12 0.275246 0.500000 0.949226
O O13 0.561517 0.310709 0.838437
O O14 0.000000 0.330233 0.000000
O O15 0.894768 0.758252 0.642266
O O16 0.000000 0.729360 0.500000
#
# Coordination Sequence:
#
# PCOD9152121 Si02
#       7
#     4   4   2   2   4   4   4
#     4  11  22  36  57  83 115 151 186 230 282 336
#     4   9  17  33  55  79 105 143 190 227 262 321
#     4   9  18  34  61  84 103 142 195 237 270 323
#     4   9  17  38  60  79 106 144 196 232 268 334
#     4  10  21  36  58  84 112 149 189 228 275 336
#     4  11  21  38  60  83 111 148 192 233 278 333
#     4  11  24  37  56  85 116 148 183 234 288 335
#
# _framework density 18.017161000000002
#
# number of rings (size 3 to 8) (size 9 to 14) (size 15 to 20)
#    0.000    1.833    3.333    1.250    2.333    2.333 
#    0.000    0.417    0.000    3.000    0.000    0.000 
#    0.000    0.000    0.000    0.000    0.000    0.000 
#
# Total GULP energy -133872.239332 kJ/mol
# GULP energy per Si atom -5578.009972 kJ/mol
# Density = 1.797615 g / cm^3
# Si number density = 18.017161 Si / 1000 Ang^3
#
#
#
# Elastic Constant Matrix: (Units=GPa)
#
#
# Indices 1 2 3 4 5 6 
#
# 1 128.6358 22.2204 22.1749 0.0000 8.0924 0.0000
# 2 22.2204 62.4293 0.6899 0.0000 -3.0893 0.0000
# 3 22.1749 0.6899 50.4348 0.0000 5.5761 0.0000
# 4 0.0000 0.0000 0.0000 7.1148 0.0000 -4.7519
# 5 8.0924 -3.0893 5.5761 0.0000 27.5122 0.0000
# 6 0.0000 0.0000 0.0000 -4.7519 0.0000 16.2357
#
#
#
# Elastic Compliance Matrix: (Units=1/GPa)
#
#
# Indices 1 2 3 4 5 6 
#
# 1 0.009134 -0.003324 -0.003715 0.000000 -0.002307 0.000000
# 2 -0.003324 0.017326 0.000922 0.000000 0.002736 0.000000
# 3 -0.003715 0.000922 0.021805 0.000000 -0.003223 0.000000
# 4 0.000000 0.000000 0.000000 0.174702 0.000000 0.051133
# 5 -0.002307 0.002736 -0.003223 0.000000 0.037987 0.000000
# 6 0.000000 0.000000 0.000000 0.051133 0.000000 0.076558
#
#
# Mechanical properties :
#
#
# Convention : Reuss Voigt Hill
#
# Bulk Modulus (GPa) = 27.75456 36.85227 32.30342
# Shear Modulus (GPa) = 13.82143 23.26687 18.54415
#
# Velocity S-wave (km/s) = 2.77271 3.59747 3.21167
# Velocity P-wave (km/s) = 5.06838 6.14443 5.63217
#
# Compressibility (1/GPa) = 0.03603011
#
# Stress axis : x y z
#
# Youngs Moduli (GPa) = 109.48510 57.71521 45.86139
#
# Poissons Ratio (x) = 0.19185 0.17039
# Poissons Ratio (y) = 0.36393 -0.04228
# Poissons Ratio (z) = 0.40677 -0.05321
#
# Static dielectric constant tensor:
#      x y z
#    x 1.642050 0.000000 0.018910 
#    y 0.000000 1.621860 0.000000 
#    z 0.018910 0.000000 1.602980 
# 
# From -- ./inp_files/42040.got.cif
#   From: 2010.05.17/outbox.cif.g08.bks.cpg/sg10_22_cif.got.tgz:42040.got - 2010.06.03 11:33:40.
