data_PCOD9152196
_publ_section_title
;
Structure prediction by ZEFSAII (Michael W. Deem and Ramdas Pophale) SiO2 
 PCOD9152196
Probable space group: P 2/M
;
_chemical_formula_sum "Si O2"
_cell_formula_units_Z 26
_cell_length_a 14.883778
_cell_length_b 7.974330
_cell_length_c 12.449732
_cell_angle_alpha 90.000000
_cell_angle_beta 120.052520
_cell_angle_gamma 90.000000
_cell_volume 1278.992326
_symmetry_space_group_name_H-M "P 2/M"
_symmetry_group_IT_number 10
_symmetry_cell_setting 'monoclinic'
loop_
_space_group_symop_operation_xyz
x,y,z
-x,y,-z
-x,-y,-z
x,-y,z
loop_
_atom_site_type_symbol
_atom_site_label
_atom_site_fract_x
_atom_site_fract_y
_atom_site_fract_z
Si Si1 0.747000 0.303162 0.249432
Si Si2 0.050213 0.687089 0.760454
Si Si3 0.699255 0.000000 0.879362
Si Si4 0.332938 0.305781 0.561116
Si Si5 0.159951 0.196308 0.292640
Si Si6 0.488217 0.000000 0.621336
Si Si7 0.114582 0.752197 0.040285
Si Si8 0.622391 0.000000 0.074643
O O1 0.727929 0.500000 0.207909
O O2 0.858187 0.256625 0.263994
O O3 0.734896 0.293293 0.370448
O O4 0.666439 0.168010 0.155812
O O5 0.019750 0.500000 0.708719
O O6 0.946050 0.794509 0.702583
O O7 0.093401 0.678822 0.909279
O O8 0.778897 0.151668 0.914977
O O9 0.602028 0.000000 0.741915
O O10 0.658075 0.000000 0.974138
O O11 0.369197 0.500000 0.574424
O O12 0.257529 0.259166 0.417793
O O13 0.423817 0.166483 0.617179
O O14 0.139897 0.312199 0.175829
O O15 0.174941 0.000000 0.270199
O O16 0.500000 0.000000 0.500000
O O17 0.000000 0.827679 0.000000
O O18 0.500000 0.000000 0.000000
#
# Coordination Sequence:
#
# PCOD9152196 Si02
#       8
#     4   4   2   4   4   2   4   2
#     4  10  23  42  64  91 131 170 213 269 322 383
#     4  10  22  38  59  93 134 173 213 267 326 389
#     4  12  21  38  64  95 124 167 214 270 324 388
#     4  11  24  46  68  92 130 173 218 270 323 384
#     4  11  22  36  63  96 130 170 222 268 322 390
#     4  12  26  47  70  96 131 168 221 269 327 382
#     4  10  21  36  63  93 130 166 212 264 326 390
#     4  12  24  39  66  93 122 167 220 266 326 387
#
# _framework density 20.328503000000001
#
# number of rings (size 3 to 8) (size 9 to 14) (size 15 to 20)
#    0.000    1.231    3.077    3.000    4.308    4.615 
#    0.000    4.615    0.000    0.000    0.000    0.000 
#    0.000    0.000    0.000    0.000    0.000    0.000 
#
# Total GULP energy -144798.045747 kJ/mol
# GULP energy per Si atom -5569.155606 kJ/mol
# Density = 2.028223 g / cm^3
# Si number density = 20.328503 Si / 1000 Ang^3
#
#
#
# Elastic Constant Matrix: (Units=GPa)
#
#
# Indices 1 2 3 4 5 6 
#
# 1 122.8228 40.9871 24.3972 0.0000 2.5013 0.0000
# 2 40.9871 95.1541 18.2027 0.0000 11.4382 0.0000
# 3 24.3972 18.2027 82.3843 0.0000 11.7736 0.0000
# 4 0.0000 0.0000 0.0000 18.4357 0.0000 -9.7666
# 5 2.5013 11.4382 11.7736 0.0000 42.6102 0.0000
# 6 0.0000 0.0000 0.0000 -9.7666 0.0000 16.8670
#
#
#
# Elastic Compliance Matrix: (Units=1/GPa)
#
#
# Indices 1 2 3 4 5 6 
#
# 1 0.009881 -0.003966 -0.002206 0.000000 0.001094 0.000000
# 2 -0.003966 0.012799 -0.001245 0.000000 -0.002859 0.000000
# 3 -0.002206 -0.001245 0.013535 0.000000 -0.003276 0.000000
# 4 0.000000 0.000000 0.000000 0.078244 0.000000 0.045306
# 5 0.001094 -0.002859 -0.003276 0.000000 0.025077 0.000000
# 6 0.000000 0.000000 0.000000 0.045306 0.000000 0.085521
#
#
# Mechanical properties :
#
#
# Convention : Reuss Voigt Hill
#
# Bulk Modulus (GPa) = 46.76996 51.94836 49.35916
# Shear Modulus (GPa) = 20.24138 30.03420 25.13779
#
# Velocity S-wave (km/s) = 3.15892 3.84792 3.52032
# Velocity P-wave (km/s) = 6.03009 6.73438 6.39195
#
# Compressibility (1/GPa) = 0.02138125
#
# Stress axis : x y z
#
# Youngs Moduli (GPa) = 101.20237 78.12913 73.88319
#
# Poissons Ratio (x) = 0.30984 0.16301
# Poissons Ratio (y) = 0.40134 0.09198
# Poissons Ratio (z) = 0.22329 0.09727
#
# Static dielectric constant tensor:
#      x y z
#    x 1.644190 0.000000 -0.022530 
#    y 0.000000 1.753820 0.000000 
#    z -0.022530 0.000000 1.709510 
# 
# From -- ./inp_files/49521.got.cif
#   From: 2010.05.17/outbox.cif.g08.bks.cpg/sg10_25_cif.got.tgz:49521.got - 2010.06.03 11:33:40.
