data_PCOD9152849
_publ_section_title
;
Structure prediction by ZEFSAII (Michael W. Deem and Ramdas Pophale) SiO2 
 PCOD9152849
Probable space group: P 2/M
;
_chemical_formula_sum "Si O2"
_cell_formula_units_Z 14
_cell_length_a 11.538945
_cell_length_b 11.130318
_cell_length_c 9.636430
_cell_angle_alpha 90.000000
_cell_angle_beta 142.419539
_cell_angle_gamma 90.000000
_cell_volume 754.797819
_symmetry_space_group_name_H-M "P 2/M"
_symmetry_group_IT_number 10
_symmetry_cell_setting 'monoclinic'
loop_
_space_group_symop_operation_xyz
x,y,z
-x,y,-z
-x,-y,-z
x,-y,z
loop_
_atom_site_type_symbol
_atom_site_label
_atom_site_fract_x
_atom_site_fract_y
_atom_site_fract_z
Si Si1 0.030451 0.640186 0.804455
Si Si2 0.694094 0.000000 0.270012
Si Si3 0.000000 0.796501 0.500000
Si Si4 0.272034 0.736653 0.285626
Si Si5 0.696373 0.000000 0.603142
O O1 0.068132 0.500000 0.817441
O O2 0.027299 0.714435 0.660399
O O3 0.829536 0.656514 0.693700
O O4 0.184809 0.695569 0.056877
O O5 0.663702 0.000000 0.407093
O O6 0.819999 0.883862 0.351325
O O7 0.500000 0.000000 0.000000
O O8 0.500000 0.728037 0.500000
O O9 0.212270 0.873802 0.265936
O O10 0.500000 0.000000 0.500000
#
# Coordination Sequence:
#
# PCOD9152849 Si02
#       5
#     4   2   2   4   2
#     4  11  24  41  62  90 125 167 210 251 298 365
#     4  11  25  43  65  94 128 158 201 255 314 372
#     4  11  25  42  64  92 127 165 200 250 314 369
#     4  10  22  40  64  92 124 158 208 260 308 355
#     4  10  21  38  65  96 118 154 201 259 310 366
#
# _framework density 18.548014999999999
#
# number of rings (size 3 to 8) (size 9 to 14) (size 15 to 20)
#    0.000    1.429    2.857    2.143    8.000    5.714 
#    0.000    0.000    0.000    5.143    0.000    0.000 
#    0.000    0.000    0.000    0.000    0.000    0.000 
#
# Total GULP energy -78190.353037 kJ/mol
# GULP energy per Si atom -5585.025217 kJ/mol
# Density = 1.850580 g / cm^3
# Si number density = 18.548015 Si / 1000 Ang^3
#
#
#
# Elastic Constant Matrix: (Units=GPa)
#
#
# Indices 1 2 3 4 5 6 
#
# 1 121.9158 53.4814 107.2932 0.0000 -22.6851 0.0000
# 2 53.4814 171.9340 102.1361 0.0000 -26.4029 0.0000
# 3 107.2932 102.1361 160.1340 0.0000 -16.3394 0.0000
# 4 0.0000 0.0000 0.0000 161.8544 0.0000 -139.7999
# 5 -22.6851 -26.4029 -16.3394 0.0000 44.0152 0.0000
# 6 0.0000 0.0000 0.0000 -139.7999 0.0000 144.1387
#
#
#
# Elastic Compliance Matrix: (Units=1/GPa)
#
#
# Indices 1 2 3 4 5 6 
#
# 1 0.023231 0.004469 -0.017586 0.000000 0.008125 0.000000
# 2 0.004469 0.010784 -0.009331 0.000000 0.005308 0.000000
# 3 -0.017586 -0.009331 0.023369 0.000000 -0.005986 0.000000
# 4 0.000000 0.000000 0.000000 0.038077 0.000000 0.036930
# 5 0.008125 0.005308 -0.005986 0.000000 0.027869 0.000000
# 6 0.000000 0.000000 0.000000 0.036930 0.000000 0.042757
#
#
# Mechanical properties :
#
#
# Convention : Reuss Voigt Hill
#
# Bulk Modulus (GPa) = 80.08519 108.86725 94.47622
# Shear Modulus (GPa) = 23.24007 82.73989 52.98998
#
# Velocity S-wave (km/s) = 3.54357 6.68620 5.35080
# Velocity P-wave (km/s) = 7.74684 10.88252 9.44571
#
# Compressibility (1/GPa) = 0.01248670
#
# Stress axis : x y z
#
# Youngs Moduli (GPa) = 43.04578 92.72783 42.79250
#
# Poissons Ratio (x) = -0.41436 0.75257
# Poissons Ratio (y) = -0.19235 0.39929
# Poissons Ratio (z) = 0.75702 0.86522
#
# Static dielectric constant tensor:
#      x y z
#    x 1.629000 0.000000 0.016270 
#    y 0.000000 1.669220 0.000000 
#    z 0.016270 0.000000 1.607300 
# 
# From -- ./inp_files/22877.got.cif
#   From: 2010.05.17/outbox.cif.g08.bks.cpg/sg10_12_cif.got.tgz:22877.got - 2010.06.03 11:33:40.
