data_PCOD9152807
_publ_section_title
;
Structure prediction by ZEFSAII (Michael W. Deem and Ramdas Pophale) SiO2 
 PCOD9152807
Probable space group: P 2/M
;
_chemical_formula_sum "Si O2"
_cell_formula_units_Z 16
_cell_length_a 12.809603
_cell_length_b 8.549619
_cell_length_c 7.606150
_cell_angle_alpha 90.000000
_cell_angle_beta 114.914838
_cell_angle_gamma 90.000000
_cell_volume 755.480840
_symmetry_space_group_name_H-M "P 2/M"
_symmetry_group_IT_number 10
_symmetry_cell_setting 'monoclinic'
loop_
_space_group_symop_operation_xyz
x,y,z
-x,y,-z
-x,-y,-z
x,-y,z
loop_
_atom_site_type_symbol
_atom_site_label
_atom_site_fract_x
_atom_site_fract_y
_atom_site_fract_z
Si Si1 0.333774 0.740710 0.023011
Si Si2 0.776921 0.323588 0.694445
Si Si3 0.839932 0.000000 0.229242
Si Si4 0.567918 0.326910 0.280764
Si Si5 0.899920 0.000000 0.685456
O O1 0.269205 0.664762 0.140515
O O2 0.459059 0.788797 0.192225
O O3 0.239714 0.858776 0.884852
O O4 0.374694 0.662825 0.870587
O O5 0.823484 0.500000 0.679576
O O6 0.667046 0.292818 0.490157
O O7 0.854089 0.165839 0.731383
O O8 0.861905 0.000000 0.453266
O O9 0.961971 0.000000 0.218313
O O10 0.519432 0.500000 0.288861
#
# Coordination Sequence:
#
# PCOD9152807 Si02
#       5
#     4   4   2   4   2
#     4  11  21  38  65  96 129 173 214 261 325 390
#     4  11  23  42  70 101 133 173 215 267 331 390
#     4  11  25  45  68  90 129 180 223 277 331 379
#     4  10  21  38  62  99 140 171 208 264 324 397
#     4  11  25  50  67  91 133 174 226 284 322 379
#
# _framework density 21.178564999999999
#
# number of rings (size 3 to 8) (size 9 to 14) (size 15 to 20)
#    0.000    1.250    2.500    4.500    0.000    7.000 
#    0.000   10.000    0.000    0.000    0.000    0.000 
#    0.000    0.000    0.000    0.000    0.000    0.000 
#
# Total GULP energy -89086.894344 kJ/mol
# GULP energy per Si atom -5567.930897 kJ/mol
# Density = 2.113036 g / cm^3
# Si number density = 21.178565 Si / 1000 Ang^3
#
#
#
# Elastic Constant Matrix: (Units=GPa)
#
#
# Indices 1 2 3 4 5 6 
#
# 1 132.4998 90.5451 42.2340 0.0000 11.3768 0.0000
# 2 90.5451 132.6657 45.5174 0.0000 22.7386 0.0000
# 3 42.2340 45.5174 69.4088 0.0000 1.4609 0.0000
# 4 0.0000 0.0000 0.0000 63.6408 0.0000 0.3120
# 5 11.3768 22.7386 1.4609 0.0000 41.2018 0.0000
# 6 0.0000 0.0000 0.0000 0.3120 0.0000 24.9737
#
#
#
# Elastic Compliance Matrix: (Units=1/GPa)
#
#
# Indices 1 2 3 4 5 6 
#
# 1 0.014670 -0.009208 -0.002912 0.000000 0.001134 0.000000
# 2 -0.009208 0.016733 -0.005234 0.000000 -0.006507 0.000000
# 3 -0.002912 -0.005234 0.019548 0.000000 0.002999 0.000000
# 4 0.000000 0.000000 0.000000 0.015714 0.000000 -0.000196
# 5 0.001134 -0.006507 0.002999 0.000000 0.027442 0.000000
# 6 0.000000 0.000000 0.000000 -0.000196 0.000000 0.040045
#
#
# Mechanical properties :
#
#
# Convention : Reuss Voigt Hill
#
# Bulk Modulus (GPa) = 61.55864 76.79635 69.17749
# Shear Modulus (GPa) = 28.69044 36.38177 32.53611
#
# Velocity S-wave (km/s) = 3.68461 4.14920 3.92379
# Velocity P-wave (km/s) = 6.87251 7.70030 7.29815
#
# Compressibility (1/GPa) = 0.01624467
#
# Stress axis : x y z
#
# Youngs Moduli (GPa) = 68.16510 59.76247 51.15528
#
# Poissons Ratio (x) = 0.55028 0.14897
# Poissons Ratio (y) = 0.62765 0.26772
# Poissons Ratio (z) = 0.19851 0.31277
#
# Static dielectric constant tensor:
#      x y z
#    x 1.742280 0.000000 -0.012610 
#    y 0.000000 1.595360 0.000000 
#    z -0.012610 0.000000 1.761060 
# 
# From -- ./inp_files/21826.got.cif
#   From: 2010.05.17/outbox.cif.g08.bks.cpg/sg10_11_cif.got.tgz:21826.got - 2010.06.03 11:33:40.
