data_PCOD9152621
_publ_section_title
;
Structure prediction by ZEFSAII (Michael W. Deem and Ramdas Pophale) SiO2 
 PCOD9152621
Probable space group: P 2/M
;
_chemical_formula_sum "Si O2"
_cell_formula_units_Z 28
_cell_length_a 12.712499
_cell_length_b 8.834685
_cell_length_c 18.278950
_cell_angle_alpha 90.000000
_cell_angle_beta 39.174690
_cell_angle_gamma 90.000000
_cell_volume 1296.806345
_symmetry_space_group_name_H-M "P 2/M"
_symmetry_group_IT_number 10
_symmetry_cell_setting 'monoclinic'
loop_
_space_group_symop_operation_xyz
x,y,z
-x,y,-z
-x,-y,-z
x,-y,z
loop_
_atom_site_type_symbol
_atom_site_label
_atom_site_fract_x
_atom_site_fract_y
_atom_site_fract_z
Si Si1 0.528776 0.824680 0.814582
Si Si2 0.815121 0.324815 0.572521
Si Si3 0.097934 0.324386 0.874937
Si Si4 0.758535 0.671181 0.972634
Si Si5 0.110658 0.671723 0.633654
Si Si6 0.330656 0.821433 0.632943
Si Si7 0.232384 0.174818 0.180591
O O1 0.673051 0.779803 0.681285
O O2 0.617131 0.797664 0.845506
O O3 0.483062 0.000000 0.832415
O O4 0.368103 0.718901 0.895456
O O5 0.792309 0.500000 0.609006
O O6 0.804728 0.320370 0.490814
O O7 0.000000 0.278732 0.500000
O O8 0.139833 0.500000 0.868961
O O9 0.257207 0.249413 0.748313
O O10 0.947784 0.321863 0.896860
O O11 0.000000 0.261299 0.000000
O O12 0.722803 0.500000 0.967512
O O13 0.728347 0.789568 0.924309
O O14 0.124428 0.500000 0.654779
O O15 0.190253 0.785967 0.648000
O O16 0.920075 0.714200 0.721057
O O17 0.500000 0.764362 0.500000
O O18 0.351323 0.000000 0.633975
O O19 0.182008 0.000000 0.217088
#
# Coordination Sequence:
#
# PCOD9152621 Si02
#       7
#     4   4   4   4   4   4   4
#     4  11  24  38  57  88 127 168 207 251 308 368
#     4  10  21  38  59  85 121 162 207 255 303 361
#     4  10  23  44  69  96 126 164 213 267 324 384
#     4  11  23  39  62  90 121 161 209 257 307 367
#     4  11  22  38  64  92 119 160 206 251 306 364
#     4  11  25  44  67  97 130 165 208 262 324 389
#     4  11  22  37  59  88 123 161 202 249 303 363
#
# _framework density 21.591505000000002
#
# number of rings (size 3 to 8) (size 9 to 14) (size 15 to 20)
#    0.000    1.286    2.857    2.571    0.000    8.000 
#    0.000    4.286    0.000    0.000    0.000    0.000 
#    0.000    0.000    0.000    0.000    0.000    0.000 
#
# Total GULP energy -156359.278171 kJ/mol
# GULP energy per Si atom -5584.259935 kJ/mol
# Density = 2.154236 g / cm^3
# Si number density = 21.591505 Si / 1000 Ang^3
#
#
#
# Elastic Constant Matrix: (Units=GPa)
#
#
# Indices 1 2 3 4 5 6 
#
# 1 13.9702 1.3916 17.5273 0.0000 11.1238 0.0000
# 2 1.3916 31.6970 31.0910 0.0000 -0.8336 0.0000
# 3 17.5273 31.0910 128.7110 0.0000 7.4034 0.0000
# 4 0.0000 0.0000 0.0000 34.1927 0.0000 -3.5384
# 5 11.1238 -0.8336 7.4034 0.0000 29.3380 0.0000
# 6 0.0000 0.0000 0.0000 -3.5384 0.0000 5.1084
#
#
#
# Elastic Compliance Matrix: (Units=1/GPa)
#
#
# Indices 1 2 3 4 5 6 
#
# 1 0.126750 0.010187 -0.017223 0.000000 -0.043423 0.000000
# 2 0.010187 0.042574 -0.011688 0.000000 0.000297 0.000000
# 3 -0.017223 -0.011688 0.012767 0.000000 0.002977 0.000000
# 4 0.000000 0.000000 0.000000 0.031504 0.000000 0.021822
# 5 -0.043423 0.000297 0.002977 0.000000 0.049807 0.000000
# 6 0.000000 0.000000 0.000000 0.021822 0.000000 0.210872
#
#
# Mechanical properties :
#
#
# Convention : Reuss Voigt Hill
#
# Bulk Modulus (GPa) = 6.91360 30.48867 18.70114
# Shear Modulus (GPa) = 8.92958 22.01905 15.47431
#
# Velocity S-wave (km/s) = 2.03585 3.19690 2.68000
# Velocity P-wave (km/s) = 2.95553 5.27050 4.27278
#
# Compressibility (1/GPa) = 0.14464237
#
# Stress axis : x y z
#
# Youngs Moduli (GPa) = 7.88954 23.48843 78.32715
#
# Poissons Ratio (x) = -0.23929 1.34907
# Poissons Ratio (y) = -0.08037 0.91552
# Poissons Ratio (z) = 0.13589 0.27454
#
# Static dielectric constant tensor:
#      x y z
#    x 1.786880 0.000000 0.046240 
#    y 0.000000 1.736700 0.000000 
#    z 0.046240 0.000000 1.872830 
# 
# From -- ./inp_files/84900.got.cif
#   From: 2010.05.17/outbox.cif.g08.bks.cpg/sg10_43_cif.got.tgz:84900.got - 2010.06.03 11:33:40.
