data_PCOD9152027
_publ_section_title
;
Structure prediction by ZEFSAII (Michael W. Deem and Ramdas Pophale) SiO2 
 PCOD9152027
Probable space group: P 2/M
;
_chemical_formula_sum "Si O2"
_cell_formula_units_Z 32
_cell_length_a 12.249453
_cell_length_b 8.947839
_cell_length_c 31.732630
_cell_angle_alpha 90.000000
_cell_angle_beta 149.783702
_cell_angle_gamma 90.000000
_cell_volume 1750.404090
_symmetry_space_group_name_H-M "P 2/M"
_symmetry_group_IT_number 10
_symmetry_cell_setting 'monoclinic'
loop_
_space_group_symop_operation_xyz
x,y,z
-x,y,-z
-x,-y,-z
x,-y,z
loop_
_atom_site_type_symbol
_atom_site_label
_atom_site_fract_x
_atom_site_fract_y
_atom_site_fract_z
Si Si1 0.149755 0.819856 0.612581
Si Si2 0.428380 0.173865 0.024914
Si Si3 0.039758 0.679062 0.126577
Si Si4 0.320024 0.179515 0.577966
Si Si5 0.208163 0.178721 0.098239
Si Si6 0.828108 0.679265 0.206471
Si Si7 0.661874 0.322175 0.240371
Si Si8 0.774933 0.679525 0.719442
O O1 0.278624 0.776895 0.613001
O O2 0.245403 0.744264 0.685634
O O3 0.898253 0.779945 0.520147
O O4 0.163221 0.000000 0.620931
O O5 0.623777 0.240755 0.117078
O O6 0.390279 0.000000 0.022964
O O7 0.500000 0.183079 0.000000
O O8 0.207687 0.264866 0.957754
O O9 0.048847 0.500000 0.125339
O O10 0.168412 0.755762 0.131475
O O11 0.136711 0.720841 0.204571
O O12 0.539464 0.250937 0.634611
O O13 0.336646 0.000000 0.582574
O O14 0.427642 0.249571 0.153627
O O15 0.228672 0.000000 0.106953
O O16 0.000000 0.215744 0.000000
O O17 0.804590 0.500000 0.192526
O O18 0.817761 0.709403 0.252730
O O19 0.047081 0.726270 0.255716
O O20 0.636218 0.500000 0.235584
O O21 0.758333 0.500000 0.712616
#
# Coordination Sequence:
#
# PCOD9152027 Si02
#       8
#     4   4   4   4   4   4   4   4
#     4   9  19  38  61  85 114 147 181 224 281 339
#     4  11  22  35  54  82 112 146 191 236 279 329
#     4  11  22  36  58  83 111 147 189 233 281 336
#     4   9  19  36  60  87 113 143 180 225 281 339
#     4  11  24  40  57  80 114 150 186 232 284 333
#     4  10  22  40  57  77 112 154 192 232 277 333
#     4  11  23  38  59  84 111 149 194 231 275 335
#     4  10  21  36  55  82 112 144 182 228 282 329
#
# _framework density 18.281493000000001
#
# number of rings (size 3 to 8) (size 9 to 14) (size 15 to 20)
#    0.000    1.750    1.250    3.750    0.000    9.000 
#    0.000    1.875    0.000    3.750    0.000    0.000 
#    0.000    0.000    0.000    0.000    0.000    0.000 
#
# Total GULP energy -178820.607883 kJ/mol
# GULP energy per Si atom -5588.143996 kJ/mol
# Density = 1.823988 g / cm^3
# Si number density = 18.281493 Si / 1000 Ang^3
#
#
#
# Elastic Constant Matrix: (Units=GPa)
#
#
# Indices 1 2 3 4 5 6 
#
# 1 106.4164 36.5762 51.4826 0.0000 8.6547 0.0000
# 2 36.5762 34.2190 33.5290 0.0000 -3.7737 0.0000
# 3 51.4826 33.5290 96.1856 0.0000 5.5373 0.0000
# 4 0.0000 0.0000 0.0000 112.9090 0.0000 -123.5515
# 5 8.6547 -3.7737 5.5373 0.0000 31.3013 0.0000
# 6 0.0000 0.0000 0.0000 -123.5515 0.0000 237.5787
#
#
#
# Elastic Compliance Matrix: (Units=1/GPa)
#
#
# Indices 1 2 3 4 5 6 
#
# 1 0.016725 -0.015321 -0.003272 0.000000 -0.005893 0.000000
# 2 -0.015321 0.060587 -0.013724 0.000000 0.013968 0.000000
# 3 -0.003272 -0.013724 0.017150 0.000000 -0.003784 0.000000
# 4 0.000000 0.000000 0.000000 0.020552 0.000000 0.010688
# 5 -0.005893 0.013968 -0.003784 0.000000 0.035930 0.000000
# 6 0.000000 0.000000 0.000000 0.010688 0.000000 0.009767
#
#
# Mechanical properties :
#
#
# Convention : Reuss Voigt Hill
#
# Bulk Modulus (GPa) = 33.52487 53.33297 43.42892
# Shear Modulus (GPa) = 21.25052 84.04001 52.64527
#
# Velocity S-wave (km/s) = 3.41311 6.78747 5.37211
# Velocity P-wave (km/s) = 5.82326 9.52171 7.89219
#
# Compressibility (1/GPa) = 0.02982860
#
# Stress axis : x y z
#
# Youngs Moduli (GPa) = 59.78965 16.50512 58.31047
#
# Poissons Ratio (x) = 0.25288 0.19080
# Poissons Ratio (y) = 0.91605 0.80022
# Poissons Ratio (z) = 0.19564 0.22651
#
# Static dielectric constant tensor:
#      x y z
#    x 1.631660 0.000000 -0.000120 
#    y 0.000000 1.610850 0.000000 
#    z -0.000120 0.000000 1.601590 
# 
# From -- ./inp_files/95101.got.cif
#   From: 2010.05.17/outbox.cif.g08.bks.cpg/sg10_48_cif.got.tgz:95101.got - 2010.06.03 11:33:40.
