data_PCOD9152656
_publ_section_title
;
Structure prediction by ZEFSAII (Michael W. Deem and Ramdas Pophale) SiO2 
 PCOD9152656
Probable space group: P 2/M
;
_chemical_formula_sum "Si O2"
_cell_formula_units_Z 29
_cell_length_a 8.834225
_cell_length_b 10.006202
_cell_length_c 27.027489
_cell_angle_alpha 90.000000
_cell_angle_beta 141.045686
_cell_angle_gamma 90.000000
_cell_volume 1502.059855
_symmetry_space_group_name_H-M "P 2/M"
_symmetry_group_IT_number 10
_symmetry_cell_setting 'monoclinic'
loop_
_space_group_symop_operation_xyz
x,y,z
-x,y,-z
-x,-y,-z
x,-y,z
loop_
_atom_site_type_symbol
_atom_site_label
_atom_site_fract_x
_atom_site_fract_y
_atom_site_fract_z
Si Si1 0.776025 0.656009 0.586948
Si Si2 0.574584 0.650244 0.157261
Si Si3 0.582292 0.148563 0.710934
Si Si4 0.790264 0.213349 0.868778
Si Si5 0.030197 0.159547 0.276525
Si Si6 0.702336 0.346176 0.016309
Si Si7 0.134577 0.342973 0.585452
Si Si8 0.000000 0.000000 0.000000
O O1 0.500000 0.672609 0.500000
O O2 0.803357 0.500000 0.610236
O O3 0.842955 0.761881 0.646184
O O4 0.953955 0.676578 0.585644
O O5 0.677973 0.500000 0.186850
O O6 0.400640 0.680255 0.158946
O O7 0.777549 0.763532 0.205535
O O8 0.407409 0.655320 0.066313
O O9 0.676443 0.150374 0.790972
O O10 0.802735 0.175019 0.729445
O O11 0.371970 0.255259 0.651376
O O12 0.488964 0.000000 0.675454
O O13 0.043351 0.276440 0.917357
O O14 0.858574 0.114686 0.930831
O O15 0.998719 0.000000 0.277618
O O16 0.736366 0.500000 0.040710
O O17 0.500000 0.282927 0.000000
O O18 0.197939 0.500000 0.599901
O O19 0.000000 0.310143 0.500000
#
# Coordination Sequence:
#
# PCOD9152656 Si02
#       8
#     4   4   4   4   4   4   4   1
#     4  10  21  40  66  94 125 162 206 254 307 371
#     4  11  23  39  61  87 118 155 201 254 309 368
#     4  11  25  42  61  90 127 165 209 259 309 373
#     4  12  23  41  63  90 122 161 213 257 317 372
#     4  11  25  41  60  89 124 164 206 256 311 370
#     4  10  21  38  60  86 115 151 196 251 310 366
#     4  10  22  41  67  98 128 164 207 253 310 371
#     4  12  24  40  64  92 118 172 208 264 312 384
#
# _framework density 19.306820999999999
#
# number of rings (size 3 to 8) (size 9 to 14) (size 15 to 20)
#    0.000    1.241    2.069    3.310    0.966    7.724 
#    0.000    0.345    0.000    0.000    0.000    0.000 
#    0.000    0.000    0.000    0.000    0.000    0.000 
#
# Total GULP energy -161739.773420 kJ/mol
# GULP energy per Si atom -5577.233566 kJ/mol
# Density = 1.926288 g / cm^3
# Si number density = 19.306821 Si / 1000 Ang^3
#
#
#
# Elastic Constant Matrix: (Units=GPa)
#
#
# Indices 1 2 3 4 5 6 
#
# 1 99.5405 47.6607 30.7351 0.0000 8.5377 0.0000
# 2 47.6607 107.0341 55.6088 0.0000 10.2592 0.0000
# 3 30.7351 55.6088 100.1969 0.0000 4.1574 0.0000
# 4 0.0000 0.0000 0.0000 15.9748 0.0000 2.7377
# 5 8.5377 10.2592 4.1574 0.0000 41.6240 0.0000
# 6 0.0000 0.0000 0.0000 2.7377 0.0000 63.2807
#
#
#
# Elastic Compliance Matrix: (Units=1/GPa)
#
#
# Indices 1 2 3 4 5 6 
#
# 1 0.012918 -0.005055 -0.001103 0.000000 -0.001294 0.000000
# 2 -0.005055 0.015375 -0.006897 0.000000 -0.002064 0.000000
# 3 -0.001103 -0.006897 0.014125 0.000000 0.000515 0.000000
# 4 0.000000 0.000000 0.000000 0.063066 0.000000 -0.002728
# 5 -0.001294 -0.002064 0.000515 0.000000 0.024747 0.000000
# 6 0.000000 0.000000 0.000000 -0.002728 0.000000 0.015921
#
#
# Mechanical properties :
#
#
# Convention : Reuss Voigt Hill
#
# Bulk Modulus (GPa) = 61.32058 63.86453 62.59255
# Shear Modulus (GPa) = 28.13769 35.69371 31.91570
#
# Velocity S-wave (km/s) = 3.82173 4.30439 4.07022
# Velocity P-wave (km/s) = 7.16269 7.60620 7.38777
#
# Compressibility (1/GPa) = 0.01630774
#
# Stress axis : x y z
#
# Youngs Moduli (GPa) = 77.41023 65.04225 70.79638
#
# Poissons Ratio (x) = 0.32879 0.07812
# Poissons Ratio (y) = 0.39131 0.48825
# Poissons Ratio (z) = 0.08542 0.44857
#
# Static dielectric constant tensor:
#      x y z
#    x 1.675790 0.000000 -0.010500 
#    y 0.000000 1.659780 0.000000 
#    z -0.010500 0.000000 1.642730 
# 
# From -- ./inp_files/92133.got.cif
#   From: 2010.05.17/outbox.cif.g08.bks.cpg/sg10_47_cif.got.tgz:92133.got - 2010.06.03 11:33:40.
