data_PCOD9152360
_publ_section_title
;
Structure prediction by ZEFSAII (Michael W. Deem and Ramdas Pophale) SiO2 
 PCOD9152360
Probable space group: P 2/M
;
_chemical_formula_sum "Si O2"
_cell_formula_units_Z 18
_cell_length_a 21.248142
_cell_length_b 8.203959
_cell_length_c 5.238977
_cell_angle_alpha 90.000000
_cell_angle_beta 59.731613
_cell_angle_gamma 90.000000
_cell_volume 788.752366
_symmetry_space_group_name_H-M "P 2/M"
_symmetry_group_IT_number 10
_symmetry_cell_setting 'monoclinic'
loop_
_space_group_symop_operation_xyz
x,y,z
-x,y,-z
-x,-y,-z
x,-y,z
loop_
_atom_site_type_symbol
_atom_site_label
_atom_site_fract_x
_atom_site_fract_y
_atom_site_fract_z
Si Si1 0.086459 0.177272 0.775167
Si Si2 0.201772 0.697248 0.893969
Si Si3 0.291568 0.695318 0.199305
Si Si4 0.542050 0.196542 0.164120
Si Si5 0.949377 0.500000 0.357024
O O1 0.127545 0.217675 0.954378
O O2 0.097242 0.335363 0.573834
O O3 0.109774 0.000000 0.630027
O O4 0.000000 0.168648 0.000000
O O5 0.189896 0.500000 0.926596
O O6 0.255503 0.733450 0.544899
O O7 0.241904 0.755177 0.066365
O O8 0.293404 0.500000 0.173161
O O9 0.373572 0.757390 0.011396
O O10 0.500000 0.257368 0.500000
O O11 0.537937 0.000000 0.172741
O O12 0.500000 0.257297 0.000000
O O13 0.000000 0.500000 0.500000
O O14 0.000000 0.500000 0.000000
#
# Coordination Sequence:
#
# PCOD9152360 Si02
#       5
#     4   4   4   4   2
#     4  10  22  41  65  94 124 164 216 262 314 380
#     4  10  21  39  59  85 121 159 199 251 311 364
#     4  10  22  38  60  88 119 156 200 247 301 366
#     4  10  21  37  58  85 118 155 195 242 297 359
#     4  10  22  40  62  86 120 158 194 256 316 356
#
# _framework density 22.820847000000001
#
# number of rings (size 3 to 8) (size 9 to 14) (size 15 to 20)
#    0.000    2.000    1.111    1.333    0.000    6.667 
#    0.000    4.444    0.000    0.000    0.000    0.000 
#    0.000    0.000    0.000    0.000    0.000    0.000 
#
# Total GULP energy -100729.706776 kJ/mol
# GULP energy per Si atom -5596.094821 kJ/mol
# Density = 2.276891 g / cm^3
# Si number density = 22.820847 Si / 1000 Ang^3
#
#
#
# Elastic Constant Matrix: (Units=GPa)
#
#
# Indices 1 2 3 4 5 6 
#
# 1 199.2522 31.6198 73.6217 0.0000 3.3228 0.0000
# 2 31.6198 99.0361 17.7112 0.0000 15.1786 0.0000
# 3 73.6217 17.7112 115.8863 0.0000 4.6583 0.0000
# 4 0.0000 0.0000 0.0000 16.9878 0.0000 -28.1537
# 5 3.3228 15.1786 4.6583 0.0000 46.9703 0.0000
# 6 0.0000 0.0000 0.0000 -28.1537 0.0000 74.0360
#
#
#
# Elastic Compliance Matrix: (Units=1/GPa)
#
#
# Indices 1 2 3 4 5 6 
#
# 1 0.006756 -0.001490 -0.004081 0.000000 0.000408 0.000000
# 2 -0.001490 0.011215 -0.000629 0.000000 -0.003456 0.000000
# 3 -0.004081 -0.000629 0.011343 0.000000 -0.000633 0.000000
# 4 0.000000 0.000000 0.000000 0.159191 0.000000 0.060536
# 5 0.000408 -0.003456 -0.000633 0.000000 0.022441 0.000000
# 6 0.000000 0.000000 0.000000 0.060536 0.000000 0.036527
#
#
# Mechanical properties :
#
#
# Convention : Reuss Voigt Hill
#
# Bulk Modulus (GPa) = 59.11591 73.34220 66.22905
# Shear Modulus (GPa) = 18.83162 47.01361 32.92262
#
# Velocity S-wave (km/s) = 2.87573 4.54378 3.80235
# Velocity P-wave (km/s) = 6.08170 7.72890 6.95424
#
# Compressibility (1/GPa) = 0.01691592
#
# Stress axis : x y z
#
# Youngs Moduli (GPa) = 148.01140 89.16492 88.15833
#
# Poissons Ratio (x) = 0.13284 0.35976
# Poissons Ratio (y) = 0.22052 0.05542
# Poissons Ratio (z) = 0.60402 0.05605
#
# Static dielectric constant tensor:
#      x y z
#    x 1.802010 0.000000 0.010670 
#    y 0.000000 1.881970 0.000000 
#    z 0.010670 0.000000 1.987280 
# 
# From -- ./inp_files/10482.got.cif
#   From: 2010.05.17/outbox.cif.g08.bks.cpg/sg10_6_cif.got.tgz:10482.got - 2010.06.03 11:33:40.
