data_PCOD9152113
_publ_section_title
;
Structure prediction by ZEFSAII (Michael W. Deem and Ramdas Pophale) SiO2 
 PCOD9152113
Probable space group: P 2/M
;
_chemical_formula_sum "Si O2"
_cell_formula_units_Z 28
_cell_length_a 5.092775
_cell_length_b 11.598961
_cell_length_c 19.430855
_cell_angle_alpha 90.000000
_cell_angle_beta 86.876398
_cell_angle_gamma 90.000000
_cell_volume 1146.092792
_symmetry_space_group_name_H-M "P 2/M"
_symmetry_group_IT_number 10
_symmetry_cell_setting 'monoclinic'
loop_
_space_group_symop_operation_xyz
x,y,z
-x,y,-z
-x,-y,-z
x,-y,z
loop_
_atom_site_type_symbol
_atom_site_label
_atom_site_fract_x
_atom_site_fract_y
_atom_site_fract_z
Si Si1 0.015190 0.127717 0.100318
Si Si2 0.589167 0.364363 0.578186
Si Si3 0.362427 0.706649 0.823323
Si Si4 0.905094 0.232263 0.371087
Si Si5 0.760464 0.000000 0.451143
Si Si6 0.931220 0.500000 0.135905
Si Si7 0.264833 0.868819 0.249190
Si Si8 0.288594 0.663309 0.058809
O O1 0.157283 0.123096 0.172945
O O2 0.205723 0.204549 0.051063
O O3 0.755067 0.197449 0.123391
O O4 0.963126 0.000000 0.077236
O O5 0.500000 0.349318 0.500000
O O6 0.642242 0.500000 0.589309
O O7 0.850428 0.290124 0.590702
O O8 0.337503 0.320914 0.625318
O O9 0.158939 0.605272 0.810802
O O10 0.495938 0.779334 0.761279
O O11 0.576615 0.641286 0.868177
O O12 0.043652 0.187513 0.299644
O O13 0.787731 0.116286 0.406878
O O14 0.500000 0.000000 0.500000
O O15 0.000000 0.000000 0.500000
O O16 0.019400 0.597125 0.076217
O O17 0.332599 0.000000 0.270839
O O18 0.500000 0.627060 0.000000
#
# Coordination Sequence:
#
# PCOD9152113 Si02
#       8
#     4   4   4   4   2   2   4   4
#     4   9  20  38  60  84 119 163 209 261 321 395
#     4  11  25  47  72  99 140 187 230 277 335 408
#     4  10  21  39  60  84 119 166 206 262 325 386
#     4  12  24  43  70 105 135 180 231 284 343 408
#     4  12  24  42  66 104 144 174 213 288 355 404
#     4  10  21  37  59  89 118 163 208 261 327 384
#     4  10  22  42  63  92 125 162 213 264 328 399
#     4  10  21  36  57  88 123 158 208 269 329 393
#
# _framework density 24.430831999999999
#
# number of rings (size 3 to 8) (size 9 to 14) (size 15 to 20)
#    0.000    1.571    0.714    4.071    2.000    4.857 
#    2.571    0.714    0.000    0.000    0.000    0.000 
#    0.000    0.000    0.000    0.000    0.000    0.000 
#
# Total GULP energy -156099.470948 kJ/mol
# GULP energy per Si atom -5574.981105 kJ/mol
# Density = 2.437523 g / cm^3
# Si number density = 24.430832 Si / 1000 Ang^3
#
#
#
# Elastic Constant Matrix: (Units=GPa)
#
#
# Indices 1 2 3 4 5 6 
#
# 1 111.1586 44.1979 39.4109 0.0000 -28.6112 0.0000
# 2 44.1979 194.1702 59.3421 0.0000 -36.4984 0.0000
# 3 39.4109 59.3421 106.4034 0.0000 -42.0700 0.0000
# 4 0.0000 0.0000 0.0000 11.4862 0.0000 -16.0233
# 5 -28.6112 -36.4984 -42.0700 0.0000 53.8994 0.0000
# 6 0.0000 0.0000 0.0000 -16.0233 0.0000 66.3405
#
#
#
# Elastic Compliance Matrix: (Units=1/GPa)
#
#
# Indices 1 2 3 4 5 6 
#
# 1 0.011109 -0.001254 -0.002053 0.000000 0.003446 0.000000
# 2 -0.001254 0.006531 -0.002448 0.000000 0.001846 0.000000
# 3 -0.002053 -0.002448 0.015097 0.000000 0.009036 0.000000
# 4 0.000000 0.000000 0.000000 0.131301 0.000000 0.031713
# 5 0.003446 0.001846 0.009036 0.000000 0.028685 0.000000
# 6 0.000000 0.000000 0.000000 0.031713 0.000000 0.022733
#
#
# Mechanical properties :
#
#
# Convention : Reuss Voigt Hill
#
# Bulk Modulus (GPa) = 47.11023 77.51488 62.31256
# Shear Modulus (GPa) = 21.36378 44.26398 32.81388
#
# Velocity S-wave (km/s) = 2.96034 4.26115 3.66886
# Velocity P-wave (km/s) = 5.56864 7.48379 6.59609
#
# Compressibility (1/GPa) = 0.02122681
#
# Stress axis : x y z
#
# Youngs Moduli (GPa) = 90.01329 153.12477 66.24035
#
# Poissons Ratio (x) = 0.19195 0.13602
# Poissons Ratio (y) = 0.11284 0.16215
# Poissons Ratio (z) = 0.18483 0.37484
#
# Static dielectric constant tensor:
#      x y z
#    x 2.122120 0.000000 0.074470 
#    y 0.000000 2.570750 0.000000 
#    z 0.074470 0.000000 1.961440 
# 
# From -- ./inp_files/81182.got.cif
#   From: 2010.05.17/outbox.cif.g08.bks.cpg/sg10_41_cif.got.tgz:81182.got - 2010.06.03 11:33:40.
