data_PCOD9152215
_publ_section_title
;
Structure prediction by ZEFSAII (Michael W. Deem and Ramdas Pophale) SiO2 
 PCOD9152215
Probable space group: P 2/M
;
_chemical_formula_sum "Si O2"
_cell_formula_units_Z 24
_cell_length_a 23.058907
_cell_length_b 7.458265
_cell_length_c 17.071838
_cell_angle_alpha 90.000000
_cell_angle_beta 156.426386
_cell_angle_gamma 90.000000
_cell_volume 1174.187675
_symmetry_space_group_name_H-M "P 2/M"
_symmetry_group_IT_number 10
_symmetry_cell_setting 'monoclinic'
loop_
_space_group_symop_operation_xyz
x,y,z
-x,y,-z
-x,-y,-z
x,-y,z
loop_
_atom_site_type_symbol
_atom_site_label
_atom_site_fract_x
_atom_site_fract_y
_atom_site_fract_z
Si Si1 0.352956 0.207556 0.603332
Si Si2 0.658703 0.780794 0.929713
Si Si3 0.832402 0.781540 0.299696
Si Si4 0.796824 0.219079 0.428931
Si Si5 0.902839 0.216461 0.117810
Si Si6 0.942198 0.291474 0.846778
O O1 0.311225 0.284524 0.636916
O O2 0.206589 0.212160 0.371259
O O3 0.388842 0.000000 0.663068
O O4 0.493156 0.281555 0.732724
O O5 0.740690 0.726825 0.110978
O O6 0.755314 0.720588 0.975793
O O7 0.661098 0.000000 0.928705
O O8 0.771687 0.723742 0.308882
O O9 0.000000 0.725981 0.500000
O O10 0.832317 0.000000 0.299359
O O11 0.959112 0.269744 0.657698
O O12 0.793214 0.000000 0.425191
O O13 0.938983 0.275861 0.074836
O O14 0.902678 0.000000 0.116341
O O15 0.909667 0.500000 0.819388
O O16 0.000000 0.214880 0.000000
#
# Coordination Sequence:
#
# PCOD9152215 Si02
#       6
#     4   4   4   4   4   4
#     4   9  18  31  48  73 103 129 157 194 240 287
#     4   9  16  26  43  72 107 134 156 193 238 278
#     4   9  13  19  36  65 103 137 163 193 229 264
#     4   8  13  22  38  64  97 133 165 192 224 265
#     4   9  16  29  50  74  99 126 158 194 236 283
#     4  10  21  37  55  72  89 116 158 202 243 293
#
# _framework density 20.439662999999999
#
# number of rings (size 3 to 8) (size 9 to 14) (size 15 to 20)
#    0.000    3.000    1.667    1.500    0.000    2.000 
#    0.000    5.000    0.000    5.000    0.000   18.667 
#    0.000    0.000    0.000    0.000    0.000    0.000 
#
# Total GULP energy -133839.089033 kJ/mol
# GULP energy per Si atom -5576.628710 kJ/mol
# Density = 2.039314 g / cm^3
# Si number density = 20.439663 Si / 1000 Ang^3
#
#
#
# Elastic Constant Matrix: (Units=GPa)
#
#
# Indices 1 2 3 4 5 6 
#
# 1 166.8137 -8.0457 84.2948 0.0000 10.9135 0.0000
# 2 -8.0457 55.2728 -7.0050 0.0000 4.4002 0.0000
# 3 84.2948 -7.0050 80.4196 0.0000 21.5647 0.0000
# 4 0.0000 0.0000 0.0000 -12.4785 0.0000 -25.0209
# 5 10.9135 4.4002 21.5647 0.0000 40.0181 0.0000
# 6 0.0000 0.0000 0.0000 -25.0209 0.0000 9.9115
#
#
#
# Elastic Compliance Matrix: (Units=1/GPa)
#
#
# Indices 1 2 3 4 5 6 
#
# 1 0.013436 -0.000362 -0.015363 0.000000 0.004654 0.000000
# 2 -0.000362 0.018697 0.002960 0.000000 -0.003553 0.000000
# 3 -0.015363 0.002960 0.032449 0.000000 -0.013622 0.000000
# 4 0.000000 0.000000 0.000000 -0.013220 0.000000 -0.033373
# 5 0.004654 -0.003553 -0.013622 0.000000 0.031450 0.000000
# 6 0.000000 0.000000 0.000000 -0.033373 0.000000 0.016644
#
#
# Mechanical properties :
#
#
# Convention : Reuss Voigt Hill
#
# Bulk Modulus (GPa) = 25.60596 48.99937 37.30267
# Shear Modulus (GPa) = 36.23109 23.04102 29.63606
#
# Velocity S-wave (km/s) = 4.21478 3.36113 3.81192
# Velocity P-wave (km/s) = 6.02002 6.25201 6.13711
#
# Compressibility (1/GPa) = 0.03905340
#
# Stress axis : x y z
#
# Youngs Moduli (GPa) = 74.42636 53.48329 30.81787
#
# Poissons Ratio (x) = 0.01935 0.47346
# Poissons Ratio (y) = 0.02693 -0.09124
# Poissons Ratio (z) = 1.14342 -0.15834
#
# Static dielectric constant tensor:
#      x y z
#    x 1.736080 0.000000 0.020940 
#    y 0.000000 1.783830 0.000000 
#    z 0.020940 0.000000 1.695910 
# 
# From -- ./inp_files/35944.got.cif
#   From: 2010.05.17/outbox.cif.g08.bks.cpg/sg10_18_cif.got.tgz:35944.got - 2010.06.03 11:33:40.
