data_PCOD9152361
_publ_section_title
;
Structure prediction by ZEFSAII (Michael W. Deem and Ramdas Pophale) SiO2 
 PCOD9152361
Probable space group: P 2/M
;
_chemical_formula_sum "Si O2"
_cell_formula_units_Z 28
_cell_length_a 29.404998
_cell_length_b 7.855166
_cell_length_c 10.115227
_cell_angle_alpha 90.000000
_cell_angle_beta 140.442151
_cell_angle_gamma 90.000000
_cell_volume 1487.969611
_symmetry_space_group_name_H-M "P 2/M"
_symmetry_group_IT_number 10
_symmetry_cell_setting 'monoclinic'
loop_
_space_group_symop_operation_xyz
x,y,z
-x,y,-z
-x,-y,-z
x,-y,z
loop_
_atom_site_type_symbol
_atom_site_label
_atom_site_fract_x
_atom_site_fract_y
_atom_site_fract_z
Si Si1 0.188941 0.793295 0.209556
Si Si2 0.569994 0.000000 0.066366
Si Si3 0.328253 0.689685 0.017908
Si Si4 0.212319 0.803002 0.960935
Si Si5 0.318129 0.304040 0.689593
Si Si6 0.027683 0.206306 0.918549
Si Si7 0.565786 0.000000 0.745720
Si Si8 0.940488 0.299674 0.469505
O O1 0.249088 0.729911 0.444989
O O2 0.189482 0.000000 0.213026
O O3 0.206604 0.739367 0.098954
O O4 0.108849 0.738099 0.069457
O O5 0.620274 0.834280 0.202213
O O6 0.500000 0.000000 0.000000
O O7 0.547804 0.000000 0.861832
O O8 0.359251 0.500000 0.091756
O O9 0.386418 0.833782 0.172229
O O10 0.266568 0.706121 0.987831
O O11 0.299663 0.717232 0.804085
O O12 0.133783 0.791710 0.722404
O O13 0.235273 0.000000 0.016594
O O14 0.341755 0.500000 0.723532
O O15 0.973762 0.272967 0.687362
O O16 0.027077 0.000000 0.911497
O O17 0.000000 0.258962 0.000000
O O18 0.500000 0.000000 0.500000
O O19 0.928764 0.500000 0.418517
O O20 0.000000 0.236022 0.500000
#
# Coordination Sequence:
#
# PCOD9152361 Si02
#       8
#     4   2   4   4   4   4   2   4
#     4  10  21  37  58  85 120 156 204 257 303 355
#     4  10  22  42  66  94 128 160 194 245 286 356
#     4  10  22  41  63  93 126 161 204 245 296 359
#     4  11  22  37  61  86 116 160 206 254 307 364
#     4  10  22  40  64  91 124 164 201 244 299 354
#     4  10  22  39  57  81 110 152 204 255 305 359
#     4  10  22  42  66  96 128 160 198 238 296 356
#     4  11  23  38  55  80 118 157 199 256 313 360
#
# _framework density 18.817589000000002
#
# number of rings (size 3 to 8) (size 9 to 14) (size 15 to 20)
#    0.000    1.714    2.857    0.857    2.000    4.286 
#    0.000    0.000    0.000    0.000    0.000    0.000 
#    0.000    0.000    0.000    0.000    0.000    0.000 
#
# Total GULP energy -156404.690474 kJ/mol
# GULP energy per Si atom -5585.881803 kJ/mol
# Density = 1.877476 g / cm^3
# Si number density = 18.817589 Si / 1000 Ang^3
#
#
#
# Elastic Constant Matrix: (Units=GPa)
#
#
# Indices 1 2 3 4 5 6 
#
# 1 136.6373 46.6570 58.5570 0.0000 -3.8095 0.0000
# 2 46.6570 84.3445 42.9028 0.0000 1.8812 0.0000
# 3 58.5570 42.9028 149.3426 0.0000 -6.7307 0.0000
# 4 0.0000 0.0000 0.0000 49.0405 0.0000 -6.3389
# 5 -3.8095 1.8812 -6.7307 0.0000 19.5393 0.0000
# 6 0.0000 0.0000 0.0000 -6.3389 0.0000 6.5417
#
#
#
# Elastic Compliance Matrix: (Units=1/GPa)
#
#
# Indices 1 2 3 4 5 6 
#
# 1 0.009909 -0.004181 -0.002620 0.000000 0.001432 0.000000
# 2 -0.004181 0.015796 -0.003051 0.000000 -0.003387 0.000000
# 3 -0.002620 -0.003051 0.008725 0.000000 0.002789 0.000000
# 4 0.000000 0.000000 0.000000 0.023311 0.000000 0.022588
# 5 0.001432 -0.003387 0.002789 0.000000 0.052745 0.000000
# 6 0.000000 0.000000 0.000000 0.022588 0.000000 0.174753
#
#
# Mechanical properties :
#
#
# Convention : Reuss Voigt Hill
#
# Bulk Modulus (GPa) = 67.90139 74.06199 70.98169
# Shear Modulus (GPa) = 16.13676 29.83817 22.98746
#
# Velocity S-wave (km/s) = 2.93155 3.98635 3.49892
# Velocity P-wave (km/s) = 6.90080 7.78661 7.35704
#
# Compressibility (1/GPa) = 0.01472724
#
# Stress axis : x y z
#
# Youngs Moduli (GPa) = 100.92023 63.30545 114.60720
#
# Poissons Ratio (x) = 0.26466 0.30023
# Poissons Ratio (y) = 0.42192 0.34971
# Poissons Ratio (z) = 0.26438 0.19317
#
# Static dielectric constant tensor:
#      x y z
#    x 1.632610 0.000000 -0.012060 
#    y 0.000000 1.682190 0.000000 
#    z -0.012060 0.000000 1.581570 
# 
# From -- ./inp_files/37190.got.cif
#   From: 2010.05.17/outbox.cif.g08.bks.cpg/sg10_19_cif.got.tgz:37190.got - 2010.06.03 11:33:40.
