data_PCOD9152364
_publ_section_title
;
Structure prediction by ZEFSAII (Michael W. Deem and Ramdas Pophale) SiO2 
 PCOD9152364
Probable space group: P 2/M
;
_chemical_formula_sum "Si O2"
_cell_formula_units_Z 28
_cell_length_a 20.254146
_cell_length_b 7.702921
_cell_length_c 13.903208
_cell_angle_alpha 90.000000
_cell_angle_beta 144.702318
_cell_angle_gamma 90.000000
_cell_volume 1253.373279
_symmetry_space_group_name_H-M "P 2/M"
_symmetry_group_IT_number 10
_symmetry_cell_setting 'monoclinic'
loop_
_space_group_symop_operation_xyz
x,y,z
-x,y,-z
-x,-y,-z
x,-y,z
loop_
_atom_site_type_symbol
_atom_site_label
_atom_site_fract_x
_atom_site_fract_y
_atom_site_fract_z
Si Si1 0.808747 0.701708 0.443433
Si Si2 0.389047 0.711918 0.929399
Si Si3 0.041525 0.199485 0.650623
Si Si4 0.124259 0.787548 0.111124
Si Si5 0.444666 0.707069 0.209719
Si Si6 0.209208 0.791787 0.006325
Si Si7 0.704433 0.203016 0.520475
O O1 0.833023 0.500000 0.453420
O O2 0.725330 0.770566 0.260423
O O3 0.741213 0.713596 0.463272
O O4 0.929826 0.796321 0.585784
O O5 0.386148 0.500000 0.925304
O O6 0.500000 0.764009 0.000000
O O7 0.405274 0.771702 0.057444
O O8 0.000000 0.279153 0.500000
O O9 0.073419 0.000000 0.666706
O O10 0.144758 0.279374 0.834704
O O11 0.153294 0.727003 0.038333
O O12 0.219448 0.730625 0.300907
O O13 0.125754 0.000000 0.110750
O O14 0.000000 0.733668 0.000000
O O15 0.453945 0.500000 0.215605
O O16 0.343376 0.754421 0.161234
O O17 0.570474 0.775464 0.380795
O O18 0.193682 0.000000 0.985971
O O19 0.729996 0.000000 0.539261
#
# Coordination Sequence:
#
# PCOD9152364 Si02
#       7
#     4   4   4   4   4   4   4
#     4  11  21  35  58  85 115 152 193 236 286 343
#     4   9  17  33  54  77 111 154 191 222 268 337
#     4  10  21  37  58  86 119 150 187 239 290 337
#     4   9  19  38  63  85 108 147 194 235 280 340
#     4  11  22  38  59  84 118 153 190 234 286 345
#     4  10  21  39  61  84 115 153 192 234 284 342
#     4  11  22  37  59  86 113 145 193 243 286 333
#
# _framework density 22.339711999999999
#
# number of rings (size 3 to 8) (size 9 to 14) (size 15 to 20)
#    0.000    1.857    1.429    3.000    0.000    3.714 
#    0.000    7.143    0.000    3.000    0.000    0.000 
#    0.000    0.000    0.000    0.000    0.000    0.000 
#
# Total GULP energy -156548.253785 kJ/mol
# GULP energy per Si atom -5591.009064 kJ/mol
# Density = 2.228887 g / cm^3
# Si number density = 22.339712 Si / 1000 Ang^3
#
#
#
# Elastic Constant Matrix: (Units=GPa)
#
#
# Indices 1 2 3 4 5 6 
#
# 1 120.2807 -3.5746 49.9241 0.0000 7.4992 0.0000
# 2 -3.5746 46.6192 -1.9179 0.0000 -9.2536 0.0000
# 3 49.9241 -1.9179 147.7922 0.0000 -2.1167 0.0000
# 4 0.0000 0.0000 0.0000 -9.9662 0.0000 -9.0608
# 5 7.4992 -9.2536 -2.1167 0.0000 38.4945 0.0000
# 6 0.0000 0.0000 0.0000 -9.0608 0.0000 1.7628
#
#
#
# Elastic Compliance Matrix: (Units=1/GPa)
#
#
# Indices 1 2 3 4 5 6 
#
# 1 0.009838 0.000210 -0.003350 0.000000 -0.002050 0.000000
# 2 0.000210 0.022550 0.000299 0.000000 0.005396 0.000000
# 3 -0.003350 0.000299 0.007918 0.000000 0.001160 0.000000
# 4 0.000000 0.000000 0.000000 -0.017687 0.000000 -0.090911
# 5 -0.002050 0.005396 0.001160 0.000000 0.027738 0.000000
# 6 0.000000 0.000000 0.000000 -0.090911 0.000000 0.099996
#
#
# Mechanical properties :
#
#
# Convention : Reuss Voigt Hill
#
# Bulk Modulus (GPa) = 28.88169 44.83947 36.86058
# Shear Modulus (GPa) = 29.83691 24.07557 26.95624
#
# Velocity S-wave (km/s) = 3.65855 3.28640 3.47746
# Velocity P-wave (km/s) = 5.55006 5.87501 5.71484
#
# Compressibility (1/GPa) = 0.03462401
#
# Stress axis : x y z
#
# Youngs Moduli (GPa) = 101.64201 44.34602 126.28807
#
# Poissons Ratio (x) = -0.00929 0.42307
# Poissons Ratio (y) = -0.02130 -0.03778
# Poissons Ratio (z) = 0.34051 -0.01327
#
# Static dielectric constant tensor:
#      x y z
#    x 1.802220 0.000000 -0.014860 
#    y 0.000000 1.824450 0.000000 
#    z -0.014860 0.000000 1.812940 
# 
# From -- ./inp_files/70271.got.cif
#   From: 2010.05.17/outbox.cif.g08.bks.cpg/sg10_36_cif.got.tgz:70271.got - 2010.06.03 11:33:40.
