data_PCOD9152512
_publ_section_title
;
Structure prediction by ZEFSAII (Michael W. Deem and Ramdas Pophale) SiO2 
 PCOD9152512
Probable space group: P 2/M
;
_chemical_formula_sum "Si O2"
_cell_formula_units_Z 32
_cell_length_a 9.518073
_cell_length_b 27.385535
_cell_length_c 13.299736
_cell_angle_alpha 90.000000
_cell_angle_beta 29.038199
_cell_angle_gamma 90.000000
_cell_volume 1682.699053
_symmetry_space_group_name_H-M "P 2/M"
_symmetry_group_IT_number 10
_symmetry_cell_setting 'monoclinic'
loop_
_space_group_symop_operation_xyz
x,y,z
-x,y,-z
-x,-y,-z
x,-y,z
loop_
_atom_site_type_symbol
_atom_site_label
_atom_site_fract_x
_atom_site_fract_y
_atom_site_fract_z
Si Si1 0.266628 0.556712 0.054777
Si Si2 0.326777 0.384413 0.318663
Si Si3 0.641682 0.702762 0.013280
Si Si4 0.702807 0.209458 0.123677
Si Si5 0.314314 0.944955 0.854941
Si Si6 0.744333 0.874651 0.929720
Si Si7 0.793920 0.359575 0.380629
Si Si8 0.623139 0.139610 0.535792
O O1 0.187130 0.500000 0.103962
O O2 0.988058 0.591549 0.240564
O O3 0.500000 0.564210 0.000000
O O4 0.444355 0.572574 0.844000
O O5 0.439225 0.342789 0.171822
O O6 0.312428 0.362100 0.438174
O O7 0.000000 0.400579 0.500000
O O8 0.638278 0.740785 0.106361
O O9 0.500000 0.723530 0.000000
O O10 0.968412 0.682976 0.789380
O O11 0.463205 0.188470 0.349978
O O12 0.735548 0.168641 0.016929
O O13 0.000000 0.212857 0.000000
O O14 0.491167 0.905958 0.679012
O O15 0.432267 0.000000 0.780072
O O16 0.281911 0.923595 0.987257
O O17 0.000000 0.945785 0.000000
O O18 0.041384 0.869468 0.685189
O O19 0.500000 0.871017 0.000000
O O20 0.500000 0.356108 0.500000
O O21 0.500000 0.141867 0.500000
#
# Coordination Sequence:
#
# PCOD9152512 Si02
#       8
#     4   4   4   4   4   4   4   4
#     4  10  21  38  64  95 126 164 212 256 302 371
#     4  11  20  41  65  90 121 167 207 251 306 370
#     4  11  24  43  62  90 123 157 206 255 309 372
#     4  11  24  41  63  93 120 155 209 258 303 376
#     4  10  21  37  63  97 126 163 215 257 302 375
#     4  11  23  42  63  90 128 164 203 262 314 361
#     4  11  24  41  63  91 128 163 203 259 313 362
#     4  11  20  42  66  87 123 169 206 250 312 368
#
# _framework density 19.017067000000001
#
# number of rings (size 3 to 8) (size 9 to 14) (size 15 to 20)
#    0.000    1.250    5.000    1.875    1.750    6.500 
#    2.250    1.250    0.000    0.000    0.000    0.000 
#    0.000    0.000    0.000    0.000    0.000    0.000 
#
# Total GULP energy -178658.994157 kJ/mol
# GULP energy per Si atom -5583.093567 kJ/mol
# Density = 1.897378 g / cm^3
# Si number density = 19.017067 Si / 1000 Ang^3
#
#
#
# Elastic Constant Matrix: (Units=GPa)
#
#
# Indices 1 2 3 4 5 6 
#
# 1 119.1083 37.3629 52.7763 0.0000 -12.9917 0.0000
# 2 37.3629 96.9628 28.3502 0.0000 5.5900 0.0000
# 3 52.7763 28.3502 127.6047 0.0000 3.2481 0.0000
# 4 0.0000 0.0000 0.0000 20.9483 0.0000 -2.0428
# 5 -12.9917 5.5900 3.2481 0.0000 31.1120 0.0000
# 6 0.0000 0.0000 0.0000 -2.0428 0.0000 29.1639
#
#
#
# Elastic Compliance Matrix: (Units=1/GPa)
#
#
# Indices 1 2 3 4 5 6 
#
# 1 0.012194 -0.003783 -0.004361 0.000000 0.006227 0.000000
# 2 -0.003783 0.012297 -0.001074 0.000000 -0.003677 0.000000
# 3 -0.004361 -0.001074 0.009947 0.000000 -0.002667 0.000000
# 4 0.000000 0.000000 0.000000 0.048065 0.000000 0.003367
# 5 0.006227 -0.003677 -0.002667 0.000000 0.035681 0.000000
# 6 0.000000 0.000000 0.000000 0.003367 0.000000 0.034525
#
#
# Mechanical properties :
#
#
# Convention : Reuss Voigt Hill
#
# Bulk Modulus (GPa) = 62.49276 64.51719 63.50497
# Shear Modulus (GPa) = 28.33204 31.25726 29.79465
#
# Velocity S-wave (km/s) = 3.86401 4.05858 3.96249
# Velocity P-wave (km/s) = 7.26912 7.48080 7.37572
#
# Compressibility (1/GPa) = 0.01600185
#
# Stress axis : x y z
#
# Youngs Moduli (GPa) = 82.00753 81.32236 100.53216
#
# Poissons Ratio (x) = 0.30760 0.43847
# Poissons Ratio (y) = 0.31019 0.10797
# Poissons Ratio (z) = 0.35767 0.08734
#
# Static dielectric constant tensor:
#      x y z
#    x 1.650220 0.000000 0.018940 
#    y 0.000000 1.681420 0.000000 
#    z 0.018940 0.000000 1.641740 
# 
# From -- ./inp_files/43769.got.cif
#   From: 2010.05.17/outbox.cif.g08.bks.cpg/sg10_22_cif.got.tgz:43769.got - 2010.06.03 11:33:40.
