data_PCOD9152877
_publ_section_title
;
Structure prediction by ZEFSAII (Michael W. Deem and Ramdas Pophale) SiO2 
 PCOD9152877
Probable space group: P 2/M
;
_chemical_formula_sum "Si O2"
_cell_formula_units_Z 28
_cell_length_a 27.074552
_cell_length_b 8.898715
_cell_length_c 8.487385
_cell_angle_alpha 90.000000
_cell_angle_beta 37.876463
_cell_angle_gamma 90.000000
_cell_volume 1255.461099
_symmetry_space_group_name_H-M "P 2/M"
_symmetry_group_IT_number 10
_symmetry_cell_setting 'monoclinic'
loop_
_space_group_symop_operation_xyz
x,y,z
-x,y,-z
-x,-y,-z
x,-y,z
loop_
_atom_site_type_symbol
_atom_site_label
_atom_site_fract_x
_atom_site_fract_y
_atom_site_fract_z
Si Si1 0.560797 0.667326 0.680249
Si Si2 0.351950 0.333380 0.866472
Si Si3 0.133511 0.323422 0.047457
Si Si4 0.837418 0.321201 0.677951
Si Si5 0.290780 0.170397 0.568493
Si Si6 0.093106 0.172369 0.814172
Si Si7 0.399559 0.170401 0.036283
O O1 0.575869 0.500000 0.708356
O O2 0.589658 0.657336 0.427949
O O3 0.620655 0.795367 0.590904
O O4 0.468632 0.716984 0.920402
O O5 0.352630 0.500000 0.943557
O O6 0.386601 0.205147 0.888200
O O7 0.258938 0.301469 0.058728
O O8 0.114669 0.500000 0.089328
O O9 0.228465 0.291355 0.785658
O O10 0.099957 0.246233 0.971972
O O11 0.119089 0.269972 0.266271
O O12 0.852575 0.500000 0.629224
O O13 0.863499 0.248809 0.446082
O O14 0.265224 0.000000 0.668504
O O15 0.310600 0.190329 0.334869
O O16 0.121475 0.000000 0.757028
O O17 0.000000 0.173578 0.000000
O O18 0.424711 0.000000 0.004057
#
# Coordination Sequence:
#
# PCOD9152877 Si02
#       7
#     4   4   4   4   4   4   4
#     4  11  22  38  58  82 115 158 209 263 319 376
#     4  10  21  39  59  84 117 154 204 260 314 375
#     4  11  23  43  71 101 132 170 220 271 321 383
#     4  10  22  43  70  99 131 170 219 271 322 383
#     4  11  23  39  59  86 122 161 206 260 318 383
#     4  11  26  46  68 101 141 175 211 257 316 388
#     4  11  24  37  52  82 119 159 209 262 320 380
#
# _framework density 22.302562999999999
#
# number of rings (size 3 to 8) (size 9 to 14) (size 15 to 20)
#    0.000    1.286    1.429    3.857    0.000   12.571 
#    0.000    2.857    0.000    0.000    0.000    0.000 
#    0.000    0.000    0.000    0.000    0.000    0.000 
#
# Total GULP energy -156197.148927 kJ/mol
# GULP energy per Si atom -5578.469605 kJ/mol
# Density = 2.225180 g / cm^3
# Si number density = 22.302563 Si / 1000 Ang^3
#
#
#
# Elastic Constant Matrix: (Units=GPa)
#
#
# Indices 1 2 3 4 5 6 
#
# 1 113.1739 43.6048 13.4085 0.0000 18.0747 0.0000
# 2 43.6048 67.9532 15.1940 0.0000 12.7378 0.0000
# 3 13.4085 15.1940 33.4311 0.0000 12.9277 0.0000
# 4 0.0000 0.0000 0.0000 16.8968 0.0000 0.5753
# 5 18.0747 12.7378 12.9277 0.0000 26.9174 0.0000
# 6 0.0000 0.0000 0.0000 0.5753 0.0000 28.8097
#
#
#
# Elastic Compliance Matrix: (Units=1/GPa)
#
#
# Indices 1 2 3 4 5 6 
#
# 1 0.012317 -0.007000 0.000195 0.000000 -0.005052 0.000000
# 2 -0.007000 0.020957 -0.005772 0.000000 -0.002445 0.000000
# 3 0.000195 -0.005772 0.038625 0.000000 -0.015950 0.000000
# 4 0.000000 0.000000 0.000000 0.059223 0.000000 -0.001183
# 5 -0.005052 -0.002445 -0.015950 0.000000 0.049360 0.000000
# 6 0.000000 0.000000 0.000000 -0.001183 0.000000 0.034734
#
#
# Mechanical properties :
#
#
# Convention : Reuss Voigt Hill
#
# Bulk Modulus (GPa) = 21.39278 39.88586 30.63932
# Shear Modulus (GPa) = 19.53500 24.01485 21.77492
#
# Velocity S-wave (km/s) = 2.96279 3.28499 3.12804
# Velocity P-wave (km/s) = 4.61704 5.68427 5.17822
#
# Compressibility (1/GPa) = 0.04674474
#
# Stress axis : x y z
#
# Youngs Moduli (GPa) = 81.19030 47.71737 25.88997
#
# Poissons Ratio (x) = 0.33403 -0.00505
# Poissons Ratio (y) = 0.56835 0.14943
# Poissons Ratio (z) = -0.01583 0.27541
#
# Static dielectric constant tensor:
#      x y z
#    x 1.908680 0.000000 0.060350 
#    y 0.000000 1.789430 0.000000 
#    z 0.060350 0.000000 1.827960 
# 
# From -- ./inp_files/36896.got.cif
#   From: 2010.05.17/outbox.cif.g08.bks.cpg/sg10_19_cif.got.tgz:36896.got - 2010.06.03 11:33:40.
