data_PCOD9152111
_publ_section_title
;
Structure prediction by ZEFSAII (Michael W. Deem and Ramdas Pophale) SiO2 
 PCOD9152111
Probable space group: P 2/M
;
_chemical_formula_sum "Si O2"
_cell_formula_units_Z 32
_cell_length_a 12.568945
_cell_length_b 8.794723
_cell_length_c 14.586565
_cell_angle_alpha 90.000000
_cell_angle_beta 89.267251
_cell_angle_gamma 90.000000
_cell_volume 1612.272722
_symmetry_space_group_name_H-M "P 2/M"
_symmetry_group_IT_number 10
_symmetry_cell_setting 'monoclinic'
loop_
_space_group_symop_operation_xyz
x,y,z
-x,y,-z
-x,-y,-z
x,-y,z
loop_
_atom_site_type_symbol
_atom_site_label
_atom_site_fract_x
_atom_site_fract_y
_atom_site_fract_z
Si Si1 0.379563 0.181351 0.531567
Si Si2 0.885921 0.180316 0.173105
Si Si3 0.278861 0.324178 0.360580
Si Si4 0.832314 0.678479 0.986508
Si Si5 0.678998 0.317919 0.271335
Si Si6 0.449863 0.324340 0.206071
Si Si7 0.380250 0.823679 0.032449
Si Si8 0.121605 0.180610 0.213604
O O1 0.500000 0.226285 0.500000
O O2 0.299159 0.228746 0.451579
O O3 0.344075 0.260150 0.625929
O O4 0.379447 0.000000 0.544424
O O5 0.783910 0.245757 0.226532
O O6 0.995352 0.208001 0.226251
O O7 0.873536 0.000000 0.160778
O O8 0.894978 0.255099 0.072331
O O9 0.255756 0.500000 0.382760
O O10 0.390073 0.320159 0.303357
O O11 0.190787 0.260677 0.291357
O O12 0.849983 0.500000 0.977802
O O13 0.708698 0.716671 0.009313
O O14 0.853078 0.757773 0.888790
O O15 0.688310 0.500000 0.270693
O O16 0.572157 0.278664 0.215495
O O17 0.442868 0.500000 0.172425
O O18 0.386723 0.213462 0.139894
O O19 0.354936 0.000000 0.014748
O O20 0.500000 0.791251 0.000000
O O21 0.141470 0.000000 0.215123
#
# Coordination Sequence:
#
# PCOD9152111 Si02
#       8
#     4   4   4   4   4   4   4   4
#     4  11  23  39  64  96 129 166 206 250 305 371
#     4  11  25  44  64  90 125 164 209 260 312 366
#     4  11  22  39  64  94 126 158 201 254 306 365
#     4  12  24  39  62  91 123 162 211 260 306 366
#     4  11  23  41  65  93 128 165 205 255 311 372
#     4  10  21  36  57  87 122 160 198 247 308 364
#     4  11  23  36  54  83 121 164 206 251 305 367
#     4  11  24  43  66  91 124 165 210 260 310 364
#
# _framework density 19.847760000000001
#
# number of rings (size 3 to 8) (size 9 to 14) (size 15 to 20)
#    0.000    1.000    2.500    4.500    0.000    8.500 
#    0.000    0.625    0.000    3.750    0.000    0.000 
#    0.000    0.000    0.000    0.000    0.000    0.000 
#
# Total GULP energy -178945.119656 kJ/mol
# GULP energy per Si atom -5592.034989 kJ/mol
# Density = 1.980259 g / cm^3
# Si number density = 19.847760 Si / 1000 Ang^3
#
#
#
# Elastic Constant Matrix: (Units=GPa)
#
#
# Indices 1 2 3 4 5 6 
#
# 1 107.3027 36.9936 24.4016 0.0000 10.5613 0.0000
# 2 36.9936 49.3680 3.0348 0.0000 4.1840 0.0000
# 3 24.4016 3.0348 62.3419 0.0000 11.2872 0.0000
# 4 0.0000 0.0000 0.0000 30.9686 0.0000 4.3131
# 5 10.5613 4.1840 11.2872 0.0000 27.9990 0.0000
# 6 0.0000 0.0000 0.0000 4.3131 0.0000 25.8897
#
#
#
# Elastic Compliance Matrix: (Units=1/GPa)
#
#
# Indices 1 2 3 4 5 6 
#
# 1 0.014039 -0.010072 -0.004659 0.000000 -0.001913 0.000000
# 2 -0.010072 0.027755 0.002863 0.000000 -0.001503 0.000000
# 3 -0.004659 0.002863 0.018861 0.000000 -0.006274 0.000000
# 4 0.000000 0.000000 0.000000 0.033058 0.000000 -0.005507
# 5 -0.001913 -0.001503 -0.006274 0.000000 0.039191 0.000000
# 6 0.000000 0.000000 0.000000 -0.005507 0.000000 0.039543
#
#
# Mechanical properties :
#
#
# Convention : Reuss Voigt Hill
#
# Bulk Modulus (GPa) = 27.08553 38.65250 32.86901
# Shear Modulus (GPa) = 23.98224 27.27696 25.62960
#
# Velocity S-wave (km/s) = 3.47985 3.71119 3.59738
# Velocity P-wave (km/s) = 5.46096 6.15473 5.81819
#
# Compressibility (1/GPa) = 0.03692008
#
# Stress axis : x y z
#
# Youngs Moduli (GPa) = 71.22764 36.02993 53.02065
#
# Poissons Ratio (x) = 0.36289 0.24701
# Poissons Ratio (y) = 0.71740 -0.15181
# Poissons Ratio (z) = 0.33183 -0.10316
#
# Static dielectric constant tensor:
#      x y z
#    x 1.732780 0.000000 -0.010990 
#    y 0.000000 1.665280 0.000000 
#    z -0.010990 0.000000 1.691050 
# 
# From -- ./inp_files/63792.got.cif
#   From: 2010.05.17/outbox.cif.g08.bks.cpg/sg10_32_cif.got.tgz:63792.got - 2010.06.03 11:33:40.
