data_PCOD9152984
_publ_section_title
;
Structure prediction by ZEFSAII (Michael W. Deem and Ramdas Pophale) SiO2 
 PCOD9152984
Probable space group: P 2/M
;
_chemical_formula_sum "Si O2"
_cell_formula_units_Z 24
_cell_length_a 14.849050
_cell_length_b 9.071502
_cell_length_c 8.519826
_cell_angle_alpha 90.000000
_cell_angle_beta 89.946839
_cell_angle_gamma 90.000000
_cell_volume 1147.647219
_symmetry_space_group_name_H-M "P 2/M"
_symmetry_group_IT_number 10
_symmetry_cell_setting 'monoclinic'
loop_
_space_group_symop_operation_xyz
x,y,z
-x,y,-z
-x,-y,-z
x,-y,z
loop_
_atom_site_type_symbol
_atom_site_label
_atom_site_fract_x
_atom_site_fract_y
_atom_site_fract_z
Si Si1 0.204093 0.174151 0.666147
Si Si2 0.632986 0.676035 0.176257
Si Si3 0.695910 0.326372 0.825311
Si Si4 0.952430 0.325968 0.165751
Si Si5 0.466907 0.175289 0.324286
Si Si6 0.128244 0.672534 0.360968
O O1 0.298041 0.254989 0.699044
O O2 0.133842 0.228262 0.798526
O O3 0.160486 0.228204 0.503782
O O4 0.216816 0.000000 0.668266
O O5 0.629587 0.500000 0.192070
O O6 0.535359 0.744504 0.206004
O O7 0.671033 0.712453 0.003522
O O8 0.675334 0.500000 0.804368
O O9 0.632626 0.233719 0.710346
O O10 0.800079 0.306904 0.780082
O O11 0.927181 0.500000 0.169218
O O12 0.028348 0.299824 0.298042
O O13 0.000000 0.297282 0.000000
O O14 0.500000 0.210295 0.500000
O O15 0.471092 0.000000 0.303162
O O16 0.132922 0.500000 0.409239
#
# Coordination Sequence:
#
# PCOD9152984 Si02
#       6
#     4   4   4   4   4   4
#     4  12  25  39  58  88 124 158 195 241 296 354
#     4  11  23  41  64  88 116 153 201 249 292 346
#     4  10  22  40  63  90 116 150 198 247 293 345
#     4  10  21  40  65  90 117 154 201 247 291 345
#     4  11  24  40  59  88 124 158 193 237 293 354
#     4  10  21  39  63  88 117 155 198 243 291 345
#
# _framework density 20.912351000000001
#
# number of rings (size 3 to 8) (size 9 to 14) (size 15 to 20)
#    0.000    1.333    0.000    5.500    0.000   13.667 
#    0.000    1.667    0.000    0.000    0.000    0.000 
#    0.000    0.000    0.000    0.000    0.000    0.000 
#
# Total GULP energy -134345.051220 kJ/mol
# GULP energy per Si atom -5597.710467 kJ/mol
# Density = 2.086475 g / cm^3
# Si number density = 20.912351 Si / 1000 Ang^3
#
#
#
# Elastic Constant Matrix: (Units=GPa)
#
#
# Indices 1 2 3 4 5 6 
#
# 1 60.9755 16.7130 -12.9833 0.0000 -3.9595 0.0000
# 2 16.7130 37.4076 21.2392 0.0000 3.4001 0.0000
# 3 -12.9833 21.2392 59.6318 0.0000 -0.9743 0.0000
# 4 0.0000 0.0000 0.0000 -3.8432 0.0000 4.0543
# 5 -3.9595 3.4001 -0.9743 0.0000 34.4594 0.0000
# 6 0.0000 0.0000 0.0000 4.0543 0.0000 -19.7142
#
#
#
# Elastic Compliance Matrix: (Units=1/GPa)
#
#
# Indices 1 2 3 4 5 6 
#
# 1 0.024090 -0.017834 0.011676 0.000000 0.004858 0.000000
# 2 -0.017834 0.047176 -0.020805 0.000000 -0.007292 0.000000
# 3 0.011676 -0.020805 0.026790 0.000000 0.004152 0.000000
# 4 0.000000 0.000000 0.000000 -0.332289 0.000000 -0.068336
# 5 0.004858 -0.007292 0.004152 0.000000 0.030415 0.000000
# 6 0.000000 0.000000 0.000000 -0.068336 0.000000 -0.064778
#
#
# Mechanical properties :
#
#
# Convention : Reuss Voigt Hill
#
# Bulk Modulus (GPa) = 22.66011 23.10587 22.88299
# Shear Modulus (GPa) = -25.00474 11.05012 -6.97731
#
# Velocity S-wave (km/s) = -3.46163 2.30119 -1.82858
# Velocity P-wave (km/s) = 2.26228 4.25835 2.55104
#
# Compressibility (1/GPa) = 0.04413042
#
# Stress axis : x y z
#
# Youngs Moduli (GPa) = 41.51121 21.19729 37.32769
#
# Poissons Ratio (x) = 0.37803 -0.43585
# Poissons Ratio (y) = 0.74031 0.77660
# Poissons Ratio (z) = -0.48470 0.44101
#
# Static dielectric constant tensor:
#      x y z
#    x 1.719540 0.000000 -0.009550 
#    y 0.000000 1.690530 0.000000 
#    z -0.009550 0.000000 1.773560 
# 
# From -- ./inp_files/27025.got.cif
#   From: 2010.05.17/outbox.cif.g08.bks.cpg/sg10_14_cif.got.tgz:27025.got - 2010.06.03 11:33:40.
