data_PCOD9152268
_publ_section_title
;
Structure prediction by ZEFSAII (Michael W. Deem and Ramdas Pophale) SiO2 
 PCOD9152268
Probable space group: P 2/M
;
_chemical_formula_sum "Si O2"
_cell_formula_units_Z 28
_cell_length_a 10.038886
_cell_length_b 18.064921
_cell_length_c 16.639740
_cell_angle_alpha 90.000000
_cell_angle_beta 26.839933
_cell_angle_gamma 90.000000
_cell_volume 1362.465229
_symmetry_space_group_name_H-M "P 2/M"
_symmetry_group_IT_number 10
_symmetry_cell_setting 'monoclinic'
loop_
_space_group_symop_operation_xyz
x,y,z
-x,y,-z
-x,-y,-z
x,-y,z
loop_
_atom_site_type_symbol
_atom_site_label
_atom_site_fract_x
_atom_site_fract_y
_atom_site_fract_z
Si Si1 0.491692 0.916143 0.706134
Si Si2 0.391404 0.187139 0.909816
Si Si3 0.110021 0.916784 0.289745
Si Si4 0.607524 0.343254 0.033293
Si Si5 0.202312 0.863285 0.699943
Si Si6 0.841740 0.588332 0.331716
Si Si7 0.062320 0.585019 0.380565
O O1 0.393849 0.855497 0.823612
O O2 0.317910 0.907284 0.715634
O O3 0.838142 0.906679 0.498238
O O4 0.445870 0.000000 0.761103
O O5 0.632783 0.141949 0.832368
O O6 0.464341 0.273479 0.872248
O O7 0.065570 0.185888 0.123996
O O8 0.954469 0.909271 0.286716
O O9 0.228436 0.000000 0.234831
O O10 0.405589 0.409524 0.174216
O O11 0.500000 0.325577 0.000000
O O12 0.943097 0.368951 0.844348
O O13 0.500000 0.829083 0.500000
O O14 0.500000 0.596709 0.500000
O O15 0.915697 0.500000 0.289356
O O16 0.904263 0.617960 0.387907
O O17 0.961241 0.500000 0.439420
O O18 0.000000 0.620226 0.500000
#
# Coordination Sequence:
#
# PCOD9152268 Si02
#       7
#     4   4   4   4   4   4   4
#     4  10  22  40  60  82 109 142 185 240 296 342
#     4  12  23  36  56  83 113 148 189 232 280 335
#     4  10  21  38  60  83 106 139 188 242 289 336
#     4  10  21  37  56  82 117 155 190 224 273 337
#     4  10  22  39  57  79 109 144 184 232 288 347
#     4   9  18  36  63  90 115 148 191 234 273 319
#     4   9  18  35  60  88 116 148 186 227 274 328
#
# _framework density 20.550984
#
# number of rings (size 3 to 8) (size 9 to 14) (size 15 to 20)
#    0.000    2.000    0.000    3.429    0.000    9.714 
#    0.000    6.429    0.000    3.429    0.000    0.000 
#    0.000    0.000    0.000    0.000    0.000    0.000 
#
# Total GULP energy -156166.087882 kJ/mol
# GULP energy per Si atom -5577.360281 kJ/mol
# Density = 2.050421 g / cm^3
# Si number density = 20.550984 Si / 1000 Ang^3
#
#
#
# Elastic Constant Matrix: (Units=GPa)
#
#
# Indices 1 2 3 4 5 6 
#
# 1 101.7750 24.9207 38.3264 0.0000 6.7599 0.0000
# 2 24.9207 53.1407 22.0234 0.0000 -0.1022 0.0000
# 3 38.3264 22.0234 92.8545 0.0000 -2.9211 0.0000
# 4 0.0000 0.0000 0.0000 18.3648 0.0000 10.2632
# 5 6.7599 -0.1022 -2.9211 0.0000 37.0393 0.0000
# 6 0.0000 0.0000 0.0000 10.2632 0.0000 14.1992
#
#
#
# Elastic Compliance Matrix: (Units=1/GPa)
#
#
# Indices 1 2 3 4 5 6 
#
# 1 0.012644 -0.004144 -0.004319 0.000000 -0.002660 0.000000
# 2 -0.004144 0.022232 -0.003545 0.000000 0.000538 0.000000
# 3 -0.004319 -0.003545 0.013451 0.000000 0.001839 0.000000
# 4 0.000000 0.000000 0.000000 0.091353 0.000000 -0.066030
# 5 -0.002660 0.000538 0.001839 0.000000 0.027630 0.000000
# 6 0.000000 0.000000 0.000000 -0.066030 0.000000 0.118153
#
#
# Mechanical properties :
#
#
# Convention : Reuss Voigt Hill
#
# Bulk Modulus (GPa) = 41.13831 46.47901 43.80866
# Shear Modulus (GPa) = 15.74386 24.75397 20.24892
#
# Velocity S-wave (km/s) = 2.77083 3.47438 3.14236
# Velocity P-wave (km/s) = 5.50435 6.22580 5.87616
#
# Compressibility (1/GPa) = 0.02430824
#
# Stress axis : x y z
#
# Youngs Moduli (GPa) = 79.09102 44.98044 74.34270
#
# Poissons Ratio (x) = 0.18641 0.32112
# Poissons Ratio (y) = 0.32778 0.26358
# Poissons Ratio (z) = 0.34163 0.15948
#
# Static dielectric constant tensor:
#      x y z
#    x 1.757320 0.000000 0.013220 
#    y 0.000000 1.732450 0.000000 
#    z 0.013220 0.000000 1.741680 
# 
# From -- ./inp_files/62560.got.cif
#   From: 2010.05.17/outbox.cif.g08.bks.cpg/sg10_32_cif.got.tgz:62560.got - 2010.06.03 11:33:40.
