data_PCOD9152694
_publ_section_title
;
Structure prediction by ZEFSAII (Michael W. Deem and Ramdas Pophale) SiO2 
 PCOD9152694
Probable space group: P 2/M
;
_chemical_formula_sum "Si O2"
_cell_formula_units_Z 32
_cell_length_a 22.577384
_cell_length_b 10.332761
_cell_length_c 14.625975
_cell_angle_alpha 90.000000
_cell_angle_beta 152.632180
_cell_angle_gamma 90.000000
_cell_volume 1568.521039
_symmetry_space_group_name_H-M "P 2/M"
_symmetry_group_IT_number 10
_symmetry_cell_setting 'monoclinic'
loop_
_space_group_symop_operation_xyz
x,y,z
-x,y,-z
-x,-y,-z
x,-y,z
loop_
_atom_site_type_symbol
_atom_site_label
_atom_site_fract_x
_atom_site_fract_y
_atom_site_fract_z
Si Si1 0.372946 0.647141 0.445203
Si Si2 0.277213 0.652033 0.687122
Si Si3 0.400687 0.857949 0.978929
Si Si4 0.957533 0.847832 0.637569
Si Si5 0.322759 0.647351 0.179734
Si Si6 0.033377 0.146281 0.146414
Si Si7 0.326848 0.218377 0.571222
Si Si8 0.215391 0.856905 0.897698
O O1 0.329771 0.500000 0.402255
O O2 0.306172 0.694195 0.260952
O O3 0.524712 0.643117 0.631725
O O4 0.350664 0.729168 0.503409
O O5 0.268348 0.500000 0.698156
O O6 0.379946 0.733857 0.886801
O O7 0.149992 0.740138 0.528214
O O8 0.307928 0.670626 0.621908
O O9 0.288220 0.849265 0.901225
O O10 0.385433 0.000000 0.912542
O O11 0.542866 0.853281 0.218463
O O12 0.013241 0.810677 0.815603
O O13 0.062018 0.847172 0.699722
O O14 0.913157 0.000000 0.583510
O O15 0.274116 0.500000 0.105993
O O16 0.265364 0.742470 0.028351
O O17 0.188608 0.148265 0.374418
O O18 0.983626 0.000000 0.070982
O O19 0.000000 0.207704 0.000000
O O20 0.249432 0.000000 0.981895
#
# Coordination Sequence:
#
# PCOD9152694 Si02
#       8
#     4   4   4   4   4   4   4   4
#     4   9  18  33  54  81 117 158 197 235 293 358
#     4  11  25  42  63  89 118 157 208 259 306 357
#     4  11  24  41  62  91 123 156 200 253 315 374
#     4   9  20  40  63  84 120 164 201 247 305 362
#     4   9  18  34  55  82 118 163 199 234 290 358
#     4   9  19  35  56  85 118 161 206 240 285 351
#     4  11  21  37  62  88 124 160 197 249 303 356
#     4  10  21  38  60  90 122 156 199 251 305 357
#
# _framework density 20.401385000000001
#
# number of rings (size 3 to 8) (size 9 to 14) (size 15 to 20)
#    0.000    2.125    1.250    2.250    1.750    5.000 
#    0.000    4.375    0.000    1.875    0.000    0.000 
#    0.000    0.000    0.000    0.000    0.000    0.000 
#
# Total GULP energy -178215.665800 kJ/mol
# GULP energy per Si atom -5569.239556 kJ/mol
# Density = 2.035495 g / cm^3
# Si number density = 20.401385 Si / 1000 Ang^3
#
#
#
# Elastic Constant Matrix: (Units=GPa)
#
#
# Indices 1 2 3 4 5 6 
#
# 1 104.5676 39.6546 33.6914 0.0000 3.5438 0.0000
# 2 39.6546 123.6207 39.6986 0.0000 -11.4028 0.0000
# 3 33.6914 39.6986 64.6474 0.0000 -0.2813 0.0000
# 4 0.0000 0.0000 0.0000 21.4362 0.0000 -8.7089
# 5 3.5438 -11.4028 -0.2813 0.0000 28.0976 0.0000
# 6 0.0000 0.0000 0.0000 -8.7089 0.0000 26.0668
#
#
#
# Elastic Compliance Matrix: (Units=1/GPa)
#
#
# Indices 1 2 3 4 5 6 
#
# 1 0.012178 -0.002627 -0.004745 0.000000 -0.002650 0.000000
# 2 -0.002627 0.011120 -0.005439 0.000000 0.004790 0.000000
# 3 -0.004745 -0.005439 0.021275 0.000000 -0.001396 0.000000
# 4 0.000000 0.000000 0.000000 0.053977 0.000000 0.018033
# 5 -0.002650 0.004790 -0.001396 0.000000 0.037854 0.000000
# 6 0.000000 0.000000 0.000000 0.018033 0.000000 0.044388
#
#
# Mechanical properties :
#
#
# Convention : Reuss Voigt Hill
#
# Bulk Modulus (GPa) = 52.76522 57.65833 55.21178
# Shear Modulus (GPa) = 23.50382 27.10620 25.30501
#
# Velocity S-wave (km/s) = 3.39790 3.64901 3.52569
# Velocity P-wave (km/s) = 6.42759 6.78801 6.61026
#
# Compressibility (1/GPa) = 0.01895188
#
# Stress axis : x y z
#
# Youngs Moduli (GPa) = 82.11496 89.92522 47.00312
#
# Poissons Ratio (x) = 0.23624 0.22303
# Poissons Ratio (y) = 0.21572 0.25564
# Poissons Ratio (z) = 0.38963 0.48909
#
# Static dielectric constant tensor:
#      x y z
#    x 1.778010 0.000000 0.015210 
#    y 0.000000 1.701120 0.000000 
#    z 0.015210 0.000000 1.779830 
# 
# From -- ./inp_files/71604.got.cif
#   From: 2010.05.17/outbox.cif.g08.bks.cpg/sg10_36_cif.got.tgz:71604.got - 2010.06.03 11:33:40.
