data_PCOD9152426
_publ_section_title
;
Structure prediction by ZEFSAII (Michael W. Deem and Ramdas Pophale) SiO2 
 PCOD9152426
Probable space group: P 2/M
;
_chemical_formula_sum "Si O2"
_cell_formula_units_Z 18
_cell_length_a 14.067236
_cell_length_b 16.590565
_cell_length_c 9.755830
_cell_angle_alpha 90.000000
_cell_angle_beta 157.454345
_cell_angle_gamma 90.000000
_cell_volume 872.988161
_symmetry_space_group_name_H-M "P 2/M"
_symmetry_group_IT_number 10
_symmetry_cell_setting 'monoclinic'
loop_
_space_group_symop_operation_xyz
x,y,z
-x,y,-z
-x,-y,-z
x,-y,z
loop_
_atom_site_type_symbol
_atom_site_label
_atom_site_fract_x
_atom_site_fract_y
_atom_site_fract_z
Si Si1 0.919225 0.861980 0.748311
Si Si2 0.182836 0.000000 0.601829
Si Si3 0.488765 0.261115 0.822871
Si Si4 0.757619 0.713256 0.926461
Si Si5 0.874016 0.409577 0.683342
O O1 0.658592 0.817352 0.423257
O O2 0.900351 0.922311 0.596778
O O3 0.000000 0.900195 0.000000
O O4 0.098247 0.786655 0.953117
O O5 0.000000 0.000000 0.500000
O O6 0.500000 0.000000 0.000000
O O7 0.724665 0.265114 0.041119
O O8 0.346064 0.345065 0.604749
O O9 0.500000 0.253772 0.000000
O O10 0.500000 0.703345 0.500000
O O11 0.917315 0.632188 0.131261
O O12 0.803043 0.500000 0.547977
O O13 0.000000 0.412560 0.000000
#
# Coordination Sequence:
#
# PCOD9152426 Si02
#       5
#     4   2   4   4   4
#     4  11  24  44  69  98 132 176 226 276 332 415
#     4  12  31  50  73 110 148 180 222 284 351 410
#     4  11  23  39  63  93 131 169 222 280 347 396
#     4  11  20  39  67  95 123 175 230 277 333 410
#     4  10  21  37  59  92 129 170 226 280 335 408
#
# _framework density 20.618836999999999
#
# number of rings (size 3 to 8) (size 9 to 14) (size 15 to 20)
#    0.000    1.111    4.444    2.333    6.222    4.444 
#    0.000    2.778    0.000    0.000    0.000    0.000 
#    0.000    0.000    0.000    0.000    0.000    0.000 
#
# Total GULP energy -100312.611099 kJ/mol
# GULP energy per Si atom -5572.922839 kJ/mol
# Density = 2.057191 g / cm^3
# Si number density = 20.618837 Si / 1000 Ang^3
#
#
#
# Elastic Constant Matrix: (Units=GPa)
#
#
# Indices 1 2 3 4 5 6 
#
# 1 146.4906 13.3743 13.5759 0.0000 -9.3512 0.0000
# 2 13.3743 103.6804 5.0643 0.0000 -6.8696 0.0000
# 3 13.5759 5.0643 32.0129 0.0000 -9.3165 0.0000
# 4 0.0000 0.0000 0.0000 7.9380 0.0000 -7.5451
# 5 -9.3512 -6.8696 -9.3165 0.0000 29.7268 0.0000
# 6 0.0000 0.0000 0.0000 -7.5451 0.0000 17.4928
#
#
#
# Elastic Compliance Matrix: (Units=1/GPa)
#
#
# Indices 1 2 3 4 5 6 
#
# 1 0.007213 -0.000719 -0.002567 0.000000 0.001298 0.000000
# 2 -0.000719 0.009895 -0.000727 0.000000 0.001833 0.000000
# 3 -0.002567 -0.000727 0.035385 0.000000 0.010114 0.000000
# 4 0.000000 0.000000 0.000000 0.213508 0.000000 0.092091
# 5 0.001298 0.001833 0.010114 0.000000 0.037641 0.000000
# 6 0.000000 0.000000 0.000000 0.092091 0.000000 0.096887
#
#
# Mechanical properties :
#
#
# Convention : Reuss Voigt Hill
#
# Bulk Modulus (GPa) = 22.48936 38.46811 30.47873
# Shear Modulus (GPa) = 11.80979 27.70948 19.75963
#
# Velocity S-wave (km/s) = 2.39585 3.66989 3.09905
# Velocity P-wave (km/s) = 4.31096 6.05432 5.25543
#
# Compressibility (1/GPa) = 0.04446548
#
# Stress axis : x y z
#
# Youngs Moduli (GPa) = 138.64225 101.06414 28.26089
#
# Poissons Ratio (x) = 0.07267 0.07255
# Poissons Ratio (y) = 0.09968 0.02055
# Poissons Ratio (z) = 0.35593 0.07348
#
# Static dielectric constant tensor:
#      x y z
#    x 1.701640 0.000000 -0.037690 
#    y 0.000000 1.716010 0.000000 
#    z -0.037690 0.000000 1.786860 
# 
# From -- ./inp_files/4030.got.cif
#   From: 2010.05.17/outbox.cif.g08.bks.cpg/sg10_3_cif.got.tgz:4030.got - 2010.06.03 11:33:40.
