data_PCOD9152623
_publ_section_title
;
Structure prediction by ZEFSAII (Michael W. Deem and Ramdas Pophale) SiO2 
 PCOD9152623
Probable space group: P 2/M
;
_chemical_formula_sum "Si O2"
_cell_formula_units_Z 28
_cell_length_a 10.289274
_cell_length_b 8.709001
_cell_length_c 25.996355
_cell_angle_alpha 90.000000
_cell_angle_beta 140.246064
_cell_angle_gamma 90.000000
_cell_volume 1489.705851
_symmetry_space_group_name_H-M "P 2/M"
_symmetry_group_IT_number 10
_symmetry_cell_setting 'monoclinic'
loop_
_space_group_symop_operation_xyz
x,y,z
-x,y,-z
-x,-y,-z
x,-y,z
loop_
_atom_site_type_symbol
_atom_site_label
_atom_site_fract_x
_atom_site_fract_y
_atom_site_fract_z
Si Si1 0.518036 0.316248 0.565201
Si Si2 0.516139 0.814256 0.746463
Si Si3 0.045951 0.315914 0.147490
Si Si4 0.939497 0.184220 0.734716
Si Si5 0.392489 0.314901 0.020956
Si Si6 0.765591 0.185541 0.435994
Si Si7 0.350463 0.185009 0.806652
O O1 0.500000 0.273145 0.500000
O O2 0.527621 0.500000 0.572023
O O3 0.723349 0.244956 0.650417
O O4 0.332209 0.254956 0.542626
O O5 0.742772 0.750834 0.808652
O O6 0.374032 0.767827 0.655164
O O7 0.421013 0.763393 0.771781
O O8 0.524903 0.000000 0.748680
O O9 0.058035 0.500000 0.152407
O O10 0.014801 0.254387 0.195688
O O11 0.845116 0.272169 0.054359
O O12 0.120115 0.229231 0.750928
O O13 0.932946 0.000000 0.736885
O O14 0.406734 0.500000 0.027785
O O15 0.505426 0.246195 0.104321
O O16 0.500000 0.266919 0.000000
O O17 0.000000 0.230563 0.500000
O O18 0.758114 0.000000 0.437122
O O19 0.358833 0.000000 0.809709
#
# Coordination Sequence:
#
# PCOD9152623 Si02
#       7
#     4   4   4   4   4   4   4
#     4  11  25  42  61  91 126 158 199 248 296 353
#     4  10  22  41  60  87 123 158 200 245 297 357
#     4  11  22  38  62  88 119 160 200 245 299 357
#     4  11  22  38  63  91 118 156 202 247 297 356
#     4  10  21  38  59  86 121 159 201 248 299 356
#     4  10  22  40  65  91 120 160 201 245 296 354
#     4  10  23  39  60  90 122 156 200 252 300 354
#
# _framework density 18.795658
#
# number of rings (size 3 to 8) (size 9 to 14) (size 15 to 20)
#    0.000    1.571    2.857    1.286    2.000    4.571 
#    0.000    2.857    0.000    0.000    0.000    0.000 
#    0.000    0.000    0.000    0.000    0.000    0.000 
#
# Total GULP energy -156464.736545 kJ/mol
# GULP energy per Si atom -5588.026305 kJ/mol
# Density = 1.875288 g / cm^3
# Si number density = 18.795658 Si / 1000 Ang^3
#
#
#
# Elastic Constant Matrix: (Units=GPa)
#
#
# Indices 1 2 3 4 5 6 
#
# 1 165.7025 29.1277 54.6709 0.0000 13.8000 0.0000
# 2 29.1277 13.8926 21.8034 0.0000 4.7477 0.0000
# 3 54.6709 21.8034 94.7090 0.0000 20.4414 0.0000
# 4 0.0000 0.0000 0.0000 56.6869 0.0000 50.8779
# 5 13.8000 4.7477 20.4414 0.0000 37.6378 0.0000
# 6 0.0000 0.0000 0.0000 50.8779 0.0000 109.3373
#
#
#
# Elastic Compliance Matrix: (Units=1/GPa)
#
#
# Indices 1 2 3 4 5 6 
#
# 1 0.009690 -0.018063 -0.001315 0.000000 -0.000561 0.000000
# 2 -0.018063 0.146368 -0.023464 0.000000 0.000903 0.000000
# 3 -0.001315 -0.023464 0.018098 0.000000 -0.006387 0.000000
# 4 0.000000 0.000000 0.000000 0.030292 0.000000 -0.014096
# 5 -0.000561 0.000903 -0.006387 0.000000 0.030130 0.000000
# 6 0.000000 0.000000 0.000000 -0.014096 0.000000 0.015705
#
#
# Mechanical properties :
#
#
# Convention : Reuss Voigt Hill
#
# Bulk Modulus (GPa) = 11.30280 53.94535 32.62407
# Shear Modulus (GPa) = 13.68145 51.97920 32.83033
#
# Velocity S-wave (km/s) = 2.70090 5.26450 4.18389
# Velocity P-wave (km/s) = 3.96901 8.10657 6.38238
#
# Compressibility (1/GPa) = 0.08847363
#
# Stress axis : x y z
#
# Youngs Moduli (GPa) = 103.19475 6.83207 55.25502
#
# Poissons Ratio (x) = 0.12341 0.07263
# Poissons Ratio (y) = 1.86397 1.29653
# Poissons Ratio (z) = 0.13565 0.16031
#
# Static dielectric constant tensor:
#      x y z
#    x 1.639610 0.000000 0.007460 
#    y 0.000000 1.635790 0.000000 
#    z 0.007460 0.000000 1.629000 
# 
# From -- ./inp_files/92092.got.cif
#   From: 2010.05.17/outbox.cif.g08.bks.cpg/sg10_47_cif.got.tgz:92092.got - 2010.06.03 11:33:40.
