data_PCOD9152406
_publ_section_title
;
Structure prediction by ZEFSAII (Michael W. Deem and Ramdas Pophale) SiO2 
 PCOD9152406
Probable space group: P 2/M
;
_chemical_formula_sum "Si O2"
_cell_formula_units_Z 32
_cell_length_a 14.283400
_cell_length_b 28.399560
_cell_length_c 10.205831
_cell_angle_alpha 90.000000
_cell_angle_beta 26.373456
_cell_angle_gamma 90.000000
_cell_volume 1839.034398
_symmetry_space_group_name_H-M "P 2/M"
_symmetry_group_IT_number 10
_symmetry_cell_setting 'monoclinic'
loop_
_space_group_symop_operation_xyz
x,y,z
-x,y,-z
-x,-y,-z
x,-y,z
loop_
_atom_site_type_symbol
_atom_site_label
_atom_site_fract_x
_atom_site_fract_y
_atom_site_fract_z
Si Si1 0.824952 0.120932 0.832578
Si Si2 0.529756 0.444267 0.618536
Si Si3 0.519945 0.306605 0.132290
Si Si4 0.138886 0.629821 0.702357
Si Si5 0.883399 0.870569 0.284861
Si Si6 0.514760 0.803390 0.823997
Si Si7 0.850156 0.617931 0.808703
Si Si8 0.469887 0.055595 0.193496
O O1 0.000000 0.120283 0.500000
O O2 0.941382 0.125453 0.823228
O O3 0.669569 0.164761 0.004594
O O4 0.679615 0.074844 0.000459
O O5 0.500000 0.435450 0.500000
O O6 0.541892 0.500000 0.624164
O O7 0.736185 0.417671 0.413393
O O8 0.329078 0.420961 0.940959
O O9 0.318207 0.332165 0.446798
O O10 0.517201 0.251365 0.166604
O O11 0.500000 0.312136 0.000000
O O12 0.725198 0.334118 0.927554
O O13 0.991230 0.623329 0.761391
O O14 0.000000 0.644439 0.000000
O O15 0.735020 0.825063 0.497360
O O16 0.724553 0.914569 0.505854
O O17 0.000000 0.869819 0.000000
O O18 0.500000 0.809000 0.000000
O O19 0.000000 0.605351 0.500000
O O20 0.441063 0.000000 0.244558
O O21 0.500000 0.066125 0.000000
#
# Coordination Sequence:
#
# PCOD9152406 Si02
#       8
#     4   4   4   4   4   4   4   4
#     4  11  19  37  62  85 110 155 194 234 286 342
#     4  10  22  39  61  89 117 152 198 239 283 345
#     4  10  22  38  60  88 117 150 194 242 285 345
#     4  11  22  39  60  86 118 154 188 237 290 340
#     4  11  23  39  58  85 122 151 187 243 297 339
#     4  10  21  38  60  88 114 147 198 239 279 346
#     4  11  22  39  60  87 119 153 190 235 292 342
#     4  10  21  37  59  88 116 149 199 243 280 346
#
# _framework density 17.400435999999999
#
# number of rings (size 3 to 8) (size 9 to 14) (size 15 to 20)
#    0.000    1.500    5.000    0.750    0.000    6.000 
#    0.000    2.500    0.000    0.000    0.000    0.000 
#    0.000    0.000    0.000    0.000    0.000    0.000 
#
# Total GULP energy -178680.956323 kJ/mol
# GULP energy per Si atom -5583.779885 kJ/mol
# Density = 1.736083 g / cm^3
# Si number density = 17.400436 Si / 1000 Ang^3
#
#
#
# Elastic Constant Matrix: (Units=GPa)
#
#
# Indices 1 2 3 4 5 6 
#
# 1 129.0992 40.6992 56.9222 0.0000 -2.8586 0.0000
# 2 40.6992 123.9628 53.0830 0.0000 2.8014 0.0000
# 3 56.9222 53.0830 133.4187 0.0000 15.8850 0.0000
# 4 0.0000 0.0000 0.0000 8.4404 0.0000 -0.2557
# 5 -2.8586 2.8014 15.8850 0.0000 38.3194 0.0000
# 6 0.0000 0.0000 0.0000 -0.2557 0.0000 12.4958
#
#
#
# Elastic Compliance Matrix: (Units=1/GPa)
#
#
# Indices 1 2 3 4 5 6 
#
# 1 0.010060 -0.001680 -0.003921 0.000000 0.002499 0.000000
# 2 -0.001680 0.010036 -0.003339 0.000000 0.000525 0.000000
# 3 -0.003921 -0.003339 0.011047 0.000000 -0.004628 0.000000
# 4 0.000000 0.000000 0.000000 0.118551 0.000000 0.002425
# 5 0.002499 0.000525 -0.004628 0.000000 0.028163 0.000000
# 6 0.000000 0.000000 0.000000 0.002425 0.000000 0.080076
#
#
# Mechanical properties :
#
#
# Convention : Reuss Voigt Hill
#
# Bulk Modulus (GPa) = 75.39359 76.43216 75.91287
# Shear Modulus (GPa) = 17.84215 27.56956 22.70585
#
# Velocity S-wave (km/s) = 3.20564 3.98479 3.61626
# Velocity P-wave (km/s) = 7.55805 8.07417 7.82037
#
# Compressibility (1/GPa) = 0.01326373
#
# Stress axis : x y z
#
# Youngs Moduli (GPa) = 99.40525 99.63659 90.51844
#
# Poissons Ratio (x) = 0.16742 0.35492
# Poissons Ratio (y) = 0.16703 0.30222
# Poissons Ratio (z) = 0.38976 0.33267
#
# Static dielectric constant tensor:
#      x y z
#    x 1.655860 0.000000 0.087110 
#    y 0.000000 1.574710 0.000000 
#    z 0.087110 0.000000 1.681120 
# 
# From -- ./inp_files/26215.got.cif
#   From: 2010.05.17/outbox.cif.g08.bks.cpg/sg10_14_cif.got.tgz:26215.got - 2010.06.03 11:33:40.
