data_PCOD9152785
_publ_section_title
;
Structure prediction by ZEFSAII (Michael W. Deem and Ramdas Pophale) SiO2 
 PCOD9152785
Probable space group: P 2/M
;
_chemical_formula_sum "Si O2"
_cell_formula_units_Z 32
_cell_length_a 30.542335
_cell_length_b 8.736631
_cell_length_c 12.821764
_cell_angle_alpha 90.000000
_cell_angle_beta 28.484355
_cell_angle_gamma 90.000000
_cell_volume 1631.692919
_symmetry_space_group_name_H-M "P 2/M"
_symmetry_group_IT_number 10
_symmetry_cell_setting 'monoclinic'
loop_
_space_group_symop_operation_xyz
x,y,z
-x,y,-z
-x,-y,-z
x,-y,z
loop_
_atom_site_type_symbol
_atom_site_label
_atom_site_fract_x
_atom_site_fract_y
_atom_site_fract_z
Si Si1 0.107974 0.822084 0.295079
Si Si2 0.127496 0.318285 0.480931
Si Si3 0.595753 0.813449 0.849408
Si Si4 0.257726 0.316820 0.840878
Si Si5 0.320183 0.183419 0.112125
Si Si6 0.754878 0.184912 0.357826
Si Si7 0.394885 0.315609 0.739581
Si Si8 0.034733 0.184433 0.043558
O O1 0.129793 0.733700 0.355710
O O2 0.000000 0.814728 0.500000
O O3 0.134593 0.000000 0.251285
O O4 0.162871 0.748715 0.084858
O O5 0.132363 0.500000 0.477347
O O6 0.217282 0.244645 0.345706
O O7 0.034945 0.257788 0.728270
O O8 0.614677 0.766640 0.928771
O O9 0.682293 0.766403 0.597522
O O10 0.593699 0.000000 0.853115
O O11 0.500000 0.760298 0.000000
O O12 0.254053 0.500000 0.842753
O O13 0.274937 0.248112 0.691634
O O14 0.333641 0.272452 0.767987
O O15 0.317076 0.000000 0.116429
O O16 0.355918 0.244251 0.926875
O O17 0.754478 0.000000 0.355532
O O18 0.859703 0.232942 0.161796
O O19 0.500000 0.271073 0.500000
O O20 0.390344 0.500000 0.759360
O O21 0.030573 0.000000 0.064516
O O22 0.000000 0.221731 0.000000
#
# Coordination Sequence:
#
# PCOD9152785 Si02
#       8
#     4   4   4   4   4   4   4   4
#     4  11  23  39  60  87 119 158 203 249 300 359
#     4  12  24  38  59  88 123 161 198 248 308 364
#     4   9  20  39  63  93 124 156 199 255 309 356
#     4  11  23  39  60  88 125 165 202 248 303 362
#     4  11  22  39  66  95 122 158 208 259 306 365
#     4  10  21  38  62  89 123 161 200 252 307 362
#     4  10  23  42  62  87 124 166 203 250 312 368
#     4  10  21  39  62  88 118 160 209 255 307 362
#
# _framework density 19.611533000000001
#
# number of rings (size 3 to 8) (size 9 to 14) (size 15 to 20)
#    0.000    1.500    1.250    3.750    1.750    7.500 
#    0.000    2.500    0.000    1.875    0.000    0.000 
#    0.000    0.000    0.000    0.000    0.000    0.000 
#
# Total GULP energy -178916.464592 kJ/mol
# GULP energy per Si atom -5591.139518 kJ/mol
# Density = 1.956690 g / cm^3
# Si number density = 19.611533 Si / 1000 Ang^3
#
#
#
# Elastic Constant Matrix: (Units=GPa)
#
#
# Indices 1 2 3 4 5 6 
#
# 1 135.9300 31.9150 52.9651 0.0000 -2.6115 0.0000
# 2 31.9150 29.0678 24.7508 0.0000 -3.0104 0.0000
# 3 52.9651 24.7508 105.8946 0.0000 -9.1400 0.0000
# 4 0.0000 0.0000 0.0000 44.0324 0.0000 28.8593
# 5 -2.6115 -3.0104 -9.1400 0.0000 35.1866 0.0000
# 6 0.0000 0.0000 0.0000 28.8593 0.0000 33.0160
#
#
#
# Elastic Compliance Matrix: (Units=1/GPa)
#
#
# Indices 1 2 3 4 5 6 
#
# 1 0.010772 -0.009070 -0.003341 0.000000 -0.000844 0.000000
# 2 -0.009070 0.050628 -0.007141 0.000000 0.001803 0.000000
# 3 -0.003341 -0.007141 0.013001 0.000000 0.002518 0.000000
# 4 0.000000 0.000000 0.000000 0.053173 0.000000 -0.046479
# 5 -0.000844 0.001803 0.002518 0.000000 0.029166 0.000000
# 6 0.000000 0.000000 0.000000 -0.046479 0.000000 0.070916
#
#
# Mechanical properties :
#
#
# Convention : Reuss Voigt Hill
#
# Bulk Modulus (GPa) = 28.33097 54.46157 41.39627
# Shear Modulus (GPa) = 17.95178 33.19777 25.57477
#
# Velocity S-wave (km/s) = 3.02879 4.11879 3.61511
# Velocity P-wave (km/s) = 5.16806 7.10279 6.21122
#
# Compressibility (1/GPa) = 0.03529707
#
# Stress axis : x y z
#
# Youngs Moduli (GPa) = 92.83627 19.75197 76.91891
#
# Poissons Ratio (x) = 0.17914 0.25696
# Poissons Ratio (y) = 0.84199 0.54930
# Poissons Ratio (z) = 0.31013 0.14105
#
# Static dielectric constant tensor:
#      x y z
#    x 1.685070 0.000000 -0.015420 
#    y 0.000000 1.659420 0.000000 
#    z -0.015420 0.000000 1.663830 
# 
# From -- ./inp_files/58190.got.cif
#   From: 2010.05.17/outbox.cif.g08.bks.cpg/sg10_30_cif.got.tgz:58190.got - 2010.06.03 11:33:40.
