data_PCOD9152074
_publ_section_title
;
Structure prediction by ZEFSAII (Michael W. Deem and Ramdas Pophale) SiO2 
 PCOD9152074
Probable space group: P 2/M
;
_chemical_formula_sum "Si O2"
_cell_formula_units_Z 30
_cell_length_a 5.696504
_cell_length_b 16.112506
_cell_length_c 16.329425
_cell_angle_alpha 90.000000
_cell_angle_beta 57.591228
_cell_angle_gamma 90.000000
_cell_volume 1265.351957
_symmetry_space_group_name_H-M "P 2/M"
_symmetry_group_IT_number 10
_symmetry_cell_setting 'monoclinic'
loop_
_space_group_symop_operation_xyz
x,y,z
-x,y,-z
-x,-y,-z
x,-y,z
loop_
_atom_site_type_symbol
_atom_site_label
_atom_site_fract_x
_atom_site_fract_y
_atom_site_fract_z
Si Si1 0.532439 0.254691 0.588692
Si Si2 0.637813 0.405291 0.678732
Si Si3 0.269999 0.093126 0.370102
Si Si4 0.000000 0.764452 0.000000
Si Si5 0.026621 0.831829 0.273128
Si Si6 0.570277 0.731086 0.901582
Si Si7 0.038603 0.593339 0.205570
Si Si8 0.826841 0.090606 0.158351
O O1 0.500000 0.277248 0.500000
O O2 0.689833 0.326890 0.609282
O O3 0.675187 0.165604 0.576068
O O4 0.224771 0.234310 0.682437
O O5 0.698637 0.500000 0.637402
O O6 0.823393 0.396242 0.727460
O O7 0.295988 0.401535 0.744832
O O8 0.017481 0.122533 0.360827
O O9 0.520820 0.094616 0.256211
O O10 0.255288 0.000000 0.404842
O O11 0.921769 0.832214 0.085728
O O12 0.737491 0.704235 0.061275
O O13 0.300021 0.781792 0.196685
O O14 0.007727 0.900243 0.206442
O O15 0.793284 0.660917 0.877239
O O16 0.500000 0.779536 0.000000
O O17 0.116137 0.500000 0.167540
O O18 0.858086 0.000000 0.113731
#
# Coordination Sequence:
#
# PCOD9152074 Si02
#       8
#     4   4   4   2   4   4   4   4
#     4  11  25  42  68 100 131 169 217 277 348 415
#     4  10  22  44  73 104 138 178 222 280 346 413
#     4  10  22  41  65  89 126 174 223 277 339 403
#     4  12  23  36  55  90 124 164 220 268 331 394
#     4  11  21  41  61  88 125 170 219 271 330 400
#     4  12  24  37  61  90 127 172 219 271 330 397
#     4  10  23  43  69  97 134 181 225 275 335 403
#     4  10  21  36  56  85 121 161 211 271 325 388
#
# _framework density 23.708817
#
# number of rings (size 3 to 8) (size 9 to 14) (size 15 to 20)
#    0.000    1.333    4.000    1.400    3.733    1.867 
#    0.000    1.667    0.000    2.400    0.000    0.000 
#    0.000    0.000    0.000    0.000    0.000    0.000 
#
# Total GULP energy -167109.314671 kJ/mol
# GULP energy per Si atom -5570.310489 kJ/mol
# Density = 2.365485 g / cm^3
# Si number density = 23.708817 Si / 1000 Ang^3
#
#
#
# Elastic Constant Matrix: (Units=GPa)
#
#
# Indices 1 2 3 4 5 6 
#
# 1 68.1649 0.7903 16.3962 0.0000 -5.7984 0.0000
# 2 0.7903 107.5191 22.3814 0.0000 -0.5414 0.0000
# 3 16.3962 22.3814 92.6823 0.0000 -6.0708 0.0000
# 4 0.0000 0.0000 0.0000 13.9485 0.0000 19.3923
# 5 -5.7984 -0.5414 -6.0708 0.0000 33.1290 0.0000
# 6 0.0000 0.0000 0.0000 19.3923 0.0000 15.3168
#
#
#
# Elastic Compliance Matrix: (Units=1/GPa)
#
#
# Indices 1 2 3 4 5 6 
#
# 1 0.015506 0.000461 -0.002709 0.000000 0.002225 0.000000
# 2 0.000461 0.009809 -0.002464 0.000000 -0.000211 0.000000
# 3 -0.002709 -0.002464 0.011974 0.000000 0.001680 0.000000
# 4 0.000000 0.000000 0.000000 -0.094308 0.000000 0.119401
# 5 0.002225 -0.000211 0.001680 0.000000 0.030879 0.000000
# 6 0.000000 0.000000 0.000000 0.119401 0.000000 -0.085883
#
#
# Mechanical properties :
#
#
# Convention : Reuss Voigt Hill
#
# Bulk Modulus (GPa) = 35.88696 38.61135 37.24915
# Shear Modulus (GPa) = -53.58428 27.73209 -12.92609
#
# Velocity S-wave (km/s) = -4.75921 3.42379 -2.33749
# Velocity P-wave (km/s) = 3.87694 5.65250 2.90862
#
# Compressibility (1/GPa) = 0.02786528
#
# Stress axis : x y z
#
# Youngs Moduli (GPa) = 64.49213 101.94556 83.51560
#
# Poissons Ratio (x) = -0.04700 0.22622
# Poissons Ratio (y) = -0.02974 0.20579
# Poissons Ratio (z) = 0.17469 0.25121
#
# Static dielectric constant tensor:
#      x y z
#    x 2.421290 0.000000 0.069240 
#    y 0.000000 1.903140 0.000000 
#    z 0.069240 0.000000 1.906240 
# 
# From -- ./inp_files/59413.got.cif
#   From: 2010.05.17/outbox.cif.g08.bks.cpg/sg10_30_cif.got.tgz:59413.got - 2010.06.03 11:33:40.
