data_PCOD9152643
_publ_section_title
;
Structure prediction by ZEFSAII (Michael W. Deem and Ramdas Pophale) SiO2 
 PCOD9152643
Probable space group: P 2/M
;
_chemical_formula_sum "Si O2"
_cell_formula_units_Z 32
_cell_length_a 24.889478
_cell_length_b 7.532766
_cell_length_c 15.325648
_cell_angle_alpha 90.000000
_cell_angle_beta 27.280082
_cell_angle_gamma 90.000000
_cell_volume 1316.974762
_symmetry_space_group_name_H-M "P 2/M"
_symmetry_group_IT_number 10
_symmetry_cell_setting 'monoclinic'
loop_
_space_group_symop_operation_xyz
x,y,z
-x,y,-z
-x,-y,-z
x,-y,z
loop_
_atom_site_type_symbol
_atom_site_label
_atom_site_fract_x
_atom_site_fract_y
_atom_site_fract_z
Si Si1 0.022479 0.784820 0.187149
Si Si2 0.231287 0.203654 0.780224
Si Si3 0.365206 0.716287 0.284944
Si Si4 0.720361 0.292712 0.969040
Si Si5 0.974032 0.798562 0.632106
Si Si6 0.838374 0.710041 0.301444
Si Si7 0.636107 0.283898 0.905207
Si Si8 0.509835 0.786818 0.588303
O O1 0.982447 0.716931 0.339754
O O2 0.935429 0.739882 0.234571
O O3 0.027956 0.000000 0.184898
O O4 0.150972 0.717002 0.972206
O O5 0.153247 0.206183 0.805543
O O6 0.359836 0.279520 0.574175
O O7 0.253834 0.000000 0.773555
O O8 0.362598 0.500000 0.288807
O O9 0.280785 0.778467 0.482348
O O10 0.322921 0.773632 0.249804
O O11 0.499228 0.768246 0.106514
O O12 0.751007 0.500000 0.919998
O O13 0.599716 0.279210 0.197101
O O14 0.833202 0.198517 0.845811
O O15 0.700308 0.223369 0.899409
O O16 0.000000 0.715405 0.500000
O O17 0.020683 0.000000 0.560217
O O18 0.831623 0.500000 0.295218
O O19 0.639139 0.500000 0.902297
O O20 0.500000 0.743241 0.500000
O O21 0.504489 0.000000 0.605496
#
# Coordination Sequence:
#
# PCOD9152643 Si02
#       8
#     4   4   4   4   4   4   4   4
#     4  10  22  41  61  81 111 154 202 245 292 353
#     4  10  21  38  60  84 115 157 200 241 288 349
#     4   8  15  29  48  73 108 148 185 220 269 338
#     4  11  22  35  58  90 120 149 187 240 300 357
#     4  10  23  43  64  85 114 157 205 250 295 350
#     4  11  22  34  56  87 118 152 193 243 297 348
#     4   8  15  29  49  74 108 148 183 219 274 342
#     4  10  21  39  63  87 115 157 203 244 291 352
#
# _framework density 24.298110999999999
#
# number of rings (size 3 to 8) (size 9 to 14) (size 15 to 20)
#    0.000    2.250    0.000    3.375    1.750    6.500 
#    0.000    1.250    0.000    0.000    0.000    5.250 
#    0.000    0.000    0.000    0.000    0.000    0.000 
#
# Total GULP energy -178832.399572 kJ/mol
# GULP energy per Si atom -5588.512487 kJ/mol
# Density = 2.424281 g / cm^3
# Si number density = 24.298111 Si / 1000 Ang^3
#
#
#
# Elastic Constant Matrix: (Units=GPa)
#
#
# Indices 1 2 3 4 5 6 
#
# 1 106.6565 -5.3591 20.8530 0.0000 8.6579 0.0000
# 2 -5.3591 73.2004 -0.9880 0.0000 1.9830 0.0000
# 3 20.8530 -0.9880 70.9795 0.0000 18.7204 0.0000
# 4 0.0000 0.0000 0.0000 -81.8763 0.0000 -19.8247
# 5 8.6579 1.9830 18.7204 0.0000 38.9146 0.0000
# 6 0.0000 0.0000 0.0000 -19.8247 0.0000 -11.6258
#
#
#
# Elastic Compliance Matrix: (Units=1/GPa)
#
#
# Indices 1 2 3 4 5 6 
#
# 1 0.010014 0.000724 -0.002674 0.000000 -0.000979 0.000000
# 2 0.000724 0.013744 0.000236 0.000000 -0.000975 0.000000
# 3 -0.002674 0.000236 0.016863 0.000000 -0.007529 0.000000
# 4 0.000000 0.000000 0.000000 -0.020803 0.000000 0.035473
# 5 -0.000979 -0.000975 -0.007529 0.000000 0.029587 0.000000
# 6 0.000000 0.000000 0.000000 0.035473 0.000000 -0.146506
#
#
# Mechanical properties :
#
#
# Convention : Reuss Voigt Hill
#
# Bulk Modulus (GPa) = 26.88724 31.09422 28.99073
# Shear Modulus (GPa) = -61.52033 4.83788 -28.34123
#
# Velocity S-wave (km/s) = -5.03726 1.41258 -3.41896
# Velocity P-wave (km/s) = 4.76889 3.93513 1.90487
#
# Compressibility (1/GPa) = 0.03719236
#
# Stress axis : x y z
#
# Youngs Moduli (GPa) = 99.85529 72.76061 59.30044
#
# Poissons Ratio (x) = -0.05265 0.15857
# Poissons Ratio (y) = -0.07226 -0.01398
# Poissons Ratio (z) = 0.26701 -0.01716
#
# Static dielectric constant tensor:
#      x y z
#    x 1.942530 0.000000 0.000310 
#    y 0.000000 1.928030 0.000000 
#    z 0.000310 0.000000 1.938160 
# 
# From -- ./inp_files/71549.got.cif
#   From: 2010.05.17/outbox.cif.g08.bks.cpg/sg10_36_cif.got.tgz:71549.got - 2010.06.03 11:33:40.
