data_PCOD9152723
_publ_section_title
;
Structure prediction by ZEFSAII (Michael W. Deem and Ramdas Pophale) SiO2 
 PCOD9152723
Probable space group: P 2/M
;
_chemical_formula_sum "Si O2"
_cell_formula_units_Z 22
_cell_length_a 8.520656
_cell_length_b 10.192496
_cell_length_c 16.614280
_cell_angle_alpha 90.000000
_cell_angle_beta 53.037345
_cell_angle_gamma 90.000000
_cell_volume 1152.913933
_symmetry_space_group_name_H-M "P 2/M"
_symmetry_group_IT_number 10
_symmetry_cell_setting 'monoclinic'
loop_
_space_group_symop_operation_xyz
x,y,z
-x,y,-z
-x,-y,-z
x,-y,z
loop_
_atom_site_type_symbol
_atom_site_label
_atom_site_fract_x
_atom_site_fract_y
_atom_site_fract_z
Si Si1 0.562334 0.355586 0.388735
Si Si2 0.500000 0.737904 0.000000
Si Si3 0.085425 0.644449 0.064185
Si Si4 0.811625 0.650251 0.611215
Si Si5 0.123432 0.148483 0.761483
Si Si6 0.739451 0.853498 0.775812
O O1 0.500000 0.344303 0.500000
O O2 0.658531 0.500000 0.348920
O O3 0.370548 0.354366 0.392946
O O4 0.696598 0.234852 0.323350
O O5 0.318578 0.662553 0.011667
O O6 0.397960 0.816970 0.105185
O O7 0.034492 0.500000 0.113817
O O8 0.979007 0.766927 0.137640
O O9 0.000000 0.643682 0.000000
O O10 0.852062 0.500000 0.627364
O O11 0.748568 0.744665 0.703509
O O12 0.000000 0.693560 0.500000
O O13 0.959900 0.142303 0.742487
O O14 0.173916 0.000000 0.769796
O O15 0.685889 0.000000 0.763222
#
# Coordination Sequence:
#
# PCOD9152723 Si02
#       6
#     4   2   4   4   4   4
#     4  10  21  38  61  87 118 156 198 248 302 358
#     4  10  22  40  62  92 126 166 208 256 314 366
#     4  10  22  39  61  88 120 158 205 255 302 362
#     4  10  22  39  61  90 120 155 201 251 305 365
#     4  10  22  39  58  85 118 157 198 242 301 360
#     4  10  22  40  62  87 122 162 203 251 302 366
#
# _framework density 19.082083999999998
#
# number of rings (size 3 to 8) (size 9 to 14) (size 15 to 20)
#    0.000    2.000    0.000    2.182    2.545    8.364 
#    0.000    0.000    0.000    0.000    0.000    0.000 
#    0.000    0.000    0.000    0.000    0.000    0.000 
#
# Total GULP energy -122595.098739 kJ/mol
# GULP energy per Si atom -5572.504488 kJ/mol
# Density = 1.903865 g / cm^3
# Si number density = 19.082084 Si / 1000 Ang^3
#
#
#
# Elastic Constant Matrix: (Units=GPa)
#
#
# Indices 1 2 3 4 5 6 
#
# 1 81.5508 49.7582 46.9810 0.0000 3.4264 0.0000
# 2 49.7582 172.4111 78.7024 0.0000 -1.4603 0.0000
# 3 46.9810 78.7024 108.7045 0.0000 -4.7849 0.0000
# 4 0.0000 0.0000 0.0000 12.5702 0.0000 11.6916
# 5 3.4264 -1.4603 -4.7849 0.0000 31.4320 0.0000
# 6 0.0000 0.0000 0.0000 11.6916 0.0000 10.7138
#
#
#
# Elastic Compliance Matrix: (Units=1/GPa)
#
#
# Indices 1 2 3 4 5 6 
#
# 1 0.017175 -0.002293 -0.005889 0.000000 -0.002875 0.000000
# 2 -0.002293 0.008979 -0.005518 0.000000 -0.000173 0.000000
# 3 -0.005889 -0.005518 0.015863 0.000000 0.002800 0.000000
# 4 0.000000 0.000000 0.000000 -5.305468 0.000000 5.789675
# 5 -0.002875 -0.000173 0.002800 0.000000 0.032546 0.000000
# 6 0.000000 0.000000 0.000000 5.789675 0.000000 -6.224736
#
#
# Mechanical properties :
#
#
# Convention : Reuss Voigt Hill
#
# Bulk Modulus (GPa) = 68.41305 79.28331 73.84818
# Shear Modulus (GPa) = -0.43770 23.42485 11.49358
#
# Velocity S-wave (km/s) = -0.47945 3.50749 2.45689
# Velocity P-wave (km/s) = 5.96853 7.61853 6.84344
#
# Compressibility (1/GPa) = 0.01461709
#
# Stress axis : x y z
#
# Youngs Moduli (GPa) = 58.22473 111.37182 63.04131
#
# Poissons Ratio (x) = 0.25533 0.37128
# Poissons Ratio (y) = 0.13349 0.34783
# Poissons Ratio (z) = 0.34291 0.61450
#
# Static dielectric constant tensor:
#      x y z
#    x 1.660980 0.000000 -0.016040 
#    y 0.000000 1.685970 0.000000 
#    z -0.016040 0.000000 1.643460 
# 
# From -- ./inp_files/27206.got.cif
#   From: 2010.05.17/outbox.cif.g08.bks.cpg/sg10_14_cif.got.tgz:27206.got - 2010.06.03 11:33:40.
