data_PCOD9152396
_publ_section_title
;
Structure prediction by ZEFSAII (Michael W. Deem and Ramdas Pophale) SiO2 
 PCOD9152396
Probable space group: P 2/M
;
_chemical_formula_sum "Si O2"
_cell_formula_units_Z 32
_cell_length_a 12.504491
_cell_length_b 8.645942
_cell_length_c 32.534663
_cell_angle_alpha 90.000000
_cell_angle_beta 151.907015
_cell_angle_gamma 90.000000
_cell_volume 1656.368309
_symmetry_space_group_name_H-M "P 2/M"
_symmetry_group_IT_number 10
_symmetry_cell_setting 'monoclinic'
loop_
_space_group_symop_operation_xyz
x,y,z
-x,y,-z
-x,-y,-z
x,-y,z
loop_
_atom_site_type_symbol
_atom_site_label
_atom_site_fract_x
_atom_site_fract_y
_atom_site_fract_z
Si Si1 0.473049 0.185458 0.248438
Si Si2 0.735233 0.186613 0.909485
Si Si3 0.133674 0.686291 0.819512
Si Si4 0.293490 0.186544 0.485771
Si Si5 0.940095 0.687436 0.841114
Si Si6 0.809925 0.186224 0.641190
Si Si7 0.958202 0.314927 0.438940
Si Si8 0.378073 0.313447 0.041965
O O1 0.382936 0.236384 0.172932
O O2 0.293501 0.245645 0.221061
O O3 0.722635 0.247092 0.342407
O O4 0.475105 0.000000 0.249617
O O5 0.618704 0.252338 0.910617
O O6 0.728815 0.000000 0.908983
O O7 0.000000 0.234765 0.000000
O O8 0.134143 0.500000 0.820702
O O9 0.395884 0.736789 0.905529
O O10 0.006887 0.738631 0.817866
O O11 0.000635 0.741571 0.734301
O O12 0.559275 0.228652 0.572987
O O13 0.183344 0.231515 0.404492
O O14 0.161475 0.260721 0.478544
O O15 0.280800 0.000000 0.484444
O O16 0.927430 0.500000 0.837389
O O17 0.146827 0.736448 0.941092
O O18 0.826567 0.000000 0.648300
O O19 0.944589 0.500000 0.433909
O O20 0.000000 0.263548 0.500000
O O21 0.376392 0.500000 0.042019
#
# Coordination Sequence:
#
# PCOD9152396 Si02
#       8
#     4   4   4   4   4   4   4   4
#     4  11  24  41  63  89 119 159 203 247 300 358
#     4  10  21  39  60  86 121 157 197 249 299 349
#     4  10  22  37  57  87 120 154 196 244 295 348
#     4   9  20  41  64  86 117 154 194 239 292 353
#     4  10  21  39  60  83 120 161 199 244 293 349
#     4   9  20  39  62  88 116 151 194 243 294 347
#     4  11  26  44  63  90 124 157 196 248 302 356
#     4  10  21  37  59  86 118 159 201 241 291 350
#
# _framework density 19.319375000000001
#
# number of rings (size 3 to 8) (size 9 to 14) (size 15 to 20)
#    0.000    2.000    1.250    1.875    3.500    5.750 
#    0.000    1.250    0.000    2.250    0.000    0.000 
#    0.000    0.000    0.000    0.000    0.000    0.000 
#
# Total GULP energy -178771.881004 kJ/mol
# GULP energy per Si atom -5586.621281 kJ/mol
# Density = 1.927540 g / cm^3
# Si number density = 19.319375 Si / 1000 Ang^3
#
#
#
# Elastic Constant Matrix: (Units=GPa)
#
#
# Indices 1 2 3 4 5 6 
#
# 1 100.3384 16.1052 7.9473 0.0000 -5.3791 0.0000
# 2 16.1052 11.7390 11.4225 0.0000 -0.0936 0.0000
# 3 7.9473 11.4225 60.2208 0.0000 -7.7363 0.0000
# 4 0.0000 0.0000 0.0000 24.1166 0.0000 -9.5951
# 5 -5.3791 -0.0936 -7.7363 0.0000 19.6233 0.0000
# 6 0.0000 0.0000 0.0000 -9.5951 0.0000 19.6031
#
#
#
# Elastic Compliance Matrix: (Units=1/GPa)
#
#
# Indices 1 2 3 4 5 6 
#
# 1 0.013375 -0.021068 0.002833 0.000000 0.004682 0.000000
# 2 -0.021068 0.138772 -0.025489 0.000000 -0.015162 0.000000
# 3 0.002833 -0.025489 0.022279 0.000000 0.009438 0.000000
# 4 0.000000 0.000000 0.000000 0.051493 0.000000 0.025204
# 5 0.004682 -0.015162 0.009438 0.000000 0.055892 0.000000
# 6 0.000000 0.000000 0.000000 0.025204 0.000000 0.063349
#
#
# Mechanical properties :
#
#
# Convention : Reuss Voigt Hill
#
# Bulk Modulus (GPa) = 11.49743 27.02759 19.26251
# Shear Modulus (GPa) = 10.83188 21.79014 16.31101
#
# Velocity S-wave (km/s) = 2.37043 3.36205 2.90881
# Velocity P-wave (km/s) = 3.66825 5.39365 4.61235
#
# Compressibility (1/GPa) = 0.08697594
#
# Stress axis : x y z
#
# Youngs Moduli (GPa) = 74.76887 7.20608 44.88553
#
# Poissons Ratio (x) = 0.15182 -0.12714
# Poissons Ratio (y) = 1.57524 1.14410
# Poissons Ratio (z) = -0.21179 0.18368
#
# Static dielectric constant tensor:
#      x y z
#    x 1.659540 0.000000 -0.002620 
#    y 0.000000 1.657010 0.000000 
#    z -0.002620 0.000000 1.653720 
# 
# From -- ./inp_files/95021.got.cif
#   From: 2010.05.17/outbox.cif.g08.bks.cpg/sg10_48_cif.got.tgz:95021.got - 2010.06.03 11:33:40.
