data_PCOD9152261
_publ_section_title
;
Structure prediction by ZEFSAII (Michael W. Deem and Ramdas Pophale) SiO2 
 PCOD9152261
Probable space group: P 2/M
;
_chemical_formula_sum "Si O2"
_cell_formula_units_Z 28
_cell_length_a 23.117274
_cell_length_b 10.588682
_cell_length_c 19.738857
_cell_angle_alpha 90.000000
_cell_angle_beta 161.720073
_cell_angle_gamma 90.000000
_cell_volume 1515.512103
_symmetry_space_group_name_H-M "P 2/M"
_symmetry_group_IT_number 10
_symmetry_cell_setting 'monoclinic'
loop_
_space_group_symop_operation_xyz
x,y,z
-x,y,-z
-x,-y,-z
x,-y,z
loop_
_atom_site_type_symbol
_atom_site_label
_atom_site_fract_x
_atom_site_fract_y
_atom_site_fract_z
Si Si1 0.278857 0.141798 0.761890
Si Si2 0.115537 0.851045 0.919829
Si Si3 0.277891 0.852509 0.453635
Si Si4 0.219849 0.360634 0.802217
Si Si5 0.597649 0.640012 0.305899
Si Si6 0.071046 0.273100 0.415462
Si Si7 0.480787 0.847705 0.402361
O O1 0.214901 0.248587 0.742841
O O2 0.178130 0.167545 0.578623
O O3 0.238233 0.000000 0.740800
O O4 0.500000 0.153517 0.000000
O O5 0.939158 0.838257 0.773297
O O6 0.059790 0.784164 0.788144
O O7 0.140210 0.000000 0.933187
O O8 0.299542 0.801925 0.160682
O O9 0.379070 0.754671 0.615845
O O10 0.343756 0.826012 0.450708
O O11 0.325386 0.000000 0.521668
O O12 0.218212 0.500000 0.768069
O O13 0.054269 0.348451 0.671289
O O14 0.409965 0.347641 0.055152
O O15 0.599814 0.500000 0.340396
O O16 0.769462 0.650388 0.445409
O O17 0.500000 0.798342 0.500000
O O18 0.458818 0.000000 0.383226
#
# Coordination Sequence:
#
# PCOD9152261 Si02
#       7
#     4   4   4   4   4   4   4
#     4  11  24  41  59  82 111 147 189 233 282 334
#     4   9  18  31  50  78 109 140 178 222 271 322
#     4   9  18  32  52  79 109 143 181 221 267 320
#     4  11  24  39  58  83 110 146 189 232 282 335
#     4  10  21  37  56  81 112 146 182 230 276 323
#     4  11  21  37  59  80 107 145 185 232 275 331
#     4   9  17  30  50  79 113 143 174 217 268 321
#
# _framework density 18.475601999999999
#
# number of rings (size 3 to 8) (size 9 to 14) (size 15 to 20)
#    0.000    2.000    1.429    2.143    0.000    5.429 
#    0.000    2.857    0.000    0.429    0.000    4.000 
#    0.000    0.000    0.000    0.000    0.000    0.000 
#
# Total GULP energy -156253.773570 kJ/mol
# GULP energy per Si atom -5580.491913 kJ/mol
# Density = 1.843355 g / cm^3
# Si number density = 18.475602 Si / 1000 Ang^3
#
#
#
# Elastic Constant Matrix: (Units=GPa)
#
#
# Indices 1 2 3 4 5 6 
#
# 1 100.4628 47.6535 24.9567 0.0000 -3.2325 0.0000
# 2 47.6535 89.8862 13.0676 0.0000 2.1885 0.0000
# 3 24.9567 13.0676 64.6196 0.0000 -2.6456 0.0000
# 4 0.0000 0.0000 0.0000 0.7255 0.0000 -0.2545
# 5 -3.2325 2.1885 -2.6456 0.0000 16.0105 0.0000
# 6 0.0000 0.0000 0.0000 -0.2545 0.0000 -5.4859
#
#
#
# Elastic Compliance Matrix: (Units=1/GPa)
#
#
# Indices 1 2 3 4 5 6 
#
# 1 0.014446 -0.007156 -0.004000 0.000000 0.003234 0.000000
# 2 -0.007156 0.015068 -0.000430 0.000000 -0.003575 0.000000
# 3 -0.004000 -0.000430 0.017193 0.000000 0.002092 0.000000
# 4 0.000000 0.000000 0.000000 1.356227 0.000000 -0.062915
# 5 0.003234 -0.003575 0.002092 0.000000 0.063946 0.000000
# 6 0.000000 0.000000 0.000000 -0.062915 0.000000 -0.179368
#
#
# Mechanical properties :
#
#
# Convention : Reuss Voigt Hill
#
# Bulk Modulus (GPa) = 42.48815 47.36935 44.92875
# Shear Modulus (GPa) = 3.79211 13.53608 8.66409
#
# Velocity S-wave (km/s) = 1.43421 2.70968 2.16787
# Velocity P-wave (km/s) = 5.07833 5.95687 5.53506
#
# Compressibility (1/GPa) = 0.02353598
#
# Stress axis : x y z
#
# Youngs Moduli (GPa) = 69.22409 66.36410 58.16489
#
# Poissons Ratio (x) = 0.47489 0.23264
# Poissons Ratio (y) = 0.49535 0.02501
# Poissons Ratio (z) = 0.27687 0.02853
#
# Static dielectric constant tensor:
#      x y z
#    x 1.627430 0.000000 0.014860 
#    y 0.000000 1.634920 0.000000 
#    z 0.014860 0.000000 1.643630 
# 
# From -- ./inp_files/79581.got.cif
#   From: 2010.05.17/outbox.cif.g08.bks.cpg/sg10_40_cif.got.tgz:79581.got - 2010.06.03 11:33:40.
