data_PCOD9152016
_publ_section_title
;
Structure prediction by ZEFSAII (Michael W. Deem and Ramdas Pophale) SiO2 
 PCOD9152016
Probable space group: P 2/M
;
_chemical_formula_sum "Si O2"
_cell_formula_units_Z 24
_cell_length_a 18.321906
_cell_length_b 7.665431
_cell_length_c 25.072826
_cell_angle_alpha 90.000000
_cell_angle_beta 160.662617
_cell_angle_gamma 90.000000
_cell_volume 1166.028569
_symmetry_space_group_name_H-M "P 2/M"
_symmetry_group_IT_number 10
_symmetry_cell_setting 'monoclinic'
loop_
_space_group_symop_operation_xyz
x,y,z
-x,y,-z
-x,-y,-z
x,-y,z
loop_
_atom_site_type_symbol
_atom_site_label
_atom_site_fract_x
_atom_site_fract_y
_atom_site_fract_z
Si Si1 0.344679 0.701178 0.847314
Si Si2 0.852138 0.288389 0.492555
Si Si3 0.142421 0.291585 0.997704
Si Si4 0.358758 0.286032 0.352003
Si Si5 0.519131 0.287128 0.681106
Si Si6 0.488414 0.797589 0.833053
O O1 0.305657 0.500000 0.836832
O O2 0.462152 0.703246 0.871084
O O3 0.100441 0.777613 0.670428
O O4 0.500000 0.780842 0.000000
O O5 0.854167 0.500000 0.491710
O O6 0.698226 0.234772 0.436143
O O7 0.725655 0.231832 0.351850
O O8 0.125692 0.500000 0.992294
O O9 0.894888 0.226098 0.820426
O O10 0.272250 0.227254 0.139637
O O11 0.302209 0.257575 0.057940
O O12 0.500000 0.228533 0.500000
O O13 0.358279 0.500000 0.352244
O O14 0.461753 0.231001 0.366552
O O15 0.521825 0.500000 0.683076
O O16 0.507802 0.000000 0.858538
#
# Coordination Sequence:
#
# PCOD9152016 Si02
#       6
#     4   4   4   4   4   4
#     4  10  21  36  55  80 107 135 168 208 258 313
#     4   9  18  34  56  78 102 133 170 214 260 307
#     4   9  17  31  51  72  98 132 168 209 255 301
#     4   9  16  25  44  76 105 127 159 207 257 303
#     4   8  14  26  45  70  97 126 160 199 247 298
#     4  11  22  35  53  76 103 137 177 217 255 300
#
# _framework density 20.582685999999999
#
# number of rings (size 3 to 8) (size 9 to 14) (size 15 to 20)
#    0.000    2.667    0.000    3.500    0.000    6.333 
#    0.000    5.000    0.000    8.500    0.000    0.000 
#    0.000    0.000    0.000    0.000    0.000    0.000 
#
# Total GULP energy -133954.061578 kJ/mol
# GULP energy per Si atom -5581.419232 kJ/mol
# Density = 2.053584 g / cm^3
# Si number density = 20.582686 Si / 1000 Ang^3
#
#
#
# Elastic Constant Matrix: (Units=GPa)
#
#
# Indices 1 2 3 4 5 6 
#
# 1 138.4938 -6.2110 86.3636 0.0000 -20.8814 0.0000
# 2 -6.2110 22.7170 -26.3361 0.0000 -13.0712 0.0000
# 3 86.3636 -26.3361 26.8560 0.0000 -41.4106 0.0000
# 4 0.0000 0.0000 0.0000 -36.2406 0.0000 45.7336
# 5 -20.8814 -13.0712 -41.4106 0.0000 6.7119 0.0000
# 6 0.0000 0.0000 0.0000 45.7336 0.0000 -82.0150
#
#
#
# Elastic Compliance Matrix: (Units=1/GPa)
#
#
# Indices 1 2 3 4 5 6 
#
# 1 0.015150 0.008646 -0.006860 0.000000 0.021649 0.000000
# 2 0.008646 0.026067 -0.013803 0.000000 -0.007498 0.000000
# 3 -0.006860 -0.013803 0.003359 0.000000 -0.027498 0.000000
# 4 0.000000 0.000000 0.000000 -0.093124 0.000000 -0.051928
# 5 0.021649 -0.007498 -0.027498 0.000000 0.032085 0.000000
# 6 0.000000 0.000000 0.000000 -0.051928 0.000000 -0.041150
#
#
# Mechanical properties :
#
#
# Convention : Reuss Voigt Hill
#
# Bulk Modulus (GPa) = 48.67914 32.85552 40.76733
# Shear Modulus (GPa) = -187.04598 -13.35872 -100.20235
#
# Velocity S-wave (km/s) = -9.54320 -2.55036 -6.98488
# Velocity P-wave (km/s) = 9.88577 2.70645 6.72322
#
# Compressibility (1/GPa) = 0.02054268
#
# Stress axis : x y z
#
# Youngs Moduli (GPa) = 66.00650 38.36233 297.69665
#
# Poissons Ratio (x) = -0.33168 2.04211
# Poissons Ratio (y) = -0.57070 4.10917
# Poissons Ratio (z) = 0.45279 0.52952
#
# Static dielectric constant tensor:
#      x y z
#    x 1.717360 0.000000 0.012690 
#    y 0.000000 1.761470 0.000000 
#    z 0.012690 0.000000 1.729750 
# 
# From -- ./inp_files/27225.got.cif
#   From: 2010.05.17/outbox.cif.g08.bks.cpg/sg10_14_cif.got.tgz:27225.got - 2010.06.03 11:33:40.
