data_PCOD9152460
_publ_section_title
;
Structure prediction by ZEFSAII (Michael W. Deem and Ramdas Pophale) SiO2 
 PCOD9152460
Probable space group: P 2/M
;
_chemical_formula_sum "Si O2"
_cell_formula_units_Z 28
_cell_length_a 13.699947
_cell_length_b 23.405322
_cell_length_c 8.671206
_cell_angle_alpha 90.000000
_cell_angle_beta 148.191691
_cell_angle_gamma 90.000000
_cell_volume 1465.509905
_symmetry_space_group_name_H-M "P 2/M"
_symmetry_group_IT_number 10
_symmetry_cell_setting 'monoclinic'
loop_
_space_group_symop_operation_xyz
x,y,z
-x,y,-z
-x,-y,-z
x,-y,z
loop_
_atom_site_type_symbol
_atom_site_label
_atom_site_fract_x
_atom_site_fract_y
_atom_site_fract_z
Si Si1 0.968915 0.158169 0.635063
Si Si2 0.311321 0.137221 0.330233
Si Si3 0.037522 0.567137 0.367236
Si Si4 0.378577 0.641525 0.697031
Si Si5 0.195583 0.244574 0.346601
Si Si6 0.689511 0.067747 0.351104
Si Si7 0.632691 0.564440 0.822628
O O1 0.000000 0.174832 0.500000
O O2 0.857766 0.209574 0.570065
O O3 0.846071 0.101197 0.468227
O O4 0.143703 0.142152 0.980884
O O5 0.500000 0.122141 0.500000
O O6 0.317902 0.200367 0.413014
O O7 0.293641 0.094923 0.453736
O O8 0.070891 0.500000 0.379744
O O9 0.000000 0.574494 0.500000
O O10 0.208010 0.603094 0.531097
O O11 0.834003 0.584042 0.032364
O O12 0.294079 0.695433 0.497508
O O13 0.524551 0.603861 0.796700
O O14 0.500000 0.664985 0.000000
O O15 0.000000 0.253065 0.000000
O O16 0.715892 0.000000 0.395816
O O17 0.500000 0.078301 0.000000
O O18 0.500000 0.560397 0.500000
O O19 0.659717 0.500000 0.924919
#
# Coordination Sequence:
#
# PCOD9152460 Si02
#       7
#     4   4   4   4   4   4   4
#     4  10  21  40  63  87 117 160 202 244 299 356
#     4  10  21  40  63  86 118 161 202 243 300 354
#     4  10  21  39  61  86 119 153 193 245 297 364
#     4  12  24  38  61  89 116 155 199 244 303 360
#     4   9  23  42  57  83 118 151 196 248 296 350
#     4  10  21  37  60  92 127 159 200 249 293 347
#     4  10  23  41  60  88 119 151 195 243 301 367
#
# _framework density 19.105979000000001
#
# number of rings (size 3 to 8) (size 9 to 14) (size 15 to 20)
#    0.000    1.857    1.429    2.571    2.000    6.857 
#    2.571    2.143    0.000    0.000    0.000    0.000 
#    0.000    0.000    0.000    0.000    0.000    0.000 
#
# Total GULP energy -156113.883294 kJ/mol
# GULP energy per Si atom -5575.495832 kJ/mol
# Density = 1.906249 g / cm^3
# Si number density = 19.105979 Si / 1000 Ang^3
#
#
#
# Elastic Constant Matrix: (Units=GPa)
#
#
# Indices 1 2 3 4 5 6 
#
# 1 51.6642 14.3479 3.4061 0.0000 -1.1104 0.0000
# 2 14.3479 90.3588 22.0544 0.0000 4.8792 0.0000
# 3 3.4061 22.0544 65.4006 0.0000 0.9716 0.0000
# 4 0.0000 0.0000 0.0000 138.0226 0.0000 67.9387
# 5 -1.1104 4.8792 0.9716 0.0000 33.2441 0.0000
# 6 0.0000 0.0000 0.0000 67.9387 0.0000 43.8632
#
#
#
# Elastic Compliance Matrix: (Units=1/GPa)
#
#
# Indices 1 2 3 4 5 6 
#
# 1 0.020293 -0.003294 0.000037 0.000000 0.001160 0.000000
# 2 -0.003294 0.012686 -0.004079 0.000000 -0.001853 0.000000
# 3 0.000037 -0.004079 0.016662 0.000000 0.000113 0.000000
# 4 0.000000 0.000000 0.000000 0.030493 0.000000 -0.047231
# 5 0.001160 -0.001853 0.000113 0.000000 0.030388 0.000000
# 6 0.000000 0.000000 0.000000 -0.047231 0.000000 0.095952
#
#
# Mechanical properties :
#
#
# Convention : Reuss Voigt Hill
#
# Bulk Modulus (GPa) = 28.59686 31.89338 30.24512
# Shear Modulus (GPa) = 21.47740 54.20034 37.83887
#
# Velocity S-wave (km/s) = 3.35643 5.33196 4.45508
# Velocity P-wave (km/s) = 5.47912 7.39159 6.50601
#
# Compressibility (1/GPa) = 0.03496887
#
# Stress axis : x y z
#
# Youngs Moduli (GPa) = 49.27800 78.82959 60.01595
#
# Poissons Ratio (x) = 0.25966 -0.00220
# Poissons Ratio (y) = 0.16232 0.24479
# Poissons Ratio (z) = -0.00181 0.32153
#
# Static dielectric constant tensor:
#      x y z
#    x 1.679320 0.000000 -0.020570 
#    y 0.000000 1.640660 0.000000 
#    z -0.020570 0.000000 1.718510 
# 
# From -- ./inp_files/30471.got.cif
#   From: 2010.05.17/outbox.cif.g08.bks.cpg/sg10_16_cif.got.tgz:30471.got - 2010.06.03 11:33:40.
