data_PCOD9152446
_publ_section_title
;
Structure prediction by ZEFSAII (Michael W. Deem and Ramdas Pophale) SiO2 
 PCOD9152446
Probable space group: P 2/M
;
_chemical_formula_sum "Si O2"
_cell_formula_units_Z 28
_cell_length_a 9.646544
_cell_length_b 18.220661
_cell_length_c 15.771357
_cell_angle_alpha 90.000000
_cell_angle_beta 150.939389
_cell_angle_gamma 90.000000
_cell_volume 1346.492561
_symmetry_space_group_name_H-M "P 2/M"
_symmetry_group_IT_number 10
_symmetry_cell_setting 'monoclinic'
loop_
_space_group_symop_operation_xyz
x,y,z
-x,y,-z
-x,-y,-z
x,-y,z
loop_
_atom_site_type_symbol
_atom_site_label
_atom_site_fract_x
_atom_site_fract_y
_atom_site_fract_z
Si Si1 0.284444 0.414348 0.464089
Si Si2 0.789084 0.724751 0.967870
Si Si3 0.323784 0.157258 0.671075
Si Si4 0.620743 0.082636 0.479144
Si Si5 0.762745 0.121005 0.200988
Si Si6 0.342491 0.579148 0.166340
Si Si7 0.836115 0.287345 0.183293
O O1 0.500000 0.405344 0.500000
O O2 0.180084 0.500000 0.405808
O O3 0.479057 0.407068 0.652612
O O4 0.039916 0.351923 0.327410
O O5 0.559722 0.786557 0.827896
O O6 0.625587 0.647093 0.878008
O O7 0.926758 0.730083 0.134048
O O8 0.000000 0.726497 0.000000
O O9 0.404920 0.125971 0.622825
O O10 0.307576 0.100047 0.739872
O O11 0.000000 0.188078 0.500000
O O12 0.500000 0.118555 0.500000
O O13 0.956538 0.079507 0.675188
O O14 0.502275 0.000000 0.406952
O O15 0.837684 0.208830 0.232483
O O16 0.500000 0.107688 0.000000
O O17 0.430631 0.500000 0.178897
O O18 0.000000 0.575301 0.000000
O O19 0.500000 0.308540 0.000000
#
# Coordination Sequence:
#
# PCOD9152446 Si02
#       7
#     4   4   4   4   4   4   4
#     4  10  21  37  60  89 122 168 222 270 330 394
#     4  11  22  36  60  90 119 162 212 266 324 372
#     4  10  22  39  63  89 126 167 206 256 310 383
#     4  10  24  43  66  98 129 162 206 260 312 372
#     4  10  21  41  63  91 128 169 210 258 313 381
#     4   9  19  35  54  83 121 160 210 269 320 372
#     4  11  23  40  59  90 132 165 214 275 324 384
#
# _framework density 20.794768000000001
#
# number of rings (size 3 to 8) (size 9 to 14) (size 15 to 20)
#    0.000    1.857    2.857    1.714    6.000    5.429 
#    0.000    0.000    0.000    4.286    0.000    0.000 
#    0.000    0.000    0.000    0.000    0.000    0.000 
#
# Total GULP energy -156084.262387 kJ/mol
# GULP energy per Si atom -5574.437942 kJ/mol
# Density = 2.074744 g / cm^3
# Si number density = 20.794768 Si / 1000 Ang^3
#
#
#
# Elastic Constant Matrix: (Units=GPa)
#
#
# Indices 1 2 3 4 5 6 
#
# 1 129.5185 18.0850 21.7521 0.0000 -19.7495 0.0000
# 2 18.0850 61.2725 26.8743 0.0000 0.3606 0.0000
# 3 21.7521 26.8743 92.5269 0.0000 -13.4796 0.0000
# 4 0.0000 0.0000 0.0000 0.8765 0.0000 35.3296
# 5 -19.7495 0.3606 -13.4796 0.0000 26.8528 0.0000
# 6 0.0000 0.0000 0.0000 35.3296 0.0000 -19.6967
#
#
#
# Elastic Compliance Matrix: (Units=1/GPa)
#
#
# Indices 1 2 3 4 5 6 
#
# 1 0.009148 -0.002536 -0.000463 0.000000 0.006530 0.000000
# 2 -0.002536 0.019666 -0.005854 0.000000 -0.005068 0.000000
# 3 -0.000463 -0.005854 0.013571 0.000000 0.006551 0.000000
# 4 0.000000 0.000000 0.000000 0.015565 0.000000 0.027919
# 5 0.006530 -0.005068 0.006551 0.000000 0.045399 0.000000
# 6 0.000000 0.000000 0.000000 0.027919 0.000000 -0.000693
#
#
# Mechanical properties :
#
#
# Convention : Reuss Voigt Hill
#
# Bulk Modulus (GPa) = 40.51786 46.30450 43.41118
# Shear Modulus (GPa) = 38.88327 16.04695 27.46511
#
# Velocity S-wave (km/s) = 4.32888 2.78093 3.63818
# Velocity P-wave (km/s) = 6.67177 5.71202 6.21046
#
# Compressibility (1/GPa) = 0.02468048
#
# Stress axis : x y z
#
# Youngs Moduli (GPa) = 109.30822 50.84805 73.68564
#
# Poissons Ratio (x) = 0.12893 0.03411
# Poissons Ratio (y) = 0.27716 0.43137
# Poissons Ratio (z) = 0.05060 0.29768
#
# Static dielectric constant tensor:
#      x y z
#    x 1.857250 0.000000 0.042040 
#    y 0.000000 1.784450 0.000000 
#    z 0.042040 0.000000 1.776500 
# 
# From -- ./inp_files/62629.got.cif
#   From: 2010.05.17/outbox.cif.g08.bks.cpg/sg10_32_cif.got.tgz:62629.got - 2010.06.03 11:33:40.
