data_PCOD9152209
_publ_section_title
;
Structure prediction by ZEFSAII (Michael W. Deem and Ramdas Pophale) SiO2 
 PCOD9152209
Probable space group: P 2/M
;
_chemical_formula_sum "Si O2"
_cell_formula_units_Z 20
_cell_length_a 9.832489
_cell_length_b 11.249766
_cell_length_c 11.237346
_cell_angle_alpha 90.000000
_cell_angle_beta 43.326522
_cell_angle_gamma 90.000000
_cell_volume 852.890048
_symmetry_space_group_name_H-M "P 2/M"
_symmetry_group_IT_number 10
_symmetry_cell_setting 'monoclinic'
loop_
_space_group_symop_operation_xyz
x,y,z
-x,y,-z
-x,-y,-z
x,-y,z
loop_
_atom_site_type_symbol
_atom_site_label
_atom_site_fract_x
_atom_site_fract_y
_atom_site_fract_z
Si Si1 0.384860 0.000000 0.700148
Si Si2 0.763833 0.263617 0.161276
Si Si3 0.356790 0.000000 0.979637
Si Si4 0.756836 0.638424 0.663806
Si Si5 0.213907 0.743278 0.107534
Si Si6 0.771306 0.359377 0.400015
O O1 0.500000 0.000000 0.500000
O O2 0.269334 0.125250 0.782201
O O3 0.475642 0.000000 0.777934
O O4 0.684266 0.334909 0.325258
O O5 0.691477 0.303811 0.076058
O O6 0.000000 0.282539 0.000000
O O7 0.223539 0.883404 0.077751
O O8 0.500000 0.000000 0.000000
O O9 0.700684 0.500000 0.715999
O O10 0.700271 0.710122 0.818225
O O11 0.688651 0.687993 0.578451
O O12 0.000000 0.640621 0.500000
O O13 0.990858 0.695822 0.253618
O O14 0.786715 0.500000 0.406276
#
# Coordination Sequence:
#
# PCOD9152209 Si02
#       6
#     2   4   2   4   4   4
#     4  10  21  37  54  73 102 141 177 210 254 304
#     4   9  18  31  51  78 106 132 167 212 258 306
#     4  10  22  37  49  67  95 133 178 220 252 292
#     4   8  14  26  44  68  99 128 152 187 242 301
#     4   9  17  30  48  69  98 131 164 208 257 300
#     4   9  17  29  49  79 108 130 158 204 261 313
#
# _framework density 23.449681999999999
#
# number of rings (size 3 to 8) (size 9 to 14) (size 15 to 20)
#    0.000    3.000    0.000    2.100    0.000    8.400 
#    0.000    4.500    0.000    3.000    0.000    2.800 
#    0.000    0.000    0.000    0.000    0.000    0.000 
#
# Total GULP energy -111506.906593 kJ/mol
# GULP energy per Si atom -5575.345330 kJ/mol
# Density = 2.339631 g / cm^3
# Si number density = 23.449682 Si / 1000 Ang^3
#
#
#
# Elastic Constant Matrix: (Units=GPa)
#
#
# Indices 1 2 3 4 5 6 
#
# 1 116.8129 4.9091 72.7050 0.0000 68.2326 0.0000
# 2 4.9091 63.2898 45.7385 0.0000 33.3864 0.0000
# 3 72.7050 45.7385 218.5214 0.0000 66.9322 0.0000
# 4 0.0000 0.0000 0.0000 -46.3084 0.0000 64.0211
# 5 68.2326 33.3864 66.9322 0.0000 68.6643 0.0000
# 6 0.0000 0.0000 0.0000 64.0211 0.0000 -4.1767
#
#
#
# Elastic Compliance Matrix: (Units=1/GPa)
#
#
# Indices 1 2 3 4 5 6 
#
# 1 0.032578 0.020432 -0.003075 0.000000 -0.039310 0.000000
# 2 0.020432 0.034591 -0.003803 0.000000 -0.033416 0.000000
# 3 -0.003075 -0.003803 0.006976 0.000000 -0.001895 0.000000
# 4 0.000000 0.000000 0.000000 0.001069 0.000000 0.016393
# 5 -0.039310 -0.033416 -0.001895 0.000000 0.071721 0.000000
# 6 0.000000 0.000000 0.000000 0.016393 0.000000 0.011858
#
#
# Mechanical properties :
#
#
# Convention : Reuss Voigt Hill
#
# Bulk Modulus (GPa) = 9.87630 71.70327 40.78979
# Shear Modulus (GPa) = 30.22302 21.98727 26.10515
#
# Velocity S-wave (km/s) = 3.59394 3.06541 3.34015
# Velocity P-wave (km/s) = 4.63063 6.57060 5.68399
#
# Compressibility (1/GPa) = 0.10125244
#
# Stress axis : x y z
#
# Youngs Moduli (GPa) = 30.69575 28.90889 143.35353
#
# Poissons Ratio (x) = -0.59067 0.44084
# Poissons Ratio (y) = -0.62718 0.54521
# Poissons Ratio (z) = 0.09440 0.10995
#
# Static dielectric constant tensor:
#      x y z
#    x 25.371970 0.000000 9.422550 
#    y 0.000000 1.869060 0.000000 
#    z 9.422550 0.000000 5.631750 
# 
# From -- ./inp_files/46469.got.cif
#   From: 2010.05.17/outbox.cif.g08.bks.cpg/sg10_24_cif.got.tgz:46469.got - 2010.06.03 11:33:40.
