data_PCOD9152572
_publ_section_title
;
Structure prediction by ZEFSAII (Michael W. Deem and Ramdas Pophale) SiO2 
 PCOD9152572
Probable space group: P 2/M
;
_chemical_formula_sum "Si O2"
_cell_formula_units_Z 32
_cell_length_a 14.946867
_cell_length_b 9.163292
_cell_length_c 22.580591
_cell_angle_alpha 90.000000
_cell_angle_beta 31.070683
_cell_angle_gamma 90.000000
_cell_volume 1596.124486
_symmetry_space_group_name_H-M "P 2/M"
_symmetry_group_IT_number 10
_symmetry_cell_setting 'monoclinic'
loop_
_space_group_symop_operation_xyz
x,y,z
-x,y,-z
-x,-y,-z
x,-y,z
loop_
_atom_site_type_symbol
_atom_site_label
_atom_site_fract_x
_atom_site_fract_y
_atom_site_fract_z
Si Si1 0.084139 0.333172 0.700993
Si Si2 0.548518 0.826661 0.904437
Si Si3 0.327173 0.669251 0.678778
Si Si4 0.024284 0.171935 0.916255
Si Si5 0.665957 0.172268 0.520733
Si Si6 0.221860 0.325312 0.036894
Si Si7 0.234678 0.328494 0.422324
Si Si8 0.175145 0.671413 0.322139
O O1 0.077416 0.500000 0.681930
O O2 0.223210 0.328412 0.675904
O O3 0.156439 0.227042 0.610271
O O4 0.902843 0.297280 0.835362
O O5 0.734962 0.766310 0.779074
O O6 0.538867 0.000000 0.900782
O O7 0.500000 0.795770 0.000000
O O8 0.407194 0.743204 0.944815
O O9 0.354329 0.500000 0.679140
O O10 0.201165 0.750214 0.796062
O O11 0.508501 0.751643 0.575409
O O12 0.872756 0.250352 0.964957
O O13 0.029659 0.000000 0.897868
O O14 0.000000 0.186187 0.000000
O O15 0.661722 0.231199 0.590210
O O16 0.651583 0.000000 0.526400
O O17 0.228959 0.500000 0.024846
O O18 0.276352 0.500000 0.406590
O O19 0.254800 0.292083 0.341718
O O20 0.030669 0.310372 0.553348
O O21 0.207167 0.500000 0.292491
#
# Coordination Sequence:
#
# PCOD9152572 Si02
#       8
#     4   4   4   4   4   4   4   4
#     4   9  20  38  58  81 112 150 192 240 289 339
#     4  11  25  41  60  90 127 161 197 248 306 359
#     4  10  21  38  58  81 112 152 197 240 282 335
#     4  10  21  38  61  88 120 155 190 238 299 356
#     4  12  24  34  54  87 118 152 191 232 289 352
#     4  10  22  40  62  87 115 156 204 245 292 351
#     4   9  20  40  63  87 114 149 195 246 297 349
#     4   9  20  41  66  87 112 150 197 247 297 351
#
# _framework density 20.048560999999999
#
# number of rings (size 3 to 8) (size 9 to 14) (size 15 to 20)
#    0.000    2.000    0.000    4.500    1.750    8.500 
#    0.000    1.250    0.000    0.000    0.000    0.000 
#    0.000    0.000    0.000    0.000    0.000    0.000 
#
# Total GULP energy -178855.896295 kJ/mol
# GULP energy per Si atom -5589.246759 kJ/mol
# Density = 2.000293 g / cm^3
# Si number density = 20.048561 Si / 1000 Ang^3
#
#
#
# Elastic Constant Matrix: (Units=GPa)
#
#
# Indices 1 2 3 4 5 6 
#
# 1 37.5446 30.1607 14.0812 0.0000 8.1835 0.0000
# 2 30.1607 93.6831 39.3223 0.0000 17.3632 0.0000
# 3 14.0812 39.3223 61.4403 0.0000 11.2956 0.0000
# 4 0.0000 0.0000 0.0000 -34.0338 0.0000 48.8709
# 5 8.1835 17.3632 11.2956 0.0000 27.0430 0.0000
# 6 0.0000 0.0000 0.0000 48.8709 0.0000 -31.8852
#
#
#
# Elastic Compliance Matrix: (Units=1/GPa)
#
#
# Indices 1 2 3 4 5 6 
#
# 1 0.036324 -0.010647 -0.000809 0.000000 -0.003818 0.000000
# 2 -0.010647 0.018648 -0.008542 0.000000 -0.005183 0.000000
# 3 -0.000809 -0.008542 0.022611 0.000000 -0.003715 0.000000
# 4 0.000000 0.000000 0.000000 0.024467 0.000000 0.037501
# 5 -0.003818 -0.005183 -0.003715 0.000000 0.043013 0.000000
# 6 0.000000 0.000000 0.000000 0.037501 0.000000 0.026116
#
#
# Mechanical properties :
#
#
# Convention : Reuss Voigt Hill
#
# Bulk Modulus (GPa) = 26.60439 39.97739 33.29089
# Shear Modulus (GPa) = 22.35102 -0.50161 10.92470
#
# Velocity S-wave (km/s) = 3.34255 -0.50074 2.33687
# Velocity P-wave (km/s) = 5.30996 4.43275 4.89106
#
# Compressibility (1/GPa) = 0.03758778
#
# Stress axis : x y z
#
# Youngs Moduli (GPa) = 27.53026 53.62486 44.22590
#
# Poissons Ratio (x) = 0.57095 0.03576
# Poissons Ratio (y) = 0.29312 0.37777
# Poissons Ratio (z) = 0.02226 0.45805
#
# Static dielectric constant tensor:
#      x y z
#    x 1.715350 0.000000 -0.001960 
#    y 0.000000 1.662730 0.000000 
#    z -0.001960 0.000000 1.726510 
# 
# From -- ./inp_files/89532.got.cif
#   From: 2010.05.17/outbox.cif.g08.bks.cpg/sg10_45_cif.got.tgz:89532.got - 2010.06.03 11:33:40.
