data_PCOD9152063
_publ_section_title
;
Structure prediction by ZEFSAII (Michael W. Deem and Ramdas Pophale) SiO2 
 PCOD9152063
Probable space group: P 2/M
;
_chemical_formula_sum "Si O2"
_cell_formula_units_Z 28
_cell_length_a 15.355436
_cell_length_b 8.562433
_cell_length_c 11.313023
_cell_angle_alpha 90.000000
_cell_angle_beta 67.825594
_cell_angle_gamma 90.000000
_cell_volume 1377.423266
_symmetry_space_group_name_H-M "P 2/M"
_symmetry_group_IT_number 10
_symmetry_cell_setting 'monoclinic'
loop_
_space_group_symop_operation_xyz
x,y,z
-x,y,-z
-x,-y,-z
x,-y,z
loop_
_atom_site_type_symbol
_atom_site_label
_atom_site_fract_x
_atom_site_fract_y
_atom_site_fract_z
Si Si1 0.939814 0.188711 0.415905
Si Si2 0.737711 0.820151 0.158628
Si Si3 0.395715 0.677336 0.595893
Si Si4 0.389122 0.678810 0.957463
Si Si5 0.733856 0.677836 0.568436
Si Si6 0.576799 0.820545 0.811194
Si Si7 0.058072 0.189816 0.853896
O O1 0.833124 0.242066 0.492731
O O2 0.967891 0.241838 0.267067
O O3 0.000000 0.241503 0.500000
O O4 0.943981 0.000000 0.412010
O O5 0.651760 0.799178 0.292680
O O6 0.704775 0.717055 0.065671
O O7 0.833392 0.769636 0.173740
O O8 0.748678 0.000000 0.116801
O O9 0.500000 0.716740 0.500000
O O10 0.397701 0.500000 0.646871
O O11 0.327101 0.672102 0.519271
O O12 0.391312 0.500000 0.995137
O O13 0.484386 0.715506 0.834687
O O14 0.397813 0.790930 0.065239
O O15 0.748802 0.500000 0.602417
O O16 0.667627 0.769757 0.692319
O O17 0.552963 0.000000 0.801261
O O18 0.051072 0.000000 0.855643
O O19 0.000000 0.243062 0.000000
#
# Coordination Sequence:
#
# PCOD9152063 Si02
#       7
#     4   4   4   4   4   4   4
#     4  10  21  39  63  89 118 161 215 270 324 381
#     4  11  21  35  59  87 117 154 203 255 306 364
#     4  10  21  36  56  83 118 160 200 242 303 374
#     4  11  22  38  58  84 124 164 202 247 307 370
#     4  11  22  37  59  87 123 161 199 250 317 377
#     4  11  22  38  60  87 120 159 209 253 298 364
#     4   9  19  37  60  87 120 157 204 264 325 378
#
# _framework density 20.327812000000002
#
# number of rings (size 3 to 8) (size 9 to 14) (size 15 to 20)
#    0.000    1.571    1.429    5.143    0.000    3.429 
#    0.000    2.857    0.000    3.857    0.000    0.000 
#    0.000    0.000    0.000    0.000    0.000    0.000 
#
# Total GULP energy -156275.009462 kJ/mol
# GULP energy per Si atom -5581.250338 kJ/mol
# Density = 2.028154 g / cm^3
# Si number density = 20.327812 Si / 1000 Ang^3
#
#
#
# Elastic Constant Matrix: (Units=GPa)
#
#
# Indices 1 2 3 4 5 6 
#
# 1 120.3123 2.4167 41.0392 0.0000 13.8044 0.0000
# 2 2.4167 25.5870 8.3912 0.0000 4.6150 0.0000
# 3 41.0392 8.3912 87.3734 0.0000 4.2838 0.0000
# 4 0.0000 0.0000 0.0000 55.0263 0.0000 -7.9990
# 5 13.8044 4.6150 4.2838 0.0000 24.3948 0.0000
# 6 0.0000 0.0000 0.0000 -7.9990 0.0000 25.8146
#
#
#
# Elastic Compliance Matrix: (Units=1/GPa)
#
#
# Indices 1 2 3 4 5 6 
#
# 1 0.010554 0.001568 -0.004842 0.000000 -0.005418 0.000000
# 2 0.001568 0.041812 -0.004358 0.000000 -0.008032 0.000000
# 3 -0.004842 -0.004358 0.014084 0.000000 0.001091 0.000000
# 4 0.000000 0.000000 0.000000 0.019030 0.000000 0.005897
# 5 -0.005418 -0.008032 0.001091 0.000000 0.045386 0.000000
# 6 0.000000 0.000000 0.000000 0.005897 0.000000 0.040565
#
#
# Mechanical properties :
#
#
# Convention : Reuss Voigt Hill
#
# Bulk Modulus (GPa) = 19.53646 37.44075 28.48861
# Shear Modulus (GPa) = 24.53892 33.14220 28.84056
#
# Velocity S-wave (km/s) = 3.47819 4.04219 3.77075
# Velocity P-wave (km/s) = 5.07563 6.34383 5.74483
#
# Compressibility (1/GPa) = 0.05118634
#
# Stress axis : x y z
#
# Youngs Moduli (GPa) = 94.75522 23.91640 71.00024
#
# Poissons Ratio (x) = -0.03751 0.34378
# Poissons Ratio (y) = -0.14862 0.30945
# Poissons Ratio (z) = 0.45880 0.10424
#
# Static dielectric constant tensor:
#      x y z
#    x 1.715570 0.000000 0.041590 
#    y 0.000000 1.706570 0.000000 
#    z 0.041590 0.000000 1.770770 
# 
# From -- ./inp_files/49573.got.cif
#   From: 2010.05.17/outbox.cif.g08.bks.cpg/sg10_25_cif.got.tgz:49573.got - 2010.06.03 11:33:40.
