data_PCOD9152287
_publ_section_title
;
Structure prediction by ZEFSAII (Michael W. Deem and Ramdas Pophale) SiO2 
 PCOD9152287
Probable space group: P 2/M
;
_chemical_formula_sum "Si O2"
_cell_formula_units_Z 32
_cell_length_a 14.970314
_cell_length_b 22.747215
_cell_length_c 14.018643
_cell_angle_alpha 90.000000
_cell_angle_beta 19.622561
_cell_angle_gamma 90.000000
_cell_volume 1603.152727
_symmetry_space_group_name_H-M "P 2/M"
_symmetry_group_IT_number 10
_symmetry_cell_setting 'monoclinic'
loop_
_space_group_symop_operation_xyz
x,y,z
-x,y,-z
-x,-y,-z
x,-y,z
loop_
_atom_site_type_symbol
_atom_site_label
_atom_site_fract_x
_atom_site_fract_y
_atom_site_fract_z
Si Si1 0.560519 0.735989 0.547799
Si Si2 0.670722 0.677248 0.631306
Si Si3 0.943042 0.185635 0.902310
Si Si4 0.754444 0.432021 0.676082
Si Si5 0.383585 0.933128 0.223933
Si Si6 0.149507 0.268579 0.253380
Si Si7 0.754758 0.937103 0.176974
Si Si8 0.127801 0.140295 0.227476
O O1 0.500000 0.716237 0.500000
O O2 0.619546 0.687338 0.570117
O O3 0.298209 0.768923 0.848582
O O4 0.802552 0.783871 0.304032
O O5 0.731161 0.612373 0.611044
O O6 0.931129 0.715039 0.394044
O O7 0.423574 0.701876 0.943400
O O8 0.823336 0.124083 0.059352
O O9 0.006379 0.167541 0.731265
O O10 0.772016 0.500000 0.626690
O O11 0.000000 0.420394 0.500000
O O12 0.500000 0.425340 0.000000
O O13 0.096372 0.903155 0.508394
O O14 0.362354 0.000000 0.280619
O O15 0.500000 0.934030 0.000000
O O16 0.599961 0.895110 0.064249
O O17 0.198181 0.198778 0.215964
O O18 0.000000 0.288972 0.500000
O O19 0.500000 0.930642 0.500000
O O20 0.728148 0.000000 0.148626
O O21 0.000000 0.944021 0.000000
#
# Coordination Sequence:
#
# PCOD9152287 Si02
#       8
#     4   4   4   4   4   4   4   4
#     4  12  24  41  63  86 120 164 207 257 315 367
#     4  12  22  40  59  95 127 162 215 253 293 363
#     4  12  23  41  59  84 117 149 199 257 313 380
#     4  10  21  38  63  96 136 178 211 246 299 358
#     4  11  24  41  59  79 109 155 204 247 302 376
#     4  12  23  37  61  89 125 163 193 252 316 365
#     4  10  21  37  57  80 103 135 183 240 308 377
#     4  12  23  40  58  84 117 148 200 253 302 375
#
# _framework density 19.960668999999999
#
# number of rings (size 3 to 8) (size 9 to 14) (size 15 to 20)
#    0.000    0.625    2.500    7.500    0.000    2.000 
#    0.000    1.250    0.000    0.375    0.000    0.000 
#    0.000    7.000    0.000    0.000    0.000    2.000 
#
# Total GULP energy -178678.963827 kJ/mol
# GULP energy per Si atom -5583.717620 kJ/mol
# Density = 1.991524 g / cm^3
# Si number density = 19.960669 Si / 1000 Ang^3
#
#
#
# Elastic Constant Matrix: (Units=GPa)
#
#
# Indices 1 2 3 4 5 6 
#
# 1 94.0958 59.7620 8.7705 0.0000 -6.3092 0.0000
# 2 59.7620 159.5214 42.7228 0.0000 1.7486 0.0000
# 3 8.7705 42.7228 124.9243 0.0000 -19.8636 0.0000
# 4 0.0000 0.0000 0.0000 26.2361 0.0000 0.7204
# 5 -6.3092 1.7486 -19.8636 0.0000 28.9165 0.0000
# 6 0.0000 0.0000 0.0000 0.7204 0.0000 29.3149
#
#
#
# Elastic Compliance Matrix: (Units=1/GPa)
#
#
# Indices 1 2 3 4 5 6 
#
# 1 0.014589 -0.005996 0.001785 0.000000 0.004772 0.000000
# 2 -0.005996 0.009503 -0.003512 0.000000 -0.004295 0.000000
# 3 0.001785 -0.003512 0.010301 0.000000 0.007678 0.000000
# 4 0.000000 0.000000 0.000000 0.038141 0.000000 -0.000937
# 5 0.004772 -0.004295 0.007678 0.000000 0.041158 0.000000
# 6 0.000000 0.000000 0.000000 -0.000937 0.000000 0.034135
#
#
# Mechanical properties :
#
#
# Convention : Reuss Voigt Hill
#
# Bulk Modulus (GPa) = 52.77661 66.78357 59.78009
# Shear Modulus (GPa) = 29.48309 34.71258 32.09784
#
# Velocity S-wave (km/s) = 3.84742 4.17471 4.01441
# Velocity P-wave (km/s) = 6.79960 7.53445 7.17644
#
# Compressibility (1/GPa) = 0.01894779
#
# Stress axis : x y z
#
# Youngs Moduli (GPa) = 68.54392 105.23391 97.07435
#
# Poissons Ratio (x) = 0.63098 -0.17328
# Poissons Ratio (y) = 0.41099 0.34091
# Poissons Ratio (z) = -0.12235 0.36956
#
# Static dielectric constant tensor:
#      x y z
#    x 1.800860 0.000000 0.003950 
#    y 0.000000 1.769660 0.000000 
#    z 0.003950 0.000000 1.677920 
# 
# From -- ./inp_files/67951.got.cif
#   From: 2010.05.17/outbox.cif.g08.bks.cpg/sg10_34_cif.got.tgz:67951.got - 2010.06.03 11:33:40.
