data_PCOD9152581
_publ_section_title
;
Structure prediction by ZEFSAII (Michael W. Deem and Ramdas Pophale) SiO2 
 PCOD9152581
Probable space group: P 2/M
;
_chemical_formula_sum "Si O2"
_cell_formula_units_Z 30
_cell_length_a 14.265034
_cell_length_b 10.183857
_cell_length_c 11.990840
_cell_angle_alpha 90.000000
_cell_angle_beta 114.863899
_cell_angle_gamma 90.000000
_cell_volume 1580.483580
_symmetry_space_group_name_H-M "P 2/M"
_symmetry_group_IT_number 10
_symmetry_cell_setting 'monoclinic'
loop_
_space_group_symop_operation_xyz
x,y,z
-x,y,-z
-x,-y,-z
x,-y,z
loop_
_atom_site_type_symbol
_atom_site_label
_atom_site_fract_x
_atom_site_fract_y
_atom_site_fract_z
Si Si1 0.699907 0.658197 0.550759
Si Si2 0.595326 0.655664 0.269143
Si Si3 0.000000 0.250277 0.000000
Si Si4 0.941678 0.850596 0.353736
Si Si5 0.713099 0.849455 0.181841
Si Si6 0.635004 0.654604 0.756892
Si Si7 0.218360 0.148935 0.040518
Si Si8 0.932833 0.652318 0.731792
O O1 0.698515 0.500000 0.542294
O O2 0.657216 0.703133 0.410682
O O3 0.630602 0.691067 0.623720
O O4 0.817115 0.696041 0.639853
O O5 0.615909 0.500000 0.260614
O O6 0.631690 0.743841 0.184406
O O7 0.474941 0.669641 0.238598
O O8 0.096423 0.168811 0.999480
O O9 0.045907 0.332177 0.126276
O O10 0.819201 0.832218 0.304341
O O11 0.000000 0.839362 0.500000
O O12 0.987979 0.744140 0.293933
O O13 0.956801 0.000000 0.318116
O O14 0.676470 0.000000 0.177244
O O15 0.748888 0.832744 0.071853
O O16 0.664425 0.500000 0.777414
O O17 0.719481 0.744995 0.857182
O O18 0.245989 0.000000 0.086593
O O19 0.944850 0.500000 0.706290
#
# Coordination Sequence:
#
# PCOD9152581 Si02
#       8
#     4   4   2   4   4   4   4   4
#     4   9  18  36  59  88 121 153 189 235 293 350
#     4  10  21  38  63  88 114 154 199 240 289 347
#     4  12  22  40  62  88 120 154 194 238 288 352
#     4  10  21  38  58  82 117 160 200 238 286 345
#     4  10  22  40  57  81 117 155 195 241 295 341
#     4  10  21  39  62  89 119 151 192 245 295 343
#     4  11  24  41  63  87 115 155 197 239 288 349
#     4  11  22  35  59  91 121 153 191 240 295 347
#
# _framework density 18.981531
#
# number of rings (size 3 to 8) (size 9 to 14) (size 15 to 20)
#    0.000    1.733    2.667    1.600    0.000    5.067 
#    0.000    3.333    0.000    1.600    0.000    0.000 
#    0.000    0.000    0.000    0.000    0.000    0.000 
#
# Total GULP energy -167451.824152 kJ/mol
# GULP energy per Si atom -5581.727472 kJ/mol
# Density = 1.893833 g / cm^3
# Si number density = 18.981531 Si / 1000 Ang^3
#
#
#
# Elastic Constant Matrix: (Units=GPa)
#
#
# Indices 1 2 3 4 5 6 
#
# 1 95.6766 67.2196 24.5230 0.0000 -17.6782 0.0000
# 2 67.2196 90.0141 30.3197 0.0000 -12.6057 0.0000
# 3 24.5230 30.3197 56.5811 0.0000 0.2968 0.0000
# 4 0.0000 0.0000 0.0000 16.2853 0.0000 8.8783
# 5 -17.6782 -12.6057 0.2968 0.0000 27.4939 0.0000
# 6 0.0000 0.0000 0.0000 8.8783 0.0000 5.1877
#
#
#
# Elastic Compliance Matrix: (Units=1/GPa)
#
#
# Indices 1 2 3 4 5 6 
#
# 1 0.023485 -0.015859 -0.001722 0.000000 0.007848 0.000000
# 2 -0.015859 0.025450 -0.006772 0.000000 0.001544 0.000000
# 3 -0.001722 -0.006772 0.022072 0.000000 -0.004450 0.000000
# 4 0.000000 0.000000 0.000000 0.916605 0.000000 -1.568681
# 5 0.007848 0.001544 -0.004450 0.000000 0.042174 0.000000
# 6 0.000000 0.000000 0.000000 -1.568681 0.000000 2.877408
#
#
# Mechanical properties :
#
#
# Convention : Reuss Voigt Hill
#
# Bulk Modulus (GPa) = 44.84017 54.04403 49.44210
# Shear Modulus (GPa) = 1.26156 17.80736 9.53446
#
# Velocity S-wave (km/s) = 0.81613 3.06623 2.24364
# Velocity P-wave (km/s) = 4.95605 6.40854 5.72852
#
# Compressibility (1/GPa) = 0.02230143
#
# Stress axis : x y z
#
# Youngs Moduli (GPa) = 42.57961 39.29301 45.30579
#
# Poissons Ratio (x) = 0.62315 0.07801
# Poissons Ratio (y) = 0.67528 0.30682
# Poissons Ratio (z) = 0.07331 0.26610
#
# Static dielectric constant tensor:
#      x y z
#    x 1.655070 0.000000 0.004400 
#    y 0.000000 1.634900 0.000000 
#    z 0.004400 0.000000 1.674880 
# 
# From -- ./inp_files/49998.got.cif
#   From: 2010.05.17/outbox.cif.g08.bks.cpg/sg10_25_cif.got.tgz:49998.got - 2010.06.03 11:33:40.
