data_PCOD9152579
_publ_section_title
;
Structure prediction by ZEFSAII (Michael W. Deem and Ramdas Pophale) SiO2 
 PCOD9152579
Probable space group: P 2/M
;
_chemical_formula_sum "Si O2"
_cell_formula_units_Z 20
_cell_length_a 20.446879
_cell_length_b 8.335221
_cell_length_c 5.290747
_cell_angle_alpha 90.000000
_cell_angle_beta 109.728704
_cell_angle_gamma 90.000000
_cell_volume 848.769791
_symmetry_space_group_name_H-M "P 2/M"
_symmetry_group_IT_number 10
_symmetry_cell_setting 'monoclinic'
loop_
_space_group_symop_operation_xyz
x,y,z
-x,y,-z
-x,-y,-z
x,-y,z
loop_
_atom_site_type_symbol
_atom_site_label
_atom_site_fract_x
_atom_site_fract_y
_atom_site_fract_z
Si Si1 0.920178 0.803360 0.430194
Si Si2 0.721960 0.822933 0.323735
Si Si3 0.563141 0.174054 0.279219
Si Si4 0.606088 0.500000 0.537990
Si Si5 0.302863 0.500000 0.854691
Si Si6 0.842467 0.808513 0.832225
O O1 0.886549 0.748288 0.649153
O O2 0.000000 0.755096 0.500000
O O3 0.919411 0.000000 0.435563
O O4 0.874469 0.746953 0.132997
O O5 0.638821 0.828189 0.243365
O O6 0.737040 0.667330 0.177617
O O7 0.762105 0.792863 0.640418
O O8 0.745038 0.000000 0.260509
O O9 0.565178 0.334700 0.444662
O O10 0.559851 0.000000 0.408122
O O11 0.500000 0.183027 0.000000
O O12 0.662932 0.500000 0.382770
O O13 0.639233 0.500000 0.855528
O O14 0.853254 0.000000 0.858531
#
# Coordination Sequence:
#
# PCOD9152579 Si02
#       6
#     4   4   4   2   2   4
#     4   9  16  27  45  73 106 137 175 220 267 326
#     4   9  19  36  56  82 115 148 190 237 280 336
#     4   9  18  35  59  85 115 153 193 236 286 335
#     4  10  21  38  58  82 112 146 190 238 284 338
#     4  10  22  38  59  84 111 150 189 230 289 336
#     4   9  17  28  46  72 103 140 176 219 273 321
#
# _framework density 23.563517999999998
#
# number of rings (size 3 to 8) (size 9 to 14) (size 15 to 20)
#    0.000    2.800    0.000    0.900    0.000    6.400 
#    0.000   14.000    0.000   10.800    0.000    4.200 
#    0.000    0.000    0.000    0.000    0.000    0.000 
#
# Total GULP energy -111615.944521 kJ/mol
# GULP energy per Si atom -5580.797226 kJ/mol
# Density = 2.350989 g / cm^3
# Si number density = 23.563518 Si / 1000 Ang^3
#
#
#
# Elastic Constant Matrix: (Units=GPa)
#
#
# Indices 1 2 3 4 5 6 
#
# 1 133.2009 -6.4945 57.8647 0.0000 19.2360 0.0000
# 2 -6.4945 181.7155 46.2616 0.0000 6.7258 0.0000
# 3 57.8647 46.2616 123.3529 0.0000 17.7214 0.0000
# 4 0.0000 0.0000 0.0000 45.0393 0.0000 -5.6143
# 5 19.2360 6.7258 17.7214 0.0000 38.0414 0.0000
# 6 0.0000 0.0000 0.0000 -5.6143 0.0000 -3.3889
#
#
#
# Elastic Compliance Matrix: (Units=1/GPa)
#
#
# Indices 1 2 3 4 5 6 
#
# 1 0.010220 0.001755 -0.005000 0.000000 -0.003149 0.000000
# 2 0.001755 0.006385 -0.003138 0.000000 -0.000554 0.000000
# 3 -0.005000 -0.003138 0.011989 0.000000 -0.002502 0.000000
# 4 0.000000 0.000000 0.000000 0.018403 0.000000 -0.030487
# 5 -0.003149 -0.000554 -0.002502 0.000000 0.029143 0.000000
# 6 0.000000 0.000000 0.000000 -0.030487 0.000000 -0.244573
#
#
# Mechanical properties :
#
#
# Convention : Reuss Voigt Hill
#
# Bulk Modulus (GPa) = 63.18318 70.39253 66.78786
# Shear Modulus (GPa) = -33.24641 38.64752 2.70055
#
# Velocity S-wave (km/s) = -3.76031 4.05426 1.07171
# Velocity P-wave (km/s) = 2.83178 7.20100 5.47144
#
# Compressibility (1/GPa) = 0.01582700
#
# Stress axis : x y z
#
# Youngs Moduli (GPa) = 97.85014 156.61079 83.41305
#
# Poissons Ratio (x) = -0.27480 0.41704
# Poissons Ratio (y) = -0.17169 0.26176
# Poissons Ratio (z) = 0.48922 0.49147
#
# Static dielectric constant tensor:
#      x y z
#    x 1.933190 0.000000 -0.011210 
#    y 0.000000 1.943150 0.000000 
#    z -0.011210 0.000000 1.849660 
# 
# From -- ./inp_files/10636.got.cif
#   From: 2010.05.17/outbox.cif.g08.bks.cpg/sg10_6_cif.got.tgz:10636.got - 2010.06.03 11:33:40.
