data_PCOD9152103
_publ_section_title
;
Structure prediction by ZEFSAII (Michael W. Deem and Ramdas Pophale) SiO2 
 PCOD9152103
Probable space group: P 2/M
;
_chemical_formula_sum "Si O2"
_cell_formula_units_Z 28
_cell_length_a 14.068819
_cell_length_b 8.706303
_cell_length_c 19.020549
_cell_angle_alpha 90.000000
_cell_angle_beta 143.135600
_cell_angle_gamma 90.000000
_cell_volume 1397.687724
_symmetry_space_group_name_H-M "P 2/M"
_symmetry_group_IT_number 10
_symmetry_cell_setting 'monoclinic'
loop_
_space_group_symop_operation_xyz
x,y,z
-x,y,-z
-x,-y,-z
x,-y,z
loop_
_atom_site_type_symbol
_atom_site_label
_atom_site_fract_x
_atom_site_fract_y
_atom_site_fract_z
Si Si1 0.458082 0.316052 0.698042
Si Si2 0.421640 0.314596 0.380066
Si Si3 0.326983 0.183744 0.927300
Si Si4 0.920587 0.817133 0.804696
Si Si5 0.131594 0.816736 0.520684
Si Si6 0.003623 0.317504 0.701046
Si Si7 0.754587 0.683967 0.969037
O O1 0.435154 0.500000 0.689384
O O2 0.472582 0.273195 0.624596
O O3 0.309142 0.233692 0.645200
O O4 0.625457 0.279285 0.833509
O O5 0.500000 0.266032 0.500000
O O6 0.406951 0.500000 0.372364
O O7 0.247963 0.244056 0.269640
O O8 0.308653 0.245017 0.995537
O O9 0.303221 0.000000 0.911892
O O10 0.500000 0.218749 0.000000
O O11 0.185749 0.263968 0.801001
O O12 0.943526 0.758318 0.737951
O O13 0.926293 0.000000 0.809156
O O14 0.069329 0.750247 0.936027
O O15 0.000000 0.769911 0.500000
O O16 0.091108 0.738406 0.422628
O O17 0.123960 0.000000 0.508561
O O18 0.992860 0.500000 0.702105
O O19 0.765618 0.500000 0.982385
#
# Coordination Sequence:
#
# PCOD9152103 Si02
#       7
#     4   4   4   4   4   4   4
#     4  10  23  41  62  91 123 159 205 256 303 357
#     4  10  21  39  64  91 121 159 203 251 306 361
#     4  10  21  36  57  84 116 153 197 249 303 359
#     4  11  22  38  62  91 123 158 201 249 304 364
#     4  11  25  42  61  87 122 162 200 246 307 364
#     4  11  22  38  61  86 116 154 200 249 297 355
#     4  10  21  38  59  86 122 160 203 250 302 360
#
# _framework density 20.033086999999998
#
# number of rings (size 3 to 8) (size 9 to 14) (size 15 to 20)
#    0.000    1.571    0.000    6.429    2.000    6.000 
#    0.000    2.857    0.000    0.000    0.000    0.000 
#    0.000    0.000    0.000    0.000    0.000    0.000 
#
# Total GULP energy -156561.457460 kJ/mol
# GULP energy per Si atom -5591.480624 kJ/mol
# Density = 1.998749 g / cm^3
# Si number density = 20.033087 Si / 1000 Ang^3
#
#
#
# Elastic Constant Matrix: (Units=GPa)
#
#
# Indices 1 2 3 4 5 6 
#
# 1 73.5986 27.5100 42.4237 0.0000 26.3420 0.0000
# 2 27.5100 50.3328 25.2564 0.0000 10.3687 0.0000
# 3 42.4237 25.2564 95.0423 0.0000 11.8696 0.0000
# 4 0.0000 0.0000 0.0000 39.6646 0.0000 7.3058
# 5 26.3420 10.3687 11.8696 0.0000 34.1970 0.0000
# 6 0.0000 0.0000 0.0000 7.3058 0.0000 13.1337
#
#
#
# Elastic Compliance Matrix: (Units=1/GPa)
#
#
# Indices 1 2 3 4 5 6 
#
# 1 0.026367 -0.007274 -0.007918 0.000000 -0.015356 0.000000
# 2 -0.007274 0.025799 -0.003483 0.000000 -0.001010 0.000000
# 3 -0.007918 -0.003483 0.014726 0.000000 0.002044 0.000000
# 4 0.000000 0.000000 0.000000 0.028089 0.000000 -0.015625
# 5 -0.015356 -0.001010 0.002044 0.000000 0.040668 0.000000
# 6 0.000000 0.000000 0.000000 -0.015625 0.000000 0.084831
#
#
# Mechanical properties :
#
#
# Convention : Reuss Voigt Hill
#
# Bulk Modulus (GPa) = 33.85051 45.48378 39.66714
# Shear Modulus (GPa) = 18.67906 25.65130 22.16518
#
# Velocity S-wave (km/s) = 3.05685 3.58222 3.32991
# Velocity P-wave (km/s) = 5.42154 6.31374 5.88457
#
# Compressibility (1/GPa) = 0.02954165
#
# Stress axis : x y z
#
# Youngs Moduli (GPa) = 37.92654 38.76072 67.90554
#
# Poissons Ratio (x) = 0.28196 0.53770
# Poissons Ratio (y) = 0.27589 0.23650
# Poissons Ratio (z) = 0.30032 0.13499
#
# Static dielectric constant tensor:
#      x y z
#    x 1.695070 0.000000 0.005680 
#    y 0.000000 1.668130 0.000000 
#    z 0.005680 0.000000 1.727520 
# 
# From -- ./inp_files/84963.got.cif
#   From: 2010.05.17/outbox.cif.g08.bks.cpg/sg10_43_cif.got.tgz:84963.got - 2010.06.03 11:33:40.
