data_PCOD9152107
_publ_section_title
;
Structure prediction by ZEFSAII (Michael W. Deem and Ramdas Pophale) SiO2 
 PCOD9152107
Probable space group: P 2/M
;
_chemical_formula_sum "Si O2"
_cell_formula_units_Z 32
_cell_length_a 28.194779
_cell_length_b 9.115298
_cell_length_c 10.736526
_cell_angle_alpha 90.000000
_cell_angle_beta 35.369475
_cell_angle_gamma 90.000000
_cell_volume 1597.228309
_symmetry_space_group_name_H-M "P 2/M"
_symmetry_group_IT_number 10
_symmetry_cell_setting 'monoclinic'
loop_
_space_group_symop_operation_xyz
x,y,z
-x,y,-z
-x,-y,-z
x,-y,z
loop_
_atom_site_type_symbol
_atom_site_label
_atom_site_fract_x
_atom_site_fract_y
_atom_site_fract_z
Si Si1 0.552560 0.675338 0.762634
Si Si2 0.128775 0.330303 0.789113
Si Si3 0.264914 0.327514 0.134826
Si Si4 0.545639 0.321725 0.276702
Si Si5 0.727952 0.825342 0.380688
Si Si6 0.979929 0.667856 0.726212
Si Si7 0.883629 0.172937 0.430770
Si Si8 0.814471 0.671769 0.967249
O O1 0.569674 0.500000 0.717223
O O2 0.502174 0.718905 0.746688
O O3 0.637017 0.762553 0.587211
O O4 0.500000 0.699310 0.000000
O O5 0.142595 0.500000 0.727598
O O6 0.212779 0.249466 0.645078
O O7 0.090696 0.249052 0.753003
O O8 0.073036 0.326741 0.032076
O O9 0.261967 0.500000 0.177473
O O10 0.206912 0.232395 0.346248
O O11 0.225812 0.316530 0.081013
O O12 0.359194 0.278220 0.931017
O O13 0.500000 0.270226 0.500000
O O14 0.545754 0.500000 0.281212
O O15 0.730295 0.000000 0.386066
O O16 0.765537 0.772376 0.168346
O O17 0.008751 0.500000 0.645705
O O18 0.911643 0.705201 0.768879
O O19 0.055817 0.772009 0.590232
O O20 0.885965 0.000000 0.415026
O O21 0.807232 0.500000 0.023151
#
# Coordination Sequence:
#
# PCOD9152107 Si02
#       8
#     4   4   4   4   4   4   4   4
#     4  10  21  36  57  86 117 154 202 251 299 357
#     4  10  21  39  63  85 112 153 202 247 288 346
#     4  10  21  38  62  87 114 153 199 248 295 347
#     4   9  18  35  61  89 114 147 199 255 301 349
#     4  11  22  36  58  88 120 153 187 235 304 365
#     4   9  19  37  60  85 111 148 197 248 295 346
#     4  12  25  37  53  84 124 159 191 238 299 359
#     4   9  19  38  63  87 111 148 202 250 287 341
#
# _framework density 20.034707000000001
#
# number of rings (size 3 to 8) (size 9 to 14) (size 15 to 20)
#    0.000    2.000    0.000    4.500    1.750    7.250 
#    0.000    3.125    0.000    1.500    0.000    0.000 
#    0.000    0.000    0.000    0.000    0.000    0.000 
#
# Total GULP energy -178849.267070 kJ/mol
# GULP energy per Si atom -5589.039596 kJ/mol
# Density = 1.998911 g / cm^3
# Si number density = 20.034707 Si / 1000 Ang^3
#
#
#
# Elastic Constant Matrix: (Units=GPa)
#
#
# Indices 1 2 3 4 5 6 
#
# 1 108.5381 45.1169 42.6089 0.0000 -9.4918 0.0000
# 2 45.1169 101.2443 48.8966 0.0000 -5.9435 0.0000
# 3 42.6089 48.8966 90.4847 0.0000 -16.9974 0.0000
# 4 0.0000 0.0000 0.0000 -2.2445 0.0000 9.0937
# 5 -9.4918 -5.9435 -16.9974 0.0000 35.4340 0.0000
# 6 0.0000 0.0000 0.0000 9.0937 0.0000 -3.7750
#
#
#
# Elastic Compliance Matrix: (Units=1/GPa)
#
#
# Indices 1 2 3 4 5 6 
#
# 1 0.012230 -0.003651 -0.003611 0.000000 0.000932 0.000000
# 2 -0.003651 0.014514 -0.006429 0.000000 -0.001628 0.000000
# 3 -0.003611 -0.006429 0.017411 0.000000 0.006306 0.000000
# 4 0.000000 0.000000 0.000000 0.050861 0.000000 0.122519
# 5 0.000932 -0.001628 0.006306 0.000000 0.031223 0.000000
# 6 0.000000 0.000000 0.000000 0.122519 0.000000 0.030240
#
#
# Mechanical properties :
#
#
# Convention : Reuss Voigt Hill
#
# Bulk Modulus (GPa) = 59.62553 63.72356 61.67454
# Shear Modulus (GPa) = 26.39183 16.79254 21.59218
#
# Velocity S-wave (km/s) = 3.63341 2.89826 3.28645
# Velocity P-wave (km/s) = 6.88679 6.56319 6.72694
#
# Compressibility (1/GPa) = 0.01677134
#
# Stress axis : x y z
#
# Youngs Moduli (GPa) = 81.76464 68.89977 57.43506
#
# Poissons Ratio (x) = 0.25158 0.20740
# Poissons Ratio (y) = 0.29856 0.36927
# Poissons Ratio (z) = 0.29525 0.44298
#
# Static dielectric constant tensor:
#      x y z
#    x 1.727920 0.000000 0.013420 
#    y 0.000000 1.659860 0.000000 
#    z 0.013420 0.000000 1.713420 
# 
# From -- ./inp_files/57972.got.cif
#   From: 2010.05.17/outbox.cif.g08.bks.cpg/sg10_29_cif.got.tgz:57972.got - 2010.06.03 11:33:40.
