data_PCOD9152485
_publ_section_title
;
Structure prediction by ZEFSAII (Michael W. Deem and Ramdas Pophale) SiO2 
 PCOD9152485
Probable space group: P 2/M
;
_chemical_formula_sum "Si O2"
_cell_formula_units_Z 30
_cell_length_a 5.488962
_cell_length_b 28.564651
_cell_length_c 10.036017
_cell_angle_alpha 90.000000
_cell_angle_beta 75.244191
_cell_angle_gamma 90.000000
_cell_volume 1521.654467
_symmetry_space_group_name_H-M "P 2/M"
_symmetry_group_IT_number 10
_symmetry_cell_setting 'monoclinic'
loop_
_space_group_symop_operation_xyz
x,y,z
-x,y,-z
-x,-y,-z
x,-y,z
loop_
_atom_site_type_symbol
_atom_site_label
_atom_site_fract_x
_atom_site_fract_y
_atom_site_fract_z
Si Si1 0.805042 0.654300 0.139993
Si Si2 0.523474 0.252225 0.140481
Si Si3 0.603604 0.819748 0.345017
Si Si4 0.713902 0.500000 0.587149
Si Si5 0.100308 0.120630 0.344739
Si Si6 0.098358 0.694710 0.345894
Si Si7 0.212164 0.943799 0.080792
Si Si8 0.575413 0.601511 0.646097
O O1 0.659293 0.698217 0.096989
O O2 0.642140 0.611656 0.216959
O O3 0.903786 0.677047 0.263465
O O4 0.000000 0.639416 0.000000
O O5 0.657322 0.219173 0.227213
O O6 0.266536 0.266979 0.248706
O O7 0.500000 0.228730 0.000000
O O8 0.500000 0.799516 0.500000
O O9 0.366066 0.851871 0.329786
O O10 0.865217 0.846691 0.333301
O O11 0.500000 0.500000 0.500000
O O12 0.682950 0.550236 0.661613
O O13 0.000000 0.500000 0.500000
O O14 0.145297 0.082042 0.226588
O O15 0.000000 0.101032 0.500000
O O16 0.248961 0.646980 0.360672
O O17 0.000000 0.713411 0.500000
O O18 0.203466 0.000000 0.097713
O O19 0.500000 0.931389 0.000000
O O20 0.000000 0.931075 0.000000
O O21 0.500000 0.601715 0.500000
#
# Coordination Sequence:
#
# PCOD9152485 Si02
#       8
#     4   4   4   2   4   4   4   4
#     4  11  23  40  59  87 125 158 200 255 309 365
#     4  11  25  39  57  88 116 158 209 254 311 366
#     4  10  24  40  62  89 124 164 209 263 311 369
#     4  10  22  38  65  97 129 155 200 257 298 359
#     4  10  22  42  62  90 125 165 211 258 315 371
#     4  11  22  37  63  85 118 155 204 253 303 367
#     4  10  21  38  63  95 128 164 210 261 315 376
#     4  10  21  37  61  94 118 158 202 248 303 364
#
# _framework density 19.715382000000002
#
# number of rings (size 3 to 8) (size 9 to 14) (size 15 to 20)
#    0.000    1.600    2.667    1.200    5.600    2.400 
#    0.000    0.333    0.000    5.600    0.000    0.000 
#    0.000    0.000    0.000    0.000    0.000    0.000 
#
# Total GULP energy -167362.488085 kJ/mol
# GULP energy per Si atom -5578.749603 kJ/mol
# Density = 1.967051 g / cm^3
# Si number density = 19.715382 Si / 1000 Ang^3
#
#
#
# Elastic Constant Matrix: (Units=GPa)
#
#
# Indices 1 2 3 4 5 6 
#
# 1 87.7928 10.6140 45.2912 0.0000 1.1807 0.0000
# 2 10.6140 32.8381 57.1675 0.0000 3.6430 0.0000
# 3 45.2912 57.1675 159.6918 0.0000 -8.5570 0.0000
# 4 0.0000 0.0000 0.0000 30.1349 0.0000 3.8076
# 5 1.1807 3.6430 -8.5570 0.0000 36.8052 0.0000
# 6 0.0000 0.0000 0.0000 3.8076 0.0000 33.8201
#
#
#
# Elastic Compliance Matrix: (Units=1/GPa)
#
#
# Indices 1 2 3 4 5 6 
#
# 1 0.014072 0.007917 -0.006978 0.000000 -0.002857 0.000000
# 2 0.007917 0.094257 -0.036962 0.000000 -0.018177 0.000000
# 3 -0.006978 -0.036962 0.021955 0.000000 0.008987 0.000000
# 4 0.000000 0.000000 0.000000 0.033663 0.000000 -0.003790
# 5 -0.002857 -0.018177 0.008987 0.000000 0.031150 0.000000
# 6 0.000000 0.000000 0.000000 -0.003790 0.000000 0.029995
#
#
# Mechanical properties :
#
#
# Convention : Reuss Voigt Hill
#
# Bulk Modulus (GPa) = 17.17128 56.27424 36.72276
# Shear Modulus (GPa) = 15.79528 31.30204 23.54866
#
# Velocity S-wave (km/s) = 2.83356 3.98891 3.45980
# Velocity P-wave (km/s) = 4.40839 7.05837 5.88449
#
# Compressibility (1/GPa) = 0.05823679
#
# Stress axis : x y z
#
# Youngs Moduli (GPa) = 71.06436 10.60931 45.54831
#
# Poissons Ratio (x) = -0.08400 0.31785
# Poissons Ratio (y) = -0.56263 1.68356
# Poissons Ratio (z) = 0.49591 0.39214
#
# Static dielectric constant tensor:
#      x y z
#    x 1.837840 0.000000 0.022810 
#    y 0.000000 1.681130 0.000000 
#    z 0.022810 0.000000 1.665680 
# 
# From -- ./inp_files/15894.got.cif
#   From: 2010.05.17/outbox.cif.g08.bks.cpg/sg10_8_cif.got.tgz:15894.got - 2010.06.03 11:33:40.
