data_PCOD9152369
_publ_section_title
;
Structure prediction by ZEFSAII (Michael W. Deem and Ramdas Pophale) SiO2 
 PCOD9152369
Probable space group: P 2/M
;
_chemical_formula_sum "Si O2"
_cell_formula_units_Z 21
_cell_length_a 9.086702
_cell_length_b 24.124002
_cell_length_c 8.270416
_cell_angle_alpha 90.000000
_cell_angle_beta 32.429721
_cell_angle_gamma 90.000000
_cell_volume 972.214753
_symmetry_space_group_name_H-M "P 2/M"
_symmetry_group_IT_number 10
_symmetry_cell_setting 'monoclinic'
loop_
_space_group_symop_operation_xyz
x,y,z
-x,y,-z
-x,-y,-z
x,-y,z
loop_
_atom_site_type_symbol
_atom_site_label
_atom_site_fract_x
_atom_site_fract_y
_atom_site_fract_z
Si Si1 0.960339 0.238228 0.841997
Si Si2 0.728381 0.938648 0.650983
Si Si3 0.500000 0.500000 0.500000
Si Si4 0.461925 0.829806 0.343076
Si Si5 0.648099 0.349186 0.034171
Si Si6 0.847172 0.605901 0.301762
O O1 0.250154 0.219890 0.500730
O O2 0.753640 0.187288 0.000933
O O3 0.818335 0.292952 0.905526
O O4 0.000000 0.243387 0.000000
O O5 0.652675 0.888426 0.605552
O O6 0.000000 0.927238 0.500000
O O7 0.750940 0.000000 0.551976
O O8 0.500000 0.941360 0.000000
O O9 0.707312 0.548603 0.380074
O O10 0.500000 0.830769 0.500000
O O11 0.403297 0.358706 0.391330
O O12 0.500000 0.350030 0.000000
O O13 0.888369 0.395980 0.824938
O O14 0.000000 0.629217 0.000000
#
# Coordination Sequence:
#
# PCOD9152369 Si02
#       6
#     4   4   1   4   4   4
#     4  10  22  39  63  92 126 170 216 261 323 398
#     4  10  21  37  58  86 122 167 215 262 325 399
#     4  12  26  48  80 106 126 180 248 268 306 406
#     4  10  21  38  60  89 122 160 215 273 321 378
#     4  12  26  44  68 105 142 175 218 280 344 397
#     4  12  25  46  76 100 132 178 231 269 319 399
#
# _framework density 21.600166000000002
#
# number of rings (size 3 to 8) (size 9 to 14) (size 15 to 20)
#    0.000    1.143    1.905    3.714    0.000    5.714 
#    0.000    2.857    0.000    6.857    0.000    0.000 
#    0.000    0.000    0.000    0.000    0.000    0.000 
#
# Total GULP energy -117055.937937 kJ/mol
# GULP energy per Si atom -5574.092283 kJ/mol
# Density = 2.155100 g / cm^3
# Si number density = 21.600166 Si / 1000 Ang^3
#
#
#
# Elastic Constant Matrix: (Units=GPa)
#
#
# Indices 1 2 3 4 5 6 
#
# 1 120.1633 72.5420 50.0727 0.0000 -42.2213 0.0000
# 2 72.5420 140.8375 32.8988 0.0000 -20.2859 0.0000
# 3 50.0727 32.8988 105.8656 0.0000 -28.9356 0.0000
# 4 0.0000 0.0000 0.0000 -37.7333 0.0000 -42.2497
# 5 -42.2213 -20.2859 -28.9356 0.0000 38.9440 0.0000
# 6 0.0000 0.0000 0.0000 -42.2497 0.0000 24.3232
#
#
#
# Elastic Compliance Matrix: (Units=1/GPa)
#
#
# Indices 1 2 3 4 5 6 
#
# 1 0.018840 -0.006940 -0.002710 0.000000 0.014797 0.000000
# 2 -0.006940 0.010461 -0.000672 0.000000 -0.002574 0.000000
# 3 -0.002710 -0.000672 0.012596 0.000000 0.006071 0.000000
# 4 0.000000 0.000000 0.000000 -0.008999 0.000000 -0.015632
# 5 0.014797 -0.002574 0.006071 0.000000 0.044890 0.000000
# 6 0.000000 0.000000 0.000000 -0.015632 0.000000 0.013961
#
#
# Mechanical properties :
#
#
# Convention : Reuss Voigt Hill
#
# Bulk Modulus (GPa) = 47.05137 75.32149 61.18643
# Shear Modulus (GPa) = 41.84950 19.19698 30.52324
#
# Velocity S-wave (km/s) = 4.40644 2.98441 3.76320
# Velocity P-wave (km/s) = 6.90790 6.84267 6.87536
#
# Compressibility (1/GPa) = 0.02125337
#
# Stress axis : x y z
#
# Youngs Moduli (GPa) = 53.07909 95.59269 79.39139
#
# Poissons Ratio (x) = 0.66337 0.21516
# Poissons Ratio (y) = 0.36835 0.05335
# Poissons Ratio (z) = 0.14385 0.06424
#
# Static dielectric constant tensor:
#      x y z
#    x 1.815830 0.000000 0.003460 
#    y 0.000000 1.802040 0.000000 
#    z 0.003460 0.000000 1.782080 
# 
# From -- ./inp_files/20737.got.cif
#   From: 2010.05.17/outbox.cif.g08.bks.cpg/sg10_11_cif.got.tgz:20737.got - 2010.06.03 11:33:40.
