data_PCOD9152721
_publ_section_title
;
Structure prediction by ZEFSAII (Michael W. Deem and Ramdas Pophale) SiO2 
 PCOD9152721
Probable space group: P 2/M
;
_chemical_formula_sum "Si O2"
_cell_formula_units_Z 28
_cell_length_a 13.862323
_cell_length_b 8.877487
_cell_length_c 13.906022
_cell_angle_alpha 90.000000
_cell_angle_beta 120.163633
_cell_angle_gamma 90.000000
_cell_volume 1479.589162
_symmetry_space_group_name_H-M "P 2/M"
_symmetry_group_IT_number 10
_symmetry_cell_setting 'monoclinic'
loop_
_space_group_symop_operation_xyz
x,y,z
-x,y,-z
-x,-y,-z
x,-y,z
loop_
_atom_site_type_symbol
_atom_site_label
_atom_site_fract_x
_atom_site_fract_y
_atom_site_fract_z
Si Si1 0.693311 0.320445 0.953649
Si Si2 0.874548 0.179764 0.901302
Si Si3 0.261296 0.179892 0.815423
Si Si4 0.167400 0.319831 0.328366
Si Si5 0.396777 0.819077 0.517870
Si Si6 0.967421 0.319019 0.374835
Si Si7 0.462044 0.819585 0.769110
O O1 0.698781 0.500000 0.957104
O O2 0.786756 0.254672 0.929372
O O3 0.573060 0.265041 0.856878
O O4 0.714546 0.256980 0.070742
O O5 0.856753 0.243993 0.785974
O O6 0.857527 0.000000 0.892301
O O7 0.000000 0.210827 0.000000
O O8 0.144844 0.238395 0.714944
O O9 0.360726 0.214207 0.790609
O O10 0.257027 0.000000 0.826399
O O11 0.170463 0.500000 0.318657
O O12 0.284781 0.261803 0.427937
O O13 0.068715 0.282143 0.353715
O O14 0.500000 0.780651 0.500000
O O15 0.427739 0.781046 0.643057
O O16 0.379898 0.000000 0.503900
O O17 0.950215 0.500000 0.363248
O O18 0.000000 0.277700 0.500000
O O19 0.483030 0.000000 0.783191
#
# Coordination Sequence:
#
# PCOD9152721 Si02
#       7
#     4   4   4   4   4   4   4
#     4  12  25  40  62  90 120 155 196 246 302 358
#     4  11  24  42  64  88 117 156 199 244 297 356
#     4  11  23  39  61  88 120 160 204 248 294 350
#     4  11  23  38  60  90 122 157 198 245 296 352
#     4  10  21  38  61  87 117 156 199 244 295 350
#     4  10  22  40  61  88 124 162 199 245 299 351
#     4  10  22  40  61  88 122 159 201 248 295 347
#
# _framework density 18.924171999999999
#
# number of rings (size 3 to 8) (size 9 to 14) (size 15 to 20)
#    0.000    1.286    0.000    5.571    0.000    9.714 
#    0.000    0.000    0.000    0.000    0.000    0.000 
#    0.000    0.000    0.000    0.000    0.000    0.000 
#
# Total GULP energy -156678.287289 kJ/mol
# GULP energy per Si atom -5595.653117 kJ/mol
# Density = 1.888110 g / cm^3
# Si number density = 18.924172 Si / 1000 Ang^3
#
#
#
# Elastic Constant Matrix: (Units=GPa)
#
#
# Indices 1 2 3 4 5 6 
#
# 1 210.4320 108.1981 138.2362 0.0000 -2.3014 0.0000
# 2 108.1981 85.5680 102.6428 0.0000 6.7418 0.0000
# 3 138.2362 102.6428 216.3401 0.0000 -4.7375 0.0000
# 4 0.0000 0.0000 0.0000 -42.5095 0.0000 -59.0852
# 5 -2.3014 6.7418 -4.7375 0.0000 42.8302 0.0000
# 6 0.0000 0.0000 0.0000 -59.0852 0.0000 -20.1469
#
#
#
# Elastic Compliance Matrix: (Units=1/GPa)
#
#
# Indices 1 2 3 4 5 6 
#
# 1 0.014174 -0.017206 -0.000820 0.000000 0.003379 0.000000
# 2 -0.017206 0.049476 -0.012701 0.000000 -0.010117 0.000000
# 3 -0.000820 -0.012701 0.011242 0.000000 0.003199 0.000000
# 4 0.000000 0.000000 0.000000 0.007647 0.000000 -0.022426
# 5 0.003379 -0.010117 0.003199 0.000000 0.025476 0.000000
# 6 0.000000 0.000000 0.000000 -0.022426 0.000000 0.016135
#
#
# Mechanical properties :
#
#
# Convention : Reuss Voigt Hill
#
# Bulk Modulus (GPa) = 74.41175 134.49938 104.45557
# Shear Modulus (GPa) = 26.30406 6.91896 16.61151
#
# Velocity S-wave (km/s) = 3.73228 1.91418 2.96597
# Velocity P-wave (km/s) = 7.61443 8.72425 8.18817
#
# Compressibility (1/GPa) = 0.01343874
#
# Stress axis : x y z
#
# Youngs Moduli (GPa) = 70.54934 20.21171 88.95039
#
# Poissons Ratio (x) = 0.34777 0.07290
# Poissons Ratio (y) = 1.21389 1.12978
# Poissons Ratio (z) = 0.05782 0.25671
#
# Static dielectric constant tensor:
#      x y z
#    x 1.622990 0.000000 -0.008410 
#    y 0.000000 1.633920 0.000000 
#    z -0.008410 0.000000 1.612340 
# 
# From -- ./inp_files/63908.got.cif
#   From: 2010.05.17/outbox.cif.g08.bks.cpg/sg10_32_cif.got.tgz:63908.got - 2010.06.03 11:33:40.
