data_PCOD9152459
_publ_section_title
;
Structure prediction by ZEFSAII (Michael W. Deem and Ramdas Pophale) SiO2 
 PCOD9152459
Probable space group: P 2/M
;
_chemical_formula_sum "Si O2"
_cell_formula_units_Z 32
_cell_length_a 9.349602
_cell_length_b 19.549280
_cell_length_c 11.487797
_cell_angle_alpha 90.000000
_cell_angle_beta 124.690404
_cell_angle_gamma 90.000000
_cell_volume 1726.469510
_symmetry_space_group_name_H-M "P 2/M"
_symmetry_group_IT_number 10
_symmetry_cell_setting 'monoclinic'
loop_
_space_group_symop_operation_xyz
x,y,z
-x,y,-z
-x,-y,-z
x,-y,z
loop_
_atom_site_type_symbol
_atom_site_label
_atom_site_fract_x
_atom_site_fract_y
_atom_site_fract_z
Si Si1 0.204969 0.784335 0.589744
Si Si2 0.479677 0.726690 0.128200
Si Si3 0.190604 0.423270 0.535551
Si Si4 0.328154 0.075742 0.583783
Si Si5 0.296982 0.300951 0.419309
Si Si6 0.260914 0.923149 0.280019
Si Si7 0.509752 0.425321 0.863391
Si Si8 0.819448 0.779218 0.857419
O O1 0.328188 0.740584 0.731234
O O2 0.247026 0.864159 0.622404
O O3 0.272392 0.762926 0.494104
O O4 0.000000 0.770306 0.500000
O O5 0.412745 0.649503 0.125068
O O6 0.341245 0.775359 0.126713
O O7 0.500000 0.735290 0.000000
O O8 0.203869 0.500000 0.491245
O O9 0.220330 0.365948 0.451858
O O10 0.329610 0.421149 0.706402
O O11 0.000000 0.414149 0.500000
O O12 0.536434 0.082900 0.664976
O O13 0.257040 0.079535 0.418622
O O14 0.291156 0.000000 0.612997
O O15 0.500000 0.314789 0.500000
O O16 0.219573 0.275332 0.262532
O O17 0.168805 0.856309 0.187080
O O18 0.201371 0.000000 0.217718
O O19 0.588080 0.500000 0.866571
O O20 0.500000 0.426717 0.000000
O O21 0.000000 0.761211 0.000000
#
# Coordination Sequence:
#
# PCOD9152459 Si02
#       8
#     4   4   4   4   4   4   4   4
#     4  12  23  36  62  90 120 159 199 256 302 360
#     4  11  24  40  58  87 123 157 198 250 309 369
#     4  10  21  37  60  92 125 160 204 253 303 363
#     4   9  17  33  60  89 117 152 198 249 300 357
#     4  12  22  40  62  87 122 159 206 255 301 359
#     4   9  17  34  61  88 116 154 199 247 301 362
#     4   9  18  34  58  84 115 156 197 238 294 357
#     4  12  25  39  61  89 122 158 200 257 307 360
#
# _framework density 18.534935999999998
#
# number of rings (size 3 to 8) (size 9 to 14) (size 15 to 20)
#    0.000    1.500    5.000    1.125    1.750    1.750 
#    0.000    0.625    0.000    2.250    0.000    0.000 
#    0.000    0.000    0.000    0.000    0.000    0.000 
#
# Total GULP energy -178333.203019 kJ/mol
# GULP energy per Si atom -5572.912594 kJ/mol
# Density = 1.849275 g / cm^3
# Si number density = 18.534936 Si / 1000 Ang^3
#
#
#
# Elastic Constant Matrix: (Units=GPa)
#
#
# Indices 1 2 3 4 5 6 
#
# 1 36.0293 21.3495 28.7186 0.0000 -2.3359 0.0000
# 2 21.3495 139.8189 35.2847 0.0000 -7.5637 0.0000
# 3 28.7186 35.2847 110.0891 0.0000 -6.1263 0.0000
# 4 0.0000 0.0000 0.0000 15.1018 0.0000 3.7426
# 5 -2.3359 -7.5637 -6.1263 0.0000 19.0311 0.0000
# 6 0.0000 0.0000 0.0000 3.7426 0.0000 14.4224
#
#
#
# Elastic Compliance Matrix: (Units=1/GPa)
#
#
# Indices 1 2 3 4 5 6 
#
# 1 0.036513 -0.003433 -0.008402 0.000000 0.000413 0.000000
# 2 -0.003433 0.008207 -0.001606 0.000000 0.002324 0.000000
# 3 -0.008402 -0.001606 0.011910 0.000000 0.002165 0.000000
# 4 0.000000 0.000000 0.000000 0.070768 0.000000 -0.018364
# 5 0.000413 0.002324 0.002165 0.000000 0.054216 0.000000
# 6 0.000000 0.000000 0.000000 -0.018364 0.000000 0.074102
#
#
# Mechanical properties :
#
#
# Convention : Reuss Voigt Hill
#
# Bulk Modulus (GPa) = 33.61327 50.73809 42.17568
# Shear Modulus (GPa) = 17.09316 23.08337 20.08826
#
# Velocity S-wave (km/s) = 3.04009 3.53285 3.29569
# Velocity P-wave (km/s) = 5.52244 6.63891 6.10624
#
# Compressibility (1/GPa) = 0.02975015
#
# Stress axis : x y z
#
# Youngs Moduli (GPa) = 27.38743 121.84459 83.96007
#
# Poissons Ratio (x) = 0.41826 0.70542
# Poissons Ratio (y) = 0.09401 0.13481
# Poissons Ratio (z) = 0.23011 0.19565
#
# Static dielectric constant tensor:
#      x y z
#    x 1.608160 0.000000 -0.004150 
#    y 0.000000 1.694940 0.000000 
#    z -0.004150 0.000000 1.628940 
# 
# From -- ./inp_files/43646.got.cif
#   From: 2010.05.17/outbox.cif.g08.bks.cpg/sg10_22_cif.got.tgz:43646.got - 2010.06.03 11:33:40.
