data_PCOD9152666
_publ_section_title
;
Structure prediction by ZEFSAII (Michael W. Deem and Ramdas Pophale) SiO2 
 PCOD9152666
Probable space group: P 2/M
;
_chemical_formula_sum "Si O2"
_cell_formula_units_Z 25
_cell_length_a 16.890557
_cell_length_b 12.328582
_cell_length_c 10.843609
_cell_angle_alpha 90.000000
_cell_angle_beta 146.225688
_cell_angle_gamma 90.000000
_cell_volume 1255.294390
_symmetry_space_group_name_H-M "P 2/M"
_symmetry_group_IT_number 10
_symmetry_cell_setting 'monoclinic'
loop_
_space_group_symop_operation_xyz
x,y,z
-x,y,-z
-x,-y,-z
x,-y,z
loop_
_atom_site_type_symbol
_atom_site_label
_atom_site_fract_x
_atom_site_fract_y
_atom_site_fract_z
Si Si1 0.810232 0.374028 0.468723
Si Si2 0.436148 0.000000 0.780742
Si Si3 0.130923 0.623301 0.895534
Si Si4 0.378047 0.373617 0.011880
Si Si5 0.218032 0.172919 0.157711
Si Si6 0.614226 0.000000 0.760549
Si Si7 0.352421 0.224593 0.579165
Si Si8 0.000000 0.000000 0.000000
O O1 0.790497 0.500000 0.475628
O O2 0.696875 0.347712 0.215134
O O3 0.776859 0.297833 0.540282
O O4 0.972694 0.361751 0.635512
O O5 0.349426 0.110295 0.646718
O O6 0.546955 0.000000 0.809151
O O7 0.500000 0.000000 0.000000
O O8 0.137036 0.500000 0.953282
O O9 0.254033 0.632714 0.953152
O O10 0.155070 0.715230 0.027341
O O11 0.427433 0.500000 0.071674
O O12 0.504934 0.291792 0.206620
O O13 0.335446 0.198943 0.413790
O O14 0.103091 0.094553 0.071836
O O15 0.290281 0.106051 0.140129
O O16 0.500000 0.000000 0.500000
#
# Coordination Sequence:
#
# PCOD9152666 Si02
#       8
#     4   2   4   4   4   2   4   1
#     4  10  21  39  60  84 120 165 210 254 308 376
#     4  12  24  38  60  92 125 156 204 262 313 373
#     4  10  22  38  60  89 121 161 206 258 315 377
#     4  10  21  38  60  86 119 162 207 253 313 382
#     4  11  23  39  66  89 125 163 211 259 314 390
#     4  11  21  43  64  89 121 172 210 251 322 381
#     4  12  23  37  59  91 123 156 202 261 321 372
#     4  10  22  44  60  88 112 166 220 254 298 380
#
# _framework density 19.915647
#
# number of rings (size 3 to 8) (size 9 to 14) (size 15 to 20)
#    0.000    1.280    1.600    4.800    0.000    4.480 
#    0.000    3.600    0.000    0.000    0.000   11.200 
#    0.000    0.000    0.000    0.000    0.000    0.000 
#
# Total GULP energy -139451.592142 kJ/mol
# GULP energy per Si atom -5578.063686 kJ/mol
# Density = 1.987032 g / cm^3
# Si number density = 19.915647 Si / 1000 Ang^3
#
#
#
# Elastic Constant Matrix: (Units=GPa)
#
#
# Indices 1 2 3 4 5 6 
#
# 1 73.8868 39.2769 26.1717 0.0000 3.8029 0.0000
# 2 39.2769 115.4396 38.9280 0.0000 -1.4325 0.0000
# 3 26.1717 38.9280 49.2443 0.0000 -2.0956 0.0000
# 4 0.0000 0.0000 0.0000 20.7000 0.0000 1.4396
# 5 3.8029 -1.4325 -2.0956 0.0000 38.1597 0.0000
# 6 0.0000 0.0000 0.0000 1.4396 0.0000 18.6382
#
#
#
# Elastic Compliance Matrix: (Units=1/GPa)
#
#
# Indices 1 2 3 4 5 6 
#
# 1 0.018092 -0.003966 -0.006579 0.000000 -0.002313 0.000000
# 2 -0.003966 0.012680 -0.007898 0.000000 0.000438 0.000000
# 3 -0.006579 -0.007898 0.030132 0.000000 0.002014 0.000000
# 4 0.000000 0.000000 0.000000 0.048570 0.000000 -0.003752
# 5 -0.002313 0.000438 0.002014 0.000000 0.026563 0.000000
# 6 0.000000 0.000000 0.000000 -0.003752 0.000000 0.053943
#
#
# Mechanical properties :
#
#
# Convention : Reuss Voigt Hill
#
# Bulk Modulus (GPa) = 41.63177 49.70263 45.66720
# Shear Modulus (GPa) = 21.28825 24.44585 22.86705
#
# Velocity S-wave (km/s) = 3.27298 3.50733 3.39218
# Velocity P-wave (km/s) = 5.93571 6.43526 6.19052
#
# Compressibility (1/GPa) = 0.02402012
#
# Stress axis : x y z
#
# Youngs Moduli (GPa) = 55.27424 78.86126 33.18723
#
# Poissons Ratio (x) = 0.31274 0.21832
# Poissons Ratio (y) = 0.21920 0.26210
# Poissons Ratio (z) = 0.36362 0.62282
#
# Static dielectric constant tensor:
#      x y z
#    x 1.700510 0.000000 0.011090 
#    y 0.000000 1.692900 0.000000 
#    z 0.011090 0.000000 1.711360 
# 
# From -- ./inp_files/53750.got.cif
#   From: 2010.05.17/outbox.cif.g08.bks.cpg/sg10_27_cif.got.tgz:53750.got - 2010.06.03 11:33:40.
