data_PCOD9152567
_publ_section_title
;
Structure prediction by ZEFSAII (Michael W. Deem and Ramdas Pophale) SiO2 
 PCOD9152567
Probable space group: P 2/M
;
_chemical_formula_sum "Si O2"
_cell_formula_units_Z 20
_cell_length_a 17.399686
_cell_length_b 8.900501
_cell_length_c 17.378399
_cell_angle_alpha 90.000000
_cell_angle_beta 24.967403
_cell_angle_gamma 90.000000
_cell_volume 1136.013852
_symmetry_space_group_name_H-M "P 2/M"
_symmetry_group_IT_number 10
_symmetry_cell_setting 'monoclinic'
loop_
_space_group_symop_operation_xyz
x,y,z
-x,y,-z
-x,-y,-z
x,-y,z
loop_
_atom_site_type_symbol
_atom_site_label
_atom_site_fract_x
_atom_site_fract_y
_atom_site_fract_z
Si Si1 0.062348 0.181648 0.563660
Si Si2 0.886527 0.320647 0.025911
Si Si3 0.158235 0.320795 0.640263
Si Si4 0.506706 0.179192 0.404001
Si Si5 0.294964 0.817367 0.204705
O O1 0.106968 0.251247 0.605039
O O2 0.212049 0.225821 0.363107
O O3 0.861983 0.226282 0.713937
O O4 0.064920 0.000000 0.566240
O O5 0.850345 0.500000 0.060764
O O6 0.699713 0.231238 0.196403
O O7 0.000000 0.283395 0.000000
O O8 0.005992 0.286236 0.842724
O O9 0.172530 0.500000 0.620927
O O10 0.345467 0.254871 0.503005
O O11 0.500000 0.225856 0.500000
O O12 0.487495 0.000000 0.418072
O O13 0.300219 0.000000 0.199328
O O14 0.500000 0.764382 0.000000
#
# Coordination Sequence:
#
# PCOD9152567 Si02
#       5
#     4   4   4   4   4
#     4   9  18  33  54  82 111 140 182 230 273 324
#     4  10  21  38  58  78 106 150 193 228 276 336
#     4  11  23  38  57  81 115 153 190 232 279 337
#     4  11  23  37  57  83 109 141 187 242 289 329
#     4   8  15  31  56  81 108 143 179 219 273 332
#
# _framework density 17.605419999999999
#
# number of rings (size 3 to 8) (size 9 to 14) (size 15 to 20)
#    0.000    2.200    2.000    2.400    0.000    4.400 
#    0.000    4.000    0.000    1.200    0.000    0.000 
#    0.000    0.000    0.000    0.000    0.000    0.000 
#
# Total GULP energy -111617.232531 kJ/mol
# GULP energy per Si atom -5580.861627 kJ/mol
# Density = 1.756535 g / cm^3
# Si number density = 17.605420 Si / 1000 Ang^3
#
#
#
# Elastic Constant Matrix: (Units=GPa)
#
#
# Indices 1 2 3 4 5 6 
#
# 1 190.7222 55.5921 103.6697 0.0000 6.0308 0.0000
# 2 55.5921 29.1119 53.8431 0.0000 0.4846 0.0000
# 3 103.6697 53.8431 160.2970 0.0000 -10.7262 0.0000
# 4 0.0000 0.0000 0.0000 29.6811 0.0000 2.7970
# 5 6.0308 0.4846 -10.7262 0.0000 19.1311 0.0000
# 6 0.0000 0.0000 0.0000 2.7970 0.0000 24.5675
#
#
#
# Elastic Compliance Matrix: (Units=1/GPa)
#
#
# Indices 1 2 3 4 5 6 
#
# 1 0.012061 -0.021326 -0.000889 0.000000 -0.003760 0.000000
# 2 -0.021326 0.136530 -0.033091 0.000000 -0.015289 0.000000
# 3 -0.000889 -0.033091 0.018705 0.000000 0.011606 0.000000
# 4 0.000000 0.000000 0.000000 0.034057 0.000000 -0.003877
# 5 -0.003760 -0.015289 0.011606 0.000000 0.060350 0.000000
# 6 0.000000 0.000000 0.000000 -0.003877 0.000000 0.041146
#
#
# Mechanical properties :
#
#
# Convention : Reuss Voigt Hill
#
# Bulk Modulus (GPa) = 17.64113 89.59344 53.61728
# Shear Modulus (GPa) = 11.56454 25.81103 18.68779
#
# Velocity S-wave (km/s) = 2.56574 3.83310 3.26157
# Velocity P-wave (km/s) = 4.33813 8.40181 6.68617
#
# Compressibility (1/GPa) = 0.05668571
#
# Stress axis : x y z
#
# Youngs Moduli (GPa) = 82.90919 7.32437 53.46159
#
# Poissons Ratio (x) = 0.15620 0.04752
# Poissons Ratio (y) = 1.76810 1.76909
# Poissons Ratio (z) = 0.07370 0.24237
#
# Static dielectric constant tensor:
#      x y z
#    x 1.572610 0.000000 0.006300 
#    y 0.000000 1.583870 0.000000 
#    z 0.006300 0.000000 1.586900 
# 
# From -- ./inp_files/78710.got.cif
#   From: 2010.05.17/outbox.cif.g08.bks.cpg/sg10_40_cif.got.tgz:78710.got - 2010.06.03 11:33:40.
