data_PCOD9152586
_publ_section_title
;
Structure prediction by ZEFSAII (Michael W. Deem and Ramdas Pophale) SiO2 
 PCOD9152586
Probable space group: P 2/M
;
_chemical_formula_sum "Si O2"
_cell_formula_units_Z 28
_cell_length_a 9.668955
_cell_length_b 14.785149
_cell_length_c 11.783617
_cell_angle_alpha 90.000000
_cell_angle_beta 118.805827
_cell_angle_gamma 90.000000
_cell_volume 1476.099730
_symmetry_space_group_name_H-M "P 2/M"
_symmetry_group_IT_number 10
_symmetry_cell_setting 'monoclinic'
loop_
_space_group_symop_operation_xyz
x,y,z
-x,y,-z
-x,-y,-z
x,-y,z
loop_
_atom_site_type_symbol
_atom_site_label
_atom_site_fract_x
_atom_site_fract_y
_atom_site_fract_z
Si Si1 0.274676 0.702240 0.638549
Si Si2 0.171279 0.101856 0.633587
Si Si3 0.090777 0.395695 0.754369
Si Si4 0.690037 0.896789 0.058050
Si Si5 0.723734 0.598843 0.585995
Si Si6 0.835880 0.274590 0.000456
Si Si7 0.412355 0.605479 0.225196
O O1 0.267489 0.809734 0.636869
O O2 0.134232 0.655419 0.654472
O O3 0.277531 0.673058 0.510008
O O4 0.430923 0.656780 0.751973
O O5 0.201842 0.106709 0.783275
O O6 0.000000 0.111157 0.500000
O O7 0.225757 0.000000 0.624375
O O8 0.150622 0.500000 0.776931
O O9 0.151348 0.331993 0.878426
O O10 0.903683 0.401899 0.699495
O O11 0.755163 0.820264 0.000397
O O12 0.704015 0.000000 0.020796
O O13 0.500000 0.881328 0.000000
O O14 0.695722 0.500000 0.520374
O O15 0.609657 0.609507 0.647292
O O16 0.731204 0.338395 0.880519
O O17 0.000000 0.259951 0.000000
O O18 0.410985 0.500000 0.192010
#
# Coordination Sequence:
#
# PCOD9152586 Si02
#       7
#     4   4   4   4   4   4   4
#     4  12  22  37  62  90 121 152 207 263 311 365
#     4  10  21  38  64  94 124 159 205 258 319 380
#     4  11  22  36  57  87 117 156 202 253 301 357
#     4  10  22  43  67  93 126 163 209 264 323 379
#     4  10  21  38  58  83 120 164 201 239 303 375
#     4  12  24  39  61  87 122 165 210 252 310 368
#     4  11  24  40  59  87 125 170 207 249 311 380
#
# _framework density 18.968907000000002
#
# number of rings (size 3 to 8) (size 9 to 14) (size 15 to 20)
#    0.000    1.143    2.857    4.286    0.000    3.143 
#    0.000    1.429    0.000    2.571    0.000    0.000 
#    0.000    0.000    0.000    0.000    0.000    0.000 
#
# Total GULP energy -156087.514792 kJ/mol
# GULP energy per Si atom -5574.554100 kJ/mol
# Density = 1.892573 g / cm^3
# Si number density = 18.968907 Si / 1000 Ang^3
#
#
#
# Elastic Constant Matrix: (Units=GPa)
#
#
# Indices 1 2 3 4 5 6 
#
# 1 75.4787 61.5817 22.8060 0.0000 8.7540 0.0000
# 2 61.5817 201.1697 44.2566 0.0000 -7.3082 0.0000
# 3 22.8060 44.2566 62.9576 0.0000 5.2259 0.0000
# 4 0.0000 0.0000 0.0000 17.0583 0.0000 14.0230
# 5 8.7540 -7.3082 5.2259 0.0000 19.4833 0.0000
# 6 0.0000 0.0000 0.0000 14.0230 0.0000 13.5374
#
#
#
# Elastic Compliance Matrix: (Units=1/GPa)
#
#
# Indices 1 2 3 4 5 6 
#
# 1 0.020089 -0.006074 -0.002116 0.000000 -0.010737 0.000000
# 2 -0.006074 0.007944 -0.003946 0.000000 0.006768 0.000000
# 3 -0.002116 -0.003946 0.019911 0.000000 -0.005870 0.000000
# 4 0.000000 0.000000 0.000000 0.394885 0.000000 -0.409048
# 5 -0.010737 0.006768 -0.005870 0.000000 0.060263 0.000000
# 6 0.000000 0.000000 0.000000 -0.409048 0.000000 0.497588
#
#
# Mechanical properties :
#
#
# Convention : Reuss Voigt Hill
#
# Bulk Modulus (GPa) = 42.24304 66.32163 54.28233
# Shear Modulus (GPa) = 4.84100 24.07992 14.46046
#
# Velocity S-wave (km/s) = 1.59925 3.56679 2.76402
# Velocity P-wave (km/s) = 5.07229 7.21123 6.23418
#
# Compressibility (1/GPa) = 0.02367254
#
# Stress axis : x y z
#
# Youngs Moduli (GPa) = 49.77771 125.87627 50.22280
#
# Poissons Ratio (x) = 0.76460 0.10627
# Poissons Ratio (y) = 0.30236 0.19817
# Poissons Ratio (z) = 0.10533 0.49670
#
# Static dielectric constant tensor:
#      x y z
#    x 1.672230 0.000000 0.082330 
#    y 0.000000 1.640410 0.000000 
#    z 0.082330 0.000000 1.808580 
# 
# From -- ./inp_files/32840.got.cif
#   From: 2010.05.17/outbox.cif.g08.bks.cpg/sg10_17_cif.got.tgz:32840.got - 2010.06.03 11:33:40.
