data_PCOD9152299
_publ_section_title
;
Structure prediction by ZEFSAII (Michael W. Deem and Ramdas Pophale) SiO2 
 PCOD9152299
Probable space group: P 2/M
;
_chemical_formula_sum "Si O2"
_cell_formula_units_Z 28
_cell_length_a 9.216296
_cell_length_b 19.909823
_cell_length_c 16.189966
_cell_angle_alpha 90.000000
_cell_angle_beta 151.441630
_cell_angle_gamma 90.000000
_cell_volume 1420.190263
_symmetry_space_group_name_H-M "P 2/M"
_symmetry_group_IT_number 10
_symmetry_cell_setting 'monoclinic'
loop_
_space_group_symop_operation_xyz
x,y,z
-x,y,-z
-x,-y,-z
x,-y,z
loop_
_atom_site_type_symbol
_atom_site_label
_atom_site_fract_x
_atom_site_fract_y
_atom_site_fract_z
Si Si1 0.130109 0.077372 0.315055
Si Si2 0.853496 0.709802 0.080346
Si Si3 0.137038 0.157913 0.482144
Si Si4 0.136562 0.425071 0.476149
Si Si5 0.137028 0.157911 0.154889
Si Si6 0.863444 0.574928 0.839590
Si Si7 0.853508 0.290199 0.273153
O O1 0.500000 0.078595 0.500000
O O2 0.034015 0.115244 0.350670
O O3 0.034011 0.115243 0.183345
O O4 0.032881 0.000000 0.266443
O O5 0.876446 0.728056 0.188221
O O6 0.029224 0.765846 0.116505
O O7 0.993277 0.636358 0.137806
O O8 0.499993 0.709245 0.879502
O O9 0.500004 0.155616 0.667798
O O10 0.000000 0.133428 0.500000
O O11 0.029244 0.234156 0.412727
O O12 0.067289 0.500000 0.408371
O O13 0.500003 0.418019 0.661243
O O14 0.000000 0.421776 0.500000
O O15 0.993288 0.363643 0.355472
O O16 0.000000 0.133423 0.000000
O O17 0.932718 0.500000 0.841082
O O18 0.000000 0.578220 0.000000
#
# Coordination Sequence:
#
# PCOD9152299 Si02
#       7
#     4   4   4   4   4   4   4
#     4   9  20  40  65  93 126 163 202 245 297 360
#     4  11  23  38  58  84 117 155 200 253 303 357
#     4  11  22  39  64  92 124 163 205 250 301 359
#     4  10  21  37  57  81 112 151 197 248 302 361
#     4  11  22  39  64  92 124 163 205 250 301 359
#     4  10  21  37  57  81 112 151 197 248 302 361
#     4  11  23  38  58  84 117 155 200 253 303 357
#
# _framework density 19.715668000000001
#
# number of rings (size 3 to 8) (size 9 to 14) (size 15 to 20)
#    0.000    1.571    1.429    3.429    0.000    4.571 
#    0.000    2.857    0.000    6.000    0.000    0.000 
#    0.000    0.000    0.000    0.000    0.000    0.000 
#
# Total GULP energy -156476.993117 kJ/mol
# GULP energy per Si atom -5588.464040 kJ/mol
# Density = 1.967079 g / cm^3
# Si number density = 19.715668 Si / 1000 Ang^3
#
#
#
# Elastic Constant Matrix: (Units=GPa)
#
#
# Indices 1 2 3 4 5 6 
#
# 1 111.9666 55.4078 42.5136 0.0000 -9.8426 0.0000
# 2 55.4078 117.4097 41.8935 0.0000 -13.8114 0.0000
# 3 42.5136 41.8935 89.7537 0.0000 -12.8657 0.0000
# 4 0.0000 0.0000 0.0000 16.2327 0.0000 -6.4063
# 5 -9.8426 -13.8114 -12.8657 0.0000 26.8224 0.0000
# 6 0.0000 0.0000 0.0000 -6.4063 0.0000 22.4967
#
#
#
# Elastic Compliance Matrix: (Units=1/GPa)
#
#
# Indices 1 2 3 4 5 6 
#
# 1 0.012679 -0.004570 -0.003805 0.000000 0.000475 0.000000
# 2 -0.004570 0.012128 -0.003051 0.000000 0.003104 0.000000
# 3 -0.003805 -0.003051 0.014972 0.000000 0.004214 0.000000
# 4 0.000000 0.000000 0.000000 0.069404 0.000000 0.019764
# 5 0.000475 0.003104 0.004214 0.000000 0.041076 0.000000
# 6 0.000000 0.000000 0.000000 0.019764 0.000000 0.050079
#
#
# Mechanical properties :
#
#
# Convention : Reuss Voigt Hill
#
# Bulk Modulus (GPa) = 59.07608 66.52888 62.80248
# Shear Modulus (GPa) = 21.85009 25.06470 23.45739
#
# Velocity S-wave (km/s) = 3.33267 3.56941 3.45307
# Velocity P-wave (km/s) = 6.69611 7.12776 6.91531
#
# Compressibility (1/GPa) = 0.01692732
#
# Stress axis : x y z
#
# Youngs Moduli (GPa) = 78.86985 82.45542 66.79186
#
# Poissons Ratio (x) = 0.37684 0.25411
# Poissons Ratio (y) = 0.36045 0.20378
# Poissons Ratio (z) = 0.30006 0.25157
#
# Static dielectric constant tensor:
#      x y z
#    x 1.692930 0.000000 -0.017560 
#    y 0.000000 1.677260 0.000000 
#    z -0.017560 0.000000 1.675740 
# 
# From -- ./inp_files/30472.got.cif
#   From: 2010.05.17/outbox.cif.g08.bks.cpg/sg10_16_cif.got.tgz:30472.got - 2010.06.03 11:33:40.
