data_PCOD9152832
_publ_section_title
;
Structure prediction by ZEFSAII (Michael W. Deem and Ramdas Pophale) SiO2 
 PCOD9152832
Probable space group: P 2/M
;
_chemical_formula_sum "Si O2"
_cell_formula_units_Z 20
_cell_length_a 22.184667
_cell_length_b 7.277679
_cell_length_c 9.585676
_cell_angle_alpha 90.000000
_cell_angle_beta 40.463640
_cell_angle_gamma 90.000000
_cell_volume 1004.361539
_symmetry_space_group_name_H-M "P 2/M"
_symmetry_group_IT_number 10
_symmetry_cell_setting 'monoclinic'
loop_
_space_group_symop_operation_xyz
x,y,z
-x,y,-z
-x,-y,-z
x,-y,z
loop_
_atom_site_type_symbol
_atom_site_label
_atom_site_fract_x
_atom_site_fract_y
_atom_site_fract_z
Si Si1 0.578114 0.500000 0.747355
Si Si2 0.911660 0.776568 0.065447
Si Si3 0.275684 0.220630 0.098577
Si Si4 0.563021 0.500000 0.253921
Si Si5 0.268792 0.219401 0.439209
Si Si6 0.090817 0.776474 0.253174
O O1 0.517261 0.500000 0.718513
O O2 0.643513 0.324684 0.653645
O O3 0.500000 0.500000 0.000000
O O4 0.820131 0.725859 0.312816
O O5 0.914294 0.000000 0.057082
O O6 0.911631 0.716515 0.904146
O O7 0.000000 0.716303 0.000000
O O8 0.258664 0.263820 0.292472
O O9 0.185733 0.274599 0.165513
O O10 0.287331 0.000000 0.066629
O O11 0.367116 0.327530 0.887299
O O12 0.500000 0.500000 0.500000
O O13 0.279603 0.000000 0.430172
O O14 0.000000 0.717539 0.500000
O O15 0.089045 0.000000 0.255224
#
# Coordination Sequence:
#
# PCOD9152832 Si02
#       6
#     2   4   4   2   4   4
#     4  12  24  44  63  86 117 154 201 252 301 352
#     4   9  17  31  55  89 123 156 196 240 288 348
#     4  10  21  40  63  89 120 157 198 242 297 356
#     4  12  28  44  61  86 119 156 199 254 303 350
#     4  10  21  38  64  91 119 155 198 246 295 352
#     4   9  17  31  55  87 124 160 194 236 289 352
#
# _framework density 19.913146999999999
#
# number of rings (size 3 to 8) (size 9 to 14) (size 15 to 20)
#    0.000    2.000    2.000    1.200    2.800    6.400 
#    0.000    1.000    0.000    0.000    0.000    0.000 
#    0.000    0.000    0.000    0.000    0.000    0.000 
#
# Total GULP energy -111720.348234 kJ/mol
# GULP energy per Si atom -5586.017412 kJ/mol
# Density = 1.986782 g / cm^3
# Si number density = 19.913147 Si / 1000 Ang^3
#
#
#
# Elastic Constant Matrix: (Units=GPa)
#
#
# Indices 1 2 3 4 5 6 
#
# 1 239.0116 48.3896 140.1706 0.0000 -2.5280 0.0000
# 2 48.3896 91.9272 51.1782 0.0000 -4.9539 0.0000
# 3 140.1706 51.1782 235.3294 0.0000 4.5732 0.0000
# 4 0.0000 0.0000 0.0000 26.4593 0.0000 -24.2700
# 5 -2.5280 -4.9539 4.5732 0.0000 40.3456 0.0000
# 6 0.0000 0.0000 0.0000 -24.2700 0.0000 23.6019
#
#
#
# Elastic Compliance Matrix: (Units=1/GPa)
#
#
# Indices 1 2 3 4 5 6 
#
# 1 0.006615 -0.001418 -0.003645 0.000000 0.000654 0.000000
# 2 -0.001418 0.012817 -0.001976 0.000000 0.001709 0.000000
# 3 -0.003645 -0.001976 0.006874 0.000000 -0.001250 0.000000
# 4 0.000000 0.000000 0.000000 0.665634 0.000000 0.684476
# 5 0.000654 0.001709 -0.001250 0.000000 0.025178 0.000000
# 6 0.000000 0.000000 0.000000 0.684476 0.000000 0.746220
#
#
# Mechanical properties :
#
#
# Convention : Reuss Voigt Hill
#
# Bulk Modulus (GPa) = 81.77144 116.19390 98.98267
# Shear Modulus (GPa) = 3.37498 39.85002 21.61250
#
# Velocity S-wave (km/s) = 1.30328 4.47832 3.29802
# Velocity P-wave (km/s) = 6.58923 9.23133 8.01983
#
# Compressibility (1/GPa) = 0.01222921
#
# Stress axis : x y z
#
# Youngs Moduli (GPa) = 151.16410 78.02314 145.47019
#
# Poissons Ratio (x) = 0.11063 0.53019
# Poissons Ratio (y) = 0.21434 0.28744
# Poissons Ratio (z) = 0.55094 0.15417
#
# Static dielectric constant tensor:
#      x y z
#    x 1.644730 0.000000 0.009210 
#    y 0.000000 1.737260 0.000000 
#    z 0.009210 0.000000 1.763360 
# 
# From -- ./inp_files/31704.got.cif
#   From: 2010.05.17/outbox.cif.g08.bks.cpg/sg10_16_cif.got.tgz:31704.got - 2010.06.03 11:33:40.
