data_PCOD9152471
_publ_section_title
;
Structure prediction by ZEFSAII (Michael W. Deem and Ramdas Pophale) SiO2 
 PCOD9152471
Probable space group: P 2/M
;
_chemical_formula_sum "Si O2"
_cell_formula_units_Z 32
_cell_length_a 19.822592
_cell_length_b 7.843956
_cell_length_c 12.275724
_cell_angle_alpha 90.000000
_cell_angle_beta 53.026227
_cell_angle_gamma 90.000000
_cell_volume 1524.898917
_symmetry_space_group_name_H-M "P 2/M"
_symmetry_group_IT_number 10
_symmetry_cell_setting 'monoclinic'
loop_
_space_group_symop_operation_xyz
x,y,z
-x,y,-z
-x,-y,-z
x,-y,z
loop_
_atom_site_type_symbol
_atom_site_label
_atom_site_fract_x
_atom_site_fract_y
_atom_site_fract_z
Si Si1 0.903206 0.208030 0.103267
Si Si2 0.643180 0.692205 0.580400
Si Si3 0.089805 0.297471 0.455744
Si Si4 0.406311 0.196240 0.602367
Si Si5 0.587839 0.204815 0.867523
Si Si6 0.826647 0.198207 0.408058
Si Si7 0.750597 0.206623 0.845886
Si Si8 0.749029 0.791066 0.099812
O O1 0.867605 0.257207 0.255879
O O2 0.834877 0.262819 0.078856
O O3 0.905183 0.000000 0.097373
O O4 0.000000 0.266939 0.000000
O O5 0.618220 0.500000 0.578685
O O6 0.630515 0.799177 0.483567
O O7 0.594712 0.754833 0.733567
O O8 0.741553 0.701213 0.514750
O O9 0.084388 0.500000 0.477744
O O10 0.112359 0.215360 0.549075
O O11 0.164503 0.261438 0.297860
O O12 0.000000 0.234620 0.500000
O O13 0.500000 0.274547 0.500000
O O14 0.334488 0.268107 0.752859
O O15 0.418897 0.000000 0.626486
O O16 0.669265 0.267405 0.855922
O O17 0.588179 0.000000 0.878366
O O18 0.500000 0.271283 0.000000
O O19 0.802872 0.000000 0.418600
O O20 0.749268 0.000000 0.846567
O O21 0.747737 0.261278 0.974855
O O22 0.748342 0.000000 0.103842
#
# Coordination Sequence:
#
# PCOD9152471 Si02
#       8
#     4   4   4   4   4   4   4   4
#     4   9  18  32  55  88 119 144 182 244 303 347
#     4  12  24  39  61  87 124 163 198 244 301 360
#     4  11  25  42  59  84 123 164 200 244 304 365
#     4  10  21  38  64  90 116 155 201 248 294 344
#     4  10  22  39  62  91 120 153 202 253 295 350
#     4  11  21  38  65  90 115 152 205 255 298 350
#     4  10  21  37  61  89 118 154 198 248 296 353
#     4   9  18  34  55  85 119 148 189 243 296 344
#
# _framework density 20.984997
#
# number of rings (size 3 to 8) (size 9 to 14) (size 15 to 20)
#    0.000    1.750    2.500    1.875    3.500    1.500 
#    0.000    0.625    0.000    1.500    0.000    0.000 
#    0.000    0.000    0.000    0.000    0.000    0.000 
#
# Total GULP energy -178754.672528 kJ/mol
# GULP energy per Si atom -5586.083516 kJ/mol
# Density = 2.093723 g / cm^3
# Si number density = 20.984997 Si / 1000 Ang^3
#
#
#
# Elastic Constant Matrix: (Units=GPa)
#
#
# Indices 1 2 3 4 5 6 
#
# 1 64.0112 18.1940 11.4299 0.0000 -3.2347 0.0000
# 2 18.1940 23.3188 13.0512 0.0000 -3.7176 0.0000
# 3 11.4299 13.0512 100.4400 0.0000 3.5546 0.0000
# 4 0.0000 0.0000 0.0000 7.5220 0.0000 -2.1591
# 5 -3.2347 -3.7176 3.5546 0.0000 42.9567 0.0000
# 6 0.0000 0.0000 0.0000 -2.1591 0.0000 6.2938
#
#
#
# Elastic Compliance Matrix: (Units=1/GPa)
#
#
# Indices 1 2 3 4 5 6 
#
# 1 0.020082 -0.015480 -0.000281 0.000000 0.000196 0.000000
# 2 -0.015480 0.059069 -0.006071 0.000000 0.004449 0.000000
# 3 -0.000281 -0.006071 0.010828 0.000000 -0.001443 0.000000
# 4 0.000000 0.000000 0.000000 0.147463 0.000000 0.050588
# 5 0.000196 0.004449 -0.001443 0.000000 0.023798 0.000000
# 6 0.000000 0.000000 0.000000 0.050588 0.000000 0.176241
#
#
# Mechanical properties :
#
#
# Convention : Reuss Voigt Hill
#
# Bulk Modulus (GPa) = 21.59135 30.34668 25.96901
# Shear Modulus (GPa) = 10.06876 21.02751 15.54814
#
# Velocity S-wave (km/s) = 2.19283 3.16891 2.72493
# Velocity P-wave (km/s) = 4.08933 5.28033 4.72252
#
# Compressibility (1/GPa) = 0.04631485
#
# Stress axis : x y z
#
# Youngs Moduli (GPa) = 49.79511 16.92927 92.35237
#
# Poissons Ratio (x) = 0.26207 0.02593
# Poissons Ratio (y) = 0.77085 0.56070
# Poissons Ratio (z) = 0.01398 0.10278
#
# Static dielectric constant tensor:
#      x y z
#    x 1.791070 0.000000 -0.011030 
#    y 0.000000 1.775570 0.000000 
#    z -0.011030 0.000000 1.722770 
# 
# From -- ./inp_files/49784.got.cif
#   From: 2010.05.17/outbox.cif.g08.bks.cpg/sg10_25_cif.got.tgz:49784.got - 2010.06.03 11:33:40.
