data_PCOD9152072
_publ_section_title
;
Structure prediction by ZEFSAII (Michael W. Deem and Ramdas Pophale) SiO2 
 PCOD9152072
Probable space group: P 2/M
;
_chemical_formula_sum "Si O2"
_cell_formula_units_Z 28
_cell_length_a 10.459010
_cell_length_b 8.285143
_cell_length_c 30.779530
_cell_angle_alpha 90.000000
_cell_angle_beta 146.242377
_cell_angle_gamma 90.000000
_cell_volume 1482.101691
_symmetry_space_group_name_H-M "P 2/M"
_symmetry_group_IT_number 10
_symmetry_cell_setting 'monoclinic'
loop_
_space_group_symop_operation_xyz
x,y,z
-x,y,-z
-x,-y,-z
x,-y,z
loop_
_atom_site_type_symbol
_atom_site_label
_atom_site_fract_x
_atom_site_fract_y
_atom_site_fract_z
Si Si1 0.646426 0.305537 0.421295
Si Si2 0.836939 0.191122 0.833823
Si Si3 0.664987 0.191372 0.161003
Si Si4 0.099557 0.696754 0.595390
Si Si5 0.842933 0.193966 0.735482
Si Si6 0.338531 0.690961 0.994483
Si Si7 0.397179 0.308841 0.759880
O O1 0.644523 0.500000 0.420741
O O2 0.742184 0.253191 0.400896
O O3 0.388407 0.246028 0.354141
O O4 0.839522 0.252815 0.510531
O O5 0.828242 0.250457 0.781390
O O6 0.644696 0.277536 0.808150
O O7 0.788974 0.000000 0.820738
O O8 0.093538 0.222582 0.923297
O O9 0.475678 0.275009 0.077307
O O10 0.624947 0.224753 0.200148
O O11 0.918997 0.250258 0.218527
O O12 0.652296 0.000000 0.148967
O O13 0.102893 0.500000 0.596571
O O14 0.209795 0.750950 0.671594
O O15 0.849639 0.000000 0.738230
O O16 0.299398 0.500000 0.978258
O O17 0.500000 0.746401 0.000000
O O18 0.365074 0.500000 0.757046
#
# Coordination Sequence:
#
# PCOD9152072 Si02
#       7
#     4   4   4   4   4   4   4
#     4   9  16  31  57  85 112 147 192 238 286 335
#     4  11  22  38  61  87 117 154 191 232 288 349
#     4  11  24  42  60  82 118 159 192 231 289 351
#     4   8  16  31  54  84 116 148 185 237 290 336
#     4  10  21  36  56  85 117 150 192 235 281 340
#     4  11  23  39  62  91 117 145 191 244 288 333
#     4  11  22  39  60  87 119 152 193 242 290 338
#
# _framework density 18.892092000000002
#
# number of rings (size 3 to 8) (size 9 to 14) (size 15 to 20)
#    0.000    1.857    2.857    2.571    0.000    2.857 
#    0.000    6.429    0.000    4.286    0.000    0.000 
#    0.000    0.000    0.000    0.000    0.000    0.000 
#
# Total GULP energy -156360.423483 kJ/mol
# GULP energy per Si atom -5584.300839 kJ/mol
# Density = 1.884909 g / cm^3
# Si number density = 18.892092 Si / 1000 Ang^3
#
#
#
# Elastic Constant Matrix: (Units=GPa)
#
#
# Indices 1 2 3 4 5 6 
#
# 1 78.3547 -7.3164 36.3055 0.0000 -1.4051 0.0000
# 2 -7.3164 11.8764 -11.3173 0.0000 -0.4015 0.0000
# 3 36.3055 -11.3173 126.3542 0.0000 4.4301 0.0000
# 4 0.0000 0.0000 0.0000 27.2602 0.0000 7.1518
# 5 -1.4051 -0.4015 4.4301 0.0000 31.4459 0.0000
# 6 0.0000 0.0000 0.0000 7.1518 0.0000 15.8995
#
#
#
# Elastic Compliance Matrix: (Units=1/GPa)
#
#
# Indices 1 2 3 4 5 6 
#
# 1 0.015112 0.005655 -0.003881 0.000000 0.001294 0.000000
# 2 0.005655 0.094174 0.006793 0.000000 0.000498 0.000000
# 3 -0.003881 0.006793 0.009689 0.000000 -0.001452 0.000000
# 4 0.000000 0.000000 0.000000 0.041592 0.000000 -0.018709
# 5 0.001294 0.000498 -0.001452 0.000000 0.032069 0.000000
# 6 0.000000 0.000000 0.000000 -0.018709 0.000000 0.071310
#
#
# Mechanical properties :
#
#
# Convention : Reuss Voigt Hill
#
# Bulk Modulus (GPa) = 7.34706 27.99208 17.66957
# Shear Modulus (GPa) = 17.11258 28.18202 22.64730
#
# Velocity S-wave (km/s) = 3.01293 3.86649 3.46608
# Velocity P-wave (km/s) = 4.00013 5.89763 5.03900
#
# Compressibility (1/GPa) = 0.13610880
#
# Stress axis : x y z
#
# Youngs Moduli (GPa) = 66.17261 10.61859 103.21300
#
# Poissons Ratio (x) = -0.06005 0.40057
# Poissons Ratio (y) = -0.37421 -0.70109
# Poissons Ratio (z) = 0.25682 -0.07213
#
# Static dielectric constant tensor:
#      x y z
#    x 1.627030 0.000000 0.000310 
#    y 0.000000 1.650770 0.000000 
#    z 0.000310 0.000000 1.653920 
# 
# From -- ./inp_files/70309.got.cif
#   From: 2010.05.17/outbox.cif.g08.bks.cpg/sg10_36_cif.got.tgz:70309.got - 2010.06.03 11:33:40.
