data_PCOD9152617
_publ_section_title
;
Structure prediction by ZEFSAII (Michael W. Deem and Ramdas Pophale) SiO2 
 PCOD9152617
Probable space group: P 2/M
;
_chemical_formula_sum "Si O2"
_cell_formula_units_Z 28
_cell_length_a 13.996500
_cell_length_b 8.598575
_cell_length_c 13.998060
_cell_angle_alpha 90.000000
_cell_angle_beta 119.966132
_cell_angle_gamma 90.000000
_cell_volume 1459.461113
_symmetry_space_group_name_H-M "P 2/M"
_symmetry_group_IT_number 10
_symmetry_cell_setting 'monoclinic'
loop_
_space_group_symop_operation_xyz
x,y,z
-x,y,-z
-x,-y,-z
x,-y,z
loop_
_atom_site_type_symbol
_atom_site_label
_atom_site_fract_x
_atom_site_fract_y
_atom_site_fract_z
Si Si1 0.264260 0.686475 0.808947
Si Si2 0.689576 0.188278 0.957065
Si Si3 0.170061 0.186655 0.336978
Si Si4 0.403831 0.313476 0.525078
Si Si5 0.019559 0.687890 0.619662
Si Si6 0.120198 0.810450 0.095563
Si Si7 0.550662 0.813463 0.241301
O O1 0.269925 0.500000 0.808084
O O2 0.141514 0.734324 0.714928
O O3 0.354781 0.754847 0.782516
O O4 0.287739 0.743787 0.927488
O O5 0.784168 0.237782 0.929817
O O6 0.569298 0.234235 0.858345
O O7 0.692026 0.000000 0.964687
O O8 0.286517 0.251332 0.430834
O O9 0.145347 0.239386 0.216164
O O10 0.073175 0.242319 0.358257
O O11 0.174366 0.000000 0.339616
O O12 0.500000 0.263810 0.500000
O O13 0.400491 0.500000 0.525526
O O14 0.429536 0.252110 0.643424
O O15 0.012187 0.500000 0.620499
O O16 0.000000 0.734447 0.500000
O O17 0.119307 0.000000 0.095304
O O18 0.000000 0.758452 0.000000
O O19 0.553267 0.000000 0.246433
#
# Coordination Sequence:
#
# PCOD9152617 Si02
#       7
#     4   4   4   4   4   4   4
#     4  11  23  38  59  87 119 156 197 242 293 351
#     4  10  21  38  59  84 117 154 193 241 294 346
#     4  11  22  37  62  91 117 151 197 246 293 346
#     4  11  24  41  61  86 120 159 194 236 293 352
#     4  10  22  40  59  81 115 156 194 238 294 351
#     4   9  18  34  57  85 116 150 189 236 288 341
#     4  11  23  39  61  87 116 153 198 247 295 346
#
# _framework density 19.185161999999998
#
# number of rings (size 3 to 8) (size 9 to 14) (size 15 to 20)
#    0.000    1.571    0.000    4.714    0.000    8.857 
#    0.000    1.429    0.000    3.857    0.000    0.000 
#    0.000    0.000    0.000    0.000    0.000    0.000 
#
# Total GULP energy -156587.236881 kJ/mol
# GULP energy per Si atom -5592.401317 kJ/mol
# Density = 1.914150 g / cm^3
# Si number density = 19.185162 Si / 1000 Ang^3
#
#
#
# Elastic Constant Matrix: (Units=GPa)
#
#
# Indices 1 2 3 4 5 6 
#
# 1 236.2163 50.8556 144.6407 0.0000 0.8990 0.0000
# 2 50.8556 30.8280 49.0621 0.0000 2.2698 0.0000
# 3 144.6407 49.0621 237.4536 0.0000 0.5666 0.0000
# 4 0.0000 0.0000 0.0000 25.3755 0.0000 -1.1054
# 5 0.8990 2.2698 0.5666 0.0000 46.3224 0.0000
# 6 0.0000 0.0000 0.0000 -1.1054 0.0000 29.1177
#
#
#
# Elastic Compliance Matrix: (Units=1/GPa)
#
#
# Indices 1 2 3 4 5 6 
#
# 1 0.007886 -0.008022 -0.003147 0.000000 0.000279 0.000000
# 2 -0.008022 0.056725 -0.006828 0.000000 -0.002540 0.000000
# 3 -0.003147 -0.006828 0.007538 0.000000 0.000303 0.000000
# 4 0.000000 0.000000 0.000000 0.039473 0.000000 0.001499
# 5 0.000279 -0.002540 0.000303 0.000000 0.021703 0.000000
# 6 0.000000 0.000000 0.000000 0.001499 0.000000 0.034400
#
#
# Mechanical properties :
#
#
# Convention : Reuss Voigt Hill
#
# Bulk Modulus (GPa) = 27.65800 110.40166 69.02983
# Shear Modulus (GPa) = 23.17259 37.49243 30.33251
#
# Velocity S-wave (km/s) = 3.47917 4.42548 3.98054
# Velocity P-wave (km/s) = 5.53056 9.15333 7.56209
#
# Compressibility (1/GPa) = 0.03615590
#
# Stress axis : x y z
#
# Youngs Moduli (GPa) = 126.80011 17.62897 132.65443
#
# Poissons Ratio (x) = 0.14142 0.41747
# Poissons Ratio (y) = 1.01717 0.90575
# Poissons Ratio (z) = 0.39905 0.12037
#
# Static dielectric constant tensor:
#      x y z
#    x 1.629660 0.000000 0.007420 
#    y 0.000000 1.656570 0.000000 
#    z 0.007420 0.000000 1.633370 
# 
# From -- ./inp_files/63888.got.cif
#   From: 2010.05.17/outbox.cif.g08.bks.cpg/sg10_32_cif.got.tgz:63888.got - 2010.06.03 11:33:40.
