data_PCOD9152171
_publ_section_title
;
Structure prediction by ZEFSAII (Michael W. Deem and Ramdas Pophale) SiO2 
 PCOD9152171
Probable space group: P 2/M
;
_chemical_formula_sum "Si O2"
_cell_formula_units_Z 18
_cell_length_a 5.532656
_cell_length_b 19.875139
_cell_length_c 6.965578
_cell_angle_alpha 90.000000
_cell_angle_beta 76.286462
_cell_angle_gamma 90.000000
_cell_volume 744.116162
_symmetry_space_group_name_H-M "P 2/M"
_symmetry_group_IT_number 10
_symmetry_cell_setting 'monoclinic'
loop_
_space_group_symop_operation_xyz
x,y,z
-x,y,-z
-x,-y,-z
x,-y,z
loop_
_atom_site_type_symbol
_atom_site_label
_atom_site_fract_x
_atom_site_fract_y
_atom_site_fract_z
Si Si1 0.000000 0.634861 0.500000
Si Si2 0.762308 0.573557 0.183794
Si Si3 0.562609 0.850256 0.258747
Si Si4 0.548191 0.299102 0.719593
Si Si5 0.937003 0.077905 0.740485
O O1 0.154059 0.587242 0.612575
O O2 0.159660 0.683929 0.331354
O O3 0.640381 0.500000 0.191146
O O4 0.593504 0.637259 0.170374
O O5 0.000000 0.573720 0.000000
O O6 0.500000 0.850901 0.500000
O O7 0.551161 0.772661 0.196914
O O8 0.333216 0.887809 0.199307
O O9 0.832505 0.884922 0.199214
O O10 0.500000 0.299408 0.500000
O O11 0.000000 0.079339 0.500000
O O12 0.924229 0.000000 0.799980
#
# Coordination Sequence:
#
# PCOD9152171 Si02
#       5
#     2   4   4   4   4
#     4  10  21  36  60  82 113 156 198 242 303 358
#     4  10  22  39  58  84 117 151 196 249 299 359
#     4   9  17  26  45  67 106 148 193 241 293 353
#     4   9  20  33  53  79 109 150 198 242 297 356
#     4   9  16  25  40  67 104 148 192 237 294 353
#
# _framework density 24.189771
#
# number of rings (size 3 to 8) (size 9 to 14) (size 15 to 20)
#    0.000    2.667    0.000    1.000   10.889    8.444 
#    0.000    2.222    0.000    0.000    0.000    0.000 
#    0.000    5.333    0.000    2.889    0.000    1.333 
#
# Total GULP energy -100643.610474 kJ/mol
# GULP energy per Si atom -5591.311693 kJ/mol
# Density = 2.413471 g / cm^3
# Si number density = 24.189771 Si / 1000 Ang^3
#
#
#
# Elastic Constant Matrix: (Units=GPa)
#
#
# Indices 1 2 3 4 5 6 
#
# 1 160.9898 123.3446 41.8929 0.0000 -7.9469 0.0000
# 2 123.3446 285.1148 41.5476 0.0000 -36.6415 0.0000
# 3 41.8929 41.5476 75.9609 0.0000 7.0320 0.0000
# 4 0.0000 0.0000 0.0000 -65.4759 0.0000 -64.3842
# 5 -7.9469 -36.6415 7.0320 0.0000 50.7309 0.0000
# 6 0.0000 0.0000 0.0000 -64.3842 0.0000 -56.4726
#
#
#
# Elastic Compliance Matrix: (Units=1/GPa)
#
#
# Indices 1 2 3 4 5 6 
#
# 1 0.010087 -0.003991 -0.003302 0.000000 -0.000845 0.000000
# 2 -0.003991 0.005934 -0.001401 0.000000 0.003855 0.000000
# 3 -0.003302 -0.001401 0.016100 0.000000 -0.003761 0.000000
# 4 0.000000 0.000000 0.000000 0.126129 0.000000 -0.143799
# 5 -0.000845 0.003855 -0.003761 0.000000 0.022885 0.000000
# 6 0.000000 0.000000 0.000000 -0.143799 0.000000 0.146237
#
#
# Mechanical properties :
#
#
# Convention : Reuss Voigt Hill
#
# Bulk Modulus (GPa) = 67.87712 103.95953 85.91833
# Shear Modulus (GPa) = 14.29916 6.77518 10.53717
#
# Velocity S-wave (km/s) = 2.43394 1.67539 2.08938
# Velocity P-wave (km/s) = 6.00166 6.84197 6.43554
#
# Compressibility (1/GPa) = 0.01473251
#
# Stress axis : x y z
#
# Youngs Moduli (GPa) = 99.13776 168.53297 62.11143
#
# Poissons Ratio (x) = 0.67265 0.20508
# Poissons Ratio (y) = 0.39568 0.08702
# Poissons Ratio (z) = 0.32733 0.23613
#
# Static dielectric constant tensor:
#      x y z
#    x 1.959370 0.000000 -0.054070 
#    y 0.000000 1.870750 0.000000 
#    z -0.054070 0.000000 2.024700 
# 
# From -- ./inp_files/4195.got.cif
#   From: 2010.05.17/outbox.cif.g08.bks.cpg/sg10_3_cif.got.tgz:4195.got - 2010.06.03 11:33:40.
