data_PCOD9152535
_publ_section_title
;
Structure prediction by ZEFSAII (Michael W. Deem and Ramdas Pophale) SiO2 
 PCOD9152535
Probable space group: P 2/M
;
_chemical_formula_sum "Si O2"
_cell_formula_units_Z 32
_cell_length_a 28.130532
_cell_length_b 8.519424
_cell_length_c 12.024392
_cell_angle_alpha 90.000000
_cell_angle_beta 146.240901
_cell_angle_gamma 90.000000
_cell_volume 1601.376589
_symmetry_space_group_name_H-M "P 2/M"
_symmetry_group_IT_number 10
_symmetry_cell_setting 'monoclinic'
loop_
_space_group_symop_operation_xyz
x,y,z
-x,y,-z
-x,-y,-z
x,-y,z
loop_
_atom_site_type_symbol
_atom_site_label
_atom_site_fract_x
_atom_site_fract_y
_atom_site_fract_z
Si Si1 0.418892 0.686352 0.422470
Si Si2 0.734555 0.809536 0.487240
Si Si3 0.612161 0.188146 0.054963
Si Si4 0.873575 0.189244 0.311923
Si Si5 0.051215 0.810910 0.775431
Si Si6 0.080616 0.687837 0.081284
Si Si7 0.308198 0.685778 0.008098
Si Si8 0.424732 0.813672 0.677679
O O1 0.500000 0.711732 0.500000
O O2 0.416142 0.500000 0.443124
O O3 0.423135 0.780253 0.543960
O O4 0.338275 0.731468 0.189998
O O5 0.689714 0.759162 0.284583
O O6 0.828600 0.745454 0.693813
O O7 0.662828 0.755830 0.437157
O O8 0.740646 0.000000 0.501307
O O9 0.634013 0.233475 0.972183
O O10 0.609257 0.000000 0.059223
O O11 0.516956 0.248134 0.899446
O O12 0.889554 0.237165 0.214288
O O13 0.789276 0.266405 0.195817
O O14 0.956104 0.229395 0.546666
O O15 0.865577 0.000000 0.297851
O O16 0.056343 0.000000 0.793408
O O17 0.071291 0.742340 0.935010
O O18 0.079889 0.500000 0.081855
O O19 0.000000 0.743903 0.000000
O O20 0.320677 0.500000 0.022260
O O21 0.425404 0.000000 0.700570
#
# Coordination Sequence:
#
# PCOD9152535 Si02
#       8
#     4   4   4   4   4   4   4   4
#     4  10  21  38  55  79 120 162 195 231 283 348
#     4  10  23  42  64  90 117 154 200 248 302 356
#     4  10  21  39  62  88 120 156 199 250 300 350
#     4   9  20  39  63  91 119 149 192 246 297 352
#     4   9  20  41  66  89 116 151 194 244 299 356
#     4  11  26  44  61  87 123 159 198 247 295 350
#     4  11  23  36  56  86 122 161 198 239 290 351
#     4  10  21  38  63  91 118 151 197 252 300 348
#
# _framework density 19.982807000000001
#
# number of rings (size 3 to 8) (size 9 to 14) (size 15 to 20)
#    0.000    2.000    1.250    1.875    3.500    5.750 
#    0.000    1.250    0.000    2.250    0.000    0.000 
#    0.000    0.000    0.000    0.000    0.000    0.000 
#
# Total GULP energy -178616.750932 kJ/mol
# GULP energy per Si atom -5581.773467 kJ/mol
# Density = 1.993733 g / cm^3
# Si number density = 19.982807 Si / 1000 Ang^3
#
#
#
# Elastic Constant Matrix: (Units=GPa)
#
#
# Indices 1 2 3 4 5 6 
#
# 1 84.3017 14.4852 63.8279 0.0000 10.2950 0.0000
# 2 14.4852 9.8411 24.0778 0.0000 1.0681 0.0000
# 3 63.8279 24.0778 135.5240 0.0000 6.5062 0.0000
# 4 0.0000 0.0000 0.0000 -13.7246 0.0000 -1.1421
# 5 10.2950 1.0681 6.5062 0.0000 36.4529 0.0000
# 6 0.0000 0.0000 0.0000 -1.1421 0.0000 -107.5439
#
#
#
# Elastic Compliance Matrix: (Units=1/GPa)
#
#
# Indices 1 2 3 4 5 6 
#
# 1 0.019609 -0.011149 -0.007065 0.000000 -0.003950 0.000000
# 2 -0.011149 0.186092 -0.027940 0.000000 0.002683 0.000000
# 3 -0.007065 -0.027940 0.015669 0.000000 0.000017 0.000000
# 4 0.000000 0.000000 0.000000 -0.072926 0.000000 0.000774
# 5 -0.003950 0.002683 0.000017 0.000000 0.028467 0.000000
# 6 0.000000 0.000000 0.000000 0.000774 0.000000 -0.009307
#
#
# Mechanical properties :
#
#
# Convention : Reuss Voigt Hill
#
# Bulk Modulus (GPa) = 7.74812 48.27207 28.01009
# Shear Modulus (GPa) = 16.50525 -8.47805 4.01360
#
# Velocity S-wave (km/s) = 2.87709 -2.06201 1.41876
# Velocity P-wave (km/s) = 3.86299 4.30582 4.09040
#
# Compressibility (1/GPa) = 0.12906351
#
# Stress axis : x y z
#
# Youngs Moduli (GPa) = 50.99570 5.37367 63.81878
#
# Poissons Ratio (x) = 0.05991 0.45089
# Poissons Ratio (y) = 0.56854 1.78310
# Poissons Ratio (z) = 0.36029 0.15014
#
# Static dielectric constant tensor:
#      x y z
#    x 1.698580 0.000000 0.006020 
#    y 0.000000 1.683370 0.000000 
#    z 0.006020 0.000000 1.718600 
# 
# From -- ./inp_files/58313.got.cif
#   From: 2010.05.17/outbox.cif.g08.bks.cpg/sg10_30_cif.got.tgz:58313.got - 2010.06.03 11:33:40.
