data_PCOD9152229
_publ_section_title
;
Structure prediction by ZEFSAII (Michael W. Deem and Ramdas Pophale) SiO2 
 PCOD9152229
Probable space group: P 2/M
;
_chemical_formula_sum "Si O2"
_cell_formula_units_Z 28
_cell_length_a 19.665099
_cell_length_b 8.591886
_cell_length_c 14.503843
_cell_angle_alpha 90.000000
_cell_angle_beta 144.675577
_cell_angle_gamma 90.000000
_cell_volume 1416.934979
_symmetry_space_group_name_H-M "P 2/M"
_symmetry_group_IT_number 10
_symmetry_cell_setting 'monoclinic'
loop_
_space_group_symop_operation_xyz
x,y,z
-x,y,-z
-x,-y,-z
x,-y,z
loop_
_atom_site_type_symbol
_atom_site_label
_atom_site_fract_x
_atom_site_fract_y
_atom_site_fract_z
Si Si1 0.112413 0.312012 0.562743
Si Si2 0.299571 0.687058 0.915391
Si Si3 0.459821 0.814595 0.354720
Si Si4 0.982605 0.190187 0.876086
Si Si5 0.196084 0.185364 0.469743
Si Si6 0.797996 0.185026 0.004882
Si Si7 0.452055 0.685073 0.738232
O O1 0.112972 0.500000 0.555604
O O2 0.229252 0.260643 0.747573
O O3 0.115323 0.240497 0.464919
O O4 0.000000 0.268234 0.500000
O O5 0.304485 0.500000 0.917261
O O6 0.224886 0.733630 0.922960
O O7 0.433008 0.744661 0.078612
O O8 0.500000 0.762865 0.500000
O O9 0.320794 0.792111 0.185723
O O10 0.523644 0.730041 0.341056
O O11 0.484275 0.000000 0.373785
O O12 0.863130 0.237799 0.692050
O O13 0.984074 0.000000 0.880189
O O14 0.000000 0.244261 0.000000
O O15 0.090617 0.239138 0.930372
O O16 0.326867 0.248475 0.628136
O O17 0.200037 0.000000 0.473130
O O18 0.810469 0.000000 0.035570
O O19 0.448388 0.500000 0.744281
#
# Coordination Sequence:
#
# PCOD9152229 Si02
#       7
#     4   4   4   4   4   4   4
#     4  10  21  38  61  85 111 146 184 224 276 335
#     4   9  19  36  57  80 108 146 182 220 272 330
#     4   9  18  31  53  82 108 139 182 229 274 325
#     4   9  19  34  54  78 107 144 181 220 272 331
#     4  11  23  37  57  84 113 144 184 234 278 323
#     4   9  17  31  53  80 106 137 178 225 272 320
#     4  10  21  37  55  77 112 150 186 226 272 329
#
# _framework density 19.760964000000001
#
# number of rings (size 3 to 8) (size 9 to 14) (size 15 to 20)
#    0.000    2.429    0.000    1.714    2.000    2.286 
#    0.000    3.571    0.000    2.143    0.000    0.000 
#    0.000    0.000    0.000    0.000    0.000    0.000 
#
# Total GULP energy -156290.570544 kJ/mol
# GULP energy per Si atom -5581.806091 kJ/mol
# Density = 1.971599 g / cm^3
# Si number density = 19.760964 Si / 1000 Ang^3
#
#
#
# Elastic Constant Matrix: (Units=GPa)
#
#
# Indices 1 2 3 4 5 6 
#
# 1 70.4763 13.3288 49.4444 0.0000 8.7147 0.0000
# 2 13.3288 10.3995 23.0405 0.0000 2.2984 0.0000
# 3 49.4444 23.0405 96.0090 0.0000 -14.3199 0.0000
# 4 0.0000 0.0000 0.0000 18.4294 0.0000 -3.9719
# 5 8.7147 2.2984 -14.3199 0.0000 36.1608 0.0000
# 6 0.0000 0.0000 0.0000 -3.9719 0.0000 35.9764
#
#
#
# Elastic Compliance Matrix: (Units=1/GPa)
#
#
# Indices 1 2 3 4 5 6 
#
# 1 0.027024 0.008646 -0.018115 0.000000 -0.014236 0.000000
# 2 0.008646 0.258942 -0.073714 0.000000 -0.047733 0.000000
# 3 -0.018115 -0.073714 0.041220 0.000000 0.025374 0.000000
# 4 0.000000 0.000000 0.000000 0.055584 0.000000 0.006137
# 5 -0.014236 -0.047733 0.025374 0.000000 0.044167 0.000000
# 6 0.000000 0.000000 0.000000 0.006137 0.000000 0.028473
#
#
# Mechanical properties :
#
#
# Convention : Reuss Voigt Hill
#
# Bulk Modulus (GPa) = 6.21817 38.72357 22.47087
# Shear Modulus (GPa) = 7.40322 24.18474 15.79398
#
# Velocity S-wave (km/s) = 1.93766 3.50217 2.83017
# Velocity P-wave (km/s) = 2.85649 5.99935 4.69849
#
# Compressibility (1/GPa) = 0.16081894
#
# Stress axis : x y z
#
# Youngs Moduli (GPa) = 37.00477 3.86187 24.26030
#
# Poissons Ratio (x) = -0.03339 0.43948
# Poissons Ratio (y) = -0.31994 1.78832
# Poissons Ratio (z) = 0.67035 0.28467
#
# Static dielectric constant tensor:
#      x y z
#    x 1.664020 0.000000 0.008840 
#    y 0.000000 1.675720 0.000000 
#    z 0.008840 0.000000 1.728570 
# 
# From -- ./inp_files/68585.got.cif
#   From: 2010.05.17/outbox.cif.g08.bks.cpg/sg10_35_cif.got.tgz:68585.got - 2010.06.03 11:33:40.
