data_PCOD9152645
_publ_section_title
;
Structure prediction by ZEFSAII (Michael W. Deem and Ramdas Pophale) SiO2 
 PCOD9152645
Probable space group: P 2/M
;
_chemical_formula_sum "Si O2"
_cell_formula_units_Z 32
_cell_length_a 18.129773
_cell_length_b 14.245321
_cell_length_c 13.019365
_cell_angle_alpha 90.000000
_cell_angle_beta 151.772637
_cell_angle_gamma 90.000000
_cell_volume 1590.338131
_symmetry_space_group_name_H-M "P 2/M"
_symmetry_group_IT_number 10
_symmetry_cell_setting 'monoclinic'
loop_
_space_group_symop_operation_xyz
x,y,z
-x,y,-z
-x,-y,-z
x,-y,z
loop_
_atom_site_type_symbol
_atom_site_label
_atom_site_fract_x
_atom_site_fract_y
_atom_site_fract_z
Si Si1 0.176569 0.885729 0.199279
Si Si2 0.675799 0.385408 0.697905
Si Si3 0.027746 0.223289 0.415563
Si Si4 0.376822 0.749556 0.764431
Si Si5 0.223236 0.113330 0.022512
Si Si6 0.251187 0.390207 0.443673
Si Si7 0.544654 0.112701 0.307460
Si Si8 0.928694 0.391180 0.168952
O O1 0.304053 0.857866 0.440058
O O2 0.171841 0.000000 0.197439
O O3 0.227420 0.859621 0.147169
O O4 0.000000 0.851552 0.000000
O O5 0.500000 0.353848 0.500000
O O6 0.679206 0.500000 0.703816
O O7 0.736589 0.358924 0.659601
O O8 0.782851 0.356185 0.923991
O O9 0.209578 0.225817 0.608882
O O10 0.000000 0.199882 0.500000
O O11 0.927140 0.155408 0.218800
O O12 0.962370 0.326484 0.307264
O O13 0.351345 0.672127 0.644421
O O14 0.442313 0.840657 0.787072
O O15 0.500000 0.717099 0.000000
O O16 0.213659 0.000000 0.006824
O O17 0.383798 0.141835 0.164505
O O18 0.298520 0.500000 0.505875
O O19 0.075791 0.384491 0.272026
O O20 0.545491 0.000000 0.302611
O O21 0.908489 0.500000 0.172180
#
# Coordination Sequence:
#
# PCOD9152645 Si02
#       8
#     4   4   4   4   4   4   4   4
#     4   9  17  32  57  88 118 146 180 224 275 333
#     4   9  17  30  53  86 116 142 178 224 273 325
#     4  11  24  40  58  81 110 146 190 235 278 329
#     4  11  24  40  58  81 110 146 190 235 278 329
#     4  10  21  38  60  85 114 148 185 228 278 330
#     4   9  19  37  59  82 111 147 183 222 273 331
#     4  10  21  38  60  85 114 148 185 228 278 330
#     4   9  19  37  59  82 111 147 183 222 273 331
#
# _framework density 20.121506
#
# number of rings (size 3 to 8) (size 9 to 14) (size 15 to 20)
#    0.000    2.250    0.000    2.250    0.000    8.500 
#    0.000    1.250    0.000    0.000    0.000    0.000 
#    0.000    0.000    0.000    0.000    0.000    0.000 
#
# Total GULP energy -178830.422208 kJ/mol
# GULP energy per Si atom -5588.450694 kJ/mol
# Density = 2.007571 g / cm^3
# Si number density = 20.121506 Si / 1000 Ang^3
#
#
#
# Elastic Constant Matrix: (Units=GPa)
#
#
# Indices 1 2 3 4 5 6 
#
# 1 37.2607 -6.3543 -4.1778 0.0000 -2.9963 0.0000
# 2 -6.3543 36.1984 -1.9652 0.0000 8.3135 0.0000
# 3 -4.1778 -1.9652 86.8637 0.0000 8.2380 0.0000
# 4 0.0000 0.0000 0.0000 20.8603 0.0000 -5.4346
# 5 -2.9963 8.3135 8.2380 0.0000 28.1570 0.0000
# 6 0.0000 0.0000 0.0000 -5.4346 0.0000 21.7145
#
#
#
# Elastic Compliance Matrix: (Units=1/GPa)
#
#
# Indices 1 2 3 4 5 6 
#
# 1 0.027884 0.004694 0.001334 0.000000 0.001191 0.000000
# 2 0.004694 0.030628 0.001778 0.000000 -0.009064 0.000000
# 3 0.001334 0.001778 0.011986 0.000000 -0.003890 0.000000
# 4 0.000000 0.000000 0.000000 0.051282 0.000000 0.012834
# 5 0.001191 -0.009064 -0.003890 0.000000 0.039456 0.000000
# 6 0.000000 0.000000 0.000000 0.012834 0.000000 0.049264
#
#
# Mechanical properties :
#
#
# Convention : Reuss Voigt Hill
#
# Bulk Modulus (GPa) = 11.61313 15.03647 13.32480
# Shear Modulus (GPa) = 22.36240 25.66770 24.01505
#
# Velocity S-wave (km/s) = 3.33734 3.57548 3.45846
# Velocity P-wave (km/s) = 4.54251 4.95323 4.75231
#
# Compressibility (1/GPa) = 0.08610944
#
# Stress axis : x y z
#
# Youngs Moduli (GPa) = 35.86318 32.65025 83.43356
#
# Poissons Ratio (x) = -0.15325 -0.11133
# Poissons Ratio (y) = -0.16833 -0.14837
# Poissons Ratio (z) = -0.04785 -0.05806
#
# Static dielectric constant tensor:
#      x y z
#    x 1.669460 0.000000 0.018820 
#    y 0.000000 1.750050 0.000000 
#    z 0.018820 0.000000 1.674790 
# 
# From -- ./inp_files/54060.got.cif
#   From: 2010.05.17/outbox.cif.g08.bks.cpg/sg10_28_cif.got.tgz:54060.got - 2010.06.03 11:33:40.
