data_PCOD9152692
_publ_section_title
;
Structure prediction by ZEFSAII (Michael W. Deem and Ramdas Pophale) SiO2 
 PCOD9152692
Probable space group: P 2/M
;
_chemical_formula_sum "Si O2"
_cell_formula_units_Z 32
_cell_length_a 16.973764
_cell_length_b 11.749957
_cell_length_c 14.310454
_cell_angle_alpha 90.000000
_cell_angle_beta 149.692955
_cell_angle_gamma 90.000000
_cell_volume 1440.270843
_symmetry_space_group_name_H-M "P 2/M"
_symmetry_group_IT_number 10
_symmetry_cell_setting 'monoclinic'
loop_
_space_group_symop_operation_xyz
x,y,z
-x,y,-z
-x,-y,-z
x,-y,z
loop_
_atom_site_type_symbol
_atom_site_label
_atom_site_fract_x
_atom_site_fract_y
_atom_site_fract_z
Si Si1 0.524819 0.718082 0.919106
Si Si2 0.862071 0.689759 0.800870
Si Si3 0.385546 0.627885 0.591572
Si Si4 0.731452 0.870375 0.353408
Si Si5 0.159062 0.308368 0.872506
Si Si6 0.041073 0.128930 0.241937
Si Si7 0.882114 0.372608 0.465307
Si Si8 0.334070 0.368777 0.234359
O O1 0.410056 0.664284 0.722763
O O2 0.454238 0.846028 0.843887
O O3 0.500000 0.674931 0.000000
O O4 0.698318 0.697798 0.056035
O O5 0.780310 0.632411 0.627821
O O6 0.931321 0.801591 0.824113
O O7 0.732763 0.701916 0.748379
O O8 0.000000 0.629880 0.000000
O O9 0.443151 0.500000 0.649984
O O10 0.509761 0.685710 0.649605
O O11 0.805327 0.865107 0.533484
O O12 0.803694 0.755267 0.378852
O O13 0.767534 0.000000 0.356464
O O14 0.099001 0.184505 0.842326
O O15 0.002633 0.366606 0.674945
O O16 0.219762 0.367182 0.028475
O O17 0.007555 0.000000 0.186874
O O18 0.802497 0.500000 0.385298
O O19 0.000000 0.376152 0.500000
O O20 0.350832 0.500000 0.285979
#
# Coordination Sequence:
#
# PCOD9152692 Si02
#       8
#     4   4   4   4   4   4   4   4
#     4  11  23  41  68  98 132 171 227 281 338 401
#     4  12  22  39  63  98 123 165 219 271 326 395
#     4  10  23  42  63  91 136 179 214 268 334 399
#     4  10  22  42  65  94 131 175 224 279 340 407
#     4  10  21  41  61  91 132 174 219 277 335 400
#     4  10  22  43  65  89 127 173 219 274 338 401
#     4  10  21  39  64  95 130 172 222 279 341 405
#     4  10  21  38  60  89 128 172 212 261 325 399
#
# _framework density 22.218042000000001
#
# number of rings (size 3 to 8) (size 9 to 14) (size 15 to 20)
#    0.000    1.625    2.500    1.875    0.000    4.500 
#    0.000    2.500    0.000    1.500    0.000    0.000 
#    0.000    0.000    0.000    0.000    0.000    0.000 
#
# Total GULP energy -178204.800132 kJ/mol
# GULP energy per Si atom -5568.900004 kJ/mol
# Density = 2.216747 g / cm^3
# Si number density = 22.218042 Si / 1000 Ang^3
#
#
#
# Elastic Constant Matrix: (Units=GPa)
#
#
# Indices 1 2 3 4 5 6 
#
# 1 152.0054 38.6645 12.6065 0.0000 -14.7230 0.0000
# 2 38.6645 125.9491 0.0817 0.0000 4.5001 0.0000
# 3 12.6065 0.0817 76.0750 0.0000 -29.1270 0.0000
# 4 0.0000 0.0000 0.0000 12.7324 0.0000 2.9108
# 5 -14.7230 4.5001 -29.1270 0.0000 26.9755 0.0000
# 6 0.0000 0.0000 0.0000 2.9108 0.0000 18.0251
#
#
#
# Elastic Compliance Matrix: (Units=1/GPa)
#
#
# Indices 1 2 3 4 5 6 
#
# 1 0.007697 -0.002562 0.000851 0.000000 0.005547 0.000000
# 2 -0.002562 0.008875 -0.001171 0.000000 -0.004144 0.000000
# 3 0.000851 -0.001171 0.022601 0.000000 0.025064 0.000000
# 4 0.000000 0.000000 0.000000 0.081551 0.000000 -0.013169
# 5 0.005547 -0.004144 0.025064 0.000000 0.067853 0.000000
# 6 0.000000 0.000000 0.000000 -0.013169 0.000000 0.057605
#
#
# Mechanical properties :
#
#
# Convention : Reuss Voigt Hill
#
# Bulk Modulus (GPa) = 29.93159 50.74832 40.33995
# Shear Modulus (GPa) = 19.00548 31.72505 25.36527
#
# Velocity S-wave (km/s) = 2.92791 3.78285 3.38250
# Velocity P-wave (km/s) = 4.99311 6.47847 5.78367
#
# Compressibility (1/GPa) = 0.03340952
#
# Stress axis : x y z
#
# Youngs Moduli (GPa) = 129.92055 112.67731 44.24497
#
# Poissons Ratio (x) = 0.28864 -0.03766
# Poissons Ratio (y) = 0.33281 0.05183
# Poissons Ratio (z) = -0.11059 0.13200
#
# Static dielectric constant tensor:
#      x y z
#    x 1.915560 0.000000 0.053950 
#    y 0.000000 1.809880 0.000000 
#    z 0.053950 0.000000 1.952240 
# 
# From -- ./inp_files/69191.got.cif
#   From: 2010.05.17/outbox.cif.g08.bks.cpg/sg10_35_cif.got.tgz:69191.got - 2010.06.03 11:33:40.
