data_PCOD9152148
_publ_section_title
;
Structure prediction by ZEFSAII (Michael W. Deem and Ramdas Pophale) SiO2 
 PCOD9152148
Probable space group: P 2/M
;
_chemical_formula_sum "Si O2"
_cell_formula_units_Z 32
_cell_length_a 15.787190
_cell_length_b 23.756724
_cell_length_c 9.072311
_cell_angle_alpha 90.000000
_cell_angle_beta 152.983026
_cell_angle_gamma 90.000000
_cell_volume 1545.640542
_symmetry_space_group_name_H-M "P 2/M"
_symmetry_group_IT_number 10
_symmetry_cell_setting 'monoclinic'
loop_
_space_group_symop_operation_xyz
x,y,z
-x,y,-z
-x,-y,-z
x,-y,z
loop_
_atom_site_type_symbol
_atom_site_label
_atom_site_fract_x
_atom_site_fract_y
_atom_site_fract_z
Si Si1 0.437137 0.739959 0.242057
Si Si2 0.202007 0.362647 0.747188
Si Si3 0.800200 0.149199 0.108287
Si Si4 0.821877 0.649261 0.620484
Si Si5 0.652164 0.936087 0.110825
Si Si6 0.954851 0.885683 0.761806
Si Si7 0.207702 0.225456 0.392553
Si Si8 0.480611 0.562756 0.790281
O O1 0.500000 0.717608 0.500000
O O2 0.617664 0.769904 0.446943
O O3 0.334693 0.691111 0.989796
O O4 0.290897 0.789997 0.038620
O O5 0.155343 0.375568 0.504738
O O6 0.000000 0.353024 0.500000
O O7 0.327551 0.416362 0.985754
O O8 0.673461 0.106332 0.006630
O O9 0.000000 0.152374 0.500000
O O10 0.856085 0.129581 0.031111
O O11 0.771505 0.713729 0.501541
O O12 0.667941 0.612387 0.465070
O O13 0.000000 0.650197 0.000000
O O14 0.847587 0.932093 0.501866
O O15 0.616577 0.000000 0.006182
O O16 0.500000 0.921542 0.000000
O O17 0.813578 0.831072 0.544808
O O18 0.000000 0.900349 0.000000
O O19 0.000000 0.226092 0.000000
O O20 0.425890 0.500000 0.659501
O O21 0.500000 0.561901 0.000000
#
# Coordination Sequence:
#
# PCOD9152148 Si02
#       8
#     4   4   4   4   4   4   4   4
#     4  12  24  38  61  91 130 164 202 264 325 382
#     4  11  25  37  61  93 124 163 206 258 321 376
#     4  10  23  40  61  91 126 165 210 256 318 381
#     4  10  22  40  62  89 122 164 209 257 310 380
#     4  10  22  41  63  89 124 168 214 260 305 368
#     4  10  21  38  61  88 122 161 207 261 316 377
#     4  10  21  36  59  87 124 160 203 256 316 381
#     4   9  19  41  63  89 123 163 213 258 308 375
#
# _framework density 20.703389999999999
#
# number of rings (size 3 to 8) (size 9 to 14) (size 15 to 20)
#    0.000    1.750    1.250    2.625    8.750    3.000 
#    0.000    0.000    0.000    4.500    0.000    0.000 
#    0.000    0.000    0.000    0.000    0.000    0.000 
#
# Total GULP energy -178289.145836 kJ/mol
# GULP energy per Si atom -5571.535807 kJ/mol
# Density = 2.065627 g / cm^3
# Si number density = 20.703390 Si / 1000 Ang^3
#
#
#
# Elastic Constant Matrix: (Units=GPa)
#
#
# Indices 1 2 3 4 5 6 
#
# 1 93.1334 12.5906 36.0776 0.0000 12.4345 0.0000
# 2 12.5906 80.1127 24.4062 0.0000 6.7110 0.0000
# 3 36.0776 24.4062 60.8364 0.0000 7.9376 0.0000
# 4 0.0000 0.0000 0.0000 16.6683 0.0000 10.1058
# 5 12.4345 6.7110 7.9376 0.0000 37.2534 0.0000
# 6 0.0000 0.0000 0.0000 10.1058 0.0000 10.1854
#
#
#
# Elastic Compliance Matrix: (Units=1/GPa)
#
#
# Indices 1 2 3 4 5 6 
#
# 1 0.014288 0.000538 -0.008284 0.000000 -0.003101 0.000000
# 2 0.000538 0.014310 -0.005863 0.000000 -0.001508 0.000000
# 3 -0.008284 -0.005863 0.023868 0.000000 -0.001264 0.000000
# 4 0.000000 0.000000 0.000000 0.150571 0.000000 -0.149395
# 5 -0.003101 -0.001508 -0.001264 0.000000 0.028419 0.000000
# 6 0.000000 0.000000 0.000000 -0.149395 0.000000 0.246409
#
#
# Mechanical properties :
#
#
# Convention : Reuss Voigt Hill
#
# Bulk Modulus (GPa) = 39.60939 42.24793 40.92866
# Shear Modulus (GPa) = 9.73713 23.55529 16.64621
#
# Velocity S-wave (km/s) = 2.17103 3.37671 2.83862
# Velocity P-wave (km/s) = 5.04558 5.97106 5.52772
#
# Compressibility (1/GPa) = 0.02524654
#
# Stress axis : x y z
#
# Youngs Moduli (GPa) = 69.99044 69.87893 41.89797
#
# Poissons Ratio (x) = -0.03760 0.34709
# Poissons Ratio (y) = -0.03766 0.24566
# Poissons Ratio (z) = 0.57982 0.40973
#
# Static dielectric constant tensor:
#      x y z
#    x 1.794640 0.000000 0.009060 
#    y 0.000000 1.754400 0.000000 
#    z 0.009060 0.000000 1.749160 
# 
# From -- ./inp_files/30601.got.cif
#   From: 2010.05.17/outbox.cif.g08.bks.cpg/sg10_16_cif.got.tgz:30601.got - 2010.06.03 11:33:40.
