data_PCOD9152815
_publ_section_title
;
Structure prediction by ZEFSAII (Michael W. Deem and Ramdas Pophale) SiO2 
 PCOD9152815
Probable space group: P 2/M
;
_chemical_formula_sum "Si O2"
_cell_formula_units_Z 20
_cell_length_a 5.202932
_cell_length_b 11.104123
_cell_length_c 18.526510
_cell_angle_alpha 90.000000
_cell_angle_beta 51.170152
_cell_angle_gamma 90.000000
_cell_volume 833.815301
_symmetry_space_group_name_H-M "P 2/M"
_symmetry_group_IT_number 10
_symmetry_cell_setting 'monoclinic'
loop_
_space_group_symop_operation_xyz
x,y,z
-x,y,-z
-x,-y,-z
x,-y,z
loop_
_atom_site_type_symbol
_atom_site_label
_atom_site_fract_x
_atom_site_fract_y
_atom_site_fract_z
Si Si1 0.359253 0.370251 0.865151
Si Si2 0.106961 0.870303 0.565250
Si Si3 0.220619 0.637734 0.388813
Si Si4 0.065263 0.699060 0.765140
Si Si5 0.538436 0.865786 0.906851
O O1 0.288852 0.500000 0.911379
O O2 0.161159 0.357352 0.826137
O O3 0.326039 0.246004 0.914521
O O4 0.755416 0.368300 0.785590
O O5 0.500000 0.859960 0.500000
O O6 0.000000 0.875620 0.500000
O O7 0.934945 0.751546 0.626313
O O8 0.011189 0.000000 0.615134
O O9 0.227209 0.500000 0.360442
O O10 0.594638 0.681435 0.337055
O O11 0.000000 0.631332 0.500000
O O12 0.907806 0.829310 0.813671
O O13 0.448473 0.000000 0.897488
O O14 0.500000 0.863663 0.000000
#
# Coordination Sequence:
#
# PCOD9152815 Si02
#       5
#     4   4   4   4   4
#     4  10  21  40  65  93 130 170 210 259 317 381
#     4   9  19  36  55  78 111 149 193 247 301 356
#     4  10  21  38  63  91 123 166 214 263 311 365
#     4  10  23  40  64  92 130 169 209 264 319 375
#     4   9  22  44  69  97 129 166 211 262 320 386
#
# _framework density 23.986127
#
# number of rings (size 3 to 8) (size 9 to 14) (size 15 to 20)
#    1.200    1.200    0.000    1.800    0.000    6.400 
#    0.000    7.000    0.000    0.000    0.000    0.000 
#    0.000    0.000    0.000    0.000    0.000    0.000 
#
# Total GULP energy -111426.114745 kJ/mol
# GULP energy per Si atom -5571.305737 kJ/mol
# Density = 2.393153 g / cm^3
# Si number density = 23.986127 Si / 1000 Ang^3
#
#
#
# Elastic Constant Matrix: (Units=GPa)
#
#
# Indices 1 2 3 4 5 6 
#
# 1 88.2179 52.3016 27.0553 0.0000 -17.8137 0.0000
# 2 52.3016 257.0625 50.0896 0.0000 -2.7014 0.0000
# 3 27.0553 50.0896 132.8111 0.0000 -24.8733 0.0000
# 4 0.0000 0.0000 0.0000 58.5914 0.0000 -41.1636
# 5 -17.8137 -2.7014 -24.8733 0.0000 36.7124 0.0000
# 6 0.0000 0.0000 0.0000 -41.1636 0.0000 54.9464
#
#
#
# Elastic Compliance Matrix: (Units=1/GPa)
#
#
# Indices 1 2 3 4 5 6 
#
# 1 0.014455 -0.002732 -0.000731 0.000000 0.006318 0.000000
# 2 -0.002732 0.004740 -0.001619 0.000000 -0.002074 0.000000
# 3 -0.000731 -0.001619 0.009392 0.000000 0.005889 0.000000
# 4 0.000000 0.000000 0.000000 0.036032 0.000000 0.026994
# 5 0.006318 -0.002074 0.005889 0.000000 0.034142 0.000000
# 6 0.000000 0.000000 0.000000 0.026994 0.000000 0.038422
#
#
# Mechanical properties :
#
#
# Convention : Reuss Voigt Hill
#
# Bulk Modulus (GPa) = 54.28357 81.88719 68.08538
# Shear Modulus (GPa) = 32.57557 53.29304 42.93430
#
# Velocity S-wave (km/s) = 3.68924 4.71874 4.23539
# Velocity P-wave (km/s) = 6.38965 7.99388 7.23636
#
# Compressibility (1/GPa) = 0.01842178
#
# Stress axis : x y z
#
# Youngs Moduli (GPa) = 69.17844 210.98095 106.47123
#
# Poissons Ratio (x) = 0.57645 0.07784
# Poissons Ratio (y) = 0.18901 0.17243
# Poissons Ratio (z) = 0.05057 0.34168
#
# Static dielectric constant tensor:
#      x y z
#    x 1.921580 0.000000 0.191630 
#    y 0.000000 1.961150 0.000000 
#    z 0.191630 0.000000 2.651260 
# 
# From -- ./inp_files/87425.got.cif
#   From: 2010.05.17/outbox.cif.g08.bks.cpg/sg10_44_cif.got.tgz:87425.got - 2010.06.03 11:33:40.
