data_PCOD9152048
_publ_section_title
;
Structure prediction by ZEFSAII (Michael W. Deem and Ramdas Pophale) SiO2 
 PCOD9152048
Probable space group: P 2/M
;
_chemical_formula_sum "Si O2"
_cell_formula_units_Z 32
_cell_length_a 12.390881
_cell_length_b 8.972663
_cell_length_c 16.252848
_cell_angle_alpha 90.000000
_cell_angle_beta 89.691516
_cell_angle_gamma 90.000000
_cell_volume 1806.952440
_symmetry_space_group_name_H-M "P 2/M"
_symmetry_group_IT_number 10
_symmetry_cell_setting 'monoclinic'
loop_
_space_group_symop_operation_xyz
x,y,z
-x,y,-z
-x,-y,-z
x,-y,z
loop_
_atom_site_type_symbol
_atom_site_label
_atom_site_fract_x
_atom_site_fract_y
_atom_site_fract_z
Si Si1 0.311490 0.177385 0.132569
Si Si2 0.836840 0.178296 0.451026
Si Si3 0.328902 0.177118 0.941543
Si Si4 0.926498 0.179707 0.622607
Si Si5 0.097648 0.321656 0.199858
Si Si6 0.705785 0.677815 0.313681
Si Si7 0.519058 0.678775 0.195401
Si Si8 0.854542 0.321471 0.155825
O O1 0.195479 0.247247 0.151075
O O2 0.401816 0.249465 0.190416
O O3 0.308226 0.000000 0.144018
O O4 0.343654 0.207529 0.037719
O O5 0.850031 0.222992 0.546244
O O6 0.742024 0.248371 0.398039
O O7 0.951263 0.215329 0.406793
O O8 0.827541 0.000000 0.449401
O O9 0.413181 0.263062 0.883478
O O10 0.211306 0.232932 0.912760
O O11 0.340285 0.000000 0.927943
O O12 0.900834 0.261270 0.707004
O O13 0.920218 0.000000 0.633193
O O14 0.108211 0.500000 0.199304
O O15 0.980227 0.284496 0.162613
O O16 0.706037 0.500000 0.323571
O O17 0.591286 0.722022 0.274337
O O18 0.794758 0.713436 0.242644
O O19 0.512761 0.500000 0.192639
O O20 0.842903 0.500000 0.142516
#
# Coordination Sequence:
#
# PCOD9152048 Si02
#       8
#     4   4   4   4   4   4   4   4
#     4  11  24  39  54  76 104 138 180 221 264 315
#     4   9  17  29  50  79 109 140 173 208 255 309
#     4  10  21  36  56  80 105 134 173 222 269 312
#     4   9  18  32  49  76 111 142 173 211 253 306
#     4  11  22  36  54  76 106 144 181 215 259 315
#     4   9  17  31  51  78 109 135 169 216 260 305
#     4  10  21  37  57  80 106 136 174 221 267 310
#     4   9  19  34  51  76 108 140 175 214 261 315
#
# _framework density 17.709377
#
# number of rings (size 3 to 8) (size 9 to 14) (size 15 to 20)
#    0.000    2.250    1.250    3.375    0.000    8.000 
#    0.000    3.750    0.000    0.750    0.000    5.250 
#    0.000    0.000    0.000    0.000    0.000    0.000 
#
# Total GULP energy -178574.290292 kJ/mol
# GULP energy per Si atom -5580.446572 kJ/mol
# Density = 1.766907 g / cm^3
# Si number density = 17.709377 Si / 1000 Ang^3
#
#
#
# Elastic Constant Matrix: (Units=GPa)
#
#
# Indices 1 2 3 4 5 6 
#
# 1 72.7092 17.8270 8.0095 0.0000 24.9678 0.0000
# 2 17.8270 26.8185 17.3029 0.0000 13.0166 0.0000
# 3 8.0095 17.3029 36.4974 0.0000 24.7625 0.0000
# 4 0.0000 0.0000 0.0000 41.2968 0.0000 1.2617
# 5 24.9678 13.0166 24.7625 0.0000 28.4533 0.0000
# 6 0.0000 0.0000 0.0000 1.2617 0.0000 25.6255
#
#
#
# Elastic Compliance Matrix: (Units=1/GPa)
#
#
# Indices 1 2 3 4 5 6 
#
# 1 0.032726 -0.021060 0.038457 0.000000 -0.052552 0.000000
# 2 -0.021060 0.067678 -0.046383 0.000000 0.027885 0.000000
# 3 0.038457 -0.046383 0.120743 0.000000 -0.117608 0.000000
# 4 0.000000 0.000000 0.000000 0.024251 0.000000 -0.001194
# 5 -0.052552 0.027885 -0.117608 0.000000 0.170856 0.000000
# 6 0.000000 0.000000 0.000000 -0.001194 0.000000 0.039082
#
#
# Mechanical properties :
#
#
# Convention : Reuss Voigt Hill
#
# Bulk Modulus (GPa) = 6.12834 24.70044 15.41439
# Shear Modulus (GPa) = 8.80749 25.26749 17.03749
#
# Velocity S-wave (km/s) = 2.23252 3.78138 3.10507
# Velocity P-wave (km/s) = 3.18018 5.74831 4.64524
#
# Compressibility (1/GPa) = 0.16317642
#
# Stress axis : x y z
#
# Youngs Moduli (GPa) = 30.55630 14.77594 8.28207
#
# Poissons Ratio (x) = 0.31117 -0.31851
# Poissons Ratio (y) = 0.64350 0.38415
# Poissons Ratio (z) = -1.17511 0.68535
#
# Static dielectric constant tensor:
#      x y z
#    x 1.610180 0.000000 0.016480 
#    y 0.000000 1.586950 0.000000 
#    z 0.016480 0.000000 1.594460 
# 
# From -- ./inp_files/49809.got.cif
#   From: 2010.05.17/outbox.cif.g08.bks.cpg/sg10_25_cif.got.tgz:49809.got - 2010.06.03 11:33:40.
