data_PCOD9152298
_publ_section_title
;
Structure prediction by ZEFSAII (Michael W. Deem and Ramdas Pophale) SiO2 
 PCOD9152298
Probable space group: P 2/M
;
_chemical_formula_sum "Si O2"
_cell_formula_units_Z 28
_cell_length_a 9.259018
_cell_length_b 7.911522
_cell_length_c 29.664957
_cell_angle_alpha 90.000000
_cell_angle_beta 38.711886
_cell_angle_gamma 90.000000
_cell_volume 1359.032127
_symmetry_space_group_name_H-M "P 2/M"
_symmetry_group_IT_number 10
_symmetry_cell_setting 'monoclinic'
loop_
_space_group_symop_operation_xyz
x,y,z
-x,y,-z
-x,-y,-z
x,-y,z
loop_
_atom_site_type_symbol
_atom_site_label
_atom_site_fract_x
_atom_site_fract_y
_atom_site_fract_z
Si Si1 0.952959 0.796054 0.284817
Si Si2 0.195177 0.796575 0.856091
Si Si3 0.907998 0.703977 0.570762
Si Si4 0.761809 0.703976 0.429238
Si Si5 0.622960 0.203946 0.284816
Si Si6 0.664521 0.298055 0.999998
Si Si7 0.524361 0.203428 0.856094
O O1 0.857538 0.750517 0.357036
O O2 0.783212 0.733530 0.286716
O O3 0.214388 0.733309 0.214158
O O4 0.958757 0.000000 0.280415
O O5 0.285177 0.733306 0.785842
O O6 0.353623 0.732343 0.858551
O O7 0.927822 0.756488 0.928710
O O8 0.216747 0.000000 0.850332
O O9 0.922855 0.500000 0.566749
O O10 0.642715 0.750522 0.642964
O O11 0.000000 0.765617 0.500000
O O12 0.069060 0.766243 0.572376
O O13 0.500000 0.765618 0.500000
O O14 0.756597 0.500000 0.433253
O O15 0.639178 0.000000 0.280413
O O16 0.658147 0.500000 0.999992
O O17 0.500000 0.231423 0.000000
O O18 0.571378 0.243530 0.071288
O O19 0.531577 0.000000 0.850342
#
# Coordination Sequence:
#
# PCOD9152298 Si02
#       7
#     4   4   4   4   4   4   4
#     4  10  21  37  58  84 112 144 183 226 273 325
#     4  10  21  38  60  84 110 143 183 226 274 327
#     4  10  21  37  57  81 110 146 186 227 274 327
#     4  10  21  37  57  81 110 146 186 227 274 327
#     4  10  21  37  58  84 112 144 183 226 273 325
#     4  11  24  39  56  82 114 147 184 225 270 322
#     4  10  21  38  60  84 110 143 183 226 274 327
#
# _framework density 20.602896999999999
#
# number of rings (size 3 to 8) (size 9 to 14) (size 15 to 20)
#    0.000    1.857    0.000    3.429    0.000    9.714 
#    0.000    0.000    0.000    0.000    0.000    0.000 
#    0.000    0.000    0.000    0.000    0.000    0.000 
#
# Total GULP energy -156530.715472 kJ/mol
# GULP energy per Si atom -5590.382695 kJ/mol
# Density = 2.055600 g / cm^3
# Si number density = 20.602897 Si / 1000 Ang^3
#
#
#
# Elastic Constant Matrix: (Units=GPa)
#
#
# Indices 1 2 3 4 5 6 
#
# 1 266.3993 13.0850 156.0101 0.0000 0.5380 0.0000
# 2 13.0850 18.1970 0.6832 0.0000 0.6327 0.0000
# 3 156.0101 0.6832 244.7301 0.0000 0.5538 0.0000
# 4 0.0000 0.0000 0.0000 40.9863 0.0000 -0.8981
# 5 0.5380 0.6327 0.5538 0.0000 49.8767 0.0000
# 6 0.0000 0.0000 0.0000 -0.8981 0.0000 23.5485
#
#
#
# Elastic Compliance Matrix: (Units=1/GPa)
#
#
# Indices 1 2 3 4 5 6 
#
# 1 0.006323 -0.004397 -0.004019 0.000000 0.000032 0.000000
# 2 -0.004397 0.058042 0.002643 0.000000 -0.000718 0.000000
# 3 -0.004019 0.002643 0.006641 0.000000 -0.000064 0.000000
# 4 0.000000 0.000000 0.000000 0.024419 0.000000 0.000931
# 5 0.000032 -0.000718 -0.000064 0.000000 0.020059 0.000000
# 6 0.000000 0.000000 0.000000 0.000931 0.000000 0.042501
#
#
# Mechanical properties :
#
#
# Convention : Reuss Voigt Hill
#
# Bulk Modulus (GPa) = 16.81824 96.54256 56.68040
# Shear Modulus (GPa) = 26.40612 46.85215 36.62914
#
# Velocity S-wave (km/s) = 3.58393 4.77388 4.22105
# Velocity P-wave (km/s) = 5.03059 8.79472 7.16428
#
# Compressibility (1/GPa) = 0.05945927
#
# Stress axis : x y z
#
# Youngs Moduli (GPa) = 158.15084 17.22903 150.58689
#
# Poissons Ratio (x) = 0.07576 0.60515
# Poissons Ratio (y) = 0.69539 -0.39794
# Poissons Ratio (z) = 0.63555 -0.04553
#
# Static dielectric constant tensor:
#      x y z
#    x 1.726520 0.000000 0.002710 
#    y 0.000000 1.754190 0.000000 
#    z 0.002710 0.000000 1.673860 
# 
# From -- ./inp_files/37001.got.cif
#   From: 2010.05.17/outbox.cif.g08.bks.cpg/sg10_19_cif.got.tgz:37001.got - 2010.06.03 11:33:40.
