data_PCOD9152706
_publ_section_title
;
Structure prediction by ZEFSAII (Michael W. Deem and Ramdas Pophale) SiO2 
 PCOD9152706
Probable space group: P 2/M
;
_chemical_formula_sum "Si O2"
_cell_formula_units_Z 18
_cell_length_a 9.522198
_cell_length_b 21.531191
_cell_length_c 8.243852
_cell_angle_alpha 90.000000
_cell_angle_beta 32.203748
_cell_angle_gamma 90.000000
_cell_volume 900.755543
_symmetry_space_group_name_H-M "P 2/M"
_symmetry_group_IT_number 10
_symmetry_cell_setting 'monoclinic'
loop_
_space_group_symop_operation_xyz
x,y,z
-x,y,-z
-x,-y,-z
x,-y,z
loop_
_atom_site_type_symbol
_atom_site_label
_atom_site_fract_x
_atom_site_fract_y
_atom_site_fract_z
Si Si1 0.263394 0.105312 0.850422
Si Si2 0.246177 0.570382 0.637932
Si Si3 0.609904 0.247877 0.213583
Si Si4 0.242401 0.000000 0.140364
Si Si5 0.114178 0.310556 0.567947
O O1 0.500000 0.085216 0.500000
O O2 0.327627 0.174815 0.847829
O O3 0.000000 0.106621 0.000000
O O4 0.236301 0.059189 0.027192
O O5 0.500000 0.583617 0.500000
O O6 0.271513 0.500000 0.547684
O O7 0.204782 0.622414 0.543801
O O8 0.000000 0.571853 0.000000
O O9 0.500000 0.263370 0.500000
O O10 0.369962 0.266558 0.330883
O O11 0.876845 0.284299 0.911167
O O12 0.000000 0.000000 0.500000
O O13 0.500000 0.000000 0.000000
O O14 0.000000 0.313518 0.500000
#
# Coordination Sequence:
#
# PCOD9152706 Si02
#       5
#     4   4   4   2   4
#     4  11  23  43  67  90 119 163 211 250 293 356
#     4  10  21  38  61  85 114 158 207 249 292 354
#     4  11  23  41  64  89 118 161 208 249 294 357
#     4  12  26  42  64  96 130 162 196 250 312 360
#     4  12  24  38  60  92 127 158 193 251 314 362
#
# _framework density 19.983224
#
# number of rings (size 3 to 8) (size 9 to 14) (size 15 to 20)
#    0.000    0.889    0.000    9.333    0.000    3.111 
#    0.000    0.000    0.000    6.667    0.000    0.000 
#    0.000    0.000    0.000    0.000    0.000    0.000 
#
# Total GULP energy -100757.722642 kJ/mol
# GULP energy per Si atom -5597.651258 kJ/mol
# Density = 1.993774 g / cm^3
# Si number density = 19.983224 Si / 1000 Ang^3
#
#
#
# Elastic Constant Matrix: (Units=GPa)
#
#
# Indices 1 2 3 4 5 6 
#
# 1 171.8215 105.1533 66.9643 0.0000 -27.3107 0.0000
# 2 105.1533 163.2196 69.7089 0.0000 -0.2993 0.0000
# 3 66.9643 69.7089 149.7798 0.0000 -21.9860 0.0000
# 4 0.0000 0.0000 0.0000 -2.2443 0.0000 -1.5495
# 5 -27.3107 -0.2993 -21.9860 0.0000 45.1146 0.0000
# 6 0.0000 0.0000 0.0000 -1.5495 0.0000 -6.0985
#
#
#
# Elastic Compliance Matrix: (Units=1/GPa)
#
#
# Indices 1 2 3 4 5 6 
#
# 1 0.011488 -0.006989 -0.000936 0.000000 0.006452 0.000000
# 2 -0.006989 0.012039 -0.003326 0.000000 -0.005772 0.000000
# 3 -0.000936 -0.003326 0.009216 0.000000 0.003902 0.000000
# 4 0.000000 0.000000 0.000000 -0.540361 0.000000 0.137294
# 5 0.006452 -0.005772 0.003902 0.000000 0.027935 0.000000
# 6 0.000000 0.000000 0.000000 0.137294 0.000000 -0.198859
#
#
# Mechanical properties :
#
#
# Convention : Reuss Voigt Hill
#
# Bulk Modulus (GPa) = 97.65075 107.60821 102.62948
# Shear Modulus (GPa) = -7.66133 23.55400 7.94634
#
# Velocity S-wave (km/s) = -1.96015 3.43693 1.99628
# Velocity P-wave (km/s) = 6.62190 8.34962 7.53544
#
# Compressibility (1/GPa) = 0.01024058
#
# Stress axis : x y z
#
# Youngs Moduli (GPa) = 87.05022 83.06180 108.51198
#
# Poissons Ratio (x) = 0.58054 0.10158
# Poissons Ratio (y) = 0.60841 0.36087
# Poissons Ratio (z) = 0.08149 0.27623
#
# Static dielectric constant tensor:
#      x y z
#    x 1.675940 0.000000 -0.006200 
#    y 0.000000 1.711040 0.000000 
#    z -0.006200 0.000000 1.688590 
# 
# From -- ./inp_files/20029.got.cif
#   From: 2010.05.17/outbox.cif.g08.bks.cpg/sg10_11_cif.got.tgz:20029.got - 2010.06.03 11:33:40.
