data_PCOD9152331
_publ_section_title
;
Structure prediction by ZEFSAII (Michael W. Deem and Ramdas Pophale) SiO2 
 PCOD9152331
Probable space group: P 2/M
;
_chemical_formula_sum "Si O2"
_cell_formula_units_Z 26
_cell_length_a 30.643691
_cell_length_b 7.369694
_cell_length_c 12.307939
_cell_angle_alpha 90.000000
_cell_angle_beta 21.587156
_cell_angle_gamma 90.000000
_cell_volume 1022.644475
_symmetry_space_group_name_H-M "P 2/M"
_symmetry_group_IT_number 10
_symmetry_cell_setting 'monoclinic'
loop_
_space_group_symop_operation_xyz
x,y,z
-x,y,-z
-x,-y,-z
x,-y,z
loop_
_atom_site_type_symbol
_atom_site_label
_atom_site_fract_x
_atom_site_fract_y
_atom_site_fract_z
Si Si1 0.002738 0.718489 0.164396
Si Si2 0.685089 0.215524 0.046356
Si Si3 0.934394 0.208226 0.548703
Si Si4 0.192130 0.282082 0.542146
Si Si5 0.634294 0.793604 0.690426
Si Si6 0.510727 0.216259 0.657378
Si Si7 0.635313 0.500000 0.531569
O O1 0.001662 0.500000 0.169293
O O2 0.017187 0.789271 0.251611
O O3 0.874989 0.779611 0.410752
O O4 0.101355 0.773092 0.849261
O O5 0.598926 0.235089 0.349434
O O6 0.616003 0.280895 0.098834
O O7 0.698734 0.000000 0.996435
O O8 0.811294 0.292617 0.791987
O O9 0.000000 0.291411 0.500000
O O10 0.905636 0.000000 0.646035
O O11 0.197934 0.500000 0.525102
O O12 0.315862 0.213911 0.302599
O O13 0.699402 0.657765 0.459566
O O14 0.634081 0.000000 0.654218
O O15 0.500000 0.718179 0.000000
O O16 0.566974 0.340587 0.619100
O O17 0.506261 0.000000 0.694484
#
# Coordination Sequence:
#
# PCOD9152331 Si02
#       7
#     4   4   4   4   4   4   2
#     4   9  20  39  64  93 122 162 209 265 317 365
#     4   8  17  37  58  82 122 166 211 261 307 367
#     4  10  21  37  57  87 128 167 206 256 314 378
#     4   9  19  41  67  90 125 162 210 267 315 370
#     4  11  25  43  62  90 129 166 199 251 322 385
#     4   9  19  38  62  86 119 164 212 262 311 363
#     4  12  23  37  60  93 126 157 207 256 311 381
#
# _framework density 25.424282000000002
#
# number of rings (size 3 to 8) (size 9 to 14) (size 15 to 20)
#    0.000    2.462    0.769    2.538    0.000    5.231 
#    5.538    6.154    0.000    0.000    0.000    0.000 
#    0.000    0.000    0.000    0.000    0.000    0.000 
#
# Total GULP energy -144924.235606 kJ/mol
# GULP energy per Si atom -5574.009062 kJ/mol
# Density = 2.536642 g / cm^3
# Si number density = 25.424282 Si / 1000 Ang^3
#
#
#
# Elastic Constant Matrix: (Units=GPa)
#
#
# Indices 1 2 3 4 5 6 
#
# 1 200.3627 28.3219 19.8984 0.0000 -10.1016 0.0000
# 2 28.3219 132.5451 -2.1229 0.0000 0.3659 0.0000
# 3 19.8984 -2.1229 55.8419 0.0000 -8.2915 0.0000
# 4 0.0000 0.0000 0.0000 -3.0888 0.0000 -6.3690
# 5 -10.1016 0.3659 -8.2915 0.0000 30.2424 0.0000
# 6 0.0000 0.0000 0.0000 -6.3690 0.0000 6.5496
#
#
#
# Elastic Compliance Matrix: (Units=1/GPa)
#
#
# Indices 1 2 3 4 5 6 
#
# 1 0.005402 -0.001186 -0.001772 0.000000 0.001333 0.000000
# 2 -0.001186 0.007810 0.000674 0.000000 -0.000306 0.000000
# 3 -0.001772 0.000674 0.019260 0.000000 0.004680 0.000000
# 4 0.000000 0.000000 0.000000 -0.107734 0.000000 -0.104763
# 5 0.001333 -0.000306 0.004680 0.000000 0.034798 0.000000
# 6 0.000000 0.000000 0.000000 -0.104763 0.000000 0.050808
#
#
# Mechanical properties :
#
#
# Convention : Reuss Voigt Hill
#
# Bulk Modulus (GPa) = 35.83850 53.43826 44.63838
# Shear Modulus (GPa) = 206.50815 29.58413 118.04614
#
# Velocity S-wave (km/s) = 9.02226 3.41488 6.82138
# Velocity P-wave (km/s) = 11.07527 6.05085 8.92397
#
# Compressibility (1/GPa) = 0.02790296
#
# Stress axis : x y z
#
# Youngs Moduli (GPa) = 185.12277 128.04542 51.92182
#
# Poissons Ratio (x) = 0.15190 0.09201
# Poissons Ratio (y) = 0.21961 -0.03501
# Poissons Ratio (z) = 0.32805 -0.08633
#
# Static dielectric constant tensor:
#      x y z
#    x 2.037830 0.000000 -0.009310 
#    y 0.000000 1.940300 0.000000 
#    z -0.009310 0.000000 2.132590 
# 
# From -- ./inp_files/57396.got.cif
#   From: 2010.05.17/outbox.cif.g08.bks.cpg/sg10_29_cif.got.tgz:57396.got - 2010.06.03 11:33:40.
