data_PCOD9152523
_publ_section_title
;
Structure prediction by ZEFSAII (Michael W. Deem and Ramdas Pophale) SiO2 
 PCOD9152523
Probable space group: P 2/M
;
_chemical_formula_sum "Si O2"
_cell_formula_units_Z 26
_cell_length_a 13.722777
_cell_length_b 15.626390
_cell_length_c 6.019456
_cell_angle_alpha 90.000000
_cell_angle_beta 70.111630
_cell_angle_gamma 90.000000
_cell_volume 1213.810145
_symmetry_space_group_name_H-M "P 2/M"
_symmetry_group_IT_number 10
_symmetry_cell_setting 'monoclinic'
loop_
_space_group_symop_operation_xyz
x,y,z
-x,y,-z
-x,-y,-z
x,-y,z
loop_
_atom_site_type_symbol
_atom_site_label
_atom_site_fract_x
_atom_site_fract_y
_atom_site_fract_z
Si Si1 0.309737 0.403882 0.863133
Si Si2 0.221076 0.148027 0.081062
Si Si3 0.408939 0.095113 0.249800
Si Si4 0.650968 0.764345 0.397508
Si Si5 0.054533 0.000000 0.204510
Si Si6 0.793040 0.683209 0.668746
Si Si7 0.088339 0.597773 0.776623
O O1 0.353766 0.500000 0.803238
O O2 0.375451 0.321595 0.724368
O O3 0.198731 0.402947 0.820654
O O4 0.276921 0.384013 0.141620
O O5 0.302606 0.111004 0.197255
O O6 0.128192 0.082652 0.136196
O O7 0.179375 0.240132 0.189561
O O8 0.285845 0.170653 0.809926
O O9 0.423756 0.174565 0.403017
O O10 0.406084 0.000000 0.356702
O O11 0.500000 0.096245 0.000000
O O12 0.724848 0.725754 0.529533
O O13 0.000000 0.000000 0.500000
O O14 0.000000 0.000000 0.000000
O O15 0.889446 0.641862 0.472878
O O16 0.057655 0.500000 0.757530
O O17 0.000000 0.637501 0.000000
#
# Coordination Sequence:
#
# PCOD9152523 Si02
#       7
#     4   4   4   4   2   4   4
#     4   9  17  32  53  79 108 154 205 250 317 383
#     4  10  22  42  61  87 128 163 214 273 314 387
#     4  10  21  37  66  98 126 160 204 261 342 403
#     4   9  20  36  59  85 124 159 202 260 322 389
#     4  12  30  48  69  95 127 187 236 274 326 385
#     4   9  18  34  52  77 109 157 201 255 322 369
#     4   9  17  29  45  72 108 146 194 255 318 377
#
# _framework density 21.420152000000002
#
# number of rings (size 3 to 8) (size 9 to 14) (size 15 to 20)
#    0.000    2.462    0.769    0.462    5.385    1.846 
#    8.308    3.846    0.000    0.462    0.000    9.692 
#    0.000    0.000    0.000    0.000    0.000    0.000 
#
# Total GULP energy -144926.049225 kJ/mol
# GULP energy per Si atom -5574.078816 kJ/mol
# Density = 2.137140 g / cm^3
# Si number density = 21.420152 Si / 1000 Ang^3
#
#
#
# Elastic Constant Matrix: (Units=GPa)
#
#
# Indices 1 2 3 4 5 6 
#
# 1 59.8826 10.9110 -0.3991 0.0000 13.0829 0.0000
# 2 10.9110 138.9922 49.8899 0.0000 -13.6033 0.0000
# 3 -0.3991 49.8899 88.7567 0.0000 -3.7192 0.0000
# 4 0.0000 0.0000 0.0000 27.4583 0.0000 -20.2649
# 5 13.0829 -13.6033 -3.7192 0.0000 22.0000 0.0000
# 6 0.0000 0.0000 0.0000 -20.2649 0.0000 -10.0135
#
#
#
# Elastic Compliance Matrix: (Units=1/GPa)
#
#
# Indices 1 2 3 4 5 6 
#
# 1 0.020421 -0.003509 0.001475 0.000000 -0.014064 0.000000
# 2 -0.003509 0.010138 -0.005402 0.000000 0.007442 0.000000
# 3 0.001475 -0.005402 0.014234 0.000000 -0.001811 0.000000
# 4 0.000000 0.000000 0.000000 0.014605 0.000000 -0.029557
# 5 -0.014064 0.007442 -0.001811 0.000000 0.058114 0.000000
# 6 0.000000 0.000000 0.000000 -0.029557 0.000000 -0.040049
#
#
# Mechanical properties :
#
#
# Convention : Reuss Voigt Hill
#
# Bulk Modulus (GPa) = 33.42225 45.38169 39.40197
# Shear Modulus (GPa) = 48.87160 23.03761 35.95460
#
# Velocity S-wave (km/s) = 4.78176 3.28306 4.10144
# Velocity P-wave (km/s) = 6.79147 5.96689 6.39249
#
# Compressibility (1/GPa) = 0.02992019
#
# Stress axis : x y z
#
# Youngs Moduli (GPa) = 48.96853 98.64350 70.25401
#
# Poissons Ratio (x) = 0.34614 -0.10361
# Poissons Ratio (y) = 0.17183 0.37953
# Poissons Ratio (z) = -0.07222 0.53289
#
# Static dielectric constant tensor:
#      x y z
#    x 1.781140 0.000000 -0.002690 
#    y 0.000000 1.807940 0.000000 
#    z -0.002690 0.000000 1.835970 
# 
# From -- ./inp_files/9587.got.cif
#   From: 2010.05.17/outbox.cif.g08.bks.cpg/sg10_5_cif.got.tgz:9587.got - 2010.06.03 11:33:40.
