data_PCOD9152362
_publ_section_title
;
Structure prediction by ZEFSAII (Michael W. Deem and Ramdas Pophale) SiO2 
 PCOD9152362
Probable space group: P 2/M
;
_chemical_formula_sum "Si O2"
_cell_formula_units_Z 19
_cell_length_a 20.872724
_cell_length_b 7.924242
_cell_length_c 5.131004
_cell_angle_alpha 90.000000
_cell_angle_beta 105.501616
_cell_angle_gamma 90.000000
_cell_volume 817.798544
_symmetry_space_group_name_H-M "P 2/M"
_symmetry_group_IT_number 10
_symmetry_cell_setting 'monoclinic'
loop_
_space_group_symop_operation_xyz
x,y,z
-x,y,-z
-x,-y,-z
x,-y,z
loop_
_atom_site_type_symbol
_atom_site_label
_atom_site_fract_x
_atom_site_fract_y
_atom_site_fract_z
Si Si1 0.547249 0.500000 0.799337
Si Si2 0.960516 0.203349 0.206609
Si Si3 0.190722 0.297860 0.868395
Si Si4 0.500000 0.000000 0.000000
Si Si5 0.397585 0.190660 0.888562
Si Si6 0.731945 0.295049 0.550628
O O1 0.500000 0.500000 0.500000
O O2 0.595462 0.338556 0.896904
O O3 0.500000 0.500000 0.000000
O O4 0.000000 0.267185 0.500000
O O5 0.964539 0.000000 0.209466
O O6 0.883231 0.246829 0.135229
O O7 0.000000 0.268220 0.000000
O O8 0.193725 0.500000 0.881257
O O9 0.244150 0.236063 0.140081
O O10 0.211156 0.248578 0.598983
O O11 0.537045 0.844870 0.212139
O O12 0.405274 0.000000 0.023674
O O13 0.334419 0.217154 0.641586
O O14 0.724281 0.500000 0.544187
#
# Coordination Sequence:
#
# PCOD9152362 Si02
#       6
#     2   4   4   1   4   4
#     4  12  24  42  66  90 124 164 200 262 324 372
#     4  10  21  37  58  85 120 161 203 250 305 367
#     4  10  22  38  60  90 122 158 207 256 306 373
#     4   8  20  42  66  96 128 156 222 262 306 396
#     4  10  21  42  66  94 126 166 213 261 322 383
#     4  10  21  39  60  87 123 162 203 256 317 376
#
# _framework density 23.233104999999998
#
# number of rings (size 3 to 8) (size 9 to 14) (size 15 to 20)
#    0.632    1.263    2.105    1.263    0.000    4.632 
#    0.000    2.105    0.000    0.000    0.000    0.000 
#    0.000    0.000    0.000    0.000    0.000    0.000 
#
# Total GULP energy -105826.611461 kJ/mol
# GULP energy per Si atom -5569.821656 kJ/mol
# Density = 2.318023 g / cm^3
# Si number density = 23.233105 Si / 1000 Ang^3
#
#
#
# Elastic Constant Matrix: (Units=GPa)
#
#
# Indices 1 2 3 4 5 6 
#
# 1 50.1849 -7.4686 7.5377 0.0000 11.5780 0.0000
# 2 -7.4686 80.9993 25.7380 0.0000 1.2181 0.0000
# 3 7.5377 25.7380 121.5225 0.0000 8.0728 0.0000
# 4 0.0000 0.0000 0.0000 7.5457 0.0000 27.1266
# 5 11.5780 1.2181 8.0728 0.0000 43.5851 0.0000
# 6 0.0000 0.0000 0.0000 27.1266 0.0000 24.6662
#
#
#
# Elastic Compliance Matrix: (Units=1/GPa)
#
#
# Indices 1 2 3 4 5 6 
#
# 1 0.021830 0.002583 -0.001530 0.000000 -0.005588 0.000000
# 2 0.002583 0.013543 -0.002995 0.000000 -0.000510 0.000000
# 3 -0.001530 -0.002995 0.009037 0.000000 -0.001184 0.000000
# 4 0.000000 0.000000 0.000000 -0.044870 0.000000 0.049345
# 5 -0.005588 -0.000510 -0.001184 0.000000 0.024661 0.000000
# 6 0.000000 0.000000 0.000000 0.049345 0.000000 -0.013726
#
#
# Mechanical properties :
#
#
# Convention : Reuss Voigt Hill
#
# Bulk Modulus (GPa) = 24.67538 33.81343 29.24440
# Shear Modulus (GPa) = 179.42329 30.28603 104.85466
#
# Velocity S-wave (km/s) = 8.79745 3.61442 6.72529
# Velocity P-wave (km/s) = 10.66946 5.65723 8.53937
#
# Compressibility (1/GPa) = 0.04052623
#
# Stress axis : x y z
#
# Youngs Moduli (GPa) = 45.80935 73.83763 110.65942
#
# Poissons Ratio (x) = -0.19072 0.16930
# Poissons Ratio (y) = -0.11833 0.33140
# Poissons Ratio (z) = 0.07008 0.22112
#
# Static dielectric constant tensor:
#      x y z
#    x 4.229760 0.000000 -0.400090 
#    y 0.000000 1.961120 0.000000 
#    z -0.400090 0.000000 1.979950 
# 
# From -- ./inp_files/13034.got.cif
#   From: 2010.05.17/outbox.cif.g08.bks.cpg/sg10_7_cif.got.tgz:13034.got - 2010.06.03 11:33:40.
