data_PCOD9152689
_publ_section_title
;
Structure prediction by ZEFSAII (Michael W. Deem and Ramdas Pophale) SiO2 
 PCOD9152689
Probable space group: P 2/M
;
_chemical_formula_sum "Si O2"
_cell_formula_units_Z 20
_cell_length_a 13.175691
_cell_length_b 10.052751
_cell_length_c 18.676792
_cell_angle_alpha 90.000000
_cell_angle_beta 23.237402
_cell_angle_gamma 90.000000
_cell_volume 976.008633
_symmetry_space_group_name_H-M "P 2/M"
_symmetry_group_IT_number 10
_symmetry_cell_setting 'monoclinic'
loop_
_space_group_symop_operation_xyz
x,y,z
-x,y,-z
-x,-y,-z
x,-y,z
loop_
_atom_site_type_symbol
_atom_site_label
_atom_site_fract_x
_atom_site_fract_y
_atom_site_fract_z
Si Si1 0.129797 0.347950 0.028532
Si Si2 0.644699 0.713287 0.971498
Si Si3 0.433254 0.155623 0.316165
Si Si4 0.861186 0.155429 0.698574
Si Si5 0.338412 0.850974 0.677208
O O1 0.122700 0.500000 0.006840
O O2 0.188321 0.351494 0.075898
O O3 0.356714 0.258210 0.848622
O O4 0.871623 0.264842 0.181973
O O5 0.396250 0.783363 0.168494
O O6 0.500000 0.636748 0.000000
O O7 0.814501 0.814367 0.813597
O O8 0.478461 0.153468 0.372606
O O9 0.140230 0.202488 0.493183
O O10 0.465272 0.000000 0.271546
O O11 0.857634 0.000000 0.688952
O O12 0.500000 0.837483 0.500000
O O13 0.215359 0.000000 0.756873
#
# Coordination Sequence:
#
# PCOD9152689 Si02
#       5
#     4   4   4   4   4
#     4  12  25  39  57  85 122 161 196 236 288 344
#     4   8  19  37  58  83 114 151 197 244 287 340
#     4  10  21  38  60  89 121 152 190 239 297 349
#     4   8  16  34  61  88 114 146 193 246 292 342
#     4  10  22  41  67  91 114 147 192 244 295 349
#
# _framework density 20.491623000000001
#
# number of rings (size 3 to 8) (size 9 to 14) (size 15 to 20)
#    1.200    1.000    0.000    3.600    0.000    9.600 
#    0.000    7.000    0.000    0.000    0.000    0.000 
#    0.000    0.000    0.000    0.000    0.000    0.000 
#
# Total GULP energy -111358.643552 kJ/mol
# GULP energy per Si atom -5567.932178 kJ/mol
# Density = 2.044498 g / cm^3
# Si number density = 20.491623 Si / 1000 Ang^3
#
#
#
# Elastic Constant Matrix: (Units=GPa)
#
#
# Indices 1 2 3 4 5 6 
#
# 1 57.7977 3.5406 -4.8912 0.0000 2.5977 0.0000
# 2 3.5406 105.1550 51.1617 0.0000 -11.2859 0.0000
# 3 -4.8912 51.1617 101.4828 0.0000 -13.9047 0.0000
# 4 0.0000 0.0000 0.0000 -16.7245 0.0000 -11.1609
# 5 2.5977 -11.2859 -13.9047 0.0000 25.3950 0.0000
# 6 0.0000 0.0000 0.0000 -11.1609 0.0000 10.9414
#
#
#
# Elastic Compliance Matrix: (Units=1/GPa)
#
#
# Indices 1 2 3 4 5 6 
#
# 1 0.017578 -0.001422 0.001331 0.000000 -0.001701 0.000000
# 2 -0.001422 0.012840 -0.006206 0.000000 0.002454 0.000000
# 3 0.001331 -0.006206 0.013676 0.000000 0.004594 0.000000
# 4 0.000000 0.000000 0.000000 -0.035575 0.000000 -0.036289
# 5 -0.001701 0.002454 0.004594 0.000000 0.043158 0.000000
# 6 0.000000 0.000000 0.000000 -0.036289 0.000000 0.054379
#
#
# Mechanical properties :
#
#
# Convention : Reuss Voigt Hill
#
# Bulk Modulus (GPa) = 31.74503 40.45084 36.09793
# Shear Modulus (GPa) = 38.71483 18.23066 28.47274
#
# Velocity S-wave (km/s) = 4.35132 2.98596 3.73162
# Velocity P-wave (km/s) = 6.38519 5.62770 6.01837
#
# Compressibility (1/GPa) = 0.03150099
#
# Stress axis : x y z
#
# Youngs Moduli (GPa) = 56.88950 77.87982 73.12072
#
# Poissons Ratio (x) = 0.11075 -0.09733
# Poissons Ratio (y) = 0.08090 0.45376
# Poissons Ratio (z) = -0.07572 0.48329
#
# Static dielectric constant tensor:
#      x y z
#    x 1.788080 0.000000 0.017830 
#    y 0.000000 1.721520 0.000000 
#    z 0.017830 0.000000 1.734700 
# 
# From -- ./inp_files/60068.got.cif
#   From: 2010.05.17/outbox.cif.g08.bks.cpg/sg10_31_cif.got.tgz:60068.got - 2010.06.03 11:33:40.
