data_PCOD9152022
_publ_section_title
;
Structure prediction by ZEFSAII (Michael W. Deem and Ramdas Pophale) SiO2 
 PCOD9152022
Probable space group: P 2/M
;
_chemical_formula_sum "Si O2"
_cell_formula_units_Z 28
_cell_length_a 10.931289
_cell_length_b 17.718156
_cell_length_c 19.292424
_cell_angle_alpha 90.000000
_cell_angle_beta 22.315529
_cell_angle_gamma 90.000000
_cell_volume 1418.813110
_symmetry_space_group_name_H-M "P 2/M"
_symmetry_group_IT_number 10
_symmetry_cell_setting 'monoclinic'
loop_
_space_group_symop_operation_xyz
x,y,z
-x,y,-z
-x,-y,-z
x,-y,z
loop_
_atom_site_type_symbol
_atom_site_label
_atom_site_fract_x
_atom_site_fract_y
_atom_site_fract_z
Si Si1 0.292068 0.230028 0.891132
Si Si2 0.173291 0.766122 0.579699
Si Si3 0.754176 0.086463 0.804784
Si Si4 0.676338 0.587095 0.980085
Si Si5 0.088017 0.271141 0.783236
Si Si6 0.623313 0.916764 0.714237
Si Si7 0.184604 0.655518 0.340630
O O1 0.404196 0.150434 0.802098
O O2 0.591362 0.284955 0.736282
O O3 0.000000 0.262167 0.000000
O O4 0.165105 0.226650 0.036517
O O5 0.556838 0.751495 0.376813
O O6 0.070297 0.746997 0.711904
O O7 0.036129 0.851481 0.645729
O O8 0.013046 0.708408 0.609370
O O9 0.590056 0.083989 0.815043
O O10 0.870585 0.000000 0.757421
O O11 0.500000 0.105249 0.000000
O O12 0.773102 0.500000 0.924064
O O13 0.406335 0.600589 0.179824
O O14 0.500000 0.608874 0.000000
O O15 0.972014 0.641693 0.845776
O O16 0.000000 0.903235 0.500000
O O17 0.541194 0.000000 0.730579
O O18 0.000000 0.615716 0.500000
#
# Coordination Sequence:
#
# PCOD9152022 Si02
#       7
#     4   4   4   4   4   4   4
#     4  11  22  35  57  85 121 155 204 256 302 358
#     4  11  21  38  62  89 124 159 208 253 301 357
#     4  10  21  36  60  88 119 160 209 256 307 360
#     4  10  21  41  66  92 125 162 200 244 303 371
#     4  10  23  38  59  93 119 157 201 254 296 361
#     4  10  21  36  55  80 113 158 202 250 309 359
#     4  11  22  37  64  91 123 161 204 252 302 362
#
# _framework density 19.734805000000001
#
# number of rings (size 3 to 8) (size 9 to 14) (size 15 to 20)
#    0.000    1.571    2.857    2.143    4.000    0.571 
#    0.000    4.286    0.000   14.571    0.000    0.000 
#    0.000    0.000    0.000    0.000    0.000    0.000 
#
# Total GULP energy -156144.042031 kJ/mol
# GULP energy per Si atom -5576.572930 kJ/mol
# Density = 1.968989 g / cm^3
# Si number density = 19.734805 Si / 1000 Ang^3
#
#
#
# Elastic Constant Matrix: (Units=GPa)
#
#
# Indices 1 2 3 4 5 6 
#
# 1 51.3487 -2.3020 0.1107 0.0000 -2.9529 0.0000
# 2 -2.3020 80.9823 21.3148 0.0000 -22.0930 0.0000
# 3 0.1107 21.3148 45.6429 0.0000 10.4402 0.0000
# 4 0.0000 0.0000 0.0000 10.8953 0.0000 -7.1998
# 5 -2.9529 -22.0930 10.4402 0.0000 36.9557 0.0000
# 6 0.0000 0.0000 0.0000 -7.1998 0.0000 4.8212
#
#
#
# Elastic Compliance Matrix: (Units=1/GPa)
#
#
# Indices 1 2 3 4 5 6 
#
# 1 0.019742 0.001847 -0.001629 0.000000 0.003142 0.000000
# 2 0.001847 0.020177 -0.013064 0.000000 0.015901 0.000000
# 3 -0.001629 -0.013064 0.031891 0.000000 -0.016950 0.000000
# 4 0.000000 0.000000 0.000000 6.979698 0.000000 10.423293
# 5 0.003142 0.015901 -0.016950 0.000000 0.041605 0.000000
# 6 0.000000 0.000000 0.000000 10.423293 0.000000 15.773283
#
#
# Mechanical properties :
#
#
# Convention : Reuss Voigt Hill
#
# Bulk Modulus (GPa) = 21.68369 24.02456 22.85413
# Shear Modulus (GPa) = 0.21827 21.12448 10.67137
#
# Velocity S-wave (km/s) = 0.33293 3.27527 2.32790
# Velocity P-wave (km/s) = 3.34054 5.14814 4.33950
#
# Compressibility (1/GPa) = 0.04611761
#
# Stress axis : x y z
#
# Youngs Moduli (GPa) = 50.65426 49.56055 31.35678
#
# Poissons Ratio (x) = -0.09154 0.05108
# Poissons Ratio (y) = -0.09356 0.40965
# Poissons Ratio (z) = 0.08252 0.64747
#
# Static dielectric constant tensor:
#      x y z
#    x 1.706460 0.000000 0.026480 
#    y 0.000000 1.699700 0.000000 
#    z 0.026480 0.000000 1.722900 
# 
# From -- ./inp_files/84201.got.cif
#   From: 2010.05.17/outbox.cif.g08.bks.cpg/sg10_43_cif.got.tgz:84201.got - 2010.06.03 11:33:40.
