data_PCOD9152853
_publ_section_title
;
Structure prediction by ZEFSAII (Michael W. Deem and Ramdas Pophale) SiO2 
 PCOD9152853
Probable space group: P 2/M
;
_chemical_formula_sum "Si O2"
_cell_formula_units_Z 26
_cell_length_a 12.278798
_cell_length_b 19.376692
_cell_length_c 8.931622
_cell_angle_alpha 90.000000
_cell_angle_beta 144.444622
_cell_angle_gamma 90.000000
_cell_volume 1235.684901
_symmetry_space_group_name_H-M "P 2/M"
_symmetry_group_IT_number 10
_symmetry_cell_setting 'monoclinic'
loop_
_space_group_symop_operation_xyz
x,y,z
-x,y,-z
-x,-y,-z
x,-y,z
loop_
_atom_site_type_symbol
_atom_site_label
_atom_site_fract_x
_atom_site_fract_y
_atom_site_fract_z
Si Si1 0.247032 0.704971 0.154869
Si Si2 0.000000 0.818001 0.000000
Si Si3 0.312877 0.919544 0.858068
Si Si4 0.981750 0.080223 0.245162
Si Si5 0.422472 0.643769 0.627148
Si Si6 0.954112 0.500000 0.772612
Si Si7 0.947853 0.357233 0.614470
Si Si8 0.482194 0.500000 0.798701
O O1 0.184059 0.771453 0.176871
O O2 0.293181 0.645389 0.331260
O O3 0.426867 0.702311 0.247243
O O4 0.066981 0.693405 0.850490
O O5 0.034077 0.868211 0.175294
O O6 0.150311 0.919628 0.552526
O O7 0.208957 0.892854 0.889229
O O8 0.356945 0.000000 0.942249
O O9 0.500000 0.886836 0.000000
O O10 0.955826 0.000000 0.170165
O O11 0.540892 0.574070 0.796091
O O12 0.272984 0.652023 0.594148
O O13 0.731576 0.500000 0.497358
O O14 0.012520 0.431875 0.748986
O O15 0.000000 0.500000 0.000000
O O16 0.000000 0.350456 0.500000
O O17 0.500000 0.500000 0.000000
#
# Coordination Sequence:
#
# PCOD9152853 Si02
#       8
#     4   2   4   4   4   2   4   2
#     4  11  24  43  65  81 125 180 211 257 309 403
#     4  12  23  44  62  89 130 172 230 258 308 397
#     4   8  15  35  64  96 129 161 197 255 331 385
#     4   9  19  37  66  96 129 162 208 277 324 364
#     4  10  23  44  65  89 125 167 211 255 341 378
#     4  10  21  38  66  95 128 168 205 255 337 404
#     4  11  22  39  65  94 124 155 208 272 316 378
#     4  10  22  37  70 101 125 150 211 290 326 388
#
# _framework density 21.040963000000001
#
# number of rings (size 3 to 8) (size 9 to 14) (size 15 to 20)
#    0.000    2.000    1.538    3.231    4.308    1.846 
#    8.308    0.000    0.000    3.692    0.000    0.000 
#    0.000    0.000    0.000    0.000    0.000    0.000 
#
# Total GULP energy -144855.865508 kJ/mol
# GULP energy per Si atom -5571.379443 kJ/mol
# Density = 2.099307 g / cm^3
# Si number density = 21.040963 Si / 1000 Ang^3
#
#
#
# Elastic Constant Matrix: (Units=GPa)
#
#
# Indices 1 2 3 4 5 6 
#
# 1 165.4138 67.4182 34.3222 0.0000 16.3989 0.0000
# 2 67.4182 73.3918 25.2914 0.0000 -6.7492 0.0000
# 3 34.3222 25.2914 44.6587 0.0000 8.7875 0.0000
# 4 0.0000 0.0000 0.0000 21.2145 0.0000 -16.3962
# 5 16.3989 -6.7492 8.7875 0.0000 44.6248 0.0000
# 6 0.0000 0.0000 0.0000 -16.3962 0.0000 50.1995
#
#
#
# Elastic Compliance Matrix: (Units=1/GPa)
#
#
# Indices 1 2 3 4 5 6 
#
# 1 0.010989 -0.009957 -0.001785 0.000000 -0.005193 0.000000
# 2 -0.009957 0.026922 -0.009483 0.000000 0.009598 0.000000
# 3 -0.001785 -0.009483 0.030468 0.000000 -0.006778 0.000000
# 4 0.000000 0.000000 0.000000 0.063055 0.000000 0.020595
# 5 -0.005193 0.009598 -0.006778 0.000000 0.027104 0.000000
# 6 0.000000 0.000000 0.000000 0.020595 0.000000 0.026647
#
#
# Mechanical properties :
#
#
# Convention : Reuss Voigt Hill
#
# Bulk Modulus (GPa) = 38.56599 59.72532 49.14565
# Shear Modulus (GPa) = 21.16149 33.63658 27.39903
#
# Velocity S-wave (km/s) = 3.17476 4.00262 3.61248
# Velocity P-wave (km/s) = 5.63982 7.05749 6.38810
#
# Compressibility (1/GPa) = 0.02592958
#
# Stress axis : x y z
#
# Youngs Moduli (GPa) = 91.00318 37.14368 32.82110
#
# Poissons Ratio (x) = 0.36983 0.05858
# Poissons Ratio (y) = 0.90609 0.31126
# Poissons Ratio (z) = 0.16242 0.35225
#
# Static dielectric constant tensor:
#      x y z
#    x 1.836990 0.000000 0.042880 
#    y 0.000000 1.828270 0.000000 
#    z 0.042880 0.000000 1.791410 
# 
# From -- ./inp_files/26126.got.cif
#   From: 2010.05.17/outbox.cif.g08.bks.cpg/sg10_14_cif.got.tgz:26126.got - 2010.06.03 11:33:40.
