data_PCOD9152219
_publ_section_title
;
Structure prediction by ZEFSAII (Michael W. Deem and Ramdas Pophale) SiO2 
 PCOD9152219
Probable space group: P 2/M
;
_chemical_formula_sum "Si O2"
_cell_formula_units_Z 32
_cell_length_a 21.361522
_cell_length_b 9.360325
_cell_length_c 21.036832
_cell_angle_alpha 90.000000
_cell_angle_beta 160.528809
_cell_angle_gamma 90.000000
_cell_volume 1402.108330
_symmetry_space_group_name_H-M "P 2/M"
_symmetry_group_IT_number 10
_symmetry_cell_setting 'monoclinic'
loop_
_space_group_symop_operation_xyz
x,y,z
-x,y,-z
-x,-y,-z
x,-y,z
loop_
_atom_site_type_symbol
_atom_site_label
_atom_site_fract_x
_atom_site_fract_y
_atom_site_fract_z
Si Si1 0.229507 0.333254 0.346580
Si Si2 0.514683 0.159438 0.232389
Si Si3 0.926094 0.663735 0.284804
Si Si4 0.778921 0.156672 0.785687
Si Si5 0.351600 0.338302 0.750257
Si Si6 0.573159 0.833584 0.719258
Si Si7 0.786386 0.163111 0.267083
Si Si8 0.934931 0.835263 0.699483
O O1 0.186996 0.500000 0.306411
O O2 0.261229 0.273482 0.305986
O O3 0.424815 0.292086 0.566438
O O4 0.082849 0.244676 0.249712
O O5 0.520135 0.275964 0.183026
O O6 0.372343 0.179079 0.154960
O O7 0.722877 0.162373 0.465102
O O8 0.490355 0.000000 0.182124
O O9 0.870110 0.500000 0.220509
O O10 0.138719 0.660250 0.517650
O O11 0.944056 0.752713 0.237233
O O12 0.801517 0.741942 0.218523
O O13 0.710972 0.181414 0.792045
O O14 0.708266 0.000000 0.696544
O O15 0.000000 0.149895 0.000000
O O16 0.399887 0.500000 0.814178
O O17 0.339119 0.235195 0.798706
O O18 0.499648 0.000000 0.643976
O O19 0.000000 0.160253 0.500000
O O20 0.733285 0.000000 0.202782
O O21 0.989491 0.000000 0.760360
#
# Coordination Sequence:
#
# PCOD9152219 Si02
#       8
#     4   4   4   4   4   4   4   4
#     4  11  21  32  49  73  98 124 156 195 238 282
#     4   8  14  24  38  56  78 105 139 181 225 267
#     4   9  15  22  32  49  74 103 139 183 227 269
#     4  10  21  37  55  73  95 125 158 192 234 284
#     4   9  15  21  30  46  70 101 138 180 222 264
#     4   9  18  33  52  72  94 122 158 197 235 280
#     4   9  15  21  29  42  65 102 144 180 217 265
#     4   9  16  27  42  59  81 111 148 188 228 271
#
# _framework density 22.822773000000002
#
# number of rings (size 3 to 8) (size 9 to 14) (size 15 to 20)
#    0.000    2.750    0.000    3.750    0.000    9.750 
#    0.000    0.000    0.000    0.000    0.000    0.000 
#    0.000    0.000    0.000    1.125    0.000   24.500 
#
# Total GULP energy -178785.515827 kJ/mol
# GULP energy per Si atom -5587.047370 kJ/mol
# Density = 2.277083 g / cm^3
# Si number density = 22.822773 Si / 1000 Ang^3
#
#
#
# Elastic Constant Matrix: (Units=GPa)
#
#
# Indices 1 2 3 4 5 6 
#
# 1 219.5462 123.7027 5.2629 0.0000 5.4047 0.0000
# 2 123.7027 202.6533 11.8618 0.0000 -7.0439 0.0000
# 3 5.2629 11.8618 48.4211 0.0000 -11.1513 0.0000
# 4 0.0000 0.0000 0.0000 7.6741 0.0000 -13.3473
# 5 5.4047 -7.0439 -11.1513 0.0000 20.3205 0.0000
# 6 0.0000 0.0000 0.0000 -13.3473 0.0000 61.3884
#
#
#
# Elastic Compliance Matrix: (Units=1/GPa)
#
#
# Indices 1 2 3 4 5 6 
#
# 1 0.007189 -0.004487 -0.000550 0.000000 -0.003770 0.000000
# 2 -0.004487 0.007833 -0.000608 0.000000 0.003575 0.000000
# 3 -0.000550 -0.000608 0.023862 0.000000 0.013030 0.000000
# 4 0.000000 0.000000 0.000000 0.209551 0.000000 0.045561
# 5 -0.003770 0.003575 0.013030 0.000000 0.058604 0.000000
# 6 0.000000 0.000000 0.000000 0.045561 0.000000 0.026196
#
#
# Mechanical properties :
#
#
# Convention : Reuss Voigt Hill
#
# Bulk Modulus (GPa) = 36.24018 83.58615 59.91317
# Shear Modulus (GPa) = 14.13533 39.86281 26.99907
#
# Velocity S-wave (km/s) = 2.49138 4.18380 3.44319
# Velocity P-wave (km/s) = 4.91827 7.74870 6.48968
#
# Compressibility (1/GPa) = 0.02759368
#
# Stress axis : x y z
#
# Youngs Moduli (GPa) = 139.09923 127.65821 41.90804
#
# Poissons Ratio (x) = 0.57282 0.02306
# Poissons Ratio (y) = 0.62416 0.02548
# Poissons Ratio (z) = 0.07654 0.07760
#
# Static dielectric constant tensor:
#      x y z
#    x 1.874460 0.000000 -0.050270 
#    y 0.000000 1.783410 0.000000 
#    z -0.050270 0.000000 2.034950 
# 
# From -- ./inp_files/86160.got.cif
#   From: 2010.05.17/outbox.cif.g08.bks.cpg/sg10_44_cif.got.tgz:86160.got - 2010.06.03 11:33:40.
