data_PCOD9152395
_publ_section_title
;
Structure prediction by ZEFSAII (Michael W. Deem and Ramdas Pophale) SiO2 
 PCOD9152395
Probable space group: P 2/M
;
_chemical_formula_sum "Si O2"
_cell_formula_units_Z 32
_cell_length_a 15.238467
_cell_length_b 13.542324
_cell_length_c 22.579207
_cell_angle_alpha 90.000000
_cell_angle_beta 21.371175
_cell_angle_gamma 90.000000
_cell_volume 1697.975669
_symmetry_space_group_name_H-M "P 2/M"
_symmetry_group_IT_number 10
_symmetry_cell_setting 'monoclinic'
loop_
_space_group_symop_operation_xyz
x,y,z
-x,y,-z
-x,-y,-z
x,-y,z
loop_
_atom_site_type_symbol
_atom_site_label
_atom_site_fract_x
_atom_site_fract_y
_atom_site_fract_z
Si Si1 0.717908 0.727099 0.317688
Si Si2 0.439112 0.113675 0.415938
Si Si3 0.872333 0.114261 0.785078
Si Si4 0.263352 0.606262 0.809038
Si Si5 0.495420 0.225365 0.264246
Si Si6 0.650525 0.700929 0.852031
Si Si7 0.744121 0.213750 0.983548
Si Si8 0.091426 0.388723 0.508941
O O1 0.500000 0.707896 0.500000
O O2 0.621688 0.820692 0.339769
O O3 0.737450 0.639629 0.258146
O O4 0.983668 0.745139 0.177891
O O5 0.459182 0.137412 0.333534
O O6 0.159450 0.134675 0.607175
O O7 0.487579 0.000000 0.397734
O O8 0.752248 0.194888 0.816243
O O9 0.835314 0.000000 0.789981
O O10 0.773283 0.130924 0.914031
O O11 0.385535 0.500000 0.737159
O O12 0.363340 0.693371 0.786286
O O13 0.000000 0.595898 0.000000
O O14 0.633579 0.192878 0.117978
O O15 0.257973 0.290781 0.402520
O O16 0.458645 0.717078 0.919794
O O17 0.874182 0.637595 0.689584
O O18 0.500000 0.653822 0.000000
O O19 0.185550 0.500000 0.463516
O O20 0.000000 0.395523 0.500000
#
# Coordination Sequence:
#
# PCOD9152395 Si02
#       8
#     4   4   4   4   4   4   4   4
#     4  11  22  39  61  86 122 157 201 249 307 356
#     4  10  22  38  62  89 120 161 203 248 303 364
#     4  10  21  40  63  89 120 162 207 249 306 370
#     4  10  21  37  59  86 118 156 198 246 302 359
#     4  11  21  39  62  86 127 156 203 249 305 357
#     4  10  22  39  62  89 127 158 200 255 306 355
#     4  11  22  37  59  89 119 160 200 250 301 357
#     4  11  22  38  62  91 119 159 204 246 303 366
#
# _framework density 18.845970999999999
#
# number of rings (size 3 to 8) (size 9 to 14) (size 15 to 20)
#    0.000    1.500    5.000    0.375    0.000    4.000 
#    0.000    1.250    0.000    3.000    0.000    0.000 
#    0.000    0.000    0.000    0.000    0.000    0.000 
#
# Total GULP energy -178143.944199 kJ/mol
# GULP energy per Si atom -5566.998256 kJ/mol
# Density = 1.880308 g / cm^3
# Si number density = 18.845971 Si / 1000 Ang^3
#
#
#
# Elastic Constant Matrix: (Units=GPa)
#
#
# Indices 1 2 3 4 5 6 
#
# 1 89.7437 24.9093 35.5306 0.0000 5.4077 0.0000
# 2 24.9093 58.6903 23.3847 0.0000 -2.0976 0.0000
# 3 35.5306 23.3847 94.7605 0.0000 15.6019 0.0000
# 4 0.0000 0.0000 0.0000 33.4221 0.0000 -10.7286
# 5 5.4077 -2.0976 15.6019 0.0000 46.6388 0.0000
# 6 0.0000 0.0000 0.0000 -10.7286 0.0000 46.0504
#
#
#
# Elastic Compliance Matrix: (Units=1/GPa)
#
#
# Indices 1 2 3 4 5 6 
#
# 1 0.013995 -0.004318 -0.004109 0.000000 -0.000442 0.000000
# 2 -0.004318 0.020520 -0.003894 0.000000 0.002726 0.000000
# 3 -0.004109 -0.003894 0.013763 0.000000 -0.004303 0.000000
# 4 0.000000 0.000000 0.000000 0.032339 0.000000 0.007534
# 5 -0.000442 0.002726 -0.004303 0.000000 0.023055 0.000000
# 6 0.000000 0.000000 0.000000 0.007534 0.000000 0.023471
#
#
# Mechanical properties :
#
#
# Convention : Reuss Voigt Hill
#
# Bulk Modulus (GPa) = 42.30792 45.64929 43.97860
# Shear Modulus (GPa) = 31.31608 35.84692 33.58150
#
# Velocity S-wave (km/s) = 4.08080 4.36604 4.22583
# Velocity P-wave (km/s) = 6.68595 7.04920 6.86998
#
# Compressibility (1/GPa) = 0.02363624
#
# Stress axis : x y z
#
# Youngs Moduli (GPa) = 71.45479 48.73250 72.65941
#
# Poissons Ratio (x) = 0.21044 0.29855
# Poissons Ratio (y) = 0.30857 0.28291
# Poissons Ratio (z) = 0.29360 0.18974
#
# Static dielectric constant tensor:
#      x y z
#    x 1.668050 0.000000 -0.018430 
#    y 0.000000 1.655630 0.000000 
#    z -0.018430 0.000000 1.655690 
# 
# From -- ./inp_files/65104.got.cif
#   From: 2010.05.17/outbox.cif.g08.bks.cpg/sg10_33_cif.got.tgz:65104.got - 2010.06.03 11:33:40.
