data_PCOD9152394
_publ_section_title
;
Structure prediction by ZEFSAII (Michael W. Deem and Ramdas Pophale) SiO2 
 PCOD9152394
Probable space group: P 2/M
;
_chemical_formula_sum "Si O2"
_cell_formula_units_Z 24
_cell_length_a 7.506318
_cell_length_b 16.250844
_cell_length_c 14.724949
_cell_angle_alpha 90.000000
_cell_angle_beta 36.976773
_cell_angle_gamma 90.000000
_cell_volume 1080.403468
_symmetry_space_group_name_H-M "P 2/M"
_symmetry_group_IT_number 10
_symmetry_cell_setting 'monoclinic'
loop_
_space_group_symop_operation_xyz
x,y,z
-x,y,-z
-x,-y,-z
x,-y,z
loop_
_atom_site_type_symbol
_atom_site_label
_atom_site_fract_x
_atom_site_fract_y
_atom_site_fract_z
Si Si1 0.551395 0.244605 0.872205
Si Si2 0.141792 0.762589 0.540544
Si Si3 0.572065 0.911321 0.364081
Si Si4 0.258604 0.412235 0.472141
Si Si5 0.350227 0.592185 0.852842
Si Si6 0.752839 0.910306 0.976054
O O1 0.499537 0.330638 0.842104
O O2 0.879689 0.211488 0.714973
O O3 0.500000 0.259406 0.000000
O O4 0.328389 0.171003 0.934437
O O5 0.395344 0.828218 0.416088
O O6 0.235770 0.672083 0.535448
O O7 0.000000 0.750242 0.500000
O O8 0.500000 0.917955 0.500000
O O9 0.918491 0.903943 0.199203
O O10 0.470073 0.000000 0.364946
O O11 0.243124 0.500000 0.527662
O O12 0.550824 0.406376 0.292020
O O13 0.000000 0.415195 0.500000
O O14 0.433358 0.500000 0.853874
O O15 0.000000 0.600909 0.000000
O O16 0.731365 0.000000 0.031315
O O17 0.500000 0.911134 0.000000
#
# Coordination Sequence:
#
# PCOD9152394 Si02
#       6
#     4   4   4   4   4   4
#     4  11  22  36  58  88 120 153 192 245 299 345
#     4  11  22  38  60  91 118 159 202 242 293 349
#     4  10  21  38  61  88 120 158 198 244 299 356
#     4   9  17  35  60  81 110 156 202 234 281 351
#     4  10  21  37  59  86 117 157 200 241 293 354
#     4   9  19  36  57  81 113 155 194 233 290 354
#
# _framework density 22.213923000000001
#
# number of rings (size 3 to 8) (size 9 to 14) (size 15 to 20)
#    0.000    2.000    3.333    2.000    2.333    2.667 
#    0.000    0.000    0.000    3.000    0.000    0.000 
#    0.000    0.000    0.000    0.000    0.000    0.000 
#
# Total GULP energy -133786.200056 kJ/mol
# GULP energy per Si atom -5574.425002 kJ/mol
# Density = 2.216336 g / cm^3
# Si number density = 22.213923 Si / 1000 Ang^3
#
#
#
# Elastic Constant Matrix: (Units=GPa)
#
#
# Indices 1 2 3 4 5 6 
#
# 1 29.7435 20.6483 -0.3600 0.0000 -5.7889 0.0000
# 2 20.6483 224.7114 40.4655 0.0000 -19.1135 0.0000
# 3 -0.3600 40.4655 143.6003 0.0000 -19.9408 0.0000
# 4 0.0000 0.0000 0.0000 23.2731 0.0000 -17.7452
# 5 -5.7889 -19.1135 -19.9408 0.0000 27.2736 0.0000
# 6 0.0000 0.0000 0.0000 -17.7452 0.0000 -6.9539
#
#
#
# Elastic Compliance Matrix: (Units=1/GPa)
#
#
# Indices 1 2 3 4 5 6 
#
# 1 0.037233 -0.003171 0.001976 0.000000 0.007125 0.000000
# 2 -0.003171 0.005127 -0.001166 0.000000 0.002068 0.000000
# 3 0.001976 -0.001166 0.008060 0.000000 0.005496 0.000000
# 4 0.000000 0.000000 0.000000 0.014587 0.000000 -0.037223
# 5 0.007125 0.002068 0.005496 0.000000 0.043645 0.000000
# 6 0.000000 0.000000 0.000000 -0.037223 0.000000 -0.048818
#
#
# Mechanical properties :
#
#
# Convention : Reuss Voigt Hill
#
# Bulk Modulus (GPa) = 21.88187 57.72920 39.80554
# Shear Modulus (GPa) = 62.66581 31.20533 46.93557
#
# Velocity S-wave (km/s) = 5.31709 3.75208 4.60160
# Velocity P-wave (km/s) = 6.89689 6.69441 6.79640
#
# Compressibility (1/GPa) = 0.04569994
#
# Stress axis : x y z
#
# Youngs Moduli (GPa) = 26.85798 195.03289 124.06381
#
# Poissons Ratio (x) = 0.61847 -0.24520
# Poissons Ratio (y) = 0.08517 0.14461
# Poissons Ratio (z) = -0.05308 0.22734
#
# Static dielectric constant tensor:
#      x y z
#    x 1.862790 0.000000 -0.019700 
#    y 0.000000 1.983670 0.000000 
#    z -0.019700 0.000000 1.813610 
# 
# From -- ./inp_files/75414.got.cif
#   From: 2010.05.17/outbox.cif.g08.bks.cpg/sg10_38_cif.got.tgz:75414.got - 2010.06.03 11:33:40.
