data_PCOD9152177
_publ_section_title
;
Structure prediction by ZEFSAII (Michael W. Deem and Ramdas Pophale) SiO2 
 PCOD9152177
Probable space group: P 2/M
;
_chemical_formula_sum "Si O2"
_cell_formula_units_Z 28
_cell_length_a 8.737778
_cell_length_b 17.121399
_cell_length_c 20.547354
_cell_angle_alpha 90.000000
_cell_angle_beta 28.952166
_cell_angle_gamma 90.000000
_cell_volume 1488.033262
_symmetry_space_group_name_H-M "P 2/M"
_symmetry_group_IT_number 10
_symmetry_cell_setting 'monoclinic'
loop_
_space_group_symop_operation_xyz
x,y,z
-x,y,-z
-x,-y,-z
x,-y,z
loop_
_atom_site_type_symbol
_atom_site_label
_atom_site_fract_x
_atom_site_fract_y
_atom_site_fract_z
Si Si1 0.014908 0.500000 0.825537
Si Si2 0.482221 0.086454 0.084513
Si Si3 0.300687 0.344654 0.266911
Si Si4 0.720362 0.665493 0.241105
Si Si5 0.775862 0.758425 0.020887
Si Si6 0.847002 0.087302 0.403550
Si Si7 0.674601 0.747037 0.504780
Si Si8 0.421895 0.500000 0.139864
O O1 0.812169 0.500000 0.834843
O O2 0.215910 0.579413 0.754529
O O3 0.772448 0.500000 0.977505
O O4 0.708398 0.154701 0.023794
O O5 0.128670 0.097680 0.245739
O O6 0.584436 0.000000 0.068083
O O7 0.500000 0.088183 0.000000
O O8 0.491704 0.342688 0.263601
O O9 0.449252 0.279684 0.164249
O O10 0.359745 0.425439 0.208148
O O11 0.941534 0.319468 0.410057
O O12 0.570473 0.725425 0.347904
O O13 0.051291 0.703095 0.095070
O O14 0.000000 0.758852 0.000000
O O15 0.500000 0.084443 0.500000
O O16 0.829331 0.166255 0.453105
O O17 0.896783 0.000000 0.414890
O O18 0.500000 0.743656 0.500000
#
# Coordination Sequence:
#
# PCOD9152177 Si02
#       8
#     2   4   4   4   4   4   4   2
#     4  11  23  40  61  96 123 152 198 252 301 360
#     4  10  21  36  60  91 121 155 202 254 300 354
#     4  11  22  42  62  88 120 161 202 244 297 365
#     4  11  24  40  63  87 124 161 201 244 299 363
#     4  10  22  38  59  87 120 161 201 243 294 360
#     4   9  19  36  58  85 121 158 195 245 304 354
#     4  11  23  39  61  92 120 159 201 253 301 350
#     4  11  23  38  65  92 123 156 196 250 305 352
#
# _framework density 18.816783000000001
#
# number of rings (size 3 to 8) (size 9 to 14) (size 15 to 20)
#    0.000    1.571    2.857    1.714    4.000    2.571 
#    0.000    2.857    0.000    2.571    0.000    0.000 
#    0.000    0.000    0.000    0.000    0.000    0.000 
#
# Total GULP energy -156215.328850 kJ/mol
# GULP energy per Si atom -5579.118887 kJ/mol
# Density = 1.877395 g / cm^3
# Si number density = 18.816783 Si / 1000 Ang^3
#
#
#
# Elastic Constant Matrix: (Units=GPa)
#
#
# Indices 1 2 3 4 5 6 
#
# 1 34.3397 17.7495 8.4580 0.0000 12.9818 0.0000
# 2 17.7495 126.2517 7.4488 0.0000 17.1116 0.0000
# 3 8.4580 7.4488 50.1172 0.0000 10.4780 0.0000
# 4 0.0000 0.0000 0.0000 32.9539 0.0000 -6.5195
# 5 12.9818 17.1116 10.4780 0.0000 25.0748 0.0000
# 6 0.0000 0.0000 0.0000 -6.5195 0.0000 16.1390
#
#
#
# Elastic Compliance Matrix: (Units=1/GPa)
#
#
# Indices 1 2 3 4 5 6 
#
# 1 0.037410 -0.002896 -0.002462 0.000000 -0.016363 0.000000
# 2 -0.002896 0.008952 0.000134 0.000000 -0.004666 0.000000
# 3 -0.002462 0.000134 0.022026 0.000000 -0.008020 0.000000
# 4 0.000000 0.000000 0.000000 0.032981 0.000000 0.013323
# 5 -0.016363 -0.004666 -0.008020 0.000000 0.054887 0.000000
# 6 0.000000 0.000000 0.000000 0.013323 0.000000 0.067344
#
#
# Mechanical properties :
#
#
# Convention : Reuss Voigt Hill
#
# Bulk Modulus (GPa) = 17.25969 30.89125 24.07547
# Shear Modulus (GPa) = 19.73453 26.63701 23.18577
#
# Velocity S-wave (km/s) = 3.24199 3.76653 3.51406
# Velocity P-wave (km/s) = 4.81730 5.94711 5.41177
#
# Compressibility (1/GPa) = 0.05793845
#
# Stress axis : x y z
#
# Youngs Moduli (GPa) = 26.73076 111.70244 45.40151
#
# Poissons Ratio (x) = 0.32354 0.11178
# Poissons Ratio (y) = 0.07742 -0.00607
# Poissons Ratio (z) = 0.06581 -0.01493
#
# Static dielectric constant tensor:
#      x y z
#    x 1.617410 0.000000 0.005380 
#    y 0.000000 1.668230 0.000000 
#    z 0.005380 0.000000 1.644660 
# 
# From -- ./inp_files/35336.got.cif
#   From: 2010.05.17/outbox.cif.g08.bks.cpg/sg10_18_cif.got.tgz:35336.got - 2010.06.03 11:33:40.
