data_PCOD9152826
_publ_section_title
;
Structure prediction by ZEFSAII (Michael W. Deem and Ramdas Pophale) SiO2 
 PCOD9152826
Probable space group: P 2/M
;
_chemical_formula_sum "Si O2"
_cell_formula_units_Z 28
_cell_length_a 9.983289
_cell_length_b 25.781087
_cell_length_c 9.960169
_cell_angle_alpha 90.000000
_cell_angle_beta 148.265268
_cell_angle_gamma 90.000000
_cell_volume 1348.394083
_symmetry_space_group_name_H-M "P 2/M"
_symmetry_group_IT_number 10
_symmetry_cell_setting 'monoclinic'
loop_
_space_group_symop_operation_xyz
x,y,z
-x,y,-z
-x,-y,-z
x,-y,z
loop_
_atom_site_type_symbol
_atom_site_label
_atom_site_fract_x
_atom_site_fract_y
_atom_site_fract_z
Si Si1 0.425244 0.158894 0.078235
Si Si2 0.947813 0.704758 0.606535
Si Si3 0.709296 0.561902 0.793942
Si Si4 0.240522 0.943858 0.604531
Si Si5 0.935227 0.110115 0.794463
Si Si6 0.556065 0.638614 0.896710
Si Si7 0.339176 0.214856 0.478237
O O1 0.600438 0.107390 0.230132
O O2 0.494398 0.199335 0.251964
O O3 0.500000 0.183528 0.000000
O O4 0.154187 0.135367 0.886955
O O5 0.694383 0.668952 0.372101
O O6 0.884520 0.750158 0.655932
O O7 0.000000 0.725112 0.500000
O O8 0.196516 0.675032 0.871303
O O9 0.500000 0.573137 0.500000
O O10 0.704216 0.500000 0.813763
O O11 0.629334 0.593672 0.856578
O O12 0.000000 0.575536 0.000000
O O13 0.000000 0.943397 0.500000
O O14 0.169141 0.935619 0.387672
O O15 0.369965 0.000000 0.732615
O O16 0.753946 0.159818 0.659270
O O17 0.000000 0.092686 0.000000
O O18 0.500000 0.619126 0.000000
O O19 0.500000 0.242327 0.500000
#
# Coordination Sequence:
#
# PCOD9152826 Si02
#       7
#     4   4   4   4   4   4   4
#     4  11  23  39  63  87 114 155 194 239 301 358
#     4  10  24  40  63  92 128 165 212 263 316 376
#     4  10  21  38  63  95 130 171 219 268 320 378
#     4  10  22  39  60  90 117 146 195 239 288 366
#     4  11  23  41  60  86 120 149 189 247 299 359
#     4  10  22  42  62  92 129 169 214 266 317 374
#     4  11  25  40  60  88 116 152 200 251 297 367
#
# _framework density 20.765443000000001
#
# number of rings (size 3 to 8) (size 9 to 14) (size 15 to 20)
#    0.000    1.571    2.857    0.857    4.000    3.714 
#    0.000    0.714    0.000    5.143    0.000    0.000 
#    0.000    0.000    0.000    0.000    0.000    0.000 
#
# Total GULP energy -156340.539485 kJ/mol
# GULP energy per Si atom -5583.590696 kJ/mol
# Density = 2.071818 g / cm^3
# Si number density = 20.765443 Si / 1000 Ang^3
#
#
#
# Elastic Constant Matrix: (Units=GPa)
#
#
# Indices 1 2 3 4 5 6 
#
# 1 135.0718 58.4447 43.3969 0.0000 -6.7605 0.0000
# 2 58.4447 52.7073 17.5378 0.0000 -7.4597 0.0000
# 3 43.3969 17.5378 81.5440 0.0000 -4.4863 0.0000
# 4 0.0000 0.0000 0.0000 -103.5804 0.0000 -50.6636
# 5 -6.7605 -7.4597 -4.4863 0.0000 44.9637 0.0000
# 6 0.0000 0.0000 0.0000 -50.6636 0.0000 12.0778
#
#
#
# Elastic Compliance Matrix: (Units=1/GPa)
#
#
# Indices 1 2 3 4 5 6 
#
# 1 0.015979 -0.016140 -0.005075 0.000000 -0.000782 0.000000
# 2 -0.016140 0.037139 0.000812 0.000000 0.003816 0.000000
# 3 -0.005075 0.000812 0.014837 0.000000 0.000852 0.000000
# 4 0.000000 0.000000 0.000000 -0.003164 0.000000 -0.013270
# 5 -0.000782 0.003816 0.000852 0.000000 0.022841 0.000000
# 6 0.000000 0.000000 0.000000 -0.013270 0.000000 0.027131
#
#
# Mechanical properties :
#
#
# Convention : Reuss Voigt Hill
#
# Bulk Modulus (GPa) = 36.83558 56.45355 46.64456
# Shear Modulus (GPa) = 30.37322 0.68848 15.53085
#
# Velocity S-wave (km/s) = 3.82865 0.57643 2.73778
# Velocity P-wave (km/s) = 6.10919 5.26197 5.70134
#
# Compressibility (1/GPa) = 0.02714767
#
# Stress axis : x y z
#
# Youngs Moduli (GPa) = 62.58372 26.92565 67.40047
#
# Poissons Ratio (x) = 0.43457 0.34209
# Poissons Ratio (y) = 1.01009 -0.05471
# Poissons Ratio (z) = 0.31764 -0.02186
#
# Static dielectric constant tensor:
#      x y z
#    x 1.847300 0.000000 0.009370 
#    y 0.000000 1.709190 0.000000 
#    z 0.009370 0.000000 1.825230 
# 
# From -- ./inp_files/20845.got.cif
#   From: 2010.05.17/outbox.cif.g08.bks.cpg/sg10_11_cif.got.tgz:20845.got - 2010.06.03 11:33:40.
