data_PCOD9152817
_publ_section_title
;
Structure prediction by ZEFSAII (Michael W. Deem and Ramdas Pophale) SiO2 
 PCOD9152817
Probable space group: P 2/M
;
_chemical_formula_sum "Si O2"
_cell_formula_units_Z 28
_cell_length_a 14.527042
_cell_length_b 8.980023
_cell_length_c 12.507805
_cell_angle_alpha 90.000000
_cell_angle_beta 51.366930
_cell_angle_gamma 90.000000
_cell_volume 1274.605768
_symmetry_space_group_name_H-M "P 2/M"
_symmetry_group_IT_number 10
_symmetry_cell_setting 'monoclinic'
loop_
_space_group_symop_operation_xyz
x,y,z
-x,y,-z
-x,-y,-z
x,-y,z
loop_
_atom_site_type_symbol
_atom_site_label
_atom_site_fract_x
_atom_site_fract_y
_atom_site_fract_z
Si Si1 0.479985 0.670676 0.361477
Si Si2 0.318696 0.327781 0.944386
Si Si3 0.956962 0.826472 0.151866
Si Si4 0.744762 0.174085 0.556278
Si Si5 0.293621 0.174920 0.750273
Si Si6 0.005027 0.325212 0.666053
Si Si7 0.231055 0.825361 0.218485
O O1 0.452466 0.500000 0.406323
O O2 0.546674 0.675074 0.196653
O O3 0.363872 0.767816 0.434697
O O4 0.587564 0.732714 0.355619
O O5 0.279802 0.500000 0.968008
O O6 0.257368 0.228356 0.896391
O O7 0.297293 0.261281 0.076028
O O8 0.816166 0.800006 0.247260
O O9 0.013270 0.716671 0.196111
O O10 0.977662 0.000000 0.167331
O O11 0.000000 0.807929 0.000000
O O12 0.865239 0.263869 0.452362
O O13 0.713655 0.190690 0.704430
O O14 0.766644 0.000000 0.519004
O O15 0.320179 0.000000 0.732864
O O16 0.997116 0.500000 0.652136
O O17 0.901546 0.239332 0.680124
O O18 0.226369 0.000000 0.195291
#
# Coordination Sequence:
#
# PCOD9152817 Si02
#       7
#     4   4   4   4   4   4   4
#     4   9  20  37  59  88 125 160 197 247 300 352
#     4   9  19  34  57  89 124 156 192 244 300 349
#     4  10  21  38  63  92 121 155 195 242 295 352
#     4  11  24  42  63  85 116 160 207 250 295 353
#     4   9  17  33  58  87 120 156 193 239 293 349
#     4  12  26  41  61  89 122 158 197 246 301 359
#     4  11  23  39  61  87 118 158 203 252 299 352
#
# _framework density 21.967576000000001
#
# number of rings (size 3 to 8) (size 9 to 14) (size 15 to 20)
#    0.857    1.000    0.000    4.286    0.000    7.143 
#    0.000    3.571    0.000    4.286    0.000    0.000 
#    0.000    0.000    0.000    0.000    0.000    0.000 
#
# Total GULP energy -156477.199933 kJ/mol
# GULP energy per Si atom -5588.471426 kJ/mol
# Density = 2.191758 g / cm^3
# Si number density = 21.967576 Si / 1000 Ang^3
#
#
#
# Elastic Constant Matrix: (Units=GPa)
#
#
# Indices 1 2 3 4 5 6 
#
# 1 74.9598 21.1779 -0.9313 0.0000 -1.6451 0.0000
# 2 21.1779 80.4247 0.6254 0.0000 -1.7753 0.0000
# 3 -0.9313 0.6254 69.9843 0.0000 1.5892 0.0000
# 4 0.0000 0.0000 0.0000 29.8596 0.0000 -28.1406
# 5 -1.6451 -1.7753 1.5892 0.0000 30.4476 0.0000
# 6 0.0000 0.0000 0.0000 -28.1406 0.0000 -112.6933
#
#
#
# Elastic Compliance Matrix: (Units=1/GPa)
#
#
# Indices 1 2 3 4 5 6 
#
# 1 0.014425 -0.003788 0.000213 0.000000 0.000547 0.000000
# 2 -0.003788 0.013446 -0.000184 0.000000 0.000589 0.000000
# 3 0.000213 -0.000184 0.014310 0.000000 -0.000746 0.000000
# 4 0.000000 0.000000 0.000000 0.027110 0.000000 -0.006770
# 5 0.000547 0.000589 -0.000746 0.000000 0.032946 0.000000
# 6 0.000000 0.000000 0.000000 -0.006770 0.000000 -0.007183
#
#
# Mechanical properties :
#
#
# Convention : Reuss Voigt Hill
#
# Bulk Modulus (GPa) = 28.84815 29.67919 29.26367
# Shear Modulus (GPa) = 43.81086 3.15590 23.48338
#
# Velocity S-wave (km/s) = 4.47065 1.19989 3.27311
# Velocity P-wave (km/s) = 6.30949 3.93185 5.25685
#
# Compressibility (1/GPa) = 0.03466427
#
# Stress axis : x y z
#
# Youngs Moduli (GPa) = 69.32221 74.37190 69.87950
#
# Poissons Ratio (x) = 0.28173 -0.01491
# Poissons Ratio (y) = 0.26260 0.01285
# Poissons Ratio (z) = -0.01479 0.01368
#
# Static dielectric constant tensor:
#      x y z
#    x 1.779590 0.000000 0.021000 
#    y 0.000000 1.726400 0.000000 
#    z 0.021000 0.000000 1.888580 
# 
# From -- ./inp_files/68611.got.cif
#   From: 2010.05.17/outbox.cif.g08.bks.cpg/sg10_35_cif.got.tgz:68611.got - 2010.06.03 11:33:40.
