data_PCOD9152705
_publ_section_title
;
Structure prediction by ZEFSAII (Michael W. Deem and Ramdas Pophale) SiO2 
 PCOD9152705
Probable space group: P 2/M
;
_chemical_formula_sum "Si O2"
_cell_formula_units_Z 21
_cell_length_a 8.546224
_cell_length_b 25.780469
_cell_length_c 9.760244
_cell_angle_alpha 90.000000
_cell_angle_beta 31.388685
_cell_angle_gamma 90.000000
_cell_volume 1120.033400
_symmetry_space_group_name_H-M "P 2/M"
_symmetry_group_IT_number 10
_symmetry_cell_setting 'monoclinic'
loop_
_space_group_symop_operation_xyz
x,y,z
-x,y,-z
-x,-y,-z
x,-y,z
loop_
_atom_site_type_symbol
_atom_site_label
_atom_site_fract_x
_atom_site_fract_y
_atom_site_fract_z
Si Si1 0.152584 0.177368 0.239180
Si Si2 0.403001 0.345441 0.415247
Si Si3 0.642767 0.559169 0.746790
Si Si4 0.762067 0.292234 0.916923
Si Si5 0.000000 0.000000 0.000000
Si Si6 0.143683 0.893203 0.758616
O O1 0.148049 0.232116 0.163347
O O2 0.000000 0.185519 0.500000
O O3 0.982833 0.133481 0.281232
O O4 0.500000 0.162907 0.000000
O O5 0.500000 0.348928 0.500000
O O6 0.436808 0.399833 0.310358
O O7 0.057856 0.326157 0.666375
O O8 0.615341 0.306230 0.171968
O O9 0.548495 0.500000 0.784421
O O10 0.000000 0.559647 0.500000
O O11 0.500000 0.573282 0.000000
O O12 0.500000 0.301179 0.000000
O O13 0.054642 0.953445 0.844754
O O14 0.500000 0.889436 0.500000
O O15 0.000000 0.866224 0.000000
#
# Coordination Sequence:
#
# PCOD9152705 Si02
#       6
#     4   4   4   4   1   4
#     4  11  23  40  61  91 122 154 201 254 301 346
#     4  12  24  38  60  91 123 152 199 254 303 351
#     4  10  21  38  61  85 113 157 205 242 294 365
#     4  11  23  41  61  83 120 165 199 238 301 369
#     4   8  22  40  66  86 126 160 210 226 300 360
#     4  10  21  39  65  87 121 161 201 239 293 359
#
# _framework density 18.749441999999998
#
# number of rings (size 3 to 8) (size 9 to 14) (size 15 to 20)
#    0.571    0.762    0.000    7.714    0.000    2.667 
#    0.000    0.952    0.000    5.714    0.000    0.000 
#    0.000    0.000    0.000    0.000    0.000    0.000 
#
# Total GULP energy -117033.088588 kJ/mol
# GULP energy per Si atom -5573.004218 kJ/mol
# Density = 1.870677 g / cm^3
# Si number density = 18.749442 Si / 1000 Ang^3
#
#
#
# Elastic Constant Matrix: (Units=GPa)
#
#
# Indices 1 2 3 4 5 6 
#
# 1 93.6752 87.3834 51.9519 0.0000 19.2541 0.0000
# 2 87.3834 143.5862 61.5729 0.0000 10.4213 0.0000
# 3 51.9519 61.5729 144.1259 0.0000 17.6912 0.0000
# 4 0.0000 0.0000 0.0000 36.6845 0.0000 10.8980
# 5 19.2541 10.4213 17.6912 0.0000 34.9168 0.0000
# 6 0.0000 0.0000 0.0000 10.8980 0.0000 -13.2998
#
#
#
# Elastic Compliance Matrix: (Units=1/GPa)
#
#
# Indices 1 2 3 4 5 6 
#
# 1 0.028722 -0.015722 -0.002419 0.000000 -0.009920 0.000000
# 2 -0.015722 0.017151 -0.002235 0.000000 0.004683 0.000000
# 3 -0.002419 -0.002235 0.009084 0.000000 -0.002602 0.000000
# 4 0.000000 0.000000 0.000000 0.021923 0.000000 0.017964
# 5 -0.009920 0.004683 -0.002602 0.000000 0.034030 0.000000
# 6 0.000000 0.000000 0.000000 0.017964 0.000000 -0.060469
#
#
# Mechanical properties :
#
#
# Convention : Reuss Voigt Hill
#
# Bulk Modulus (GPa) = 70.39357 87.02264 78.70811
# Shear Modulus (GPa) = 52.12237 23.69224 37.90730
#
# Velocity S-wave (km/s) = 5.27824 3.55860 4.50130
# Velocity P-wave (km/s) = 8.64709 7.96236 8.31178
#
# Compressibility (1/GPa) = 0.01420584
#
# Stress axis : x y z
#
# Youngs Moduli (GPa) = 34.81669 58.30505 110.07961
#
# Poissons Ratio (x) = 0.91669 0.26624
# Poissons Ratio (y) = 0.54740 0.24601
# Poissons Ratio (z) = 0.08421 0.13030
#
# Static dielectric constant tensor:
#      x y z
#    x 1.620930 0.000000 -0.007150 
#    y 0.000000 1.653380 0.000000 
#    z -0.007150 0.000000 1.667630 
# 
# From -- ./inp_files/20744.got.cif
#   From: 2010.05.17/outbox.cif.g08.bks.cpg/sg10_11_cif.got.tgz:20744.got - 2010.06.03 11:33:40.
