data_PCOD9152850
_publ_section_title
;
Structure prediction by ZEFSAII (Michael W. Deem and Ramdas Pophale) SiO2 
 PCOD9152850
Probable space group: P 2/M
;
_chemical_formula_sum "Si O2"
_cell_formula_units_Z 28
_cell_length_a 9.534541
_cell_length_b 11.065255
_cell_length_c 16.386295
_cell_angle_alpha 90.000000
_cell_angle_beta 118.131954
_cell_angle_gamma 90.000000
_cell_volume 1524.556845
_symmetry_space_group_name_H-M "P 2/M"
_symmetry_group_IT_number 10
_symmetry_cell_setting 'monoclinic'
loop_
_space_group_symop_operation_xyz
x,y,z
-x,y,-z
-x,-y,-z
x,-y,z
loop_
_atom_site_type_symbol
_atom_site_label
_atom_site_fract_x
_atom_site_fract_y
_atom_site_fract_z
Si Si1 0.160758 0.144398 0.596429
Si Si2 0.187729 0.854985 0.239300
Si Si3 0.677266 0.859370 0.043774
Si Si4 0.476894 0.853981 0.586041
Si Si5 0.120857 0.752813 0.763111
Si Si6 0.825733 0.721045 0.934482
Si Si7 0.738698 0.500000 0.137473
Si Si8 0.629901 0.500000 0.918568
O O1 0.314530 0.183322 0.586060
O O2 0.147725 0.220000 0.675824
O O3 0.000000 0.157973 0.500000
O O4 0.176221 0.000000 0.619992
O O5 0.365102 0.827185 0.319154
O O6 0.167873 0.805999 0.142432
O O7 0.056950 0.789629 0.259503
O O8 0.163509 0.000000 0.236095
O O9 0.763775 0.839426 0.152741
O O10 0.664399 0.000000 0.020639
O O11 0.500000 0.805408 0.000000
O O12 0.775807 0.796372 0.000097
O O13 0.500000 0.808275 0.500000
O O14 0.466245 0.000000 0.577889
O O15 0.169093 0.619062 0.806589
O O16 0.695447 0.617093 0.890545
O O17 0.000000 0.668007 0.000000
O O18 0.559143 0.500000 0.123366
O O19 0.711114 0.500000 0.031683
#
# Coordination Sequence:
#
# PCOD9152850 Si02
#       8
#     4   4   4   4   4   4   2   2
#     4  10  21  38  65  96 125 159 202 251 313 381
#     4  11  23  37  59  92 129 161 197 253 316 375
#     4  11  23  36  56  85 122 161 200 250 311 372
#     4   9  19  36  59  89 125 158 192 240 304 375
#     4  12  23  40  62  87 121 165 212 258 304 361
#     4  12  23  38  59  86 122 162 209 249 307 359
#     4  11  24  42  63  86 115 166 225 260 305 336
#     4  11  23  42  62  82 118 168 218 269 291 358
#
# _framework density 18.365993
#
# number of rings (size 3 to 8) (size 9 to 14) (size 15 to 20)
#    0.000    1.143    2.857    3.643    4.000    3.429 
#    0.000    0.357    0.000    0.000    0.000    2.500 
#    0.000    0.000    0.000    0.000    0.000    0.000 
#
# Total GULP energy -156437.695024 kJ/mol
# GULP energy per Si atom -5587.060537 kJ/mol
# Density = 1.832419 g / cm^3
# Si number density = 18.365993 Si / 1000 Ang^3
#
#
#
# Elastic Constant Matrix: (Units=GPa)
#
#
# Indices 1 2 3 4 5 6 
#
# 1 161.7686 37.6210 56.7078 0.0000 5.6052 0.0000
# 2 37.6210 70.7965 15.4865 0.0000 1.8447 0.0000
# 3 56.7078 15.4865 86.5591 0.0000 -7.8473 0.0000
# 4 0.0000 0.0000 0.0000 59.4038 0.0000 8.6485
# 5 5.6052 1.8447 -7.8473 0.0000 32.8216 0.0000
# 6 0.0000 0.0000 0.0000 8.6485 0.0000 27.0576
#
#
#
# Elastic Compliance Matrix: (Units=1/GPa)
#
#
# Indices 1 2 3 4 5 6 
#
# 1 0.009031 -0.003520 -0.005528 0.000000 -0.002666 0.000000
# 2 -0.003520 0.016144 -0.000623 0.000000 -0.000455 0.000000
# 3 -0.005528 -0.000623 0.015715 0.000000 0.004737 0.000000
# 4 0.000000 0.000000 0.000000 0.017656 0.000000 -0.005643
# 5 -0.002666 -0.000455 0.004737 0.000000 0.032081 0.000000
# 6 0.000000 0.000000 0.000000 -0.005643 0.000000 0.038762
#
#
# Mechanical properties :
#
#
# Convention : Reuss Voigt Hill
#
# Bulk Modulus (GPa) = 46.41150 59.86165 53.13658
# Shear Modulus (GPa) = 32.06896 37.81051 34.93973
#
# Velocity S-wave (km/s) = 4.18318 4.54224 4.36640
# Velocity P-wave (km/s) = 6.97547 7.75717 7.37668
#
# Compressibility (1/GPa) = 0.02154638
#
# Stress axis : x y z
#
# Youngs Moduli (GPa) = 110.73510 61.94328 63.63172
#
# Poissons Ratio (x) = 0.21805 0.35177
# Poissons Ratio (y) = 0.38980 0.03967
# Poissons Ratio (z) = 0.61216 0.03862
#
# Static dielectric constant tensor:
#      x y z
#    x 1.647940 0.000000 0.017650 
#    y 0.000000 1.626260 0.000000 
#    z 0.017650 0.000000 1.614350 
# 
# From -- ./inp_files/60972.got.cif
#   From: 2010.05.17/outbox.cif.g08.bks.cpg/sg10_31_cif.got.tgz:60972.got - 2010.06.03 11:33:40.
