data_PCOD9152348
_publ_section_title
;
Structure prediction by ZEFSAII (Michael W. Deem and Ramdas Pophale) SiO2 
 PCOD9152348
Probable space group: P 2/M
;
_chemical_formula_sum "Si O2"
_cell_formula_units_Z 20
_cell_length_a 7.676476
_cell_length_b 9.392164
_cell_length_c 23.465560
_cell_angle_alpha 90.000000
_cell_angle_beta 24.753320
_cell_angle_gamma 90.000000
_cell_volume 708.393010
_symmetry_space_group_name_H-M "P 2/M"
_symmetry_group_IT_number 10
_symmetry_cell_setting 'monoclinic'
loop_
_space_group_symop_operation_xyz
x,y,z
-x,y,-z
-x,-y,-z
x,-y,z
loop_
_atom_site_type_symbol
_atom_site_label
_atom_site_fract_x
_atom_site_fract_y
_atom_site_fract_z
Si Si1 0.277342 0.691625 0.731629
Si Si2 0.316093 0.699583 0.271417
Si Si3 0.323616 0.500000 0.486127
Si Si4 0.583328 0.000000 0.043203
Si Si5 0.946927 0.000000 0.397319
Si Si6 0.628298 0.666281 0.051052
Si Si7 0.644992 0.000000 0.326062
O O1 0.421129 0.650027 0.751711
O O2 0.533084 0.621023 0.604104
O O3 0.358574 0.857323 0.707390
O O4 0.798315 0.666805 0.859177
O O5 0.518816 0.665202 0.150941
O O6 0.883985 0.619314 0.409462
O O7 0.210924 0.863374 0.304799
O O8 0.773971 0.837886 0.998836
O O9 0.121359 0.000000 0.210374
O O10 0.500000 0.000000 0.000000
O O11 0.500000 0.000000 0.500000
O O12 0.764886 0.000000 0.514575
O O13 0.780121 0.500000 0.996613
#
# Coordination Sequence:
#
# PCOD9152348 Si02
#       7
#     4   4   2   2   2   4   2
#     4  11  22  38  55  86 131 171 212 243 289 358
#     4  12  24  37  57  88 134 173 205 249 291 358
#     4  12  23  33  54  87 129 184 207 241 292 351
#     4  10  24  48  69  92 122 150 208 280 331 386
#     4  12  23  35  55  85 125 168 212 247 291 358
#     4  11  24  41  67  96 122 166 213 251 316 375
#     4  10  21  37  58  84 110 160 207 249 311 364
#
# _framework density 28.232914000000001
#
# number of rings (size 3 to 8) (size 9 to 14) (size 15 to 20)
#    0.000    0.800    4.000    5.400    0.000    2.000 
#    0.000    0.000    0.000    9.600    0.000    7.000 
#    0.000    0.000    0.000    0.000    0.000    0.000 
#
# Total GULP energy -111440.306512 kJ/mol
# GULP energy per Si atom -5572.015326 kJ/mol
# Density = 2.816865 g / cm^3
# Si number density = 28.232914 Si / 1000 Ang^3
#
#
#
# Elastic Constant Matrix: (Units=GPa)
#
#
# Indices 1 2 3 4 5 6 
#
# 1 88.2419 18.1865 33.7243 0.0000 0.9465 0.0000
# 2 18.1865 323.7075 84.0397 0.0000 6.1429 0.0000
# 3 33.7243 84.0397 149.7876 0.0000 23.9105 0.0000
# 4 0.0000 0.0000 0.0000 53.9622 0.0000 -36.8773
# 5 0.9465 6.1429 23.9105 0.0000 46.4659 0.0000
# 6 0.0000 0.0000 0.0000 -36.8773 0.0000 1425.4718
#
#
#
# Elastic Compliance Matrix: (Units=1/GPa)
#
#
# Indices 1 2 3 4 5 6 
#
# 1 0.012472 0.000068 -0.003055 0.000000 0.001309 0.000000
# 2 0.000068 0.003633 -0.002153 0.000000 0.000626 0.000000
# 3 -0.003055 -0.002153 0.009279 0.000000 -0.004428 0.000000
# 4 0.000000 0.000000 0.000000 0.018865 0.000000 0.000488
# 5 0.001309 0.000626 -0.004428 0.000000 0.023690 0.000000
# 6 0.000000 0.000000 0.000000 0.000488 0.000000 0.000714
#
#
# Mechanical properties :
#
#
# Convention : Reuss Voigt Hill
#
# Bulk Modulus (GPa) = 66.21558 92.62645 79.42102
# Shear Modulus (GPa) = 59.54641 333.56574 196.55608
#
# Velocity S-wave (km/s) = 4.59749 10.88137 8.35288
# Velocity P-wave (km/s) = 7.18935 13.81129 11.00996
#
# Compressibility (1/GPa) = 0.01510219
#
# Stress axis : x y z
#
# Youngs Moduli (GPa) = 80.17926 275.28846 107.77190
#
# Poissons Ratio (x) = -0.01860 0.32923
# Poissons Ratio (y) = -0.00542 0.23206
# Poissons Ratio (z) = 0.24494 0.59277
#
# Static dielectric constant tensor:
#      x y z
#    x 3.304070 0.000000 0.092570 
#    y 0.000000 2.142940 0.000000 
#    z 0.092570 0.000000 2.461000 
# 
# From -- ./inp_files/91777.got.cif
#   From: 2010.05.17/outbox.cif.g08.bks.cpg/sg10_46_cif.got.tgz:91777.got - 2010.06.03 11:33:40.
