data_PCOD9152454
_publ_section_title
;
Structure prediction by ZEFSAII (Michael W. Deem and Ramdas Pophale) SiO2 
 PCOD9152454
Probable space group: P 2/M
;
_chemical_formula_sum "Si O2"
_cell_formula_units_Z 32
_cell_length_a 16.106736
_cell_length_b 19.218304
_cell_length_c 17.075940
_cell_angle_alpha 90.000000
_cell_angle_beta 163.142638
_cell_angle_gamma 90.000000
_cell_volume 1532.817175
_symmetry_space_group_name_H-M "P 2/M"
_symmetry_group_IT_number 10
_symmetry_cell_setting 'monoclinic'
loop_
_space_group_symop_operation_xyz
x,y,z
-x,y,-z
-x,-y,-z
x,-y,z
loop_
_atom_site_type_symbol
_atom_site_label
_atom_site_fract_x
_atom_site_fract_y
_atom_site_fract_z
Si Si1 0.479974 0.425585 0.651157
Si Si2 0.947856 0.236393 0.039867
Si Si3 0.122788 0.661137 0.445080
Si Si4 0.307902 0.788803 0.516542
Si Si5 0.538438 0.082602 0.948918
Si Si6 0.474451 0.415999 0.071147
Si Si7 0.906358 0.603790 0.830736
Si Si8 0.149359 0.918543 0.455723
O O1 0.386247 0.500000 0.596497
O O2 0.301200 0.369551 0.534308
O O3 0.379266 0.419706 0.470212
O O4 0.814973 0.417341 0.967703
O O5 0.612902 0.239698 0.760333
O O6 0.086530 0.313229 0.158552
O O7 0.000000 0.204527 0.000000
O O8 0.104187 0.206067 0.256890
O O9 0.166925 0.742450 0.460570
O O10 0.807975 0.627755 0.159644
O O11 0.272741 0.626962 0.657085
O O12 0.339792 0.866855 0.577182
O O13 0.259823 0.088316 0.644478
O O14 0.596161 0.000000 0.011420
O O15 0.500000 0.114136 0.000000
O O16 0.821010 0.106674 0.158496
O O17 0.467673 0.500000 0.085116
O O18 0.500000 0.412995 0.000000
O O19 0.000000 0.576700 0.000000
O O20 0.173437 0.000000 0.455336
#
# Coordination Sequence:
#
# PCOD9152454 Si02
#       8
#     4   4   4   4   4   4   4   4
#     4  12  23  36  56  83 115 150 188 238 290 345
#     4  11  22  41  65  86 115 158 204 240 291 366
#     4  12  23  41  60  89 116 149 200 251 295 351
#     4  12  23  41  64  91 121 155 195 253 303 351
#     4   9  17  33  57  86 122 161 198 231 272 348
#     4  11  24  43  65  86 116 160 205 250 299 348
#     4  11  22  38  55  80 115 152 191 232 283 351
#     4  10  21  37  60  91 123 161 201 246 304 361
#
# _framework density 20.876593
#
# number of rings (size 3 to 8) (size 9 to 14) (size 15 to 20)
#    0.000    1.000    2.500    5.250    0.000    6.000 
#    0.000    3.750    0.000    2.250    0.000    0.000 
#    0.000    0.000    0.000    0.000    0.000    0.000 
#
# Total GULP energy -178454.167682 kJ/mol
# GULP energy per Si atom -5576.692740 kJ/mol
# Density = 2.082908 g / cm^3
# Si number density = 20.876593 Si / 1000 Ang^3
#
#
#
# Elastic Constant Matrix: (Units=GPa)
#
#
# Indices 1 2 3 4 5 6 
#
# 1 75.9179 23.7261 12.1826 0.0000 -16.4976 0.0000
# 2 23.7261 78.0528 5.4249 0.0000 -12.4490 0.0000
# 3 12.1826 5.4249 89.6988 0.0000 -10.0243 0.0000
# 4 0.0000 0.0000 0.0000 21.2175 0.0000 0.7806
# 5 -16.4976 -12.4490 -10.0243 0.0000 36.6157 0.0000
# 6 0.0000 0.0000 0.0000 0.7806 0.0000 22.3278
#
#
#
# Elastic Compliance Matrix: (Units=1/GPa)
#
#
# Indices 1 2 3 4 5 6 
#
# 1 0.015761 -0.003833 -0.001301 0.000000 0.005442 0.000000
# 2 -0.003833 0.014487 0.000002 0.000000 0.003199 0.000000
# 3 -0.001301 0.000002 0.011615 0.000000 0.002594 0.000000
# 4 0.000000 0.000000 0.000000 0.047192 0.000000 -0.001650
# 5 0.005442 0.003199 0.002594 0.000000 0.031561 0.000000
# 6 0.000000 0.000000 0.000000 -0.001650 0.000000 0.044845
#
#
# Mechanical properties :
#
#
# Convention : Reuss Voigt Hill
#
# Bulk Modulus (GPa) = 31.64520 36.25967 33.95243
# Shear Modulus (GPa) = 26.84468 29.52125 28.18296
#
# Velocity S-wave (km/s) = 3.58980 3.76451 3.67819
# Velocity P-wave (km/s) = 5.68976 6.02509 5.85982
#
# Compressibility (1/GPa) = 0.03160037
#
# Stress axis : x y z
#
# Youngs Moduli (GPa) = 63.44664 69.02753 86.09630
#
# Poissons Ratio (x) = 0.26456 0.11198
# Poissons Ratio (y) = 0.24317 -0.00016
# Poissons Ratio (z) = 0.08252 -0.00013
#
# Static dielectric constant tensor:
#      x y z
#    x 1.814460 0.000000 -0.020150 
#    y 0.000000 1.796970 0.000000 
#    z -0.020150 0.000000 1.774030 
# 
# From -- ./inp_files/67966.got.cif
#   From: 2010.05.17/outbox.cif.g08.bks.cpg/sg10_34_cif.got.tgz:67966.got - 2010.06.03 11:33:40.
