data_PCOD9152102
_publ_section_title
;
Structure prediction by ZEFSAII (Michael W. Deem and Ramdas Pophale) SiO2 
 PCOD9152102
Probable space group: P 2/M
;
_chemical_formula_sum "Si O2"
_cell_formula_units_Z 32
_cell_length_a 12.166438
_cell_length_b 18.516228
_cell_length_c 15.378236
_cell_angle_alpha 90.000000
_cell_angle_beta 152.244960
_cell_angle_gamma 90.000000
_cell_volume 1613.324048
_symmetry_space_group_name_H-M "P 2/M"
_symmetry_group_IT_number 10
_symmetry_cell_setting 'monoclinic'
loop_
_space_group_symop_operation_xyz
x,y,z
-x,y,-z
-x,-y,-z
x,-y,z
loop_
_atom_site_type_symbol
_atom_site_label
_atom_site_fract_x
_atom_site_fract_y
_atom_site_fract_z
Si Si1 0.618903 0.582251 0.988105
Si Si2 0.521090 0.803874 0.230072
Si Si3 0.320227 0.920065 0.793604
Si Si4 0.217120 0.081333 0.292907
Si Si5 0.238418 0.654530 0.612085
Si Si6 0.981196 0.769772 0.892936
Si Si7 0.075075 0.148019 0.372375
Si Si8 0.033617 0.303877 0.288177
O O1 0.706202 0.500000 0.044477
O O2 0.426242 0.597129 0.778478
O O3 0.500000 0.591827 0.000000
O O4 0.823534 0.640984 0.123607
O O5 0.560952 0.867124 0.190698
O O6 0.655314 0.732864 0.290401
O O7 0.661606 0.829934 0.414039
O O8 0.250814 0.785587 0.055221
O O9 0.071416 0.891052 0.655424
O O10 0.293049 0.000000 0.737938
O O11 0.500000 0.922761 0.000000
O O12 0.500000 0.081293 0.500000
O O13 0.096823 0.099161 0.302133
O O14 0.145148 0.152166 0.187894
O O15 0.147072 0.000000 0.214914
O O16 0.188805 0.659982 0.473778
O O17 0.000000 0.643656 0.500000
O O18 0.865169 0.722179 0.734604
O O19 0.000000 0.733436 0.000000
O O20 0.953382 0.225832 0.270298
#
# Coordination Sequence:
#
# PCOD9152102 Si02
#       8
#     4   4   4   4   4   4   4   4
#     4  11  23  37  62  98 136 172 202 243 304 376
#     4  11  22  36  57  83 112 155 207 259 314 373
#     4  11  23  35  51  79 115 159 205 254 310 375
#     4  10  21  38  58  83 120 161 205 267 332 381
#     4  11  21  36  62  93 128 170 207 241 300 378
#     4  11  23  40  64  87 115 158 219 274 319 372
#     4  10  21  36  57  84 115 161 209 256 312 378
#     4  10  21  39  60  88 126 165 208 255 312 359
#
# _framework density 19.834826
#
# number of rings (size 3 to 8) (size 9 to 14) (size 15 to 20)
#    0.000    1.375    2.500    4.500    0.000    4.000 
#    0.000    0.000    0.000    0.375    0.000    0.875 
#    0.000    0.000    0.000    0.000    0.000    0.000 
#
# Total GULP energy -178629.069353 kJ/mol
# GULP energy per Si atom -5582.158417 kJ/mol
# Density = 1.978968 g / cm^3
# Si number density = 19.834826 Si / 1000 Ang^3
#
#
#
# Elastic Constant Matrix: (Units=GPa)
#
#
# Indices 1 2 3 4 5 6 
#
# 1 70.4948 21.5470 18.3015 0.0000 -16.1652 0.0000
# 2 21.5470 96.0920 29.4103 0.0000 -2.6514 0.0000
# 3 18.3015 29.4103 85.8135 0.0000 -9.2525 0.0000
# 4 0.0000 0.0000 0.0000 27.5088 0.0000 1.6088
# 5 -16.1652 -2.6514 -9.2525 0.0000 35.6058 0.0000
# 6 0.0000 0.0000 0.0000 1.6088 0.0000 5.5381
#
#
#
# Elastic Compliance Matrix: (Units=1/GPa)
#
#
# Indices 1 2 3 4 5 6 
#
# 1 0.017246 -0.003106 -0.001846 0.000000 0.007119 0.000000
# 2 -0.003106 0.012187 -0.003671 0.000000 -0.001457 0.000000
# 3 -0.001846 -0.003671 0.013565 0.000000 0.002414 0.000000
# 4 0.000000 0.000000 0.000000 0.036980 0.000000 -0.010743
# 5 0.007119 -0.001457 0.002414 0.000000 0.031836 0.000000
# 6 0.000000 0.000000 0.000000 -0.010743 0.000000 0.183689
#
#
# Mechanical properties :
#
#
# Convention : Reuss Voigt Hill
#
# Bulk Modulus (GPa) = 38.83200 43.43530 41.13365
# Shear Modulus (GPa) = 15.56014 25.93997 20.75005
#
# Velocity S-wave (km/s) = 2.80391 3.62027 3.23792
# Velocity P-wave (km/s) = 5.48659 6.27863 5.89593
#
# Compressibility (1/GPa) = 0.02575196
#
# Stress axis : x y z
#
# Youngs Moduli (GPa) = 57.98290 82.05754 73.71702
#
# Poissons Ratio (x) = 0.25485 0.13610
# Poissons Ratio (y) = 0.18008 0.27064
# Poissons Ratio (z) = 0.10705 0.30126
#
# Static dielectric constant tensor:
#      x y z
#    x 1.697590 0.000000 -0.049770 
#    y 0.000000 1.671750 0.000000 
#    z -0.049770 0.000000 1.767430 
# 
# From -- ./inp_files/65405.got.cif
#   From: 2010.05.17/outbox.cif.g08.bks.cpg/sg10_33_cif.got.tgz:65405.got - 2010.06.03 11:33:40.
