data_PCOD9152403
_publ_section_title
;
Structure prediction by ZEFSAII (Michael W. Deem and Ramdas Pophale) SiO2 
 PCOD9152403
Probable space group: P 2/M
;
_chemical_formula_sum "Si O2"
_cell_formula_units_Z 32
_cell_length_a 14.763010
_cell_length_b 8.972274
_cell_length_c 22.700925
_cell_angle_alpha 90.000000
_cell_angle_beta 31.494302
_cell_angle_gamma 90.000000
_cell_volume 1570.853231
_symmetry_space_group_name_H-M "P 2/M"
_symmetry_group_IT_number 10
_symmetry_cell_setting 'monoclinic'
loop_
_space_group_symop_operation_xyz
x,y,z
-x,y,-z
-x,-y,-z
x,-y,z
loop_
_atom_site_type_symbol
_atom_site_label
_atom_site_fract_x
_atom_site_fract_y
_atom_site_fract_z
Si Si1 0.481566 0.177724 0.762014
Si Si2 0.098854 0.323828 0.760160
Si Si3 0.494968 0.674908 0.126858
Si Si4 0.118450 0.674635 0.285171
Si Si5 0.351082 0.830727 0.532345
Si Si6 0.611289 0.322938 0.302028
Si Si7 0.881973 0.822059 0.509047
Si Si8 0.773517 0.176700 0.896913
O O1 0.449826 0.245570 0.843649
O O2 0.369271 0.252941 0.773003
O O3 0.682712 0.210798 0.634153
O O4 0.459151 0.000000 0.774969
O O5 0.064824 0.500000 0.775018
O O6 0.203225 0.267977 0.644456
O O7 0.224608 0.296803 0.746073
O O8 0.922239 0.231906 0.859538
O O9 0.536276 0.500000 0.105786
O O10 0.289184 0.690786 0.231419
O O11 0.595509 0.750003 0.017057
O O12 0.093761 0.500000 0.285990
O O13 0.165292 0.761184 0.199841
O O14 0.956805 0.740369 0.410378
O O15 0.500000 0.839673 0.500000
O O16 0.446826 0.755663 0.424460
O O17 0.292576 0.000000 0.551792
O O18 0.582934 0.500000 0.314621
O O19 0.000000 0.780688 0.500000
O O20 0.899133 0.000000 0.490913
O O21 0.759844 0.000000 0.903324
#
# Coordination Sequence:
#
# PCOD9152403 Si02
#       8
#     4   4   4   4   4   4   4   4
#     4  11  23  39  63  92 126 167 209 254 306 365
#     4  10  21  39  60  85 120 160 205 256 309 363
#     4  11  24  44  66  90 123 161 207 257 308 367
#     4  11  24  41  65  94 126 163 204 252 307 368
#     4   9  17  31  53  81 115 154 195 243 299 358
#     4  10  21  37  59  87 122 164 205 251 307 366
#     4  10  21  39  62  91 129 166 203 250 304 365
#     4  12  26  42  65  92 122 161 207 258 312 366
#
# _framework density 20.371093999999999
#
# number of rings (size 3 to 8) (size 9 to 14) (size 15 to 20)
#    0.000    1.500    1.250    3.750    1.750    7.250 
#    0.000    0.625    0.000    3.750    0.000    0.000 
#    0.000    0.000    0.000    0.000    0.000    0.000 
#
# Total GULP energy -179010.325244 kJ/mol
# GULP energy per Si atom -5594.072664 kJ/mol
# Density = 2.032473 g / cm^3
# Si number density = 20.371094 Si / 1000 Ang^3
#
#
#
# Elastic Constant Matrix: (Units=GPa)
#
#
# Indices 1 2 3 4 5 6 
#
# 1 87.2870 35.6834 6.3717 0.0000 21.8762 0.0000
# 2 35.6834 91.0221 28.9619 0.0000 15.7743 0.0000
# 3 6.3717 28.9619 58.8961 0.0000 15.4831 0.0000
# 4 0.0000 0.0000 0.0000 34.2721 0.0000 2.7474
# 5 21.8762 15.7743 15.4831 0.0000 27.4859 0.0000
# 6 0.0000 0.0000 0.0000 2.7474 0.0000 23.9301
#
#
#
# Elastic Compliance Matrix: (Units=1/GPa)
#
#
# Indices 1 2 3 4 5 6 
#
# 1 0.016565 -0.005715 0.004252 0.000000 -0.012299 0.000000
# 2 -0.005715 0.015497 -0.006879 0.000000 -0.000470 0.000000
# 3 0.004252 -0.006879 0.023187 0.000000 -0.012498 0.000000
# 4 0.000000 0.000000 0.000000 0.029449 0.000000 -0.003381
# 5 -0.012299 -0.000470 -0.012498 0.000000 0.053481 0.000000
# 6 0.000000 0.000000 0.000000 -0.003381 0.000000 0.042176
#
#
# Mechanical properties :
#
#
# Convention : Reuss Voigt Hill
#
# Bulk Modulus (GPa) = 25.93048 42.13768 34.03408
# Shear Modulus (GPa) = 23.82129 28.21683 26.01906
#
# Velocity S-wave (km/s) = 3.42331 3.72579 3.57775
# Velocity P-wave (km/s) = 5.32749 6.26407 5.81467
#
# Compressibility (1/GPa) = 0.03856466
#
# Stress axis : x y z
#
# Youngs Moduli (GPa) = 60.36801 64.52807 43.12723
#
# Poissons Ratio (x) = 0.36880 -0.18337
# Poissons Ratio (y) = 0.34503 0.29666
# Poissons Ratio (z) = -0.25667 0.44387
#
# Static dielectric constant tensor:
#      x y z
#    x 1.754750 0.000000 -0.026900 
#    y 0.000000 1.676580 0.000000 
#    z -0.026900 0.000000 1.706210 
# 
# From -- ./inp_files/89553.got.cif
#   From: 2010.05.17/outbox.cif.g08.bks.cpg/sg10_45_cif.got.tgz:89553.got - 2010.06.03 11:33:40.
