data_PCOD9152401
_publ_section_title
;
Structure prediction by ZEFSAII (Michael W. Deem and Ramdas Pophale) SiO2 
 PCOD9152401
Probable space group: P 2/M
;
_chemical_formula_sum "Si O2"
_cell_formula_units_Z 22
_cell_length_a 15.916925
_cell_length_b 11.360255
_cell_length_c 14.105431
_cell_angle_alpha 90.000000
_cell_angle_beta 26.570909
_cell_angle_gamma 90.000000
_cell_volume 1140.873257
_symmetry_space_group_name_H-M "P 2/M"
_symmetry_group_IT_number 10
_symmetry_cell_setting 'monoclinic'
loop_
_space_group_symop_operation_xyz
x,y,z
-x,y,-z
-x,-y,-z
x,-y,z
loop_
_atom_site_type_symbol
_atom_site_label
_atom_site_fract_x
_atom_site_fract_y
_atom_site_fract_z
Si Si1 0.994486 0.500000 0.619706
Si Si2 0.934908 0.685408 0.172891
Si Si3 0.768114 0.868961 0.484053
Si Si4 0.974049 0.761573 0.637149
Si Si5 0.429910 0.142687 0.961992
Si Si6 0.784783 0.500000 0.011721
Si Si7 0.602893 0.500000 0.496707
O O1 0.000000 0.500000 0.500000
O O2 0.063395 0.633083 0.574218
O O3 0.810686 0.500000 0.872094
O O4 0.867560 0.795580 0.301587
O O5 0.746347 0.607550 0.359451
O O6 0.100885 0.610695 0.057352
O O7 0.000000 0.710038 0.000000
O O8 0.581732 0.826803 0.727481
O O9 0.919004 0.862539 0.415937
O O10 0.730460 0.000000 0.488357
O O11 0.000000 0.774923 0.500000
O O12 0.753540 0.780298 0.874811
O O13 0.395741 0.000000 0.992233
O O14 0.500000 0.166015 0.000000
O O15 0.567567 0.500000 0.257578
O O16 0.500000 0.500000 0.500000
#
# Coordination Sequence:
#
# PCOD9152401 Si02
#       7
#     2   4   4   4   4   2   2
#     4  10  23  37  58  92 128 156 189 236 294 365
#     4  11  23  40  64  90 119 151 201 256 293 357
#     4  11  24  39  59  88 121 161 202 245 301 351
#     4  11  21  39  61  84 122 164 198 242 294 352
#     4  10  21  37  59  87 116 155 208 248 281 345
#     4  11  20  41  65  92 120 153 199 240 292 359
#     4  11  21  39  69  95 111 152 198 249 308 351
#
# _framework density 19.283473000000001
#
# number of rings (size 3 to 8) (size 9 to 14) (size 15 to 20)
#    0.000    1.273    5.455    1.091    2.545    1.091 
#    0.000    1.364    0.000    0.545    0.000    0.000 
#    0.000    0.000    0.000    0.000    0.000    0.000 
#
# Total GULP energy -122490.483108 kJ/mol
# GULP energy per Si atom -5567.749232 kJ/mol
# Density = 1.923958 g / cm^3
# Si number density = 19.283473 Si / 1000 Ang^3
#
#
#
# Elastic Constant Matrix: (Units=GPa)
#
#
# Indices 1 2 3 4 5 6 
#
# 1 31.5629 9.7616 40.3567 0.0000 10.4971 0.0000
# 2 9.7616 65.1442 41.3984 0.0000 7.6331 0.0000
# 3 40.3567 41.3984 177.0755 0.0000 22.7349 0.0000
# 4 0.0000 0.0000 0.0000 81.9493 0.0000 36.9915
# 5 10.4971 7.6331 22.7349 0.0000 47.7276 0.0000
# 6 0.0000 0.0000 0.0000 36.9915 0.0000 9.3324
#
#
#
# Elastic Compliance Matrix: (Units=1/GPa)
#
#
# Indices 1 2 3 4 5 6 
#
# 1 0.046009 -0.000043 -0.009775 0.000000 -0.005456 0.000000
# 2 -0.000043 0.018068 -0.004095 0.000000 -0.000930 0.000000
# 3 -0.009775 -0.004095 0.009024 0.000000 -0.001494 0.000000
# 4 0.000000 0.000000 0.000000 -0.015462 0.000000 0.061286
# 5 -0.005456 -0.000930 -0.001494 0.000000 0.023012 0.000000
# 6 0.000000 0.000000 0.000000 0.061286 0.000000 -0.135771
#
#
# Mechanical properties :
#
#
# Convention : Reuss Voigt Hill
#
# Bulk Modulus (GPa) = 22.08705 50.75734 36.42219
# Shear Modulus (GPa) = -409.85447 39.95293 -184.95077
#
# Velocity S-wave (km/s) = -14.59463 4.55672 -9.80407
# Velocity P-wave (km/s) = 16.50835 7.35281 10.45136
#
# Compressibility (1/GPa) = 0.04527540
#
# Stress axis : x y z
#
# Youngs Moduli (GPa) = 21.73467 55.34565 110.81134
#
# Poissons Ratio (x) = 0.00238 1.08322
# Poissons Ratio (y) = 0.00093 0.45378
# Poissons Ratio (z) = 0.21246 0.22664
#
# Static dielectric constant tensor:
#      x y z
#    x 1.665580 0.000000 0.004460 
#    y 0.000000 1.737000 0.000000 
#    z 0.004460 0.000000 1.667870 
# 
# From -- ./inp_files/69040.got.cif
#   From: 2010.05.17/outbox.cif.g08.bks.cpg/sg10_35_cif.got.tgz:69040.got - 2010.06.03 11:33:40.
