data_PCOD9152965
_publ_section_title
;
Structure prediction by ZEFSAII (Michael W. Deem and Ramdas Pophale) SiO2 
 PCOD9152965
Probable space group: P 2/M
;
_chemical_formula_sum "Si O2"
_cell_formula_units_Z 16
_cell_length_a 12.521598
_cell_length_b 8.125789
_cell_length_c 9.635011
_cell_angle_alpha 90.000000
_cell_angle_beta 121.527891
_cell_angle_gamma 90.000000
_cell_volume 835.629332
_symmetry_space_group_name_H-M "P 2/M"
_symmetry_group_IT_number 10
_symmetry_cell_setting 'monoclinic'
loop_
_space_group_symop_operation_xyz
x,y,z
-x,y,-z
-x,-y,-z
x,-y,z
loop_
_atom_site_type_symbol
_atom_site_label
_atom_site_fract_x
_atom_site_fract_y
_atom_site_fract_z
Si Si1 0.293481 0.684826 0.695510
Si Si2 0.722566 0.182016 0.022765
Si Si3 0.964349 0.000000 0.134865
Si Si4 0.871236 0.000000 0.498773
Si Si5 0.459491 0.306506 0.322040
O O1 0.247194 0.500000 0.629864
O O2 0.308754 0.699130 0.872053
O O3 0.424115 0.708201 0.704253
O O4 0.204528 0.835327 0.590821
O O5 0.674369 0.000000 0.031259
O O6 0.871602 0.153300 0.106513
O O7 0.658582 0.227595 0.834857
O O8 0.085446 0.000000 0.312906
O O9 0.000000 0.000000 0.000000
O O10 0.000000 0.000000 0.500000
O O11 0.500000 0.238931 0.500000
O O12 0.431687 0.500000 0.322049
#
# Coordination Sequence:
#
# PCOD9152965 Si02
#       5
#     4   4   2   2   4
#     4  11  23  40  67  92 122 164 201 254 310 357
#     4  10  21  39  62  90 120 161 203 251 304 361
#     4  10  24  41  60  91 125 162 205 258 300 356
#     4  12  22  45  62  91 125 158 211 258 286 372
#     4  10  23  40  59  92 126 155 203 257 307 370
#
# _framework density 19.147245999999999
#
# number of rings (size 3 to 8) (size 9 to 14) (size 15 to 20)
#    0.750    0.750    3.750    1.500    5.250    4.000 
#    0.000    0.000    0.000    3.750    0.000    0.000 
#    0.000    0.000    0.000    0.000    0.000    0.000 
#
# Total GULP energy -89224.733502 kJ/mol
# GULP energy per Si atom -5576.545844 kJ/mol
# Density = 1.910367 g / cm^3
# Si number density = 19.147246 Si / 1000 Ang^3
#
#
#
# Elastic Constant Matrix: (Units=GPa)
#
#
# Indices 1 2 3 4 5 6 
#
# 1 27.8870 10.2158 10.0545 0.0000 -11.4561 0.0000
# 2 10.2158 87.9154 22.6630 0.0000 17.2026 0.0000
# 3 10.0545 22.6630 139.2006 0.0000 -4.9257 0.0000
# 4 0.0000 0.0000 0.0000 39.0061 0.0000 3.7097
# 5 -11.4561 17.2026 -4.9257 0.0000 36.7337 0.0000
# 6 0.0000 0.0000 0.0000 3.7097 0.0000 18.5104
#
#
#
# Elastic Compliance Matrix: (Units=1/GPa)
#
#
# Indices 1 2 3 4 5 6 
#
# 1 0.047231 -0.008803 -0.001317 0.000000 0.018676 0.000000
# 2 -0.008803 0.014911 -0.002146 0.000000 -0.010016 0.000000
# 3 -0.001317 -0.002146 0.007686 0.000000 0.001625 0.000000
# 4 0.000000 0.000000 0.000000 0.026135 0.000000 -0.005238
# 5 0.018676 -0.010016 0.001625 0.000000 0.037956 0.000000
# 6 0.000000 0.000000 0.000000 -0.005238 0.000000 0.055073
#
#
# Mechanical properties :
#
#
# Convention : Reuss Voigt Hill
#
# Bulk Modulus (GPa) = 22.07782 37.87438 29.97610
# Shear Modulus (GPa) = 21.87013 32.98803 27.42908
#
# Velocity S-wave (km/s) = 3.38332 4.15524 3.78899
# Velocity P-wave (km/s) = 5.17862 6.54560 5.90182
#
# Compressibility (1/GPa) = 0.04529432
#
# Stress axis : x y z
#
# Youngs Moduli (GPa) = 21.17261 67.06683 130.10772
#
# Poissons Ratio (x) = 0.59038 0.17141
# Poissons Ratio (y) = 0.18638 0.27923
# Poissons Ratio (z) = 0.02789 0.14393
#
# Static dielectric constant tensor:
#      x y z
#    x 1.642690 0.000000 -0.007780 
#    y 0.000000 1.685150 0.000000 
#    z -0.007780 0.000000 1.703580 
# 
# From -- ./inp_files/22498.got.cif
#   From: 2010.05.17/outbox.cif.g08.bks.cpg/sg10_12_cif.got.tgz:22498.got - 2010.06.03 11:33:40.
