data_PCOD9152920
_publ_section_title
;
Structure prediction by ZEFSAII (Michael W. Deem and Ramdas Pophale) SiO2 
 PCOD9152920
Probable space group: P 2/M
;
_chemical_formula_sum "Si O2"
_cell_formula_units_Z 28
_cell_length_a 8.983890
_cell_length_b 14.149963
_cell_length_c 22.723189
_cell_angle_alpha 90.000000
_cell_angle_beta 150.972767
_cell_angle_gamma 90.000000
_cell_volume 1401.626911
_symmetry_space_group_name_H-M "P 2/M"
_symmetry_group_IT_number 10
_symmetry_cell_setting 'monoclinic'
loop_
_space_group_symop_operation_xyz
x,y,z
-x,y,-z
-x,-y,-z
x,-y,z
loop_
_atom_site_type_symbol
_atom_site_label
_atom_site_fract_x
_atom_site_fract_y
_atom_site_fract_z
Si Si1 0.797058 0.724148 0.987477
Si Si2 0.864265 0.245063 0.295177
Si Si3 0.175245 0.390336 0.206702
Si Si4 0.835742 0.890066 0.087493
Si Si5 0.918148 0.889533 0.540633
Si Si6 0.843369 0.390582 0.386224
Si Si7 0.277993 0.216305 0.327655
O O1 0.444426 0.729329 0.846550
O O2 0.874049 0.824380 0.044072
O O3 0.000000 0.706943 0.000000
O O4 0.890429 0.647941 0.069667
O O5 0.940321 0.332884 0.363283
O O6 0.831045 0.157459 0.329274
O O7 0.124813 0.222614 0.338258
O O8 0.139761 0.500000 0.211861
O O9 0.478364 0.383888 0.270299
O O10 0.242058 0.317977 0.283028
O O11 0.081410 0.855890 0.219982
O O12 0.867866 0.000000 0.085191
O O13 0.500000 0.873672 0.000000
O O14 0.616349 0.826431 0.446276
O O15 0.000000 0.883344 0.500000
O O16 0.870142 0.000000 0.538220
O O17 0.930182 0.500000 0.410542
O O18 0.000000 0.353357 0.500000
#
# Coordination Sequence:
#
# PCOD9152920 Si02
#       7
#     4   4   4   4   4   4   4
#     4  11  23  39  61  92 127 165 210 264 308 372
#     4  12  23  39  63  93 126 163 210 262 319 367
#     4  10  22  40  64  92 130 175 212 258 317 379
#     4  10  21  39  61  86 123 165 204 253 314 374
#     4  11  26  45  67  94 125 166 212 261 321 384
#     4  10  21  39  63  91 124 167 216 261 316 375
#     4  11  23  41  65  93 128 163 209 261 316 380
#
# _framework density 19.976786000000001
#
# number of rings (size 3 to 8) (size 9 to 14) (size 15 to 20)
#    0.000    1.286    2.857    3.000    2.000    4.000 
#    0.000    0.714    0.000    4.286    0.000    0.000 
#    0.000    0.000    0.000    0.000    0.000    0.000 
#
# Total GULP energy -156488.948396 kJ/mol
# GULP energy per Si atom -5588.891014 kJ/mol
# Density = 1.993132 g / cm^3
# Si number density = 19.976786 Si / 1000 Ang^3
#
#
#
# Elastic Constant Matrix: (Units=GPa)
#
#
# Indices 1 2 3 4 5 6 
#
# 1 56.5008 10.1914 6.6567 0.0000 -13.1047 0.0000
# 2 10.1914 100.9424 26.8375 0.0000 -10.1712 0.0000
# 3 6.6567 26.8375 108.8142 0.0000 -2.5166 0.0000
# 4 0.0000 0.0000 0.0000 15.9122 0.0000 8.9449
# 5 -13.1047 -10.1712 -2.5166 0.0000 31.5953 0.0000
# 6 0.0000 0.0000 0.0000 8.9449 0.0000 11.3547
#
#
#
# Elastic Compliance Matrix: (Units=1/GPa)
#
#
# Indices 1 2 3 4 5 6 
#
# 1 0.019786 -0.001001 -0.000783 0.000000 0.007822 0.000000
# 2 -0.001001 0.010988 -0.002581 0.000000 0.002916 0.000000
# 3 -0.000783 -0.002581 0.009866 0.000000 -0.000370 0.000000
# 4 0.000000 0.000000 0.000000 0.112795 0.000000 -0.088857
# 5 0.007822 0.002916 -0.000370 0.000000 0.035804 0.000000
# 6 0.000000 0.000000 0.000000 -0.088857 0.000000 0.158069
#
#
# Mechanical properties :
#
#
# Convention : Reuss Voigt Hill
#
# Bulk Modulus (GPa) = 31.33893 39.29205 35.31549
# Shear Modulus (GPa) = 13.63606 26.61057 20.12331
#
# Velocity S-wave (km/s) = 2.61549 3.65372 3.17730
# Velocity P-wave (km/s) = 4.98425 6.12463 5.58363
#
# Compressibility (1/GPa) = 0.03190920
#
# Stress axis : x y z
#
# Youngs Moduli (GPa) = 50.54113 91.00928 101.35885
#
# Poissons Ratio (x) = 0.09114 0.07931
# Poissons Ratio (y) = 0.05061 0.26164
# Poissons Ratio (z) = 0.03955 0.23492
#
# Static dielectric constant tensor:
#      x y z
#    x 1.685180 0.000000 0.001850 
#    y 0.000000 1.693510 0.000000 
#    z 0.001850 0.000000 1.778090 
# 
# From -- ./inp_files/25420.got.cif
#   From: 2010.05.17/outbox.cif.g08.bks.cpg/sg10_13_cif.got.tgz:25420.got - 2010.06.03 11:33:40.
