data_PCOD9152392
_publ_section_title
;
Structure prediction by ZEFSAII (Michael W. Deem and Ramdas Pophale) SiO2 
 PCOD9152392
Probable space group: P 2/M
;
_chemical_formula_sum "Si O2"
_cell_formula_units_Z 32
_cell_length_a 29.163422
_cell_length_b 9.666801
_cell_length_c 5.393041
_cell_angle_alpha 90.000000
_cell_angle_beta 101.849850
_cell_angle_gamma 90.000000
_cell_volume 1487.989041
_symmetry_space_group_name_H-M "P 2/M"
_symmetry_group_IT_number 10
_symmetry_cell_setting 'monoclinic'
loop_
_space_group_symop_operation_xyz
x,y,z
-x,y,-z
-x,-y,-z
x,-y,z
loop_
_atom_site_type_symbol
_atom_site_label
_atom_site_fract_x
_atom_site_fract_y
_atom_site_fract_z
Si Si1 0.683639 0.162973 0.970085
Si Si2 0.030271 0.339874 0.285931
Si Si3 0.528837 0.334353 0.281841
Si Si4 0.754794 0.345413 0.788543
Si Si5 0.851673 0.346404 0.165784
Si Si6 0.623941 0.162437 0.400898
Si Si7 0.100073 0.846099 0.111362
Si Si8 0.196843 0.153553 0.489826
O O1 0.725886 0.269955 0.971963
O O2 0.650925 0.185367 0.690667
O O3 0.697803 0.000000 0.980386
O O4 0.656097 0.189050 0.194688
O O5 0.047017 0.500000 0.306327
O O6 0.070942 0.226721 0.296480
O O7 0.000000 0.318206 0.500000
O O8 0.000000 0.324041 0.000000
O O9 0.500000 0.300227 0.500000
O O10 0.536557 0.500000 0.289700
O O11 0.577884 0.255366 0.338030
O O12 0.500000 0.299573 0.000000
O O13 0.736758 0.500000 0.709402
O O14 0.809070 0.363434 0.923935
O O15 0.758928 0.232716 0.575332
O O16 0.863556 0.500000 0.268883
O O17 0.895957 0.267956 0.099717
O O18 0.827573 0.249616 0.338150
O O19 0.611164 0.000000 0.377583
O O20 0.154338 0.863840 0.247351
O O21 0.082095 0.000000 0.028246
O O22 0.209079 0.000000 0.593368
#
# Coordination Sequence:
#
# PCOD9152392 Si02
#       8
#     4   4   4   4   4   4   4   4
#     4  10  22  39  58  84 119 159 199 246 297 355
#     4  10  23  42  63  90 122 160 201 243 299 363
#     4  10  21  37  59  87 118 151 192 243 300 357
#     4  10  22  38  56  84 115 153 203 249 296 354
#     4  10  21  37  59  86 117 152 197 249 298 355
#     4  10  22  39  59  86 118 155 201 244 296 358
#     4  10  22  39  59  87 118 153 197 245 301 357
#     4  10  21  37  59  86 117 153 195 245 301 356
#
# _framework density 21.505537
#
# number of rings (size 3 to 8) (size 9 to 14) (size 15 to 20)
#    0.000    2.000    0.000    2.250    3.500    5.000 
#    0.000    0.000    0.000    0.000    0.000    0.000 
#    0.000    0.000    0.000    0.000    0.000    0.000 
#
# Total GULP energy -178633.164736 kJ/mol
# GULP energy per Si atom -5582.286398 kJ/mol
# Density = 2.145659 g / cm^3
# Si number density = 21.505537 Si / 1000 Ang^3
#
#
#
# Elastic Constant Matrix: (Units=GPa)
#
#
# Indices 1 2 3 4 5 6 
#
# 1 99.1096 57.3556 40.6318 0.0000 -8.3622 0.0000
# 2 57.3556 155.3739 40.2778 0.0000 -29.0598 0.0000
# 3 40.6318 40.2778 109.9765 0.0000 -14.2230 0.0000
# 4 0.0000 0.0000 0.0000 16.5938 0.0000 -5.3411
# 5 -8.3622 -29.0598 -14.2230 0.0000 40.4926 0.0000
# 6 0.0000 0.0000 0.0000 -5.3411 0.0000 32.4371
#
#
#
# Elastic Compliance Matrix: (Units=1/GPa)
#
#
# Indices 1 2 3 4 5 6 
#
# 1 0.014128 -0.004551 -0.003769 0.000000 -0.001672 0.000000
# 2 -0.004551 0.009408 -0.001061 0.000000 0.005440 0.000000
# 3 -0.003769 -0.001061 0.011183 0.000000 0.002388 0.000000
# 4 0.000000 0.000000 0.000000 0.063636 0.000000 0.010478
# 5 -0.001672 0.005440 0.002388 0.000000 0.029093 0.000000
# 6 0.000000 0.000000 0.000000 0.010478 0.000000 0.032554
#
#
# Mechanical properties :
#
#
# Convention : Reuss Voigt Hill
#
# Bulk Modulus (GPa) = 62.66835 71.22115 66.94475
# Shear Modulus (GPa) = 27.16165 32.98435 30.07300
#
# Velocity S-wave (km/s) = 3.55774 3.92057 3.74355
# Velocity P-wave (km/s) = 6.78826 7.32694 7.06274
#
# Compressibility (1/GPa) = 0.01595702
#
# Stress axis : x y z
#
# Youngs Moduli (GPa) = 70.78349 106.28802 89.42305
#
# Poissons Ratio (x) = 0.48370 0.33705
# Poissons Ratio (y) = 0.32212 0.09487
# Poissons Ratio (z) = 0.26679 0.11276
#
# Static dielectric constant tensor:
#      x y z
#    x 1.776330 0.000000 0.050640 
#    y 0.000000 1.837380 0.000000 
#    z 0.050640 0.000000 1.853690 
# 
# From -- ./inp_files/13643.got.cif
#   From: 2010.05.17/outbox.cif.g08.bks.cpg/sg10_7_cif.got.tgz:13643.got - 2010.06.03 11:33:40.
