data_PCOD9152323
_publ_section_title
;
Structure prediction by ZEFSAII (Michael W. Deem and Ramdas Pophale) SiO2 
 PCOD9152323
Probable space group: P 2/M
;
_chemical_formula_sum "Si O2"
_cell_formula_units_Z 32
_cell_length_a 11.783035
_cell_length_b 8.947558
_cell_length_c 29.407109
_cell_angle_alpha 90.000000
_cell_angle_beta 31.530302
_cell_angle_gamma 90.000000
_cell_volume 1621.338565
_symmetry_space_group_name_H-M "P 2/M"
_symmetry_group_IT_number 10
_symmetry_cell_setting 'monoclinic'
loop_
_space_group_symop_operation_xyz
x,y,z
-x,y,-z
-x,-y,-z
x,-y,z
loop_
_atom_site_type_symbol
_atom_site_label
_atom_site_fract_x
_atom_site_fract_y
_atom_site_fract_z
Si Si1 0.240752 0.324343 0.582529
Si Si2 0.632899 0.676590 0.696852
Si Si3 0.914322 0.174139 0.455417
Si Si4 0.756080 0.179613 0.913040
Si Si5 0.905164 0.818896 0.961546
Si Si6 0.475282 0.176243 0.662048
Si Si7 0.656483 0.180281 0.134577
Si Si8 0.905714 0.321521 0.266814
O O1 0.500000 0.308722 0.500000
O O2 0.198395 0.500000 0.586285
O O3 0.161672 0.221643 0.568733
O O4 0.126199 0.286118 0.669175
O O5 0.613338 0.500000 0.703138
O O6 0.487319 0.749301 0.707101
O O7 0.551463 0.742832 0.772560
O O8 0.878205 0.727281 0.603680
O O9 0.709088 0.196234 0.558361
O O10 0.977081 0.000000 0.436157
O O11 0.858441 0.231362 0.926331
O O12 0.879189 0.256653 0.829524
O O13 0.785655 0.000000 0.899678
O O14 0.500000 0.209843 0.000000
O O15 0.135320 0.776827 0.905222
O O16 0.904435 0.000000 0.960801
O O17 0.720691 0.776019 0.061279
O O18 0.294166 0.250586 0.692585
O O19 0.431248 0.000000 0.681642
O O20 0.634137 0.000000 0.143992
O O21 0.897941 0.500000 0.265018
#
# Coordination Sequence:
#
# PCOD9152323 Si02
#       8
#     4   4   4   4   4   4   4   4
#     4  10  21  40  63  87 122 160 195 241 298 359
#     4  12  25  38  56  86 124 160 195 237 299 365
#     4  11  24  40  61  87 116 154 202 252 296 344
#     4  10  21  37  57  84 119 157 197 243 296 353
#     4   8  16  33  58  83 108 145 192 240 292 344
#     4  11  23  40  62  87 117 153 200 251 296 350
#     4   9  17  34  59  82 108 147 195 243 288 344
#     4  11  23  39  63  92 121 159 202 245 302 361
#
# _framework density 19.736778000000001
#
# number of rings (size 3 to 8) (size 9 to 14) (size 15 to 20)
#    0.000    1.750    1.250    4.125    0.000    6.500 
#    0.000    3.125    0.000    0.000    0.000    0.000 
#    0.000    0.000    0.000    0.000    0.000    0.000 
#
# Total GULP energy -178864.057288 kJ/mol
# GULP energy per Si atom -5589.501790 kJ/mol
# Density = 1.969186 g / cm^3
# Si number density = 19.736778 Si / 1000 Ang^3
#
#
#
# Elastic Constant Matrix: (Units=GPa)
#
#
# Indices 1 2 3 4 5 6 
#
# 1 38.3251 15.0421 12.7404 0.0000 18.8836 0.0000
# 2 15.0421 49.4020 46.8771 0.0000 12.6672 0.0000
# 3 12.7404 46.8771 93.0581 0.0000 25.4923 0.0000
# 4 0.0000 0.0000 0.0000 -14.9006 0.0000 -25.5069
# 5 18.8836 12.6672 25.4923 0.0000 28.7913 0.0000
# 6 0.0000 0.0000 0.0000 -25.5069 0.0000 9.4919
#
#
#
# Elastic Compliance Matrix: (Units=1/GPa)
#
#
# Indices 1 2 3 4 5 6 
#
# 1 0.043960 -0.014912 0.010026 0.000000 -0.031149 0.000000
# 2 -0.014912 0.043838 -0.023021 0.000000 0.010876 0.000000
# 3 0.010026 -0.023021 0.026400 0.000000 -0.019823 0.000000
# 4 0.000000 0.000000 0.000000 -0.011984 0.000000 -0.032204
# 5 -0.031149 0.010876 -0.019823 0.000000 0.067929 0.000000
# 6 0.000000 0.000000 0.000000 -0.032204 0.000000 0.018813
#
#
# Mechanical properties :
#
#
# Convention : Reuss Voigt Hill
#
# Bulk Modulus (GPa) = 17.12764 36.67829 26.90297
# Shear Modulus (GPa) = 18.92279 11.75155 15.33717
#
# Velocity S-wave (km/s) = 3.09974 2.44276 2.79065
# Velocity P-wave (km/s) = 4.63768 5.15559 4.90348
#
# Compressibility (1/GPa) = 0.05838516
#
# Stress axis : x y z
#
# Youngs Moduli (GPa) = 22.74775 22.81120 37.87871
#
# Poissons Ratio (x) = 0.34016 -0.37979
# Poissons Ratio (y) = 0.33922 0.87200
# Poissons Ratio (z) = -0.22808 0.52513
#
# Static dielectric constant tensor:
#      x y z
#    x 1.685190 0.000000 0.004830 
#    y 0.000000 1.655920 0.000000 
#    z 0.004830 0.000000 1.705890 
# 
# From -- ./inp_files/94955.got.cif
#   From: 2010.05.17/outbox.cif.g08.bks.cpg/sg10_48_cif.got.tgz:94955.got - 2010.06.03 11:33:40.
