data_PCOD9152069
_publ_section_title
;
Structure prediction by ZEFSAII (Michael W. Deem and Ramdas Pophale) SiO2 
 PCOD9152069
Probable space group: P 2/M
;
_chemical_formula_sum "Si O2"
_cell_formula_units_Z 24
_cell_length_a 13.771001
_cell_length_b 8.189480
_cell_length_c 14.252276
_cell_angle_alpha 90.000000
_cell_angle_beta 139.250307
_cell_angle_gamma 90.000000
_cell_volume 1049.196248
_symmetry_space_group_name_H-M "P 2/M"
_symmetry_group_IT_number 10
_symmetry_cell_setting 'monoclinic'
loop_
_space_group_symop_operation_xyz
x,y,z
-x,y,-z
-x,-y,-z
x,-y,z
loop_
_atom_site_type_symbol
_atom_site_label
_atom_site_fract_x
_atom_site_fract_y
_atom_site_fract_z
Si Si1 0.270814 0.193918 0.071422
Si Si2 0.477019 0.806604 0.378938
Si Si3 0.337516 0.500000 0.828113
Si Si4 0.220573 0.686811 0.432436
Si Si5 0.992899 0.500000 0.382065
Si Si6 0.965672 0.691518 0.872216
Si Si7 0.446636 0.821588 0.852971
O O1 0.338014 0.259358 0.218850
O O2 0.404747 0.209939 0.097006
O O3 0.236736 0.000000 0.053156
O O4 0.124005 0.288896 0.937322
O O5 0.500000 0.739152 0.500000
O O6 0.629781 0.780611 0.433165
O O7 0.451632 0.000000 0.367794
O O8 0.182847 0.500000 0.771392
O O9 0.340719 0.665440 0.769783
O O10 0.500000 0.500000 0.000000
O O11 0.271735 0.500000 0.451431
O O12 0.084756 0.653651 0.404909
O O13 0.155355 0.761259 0.287892
O O14 0.000000 0.500000 0.500000
O O15 0.931527 0.500000 0.858785
O O16 0.000000 0.765015 0.000000
O O17 0.384601 0.000000 0.781830
O O18 0.500000 0.832097 0.000000
#
# Coordination Sequence:
#
# PCOD9152069 Si02
#       7
#     4   4   2   4   2   4   4
#     4  10  22  36  57  86 115 149 198 246 290 358
#     4  10  21  39  61  87 119 156 200 244 294 361
#     4  10  22  36  68  85 113 163 201 248 308 353
#     4   9  22  38  58  83 122 155 191 246 288 361
#     4  10  24  42  56  87 121 151 199 246 295 371
#     4  10  21  36  56  84 118 150 189 240 296 358
#     4   9  20  35  55  88 120 145 193 251 297 351
#
# _framework density 22.874651
#
# number of rings (size 3 to 8) (size 9 to 14) (size 15 to 20)
#    0.500    1.833    0.000    1.000    8.167    2.000 
#    0.000    0.833    0.000    1.000    0.000    0.000 
#    0.000    0.000    0.000    0.000    0.000    0.000 
#
# Total GULP energy -133828.698243 kJ/mol
# GULP energy per Si atom -5576.195760 kJ/mol
# Density = 2.282259 g / cm^3
# Si number density = 22.874651 Si / 1000 Ang^3
#
#
#
# Elastic Constant Matrix: (Units=GPa)
#
#
# Indices 1 2 3 4 5 6 
#
# 1 81.7306 12.7246 9.0101 0.0000 0.7175 0.0000
# 2 12.7246 51.5519 -17.2978 0.0000 3.5865 0.0000
# 3 9.0101 -17.2978 87.1213 0.0000 8.7453 0.0000
# 4 0.0000 0.0000 0.0000 6.3990 0.0000 2.9814
# 5 0.7175 3.5865 8.7453 0.0000 41.3967 0.0000
# 6 0.0000 0.0000 0.0000 2.9814 0.0000 26.9763
#
#
#
# Elastic Compliance Matrix: (Units=1/GPa)
#
#
# Indices 1 2 3 4 5 6 
#
# 1 0.013099 -0.004016 -0.002211 0.000000 0.000588 0.000000
# 2 -0.004016 0.022320 0.005143 0.000000 -0.002951 0.000000
# 3 -0.002211 0.005143 0.013046 0.000000 -0.003163 0.000000
# 4 0.000000 0.000000 0.000000 0.164757 0.000000 -0.018209
# 5 0.000588 -0.002951 -0.003163 0.000000 0.025070 0.000000
# 6 0.000000 0.000000 0.000000 -0.018209 0.000000 0.039082
#
#
# Mechanical properties :
#
#
# Convention : Reuss Voigt Hill
#
# Bulk Modulus (GPa) = 21.59970 25.47529 23.53750
# Shear Modulus (GPa) = 16.95059 29.35218 23.15138
#
# Velocity S-wave (km/s) = 2.72512 3.58603 3.18480
# Velocity P-wave (km/s) = 4.40055 5.32045 4.88222
#
# Compressibility (1/GPa) = 0.04629695
#
# Stress axis : x y z
#
# Youngs Moduli (GPa) = 76.34064 44.80230 76.65404
#
# Poissons Ratio (x) = 0.17993 0.16949
# Poissons Ratio (y) = 0.30659 -0.39425
# Poissons Ratio (z) = 0.16880 -0.23043
#
# Static dielectric constant tensor:
#      x y z
#    x 1.918430 0.000000 -0.049580 
#    y 0.000000 1.856120 0.000000 
#    z -0.049580 0.000000 1.877630 
# 
# From -- ./inp_files/66747.got.cif
#   From: 2010.05.17/outbox.cif.g08.bks.cpg/sg10_34_cif.got.tgz:66747.got - 2010.06.03 11:33:40.
