data_PCOD9152128
_publ_section_title
;
Structure prediction by ZEFSAII (Michael W. Deem and Ramdas Pophale) SiO2 
 PCOD9152128
Probable space group: P 2/M
;
_chemical_formula_sum "Si O2"
_cell_formula_units_Z 32
_cell_length_a 10.820580
_cell_length_b 8.178962
_cell_length_c 19.006606
_cell_angle_alpha 90.000000
_cell_angle_beta 60.214376
_cell_angle_gamma 90.000000
_cell_volume 1459.882988
_symmetry_space_group_name_H-M "P 2/M"
_symmetry_group_IT_number 10
_symmetry_cell_setting 'monoclinic'
loop_
_space_group_symop_operation_xyz
x,y,z
-x,y,-z
-x,-y,-z
x,-y,z
loop_
_atom_site_type_symbol
_atom_site_label
_atom_site_fract_x
_atom_site_fract_y
_atom_site_fract_z
Si Si1 0.426199 0.809320 0.232881
Si Si2 0.936497 0.308163 0.228975
Si Si3 0.348048 0.189008 0.474698
Si Si4 0.812327 0.683621 0.610511
Si Si5 0.616010 0.195467 0.318161
Si Si6 0.910465 0.300118 0.956929
Si Si7 0.926779 0.192986 0.382642
Si Si8 0.580342 0.697939 0.048452
O O1 0.288365 0.705906 0.293058
O O2 0.537832 0.785080 0.265198
O O3 0.496866 0.760197 0.140048
O O4 0.386014 0.000000 0.243426
O O5 0.967213 0.500000 0.227313
O O6 0.767340 0.280448 0.271236
O O7 0.980340 0.222880 0.288920
O O8 0.013777 0.247012 0.136749
O O9 0.254955 0.199438 0.429184
O O10 0.502010 0.257194 0.409036
O O11 0.235701 0.256675 0.562764
O O12 0.372885 0.000000 0.485546
O O13 0.800824 0.500000 0.586447
O O14 0.970130 0.723171 0.590735
O O15 0.638152 0.000000 0.323627
O O16 0.912565 0.500000 0.956824
O O17 0.745505 0.248919 0.004740
O O18 0.000000 0.246345 0.000000
O O19 0.926106 0.000000 0.396858
O O20 0.579746 0.500000 0.049939
O O21 0.500000 0.750294 0.000000
#
# Coordination Sequence:
#
# PCOD9152128 Si02
#       8
#     4   4   4   4   4   4   4   4
#     4  10  21  38  60  86 116 153 195 240 293 356
#     4  11  23  37  58  87 118 152 194 245 299 356
#     4   9  20  39  61  84 114 156 200 240 291 354
#     4  11  22  36  59  88 119 153 195 245 294 349
#     4   9  19  38  60  82 111 149 196 243 289 348
#     4   9  19  37  59  83 116 156 196 241 301 367
#     4  11  23  39  58  82 118 160 197 238 294 357
#     4  10  21  36  58  87 117 153 197 248 307 363
#
# _framework density 21.919567000000001
#
# number of rings (size 3 to 8) (size 9 to 14) (size 15 to 20)
#    0.000    2.000    0.000    4.125    1.750    6.750 
#    0.000    3.750    0.000    3.375    0.000    0.000 
#    0.000    0.000    0.000    0.000    0.000    0.000 
#
# Total GULP energy -178856.144998 kJ/mol
# GULP energy per Si atom -5589.254531 kJ/mol
# Density = 2.186968 g / cm^3
# Si number density = 21.919567 Si / 1000 Ang^3
#
#
#
# Elastic Constant Matrix: (Units=GPa)
#
#
# Indices 1 2 3 4 5 6 
#
# 1 96.6539 18.7836 30.7507 0.0000 -2.5266 0.0000
# 2 18.7836 31.0186 9.1512 0.0000 0.6170 0.0000
# 3 30.7507 9.1512 140.8025 0.0000 4.0098 0.0000
# 4 0.0000 0.0000 0.0000 28.5820 0.0000 6.4672
# 5 -2.5266 0.6170 4.0098 0.0000 30.7499 0.0000
# 6 0.0000 0.0000 0.0000 6.4672 0.0000 12.8530
#
#
#
# Elastic Compliance Matrix: (Units=1/GPa)
#
#
# Indices 1 2 3 4 5 6 
#
# 1 0.012460 -0.006892 -0.002315 0.000000 0.001464 0.000000
# 2 -0.006892 0.036685 -0.000845 0.000000 -0.001192 0.000000
# 3 -0.002315 -0.000845 0.007696 0.000000 -0.001177 0.000000
# 4 0.000000 0.000000 0.000000 0.039482 0.000000 -0.019866
# 5 0.001464 -0.001192 -0.001177 0.000000 0.032818 0.000000
# 6 0.000000 0.000000 0.000000 -0.019866 0.000000 0.087799
#
#
# Mechanical properties :
#
#
# Convention : Reuss Voigt Hill
#
# Bulk Modulus (GPa) = 27.21995 42.87178 35.04587
# Shear Modulus (GPa) = 20.05692 28.42294 24.23993
#
# Velocity S-wave (km/s) = 3.02822 3.60487 3.32905
# Velocity P-wave (km/s) = 4.96708 6.07683 5.54976
#
# Compressibility (1/GPa) = 0.03673776
#
# Stress axis : x y z
#
# Youngs Moduli (GPa) = 80.25485 27.25910 129.93432
#
# Poissons Ratio (x) = 0.18786 0.30081
# Poissons Ratio (y) = 0.55308 0.10982
# Poissons Ratio (z) = 0.18580 0.02304
#
# Static dielectric constant tensor:
#      x y z
#    x 1.790130 0.000000 -0.005080 
#    y 0.000000 1.772960 0.000000 
#    z -0.005080 0.000000 1.812200 
# 
# From -- ./inp_files/83576.got.cif
#   From: 2010.05.17/outbox.cif.g08.bks.cpg/sg10_42_cif.got.tgz:83576.got - 2010.06.03 11:33:40.
