data_PCOD9152423
_publ_section_title
;
Structure prediction by ZEFSAII (Michael W. Deem and Ramdas Pophale) SiO2 
 PCOD9152423
Probable space group: P 2/M
;
_chemical_formula_sum "Si O2"
_cell_formula_units_Z 20
_cell_length_a 14.608276
_cell_length_b 13.982116
_cell_length_c 9.985773
_cell_angle_alpha 90.000000
_cell_angle_beta 153.278467
_cell_angle_gamma 90.000000
_cell_volume 917.133818
_symmetry_space_group_name_H-M "P 2/M"
_symmetry_group_IT_number 10
_symmetry_cell_setting 'monoclinic'
loop_
_space_group_symop_operation_xyz
x,y,z
-x,y,-z
-x,-y,-z
x,-y,z
loop_
_atom_site_type_symbol
_atom_site_label
_atom_site_fract_x
_atom_site_fract_y
_atom_site_fract_z
Si Si1 0.158903 0.888927 0.909537
Si Si2 0.162438 0.720802 0.099723
Si Si3 0.489976 0.751485 0.733332
Si Si4 0.285275 0.894512 0.642810
Si Si5 0.182954 0.613113 0.841587
O O1 0.925350 0.883198 0.550938
O O2 0.212021 0.000000 0.989461
O O3 0.143892 0.832018 0.030421
O O4 0.338617 0.832667 0.069786
O O5 0.378032 0.713883 0.455560
O O6 0.147457 0.661367 0.941588
O O7 0.000000 0.692515 0.000000
O O8 0.316105 0.802708 0.591106
O O9 0.616490 0.663648 0.956844
O O10 0.264352 0.000000 0.548880
O O11 0.500000 0.897673 0.000000
O O12 0.206571 0.500000 0.887739
O O13 0.000000 0.632464 0.500000
#
# Coordination Sequence:
#
# PCOD9152423 Si02
#       5
#     4   4   4   4   4
#     4  10  21  37  59  90 130 174 217 257 308 372
#     4  11  23  41  64  98 131 170 214 264 326 382
#     4  11  23  38  66  93 128 170 217 265 320 383
#     4  10  22  37  58  94 137 177 218 264 315 376
#     4  10  24  45  69  95 124 164 213 269 330 393
#
# _framework density 21.807068000000001
#
# number of rings (size 3 to 8) (size 9 to 14) (size 15 to 20)
#    0.000    1.600    2.000    3.000    5.600    4.800 
#    0.000    3.000    0.000    3.000    0.000    0.000 
#    0.000    0.000    0.000    0.000    0.000    0.000 
#
# Total GULP energy -111554.839254 kJ/mol
# GULP energy per Si atom -5577.741963 kJ/mol
# Density = 2.175743 g / cm^3
# Si number density = 21.807068 Si / 1000 Ang^3
#
#
#
# Elastic Constant Matrix: (Units=GPa)
#
#
# Indices 1 2 3 4 5 6 
#
# 1 78.0332 37.7341 16.9198 0.0000 8.8981 0.0000
# 2 37.7341 129.1826 61.8100 0.0000 -9.3506 0.0000
# 3 16.9198 61.8100 134.8815 0.0000 4.2321 0.0000
# 4 0.0000 0.0000 0.0000 -9.0872 0.0000 -13.4584
# 5 8.8981 -9.3506 4.2321 0.0000 33.8802 0.0000
# 6 0.0000 0.0000 0.0000 -13.4584 0.0000 11.4475
#
#
#
# Elastic Compliance Matrix: (Units=1/GPa)
#
#
# Indices 1 2 3 4 5 6 
#
# 1 0.015932 -0.005379 0.000647 0.000000 -0.005750 0.000000
# 2 -0.005379 0.012117 -0.005047 0.000000 0.005387 0.000000
# 3 0.000647 -0.005047 0.009733 0.000000 -0.002779 0.000000
# 4 0.000000 0.000000 0.000000 -0.040145 0.000000 -0.047197
# 5 -0.005750 0.005387 -0.002779 0.000000 0.032860 0.000000
# 6 0.000000 0.000000 0.000000 -0.047197 0.000000 0.031868
#
#
# Mechanical properties :
#
#
# Convention : Reuss Voigt Hill
#
# Bulk Modulus (GPa) = 54.87610 63.89167 59.38389
# Shear Modulus (GPa) = 56.82012 22.29032 39.55522
#
# Velocity S-wave (km/s) = 5.11003 3.20059 4.26358
# Velocity P-wave (km/s) = 7.74826 6.55901 7.17830
#
# Compressibility (1/GPa) = 0.01822287
#
# Stress axis : x y z
#
# Youngs Moduli (GPa) = 62.76810 82.52840 102.74636
#
# Poissons Ratio (x) = 0.44395 -0.06648
# Poissons Ratio (y) = 0.33765 0.51855
# Poissons Ratio (z) = -0.04061 0.41651
#
# Static dielectric constant tensor:
#      x y z
#    x 1.843360 0.000000 -0.008550 
#    y 0.000000 1.790930 0.000000 
#    z -0.008550 0.000000 1.844790 
# 
# From -- ./inp_files/53949.got.cif
#   From: 2010.05.17/outbox.cif.g08.bks.cpg/sg10_27_cif.got.tgz:53949.got - 2010.06.03 11:33:40.
