data_PCOD9152472
_publ_section_title
;
Structure prediction by ZEFSAII (Michael W. Deem and Ramdas Pophale) SiO2 
 PCOD9152472
Probable space group: P 2/M
;
_chemical_formula_sum "Si O2"
_cell_formula_units_Z 32
_cell_length_a 21.601482
_cell_length_b 8.538814
_cell_length_c 27.722914
_cell_angle_alpha 90.000000
_cell_angle_beta 160.308449
_cell_angle_gamma 90.000000
_cell_volume 1723.033486
_symmetry_space_group_name_H-M "P 2/M"
_symmetry_group_IT_number 10
_symmetry_cell_setting 'monoclinic'
loop_
_space_group_symop_operation_xyz
x,y,z
-x,y,-z
-x,-y,-z
x,-y,z
loop_
_atom_site_type_symbol
_atom_site_label
_atom_site_fract_x
_atom_site_fract_y
_atom_site_fract_z
Si Si1 0.788979 0.808831 0.345620
Si Si2 0.423907 0.808957 0.713821
Si Si3 0.839993 0.187263 0.035020
Si Si4 0.547251 0.310803 0.457029
Si Si5 0.494964 0.810414 0.051753
Si Si6 0.792411 0.688362 0.730056
Si Si7 0.870744 0.686142 0.165552
Si Si8 0.246978 0.187357 0.483627
O O1 0.681560 0.758776 0.315094
O O2 0.671409 0.760699 0.212651
O O3 0.000000 0.756094 0.500000
O O4 0.791267 0.000000 0.347548
O O5 0.321158 0.758824 0.589943
O O6 0.423926 0.000000 0.714164
O O7 0.636335 0.758513 0.870660
O O8 0.879766 0.250776 0.117679
O O9 0.005040 0.242185 0.121951
O O10 0.838707 0.000000 0.036041
O O11 0.552591 0.500000 0.456582
O O12 0.345511 0.264914 0.328203
O O13 0.688848 0.268274 0.604031
O O14 0.612525 0.235514 0.455494
O O15 0.491027 0.000000 0.049157
O O16 0.500000 0.757897 0.000000
O O17 0.312251 0.751317 0.943829
O O18 0.804190 0.500000 0.739116
O O19 0.865746 0.500000 0.160471
O O20 0.050568 0.741279 0.326061
O O21 0.229211 0.000000 0.471539
#
# Coordination Sequence:
#
# PCOD9152472 Si02
#       8
#     4   4   4   4   4   4   4   4
#     4   9  17  32  56  84 114 146 180 226 282 334
#     4   9  20  36  55  82 117 148 185 236 288 335
#     4  11  20  36  60  86 112 146 192 242 283 331
#     4   9  18  34  54  80 117 152 185 230 283 340
#     4  10  21  37  61  90 114 142 189 240 283 332
#     4   9  18  33  55  82 114 151 187 228 283 344
#     4  12  24  38  57  82 118 156 190 233 285 337
#     4  11  22  36  58  86 114 148 193 241 283 333
#
# _framework density 18.571895999999999
#
# number of rings (size 3 to 8) (size 9 to 14) (size 15 to 20)
#    0.000    2.000    2.500    2.625    1.750    0.750 
#    0.000    4.375    0.000    4.125    0.000    0.000 
#    0.000    0.000    0.000    0.000    0.000    0.000 
#
# Total GULP energy -178662.797638 kJ/mol
# GULP energy per Si atom -5583.212426 kJ/mol
# Density = 1.852963 g / cm^3
# Si number density = 18.571896 Si / 1000 Ang^3
#
#
#
# Elastic Constant Matrix: (Units=GPa)
#
#
# Indices 1 2 3 4 5 6 
#
# 1 92.5417 13.7107 73.8091 0.0000 6.2286 0.0000
# 2 13.7107 14.6427 18.7566 0.0000 -0.9166 0.0000
# 3 73.8091 18.7566 171.4263 0.0000 8.8032 0.0000
# 4 0.0000 0.0000 0.0000 25.8466 0.0000 42.9458
# 5 6.2286 -0.9166 8.8032 0.0000 35.5303 0.0000
# 6 0.0000 0.0000 0.0000 42.9458 0.0000 47.6592
#
#
#
# Elastic Compliance Matrix: (Units=1/GPa)
#
#
# Indices 1 2 3 4 5 6 
#
# 1 0.017262 -0.007968 -0.006477 0.000000 -0.001627 0.000000
# 2 -0.007968 0.083744 -0.005991 0.000000 0.005042 0.000000
# 3 -0.006477 -0.005991 0.009346 0.000000 -0.001335 0.000000
# 4 0.000000 0.000000 0.000000 -0.077809 0.000000 0.070114
# 5 -0.001627 0.005042 -0.001335 0.000000 0.028891 0.000000
# 6 0.000000 0.000000 0.000000 0.070114 0.000000 -0.042197
#
#
# Mechanical properties :
#
#
# Convention : Reuss Voigt Hill
#
# Bulk Modulus (GPa) = 14.39267 54.57372 34.48319
# Shear Modulus (GPa) = 60.04659 33.29616 46.67137
#
# Velocity S-wave (km/s) = 5.69229 4.23877 5.01843
# Velocity P-wave (km/s) = 7.13929 7.30788 7.22408
#
# Compressibility (1/GPa) = 0.06947984
#
# Stress axis : x y z
#
# Youngs Moduli (GPa) = 57.93161 11.94113 106.99653
#
# Poissons Ratio (x) = 0.09515 0.69299
# Poissons Ratio (y) = 0.46162 0.64101
# Poissons Ratio (z) = 0.37521 0.07154
#
# Static dielectric constant tensor:
#      x y z
#    x 1.626120 0.000000 0.005320 
#    y 0.000000 1.630670 0.000000 
#    z 0.005320 0.000000 1.633940 
# 
# From -- ./inp_files/93784.got.cif
#   From: 2010.05.17/outbox.cif.g08.bks.cpg/sg10_47_cif.got.tgz:93784.got - 2010.06.03 11:33:40.
