data_PCOD9152934
_publ_section_title
;
Structure prediction by ZEFSAII (Michael W. Deem and Ramdas Pophale) SiO2 
 PCOD9152934
Probable space group: P 2/M
;
_chemical_formula_sum "Si O2"
_cell_formula_units_Z 28
_cell_length_a 27.991440
_cell_length_b 8.230217
_cell_length_c 5.185789
_cell_angle_alpha 90.000000
_cell_angle_beta 79.323605
_cell_angle_gamma 90.000000
_cell_volume 1173.998534
_symmetry_space_group_name_H-M "P 2/M"
_symmetry_group_IT_number 10
_symmetry_cell_setting 'monoclinic'
loop_
_space_group_symop_operation_xyz
x,y,z
-x,y,-z
-x,-y,-z
x,-y,z
loop_
_atom_site_type_symbol
_atom_site_label
_atom_site_fract_x
_atom_site_fract_y
_atom_site_fract_z
Si Si1 0.442262 0.177109 0.105330
Si Si2 0.034243 0.000000 0.719207
Si Si3 0.942262 0.322891 0.510146
Si Si4 0.805270 0.805975 0.496737
Si Si5 0.694730 0.305974 0.607281
Si Si6 0.365757 0.303087 0.819578
Si Si7 0.865757 0.803088 0.948907
Si Si8 0.465757 0.500000 0.287692
O O1 0.414885 0.217538 0.866796
O O2 0.434855 0.335441 0.292402
O O3 0.426904 0.000000 0.218541
O O4 0.500000 0.168895 0.000000
O O5 0.065145 0.164559 0.662113
O O6 0.000000 0.000000 0.500000
O O7 0.000000 0.000000 0.000000
O O8 0.926904 0.500000 0.427650
O O9 0.914885 0.282462 0.803434
O O10 0.000000 0.331105 0.500000
O O11 0.750000 0.749999 0.533413
O O12 0.829018 0.767992 0.747744
O O13 0.805442 0.000000 0.469926
O O14 0.838814 0.742898 0.230934
O O15 0.694557 0.500000 0.580817
O O16 0.670983 0.267990 0.905782
O O17 0.661186 0.242898 0.408564
O O18 0.373921 0.500000 0.803231
O O19 0.873922 0.000000 0.948926
O O20 0.500000 0.500000 0.500000
O O21 0.500000 0.500000 0.000000
#
# Coordination Sequence:
#
# PCOD9152934 Si02
#       8
#     4   2   4   4   4   4   4   2
#     4  10  22  41  65  96 130 170 219 264 315 382
#     4  10  22  40  62  86 124 168 204 258 314 360
#     4  10  22  41  65  96 130 170 219 264 315 382
#     4  10  22  39  62  89 122 160 207 259 316 381
#     4  10  22  39  62  89 122 160 207 259 316 381
#     4  10  21  39  61  89 123 165 208 255 316 380
#     4  10  21  39  61  89 123 165 208 255 316 380
#     4  10  22  40  62  86 124 168 204 258 314 360
#
# _framework density 23.850114999999999
#
# number of rings (size 3 to 8) (size 9 to 14) (size 15 to 20)
#    0.000    2.000    1.429    0.857    0.000    7.429 
#    0.000    5.714    0.000    0.000    0.000    0.000 
#    0.000    0.000    0.000    0.000    0.000    0.000 
#
# Total GULP energy -156751.987918 kJ/mol
# GULP energy per Si atom -5598.285283 kJ/mol
# Density = 2.379583 g / cm^3
# Si number density = 23.850115 Si / 1000 Ang^3
#
#
#
# Elastic Constant Matrix: (Units=GPa)
#
#
# Indices 1 2 3 4 5 6 
#
# 1 142.8468 11.5393 39.6502 0.0000 -10.6788 0.0000
# 2 11.5393 130.2338 35.6210 0.0000 7.4891 0.0000
# 3 39.6502 35.6210 111.1250 0.0000 0.8124 0.0000
# 4 0.0000 0.0000 0.0000 17.5371 0.0000 -4.7816
# 5 -10.6788 7.4891 0.8124 0.0000 38.0027 0.0000
# 6 0.0000 0.0000 0.0000 -4.7816 0.0000 32.9137
#
#
#
# Elastic Compliance Matrix: (Units=1/GPa)
#
#
# Indices 1 2 3 4 5 6 
#
# 1 0.007966 -0.000062 -0.002839 0.000000 0.002312 0.000000
# 2 -0.000062 0.008515 -0.002695 0.000000 -0.001638 0.000000
# 3 -0.002839 -0.002695 0.010880 0.000000 -0.000499 0.000000
# 4 0.000000 0.000000 0.000000 0.059374 0.000000 0.008626
# 5 0.002312 -0.001638 -0.000499 0.000000 0.027297 0.000000
# 6 0.000000 0.000000 0.000000 0.008626 0.000000 0.031636
#
#
# Mechanical properties :
#
#
# Convention : Reuss Voigt Hill
#
# Bulk Modulus (GPa) = 61.85268 61.98074 61.91671
# Shear Modulus (GPa) = 30.81636 37.51704 34.16670
#
# Velocity S-wave (km/s) = 3.59846 3.97045 3.78902
# Velocity P-wave (km/s) = 6.57688 6.86027 6.72007
#
# Compressibility (1/GPa) = 0.01616745
#
# Stress axis : x y z
#
# Youngs Moduli (GPa) = 125.52581 117.43367 91.91428
#
# Poissons Ratio (x) = 0.00730 0.26099
# Poissons Ratio (y) = 0.00780 0.24775
# Poissons Ratio (z) = 0.35643 0.31654
#
# Static dielectric constant tensor:
#      x y z
#    x 2.222520 0.000000 -0.011160 
#    y 0.000000 1.956020 0.000000 
#    z -0.011160 0.000000 2.186770 
# 
# From -- ./inp_files/13556.got.cif
#   From: 2010.05.17/outbox.cif.g08.bks.cpg/sg10_7_cif.got.tgz:13556.got - 2010.06.03 11:33:40.
