data_PCOD9152511
_publ_section_title
;
Structure prediction by ZEFSAII (Michael W. Deem and Ramdas Pophale) SiO2 
 PCOD9152511
Probable space group: P 2/M
;
_chemical_formula_sum "Si O2"
_cell_formula_units_Z 32
_cell_length_a 10.942242
_cell_length_b 16.946099
_cell_length_c 14.190911
_cell_angle_alpha 90.000000
_cell_angle_beta 146.035628
_cell_angle_gamma 90.000000
_cell_volume 1470.101565
_symmetry_space_group_name_H-M "P 2/M"
_symmetry_group_IT_number 10
_symmetry_cell_setting 'monoclinic'
loop_
_space_group_symop_operation_xyz
x,y,z
-x,y,-z
-x,-y,-z
x,-y,z
loop_
_atom_site_type_symbol
_atom_site_label
_atom_site_fract_x
_atom_site_fract_y
_atom_site_fract_z
Si Si1 0.469942 0.586447 0.592514
Si Si2 0.942453 0.807343 0.568740
Si Si3 0.293447 0.328848 0.810594
Si Si4 0.963441 0.260793 0.086640
Si Si5 0.986769 0.413518 0.234637
Si Si6 0.732511 0.910911 0.112328
Si Si7 0.009160 0.087810 0.119405
Si Si8 0.515350 0.281531 0.257261
O O1 0.500000 0.595926 0.500000
O O2 0.557753 0.500000 0.675472
O O3 0.556411 0.658596 0.707234
O O4 0.208631 0.586704 0.436850
O O5 0.086772 0.729286 0.679575
O O6 0.052502 0.868903 0.708901
O O7 0.000000 0.834140 0.500000
O O8 0.689505 0.781867 0.407576
O O9 0.365676 0.332613 0.748526
O O10 0.500000 0.296391 0.000000
O O11 0.787011 0.402171 0.179022
O O12 0.702184 0.245767 0.926918
O O13 0.001906 0.338778 0.173883
O O14 0.089220 0.178616 0.192071
O O15 0.000000 0.275931 0.000000
O O16 0.973682 0.500000 0.179015
O O17 0.780382 0.914136 0.031265
O O18 0.735167 0.000000 0.150801
O O19 0.500000 0.877559 0.000000
O O20 0.110074 0.000000 0.208760
O O21 0.000000 0.088002 0.000000
#
# Coordination Sequence:
#
# PCOD9152511 Si02
#       8
#     4   4   4   4   4   4   4   4
#     4  10  22  41  61  82 117 161 205 258 313 369
#     4  10  22  36  59  88 123 160 200 253 313 370
#     4  11  21  39  60  83 117 161 202 253 303 363
#     4  11  23  40  64  92 120 162 213 260 310 373
#     4  11  23  39  61  90 123 162 208 262 314 371
#     4  10  21  37  63  95 126 166 209 256 313 376
#     4   9  20  39  64  92 122 159 208 258 308 370
#     4  11  23  38  60  91 118 161 206 253 320 370
#
# _framework density 21.767202999999999
#
# number of rings (size 3 to 8) (size 9 to 14) (size 15 to 20)
#    0.000    1.625    2.500    1.875    3.500    1.750 
#    0.000    1.875    0.000    0.000    0.000    4.375 
#    0.000    0.000    0.000    0.000    0.000    0.000 
#
# Total GULP energy -178188.822339 kJ/mol
# GULP energy per Si atom -5568.400698 kJ/mol
# Density = 2.171766 g / cm^3
# Si number density = 21.767203 Si / 1000 Ang^3
#
#
#
# Elastic Constant Matrix: (Units=GPa)
#
#
# Indices 1 2 3 4 5 6 
#
# 1 93.1087 22.2730 2.6784 0.0000 -6.9794 0.0000
# 2 22.2730 144.8900 23.6083 0.0000 -13.3951 0.0000
# 3 2.6784 23.6083 65.1234 0.0000 5.8525 0.0000
# 4 0.0000 0.0000 0.0000 10.1393 0.0000 -8.4294
# 5 -6.9794 -13.3951 5.8525 0.0000 26.1643 0.0000
# 6 0.0000 0.0000 0.0000 -8.4294 0.0000 14.2158
#
#
#
# Elastic Compliance Matrix: (Units=1/GPa)
#
#
# Indices 1 2 3 4 5 6 
#
# 1 0.011273 -0.001504 -0.000122 0.000000 0.002265 0.000000
# 2 -0.001504 0.008078 -0.003268 0.000000 0.004466 0.000000
# 3 -0.000122 -0.003268 0.017041 0.000000 -0.005517 0.000000
# 4 0.000000 0.000000 0.000000 0.194512 0.000000 0.115338
# 5 0.002265 0.004466 -0.005517 0.000000 0.042344 0.000000
# 6 0.000000 0.000000 0.000000 0.115338 0.000000 0.138735
#
#
# Mechanical properties :
#
#
# Convention : Reuss Voigt Hill
#
# Bulk Modulus (GPa) = 37.58696 44.47127 41.02911
# Shear Modulus (GPa) = 11.61064 27.07473 19.34269
#
# Velocity S-wave (km/s) = 2.31205 3.53063 2.98420
# Velocity P-wave (km/s) = 4.94294 6.09058 5.54652
#
# Compressibility (1/GPa) = 0.02660497
#
# Stress axis : x y z
#
# Youngs Moduli (GPa) = 88.70671 123.78895 58.68195
#
# Poissons Ratio (x) = 0.18614 0.00716
# Poissons Ratio (y) = 0.13339 0.19177
# Poissons Ratio (z) = 0.01083 0.40454
#
# Static dielectric constant tensor:
#      x y z
#    x 1.881200 0.000000 0.010230 
#    y 0.000000 1.870350 0.000000 
#    z 0.010230 0.000000 1.851270 
# 
# From -- ./inp_files/65412.got.cif
#   From: 2010.05.17/outbox.cif.g08.bks.cpg/sg10_33_cif.got.tgz:65412.got - 2010.06.03 11:33:40.
