data_PCOD9152224
_publ_section_title
;
Structure prediction by ZEFSAII (Michael W. Deem and Ramdas Pophale) SiO2 
 PCOD9152224
Probable space group: P 2/M
;
_chemical_formula_sum "Si O2"
_cell_formula_units_Z 24
_cell_length_a 12.612528
_cell_length_b 7.479336
_cell_length_c 24.579663
_cell_angle_alpha 90.000000
_cell_angle_beta 154.075565
_cell_angle_gamma 90.000000
_cell_volume 1013.693696
_symmetry_space_group_name_H-M "P 2/M"
_symmetry_group_IT_number 10
_symmetry_cell_setting 'monoclinic'
loop_
_space_group_symop_operation_xyz
x,y,z
-x,y,-z
-x,-y,-z
x,-y,z
loop_
_atom_site_type_symbol
_atom_site_label
_atom_site_fract_x
_atom_site_fract_y
_atom_site_fract_z
Si Si1 0.993923 0.783488 0.434847
Si Si2 0.318991 0.293082 0.488490
Si Si3 0.157715 0.719809 0.244922
Si Si4 0.466083 0.791499 0.848862
Si Si5 0.991922 0.296923 0.056085
Si Si6 0.865293 0.716197 0.208637
O O1 0.752490 0.725084 0.290931
O O2 0.000000 0.725447 0.500000
O O3 0.222559 0.718306 0.505631
O O4 0.997269 0.000000 0.435165
O O5 0.336445 0.500000 0.479886
O O6 0.589916 0.220151 0.611692
O O7 0.098992 0.217710 0.351328
O O8 0.161093 0.500000 0.245172
O O9 0.929941 0.771753 0.177323
O O10 0.136508 0.784661 0.173414
O O11 0.716375 0.698424 0.950262
O O12 0.369033 0.773484 0.865744
O O13 0.503390 0.000000 0.854461
O O14 0.085658 0.500000 0.092685
O O15 0.000000 0.212843 0.000000
O O16 0.859012 0.500000 0.206649
#
# Coordination Sequence:
#
# PCOD9152224 Si02
#       6
#     4   4   4   4   4   4
#     4   9  19  34  51  73 103 140 174 208 258 312
#     4   9  17  30  52  82 107 130 168 216 261 306
#     4   9  18  33  54  80 108 139 173 213 261 309
#     4  10  21  37  55  76 106 138 174 220 260 303
#     4  10  22  38  55  76 105 141 178 215 256 307
#     4   9  17  33  57  81 106 136 171 213 264 314
#
# _framework density 23.675792000000001
#
# number of rings (size 3 to 8) (size 9 to 14) (size 15 to 20)
#    0.000    2.667    0.000    1.000    2.333    4.000 
#    0.000    5.833    0.000    4.000    0.000    0.000 
#    0.000    0.000    0.000    0.000    0.000    0.000 
#
# Total GULP energy -134040.375219 kJ/mol
# GULP energy per Si atom -5585.015634 kJ/mol
# Density = 2.362190 g / cm^3
# Si number density = 23.675792 Si / 1000 Ang^3
#
#
#
# Elastic Constant Matrix: (Units=GPa)
#
#
# Indices 1 2 3 4 5 6 
#
# 1 128.1064 -7.2876 15.8118 0.0000 -8.7826 0.0000
# 2 -7.2876 72.0075 -4.4225 0.0000 -3.2270 0.0000
# 3 15.8118 -4.4225 62.7244 0.0000 11.1216 0.0000
# 4 0.0000 0.0000 0.0000 10.3191 0.0000 18.0690
# 5 -8.7826 -3.2270 11.1216 0.0000 34.7769 0.0000
# 6 0.0000 0.0000 0.0000 18.0690 0.0000 39.7218
#
#
#
# Elastic Compliance Matrix: (Units=1/GPa)
#
#
# Indices 1 2 3 4 5 6 
#
# 1 0.008380 0.000824 -0.002590 0.000000 0.003021 0.000000
# 2 0.000824 0.014064 0.000546 0.000000 0.001338 0.000000
# 3 -0.002590 0.000546 0.017747 0.000000 -0.006279 0.000000
# 4 0.000000 0.000000 0.000000 0.476241 0.000000 -0.216636
# 5 0.003021 0.001338 -0.006279 0.000000 0.031650 0.000000
# 6 0.000000 0.000000 0.000000 -0.216636 0.000000 0.123720
#
#
# Mechanical properties :
#
#
# Convention : Reuss Voigt Hill
#
# Bulk Modulus (GPa) = 26.48756 30.11574 28.30165
# Shear Modulus (GPa) = 7.27987 34.21268 20.74627
#
# Velocity S-wave (km/s) = 1.75542 3.80550 2.96339
# Velocity P-wave (km/s) = 3.91415 5.66187 4.86710
#
# Compressibility (1/GPa) = 0.03775357
#
# Stress axis : x y z
#
# Youngs Moduli (GPa) = 119.33627 71.10138 56.34606
#
# Poissons Ratio (x) = -0.05862 0.14593
# Poissons Ratio (y) = -0.09838 -0.03079
# Poissons Ratio (z) = 0.30907 -0.03886
#
# Static dielectric constant tensor:
#      x y z
#    x 1.878390 0.000000 -0.031550 
#    y 0.000000 1.898430 0.000000 
#    z -0.031550 0.000000 1.910020 
# 
# From -- ./inp_files/45156.got.cif
#   From: 2010.05.17/outbox.cif.g08.bks.cpg/sg10_23_cif.got.tgz:45156.got - 2010.06.03 11:33:40.
