data_PCOD9152562
_publ_section_title
;
Structure prediction by ZEFSAII (Michael W. Deem and Ramdas Pophale) SiO2 
 PCOD9152562
Probable space group: P 2/M
;
_chemical_formula_sum "Si O2"
_cell_formula_units_Z 18
_cell_length_a 10.674863
_cell_length_b 17.406964
_cell_length_c 5.220640
_cell_angle_alpha 90.000000
_cell_angle_beta 53.856424
_cell_angle_gamma 90.000000
_cell_volume 783.382669
_symmetry_space_group_name_H-M "P 2/M"
_symmetry_group_IT_number 10
_symmetry_cell_setting 'monoclinic'
loop_
_space_group_symop_operation_xyz
x,y,z
-x,y,-z
-x,-y,-z
x,-y,z
loop_
_atom_site_type_symbol
_atom_site_label
_atom_site_fract_x
_atom_site_fract_y
_atom_site_fract_z
Si Si1 0.110256 0.500000 0.116348
Si Si2 0.189765 0.822971 0.256716
Si Si3 0.183890 0.651878 0.266448
Si Si4 0.400508 0.591158 0.382756
Si Si5 0.810667 0.912118 0.240831
O O1 0.207564 0.578220 0.050458
O O2 0.000000 0.500000 0.500000
O O3 0.000000 0.500000 0.000000
O O4 0.244123 0.736464 0.129136
O O5 0.240044 0.855948 0.469848
O O6 0.000000 0.823090 0.500000
O O7 0.240268 0.879466 0.970478
O O8 0.244321 0.631461 0.477088
O O9 0.000000 0.660226 0.500000
O O10 0.500000 0.621303 0.500000
O O11 0.371767 0.500000 0.451831
O O12 0.500000 0.599142 0.000000
O O13 0.763256 0.000000 0.342997
O O14 0.000000 0.911667 0.000000
#
# Coordination Sequence:
#
# PCOD9152562 Si02
#       5
#     2   4   4   4   4
#     4  10  22  34  50  76 106 142 179 220 269 318
#     4   9  18  28  46  72 102 135 175 222 265 314
#     4  10  21  38  57  83 113 147 190 234 276 326
#     4  10  22  39  57  78 108 147 189 232 277 325
#     4   9  16  28  44  67 102 141 171 206 269 336
#
# _framework density 22.977277999999998
#
# number of rings (size 3 to 8) (size 9 to 14) (size 15 to 20)
#    0.000    2.444    1.111    0.667    0.000   14.222 
#    0.000    0.000    0.000    0.000    0.000    0.000 
#    0.000   17.778    0.000    0.000    0.000    0.000 
#
# Total GULP energy -100547.413535 kJ/mol
# GULP energy per Si atom -5585.967419 kJ/mol
# Density = 2.292498 g / cm^3
# Si number density = 22.977278 Si / 1000 Ang^3
#
#
#
# Elastic Constant Matrix: (Units=GPa)
#
#
# Indices 1 2 3 4 5 6 
#
# 1 117.0477 16.9396 36.1261 0.0000 37.1861 0.0000
# 2 16.9396 156.0980 40.5772 0.0000 18.9521 0.0000
# 3 36.1261 40.5772 86.7866 0.0000 36.8522 0.0000
# 4 0.0000 0.0000 0.0000 27.1839 0.0000 7.8073
# 5 37.1861 18.9521 36.8522 0.0000 40.9361 0.0000
# 6 0.0000 0.0000 0.0000 7.8073 0.0000 -12.2680
#
#
#
# Elastic Compliance Matrix: (Units=1/GPa)
#
#
# Indices 1 2 3 4 5 6 
#
# 1 0.012030 0.000126 -0.000650 0.000000 -0.010402 0.000000
# 2 0.000126 0.007300 -0.003208 0.000000 -0.000606 0.000000
# 3 -0.000650 -0.003208 0.020092 0.000000 -0.016012 0.000000
# 4 0.000000 0.000000 0.000000 0.031102 0.000000 0.019793
# 5 -0.010402 -0.000606 -0.016012 0.000000 0.048573 0.000000
# 6 0.000000 0.000000 0.000000 0.019793 0.000000 -0.068917
#
#
# Mechanical properties :
#
#
# Convention : Reuss Voigt Hill
#
# Bulk Modulus (GPa) = 31.29022 60.80200 46.04611
# Shear Modulus (GPa) = 73.20885 28.92303 51.06594
#
# Velocity S-wave (km/s) = 5.65071 3.55176 4.71941
# Velocity P-wave (km/s) = 7.49810 6.58325 7.05552
#
# Compressibility (1/GPa) = 0.03195887
#
# Stress axis : x y z
#
# Youngs Moduli (GPa) = 83.12207 136.98394 49.77013
#
# Poissons Ratio (x) = -0.01731 0.03235
# Poissons Ratio (y) = -0.01050 0.15968
# Poissons Ratio (z) = 0.05403 0.43949
#
# Static dielectric constant tensor:
#      x y z
#    x 1.940140 0.000000 -0.020350 
#    y 0.000000 1.846930 0.000000 
#    z -0.020350 0.000000 2.173200 
# 
# From -- ./inp_files/4040.got.cif
#   From: 2010.05.17/outbox.cif.g08.bks.cpg/sg10_3_cif.got.tgz:4040.got - 2010.06.03 11:33:40.
