data_PCOD9152941
_publ_section_title
;
Structure prediction by ZEFSAII (Michael W. Deem and Ramdas Pophale) SiO2 
 PCOD9152941
Probable space group: P 2/M
;
_chemical_formula_sum "Si O2"
_cell_formula_units_Z 18
_cell_length_a 12.134079
_cell_length_b 9.927301
_cell_length_c 16.709829
_cell_angle_alpha 90.000000
_cell_angle_beta 26.402183
_cell_angle_gamma 90.000000
_cell_volume 895.049731
_symmetry_space_group_name_H-M "P 2/M"
_symmetry_group_IT_number 10
_symmetry_cell_setting 'monoclinic'
loop_
_space_group_symop_operation_xyz
x,y,z
-x,y,-z
-x,-y,-z
x,-y,z
loop_
_atom_site_type_symbol
_atom_site_label
_atom_site_fract_x
_atom_site_fract_y
_atom_site_fract_z
Si Si1 0.500000 0.722642 0.500000
Si Si2 0.280058 0.653887 0.206426
Si Si3 0.718338 0.352043 0.523752
Si Si4 0.018711 0.160547 0.896888
Si Si5 0.527375 0.161734 0.781909
O O1 0.380383 0.648375 0.502122
O O2 0.732277 0.800497 0.310308
O O3 0.296809 0.500000 0.227412
O O4 0.313471 0.763004 0.254273
O O5 0.013852 0.665569 0.337563
O O6 0.500000 0.672082 0.000000
O O7 0.658103 0.500000 0.598456
O O8 0.600871 0.230027 0.650145
O O9 0.017952 0.000000 0.904316
O O10 0.764070 0.195318 0.016879
O O11 0.000000 0.216655 0.000000
O O12 0.560073 0.000000 0.760418
#
# Coordination Sequence:
#
# PCOD9152941 Si02
#       5
#     2   4   4   4   4
#     4  12  22  40  68  92 125 172 221 262 311 382
#     4  10  22  42  65  90 126 168 210 262 325 382
#     4  11  24  41  63  93 129 167 213 264 319 380
#     4  10  21  39  61  92 130 166 207 260 321 378
#     4  11  23  41  65  94 128 164 214 266 316 381
#
# _framework density 20.110614000000002
#
# number of rings (size 3 to 8) (size 9 to 14) (size 15 to 20)
#    0.000    1.333    2.222    3.333    0.000    4.889 
#    0.000    4.444    0.000    0.000    0.000    0.000 
#    0.000    0.000    0.000    0.000    0.000    0.000 
#
# Total GULP energy -100468.565779 kJ/mol
# GULP energy per Si atom -5581.586988 kJ/mol
# Density = 2.006484 g / cm^3
# Si number density = 20.110614 Si / 1000 Ang^3
#
#
#
# Elastic Constant Matrix: (Units=GPa)
#
#
# Indices 1 2 3 4 5 6 
#
# 1 141.6454 59.0136 39.2932 0.0000 -14.7893 0.0000
# 2 59.0136 80.3877 33.3960 0.0000 -10.9311 0.0000
# 3 39.2932 33.3960 118.2150 0.0000 -13.9509 0.0000
# 4 0.0000 0.0000 0.0000 59.5622 0.0000 12.5587
# 5 -14.7893 -10.9311 -13.9509 0.0000 32.5166 0.0000
# 6 0.0000 0.0000 0.0000 12.5587 0.0000 21.4128
#
#
#
# Elastic Compliance Matrix: (Units=1/GPa)
#
#
# Indices 1 2 3 4 5 6 
#
# 1 0.010498 -0.006903 -0.001316 0.000000 0.001889 0.000000
# 2 -0.006903 0.018955 -0.002822 0.000000 0.002022 0.000000
# 3 -0.001316 -0.002822 0.010018 0.000000 0.002751 0.000000
# 4 0.000000 0.000000 0.000000 0.019158 0.000000 -0.011236
# 5 0.001889 0.002022 0.002751 0.000000 0.033473 0.000000
# 6 0.000000 0.000000 0.000000 -0.011236 0.000000 0.053291
#
#
# Mechanical properties :
#
#
# Convention : Reuss Voigt Hill
#
# Bulk Modulus (GPa) = 57.50734 67.07262 62.28998
# Shear Modulus (GPa) = 28.85626 36.60134 32.72880
#
# Velocity S-wave (km/s) = 3.79209 4.27078 4.03853
# Velocity P-wave (km/s) = 6.91598 7.59892 7.26548
#
# Compressibility (1/GPa) = 0.01738909
#
# Stress axis : x y z
#
# Youngs Moduli (GPa) = 95.25248 52.75779 99.81558
#
# Poissons Ratio (x) = 0.36420 0.13140
# Poissons Ratio (y) = 0.65755 0.28164
# Poissons Ratio (z) = 0.12539 0.14886
#
# Static dielectric constant tensor:
#      x y z
#    x 1.729470 0.000000 -0.005850 
#    y 0.000000 1.689610 0.000000 
#    z -0.005850 0.000000 1.701940 
# 
# From -- ./inp_files/76125.got.cif
#   From: 2010.05.17/outbox.cif.g08.bks.cpg/sg10_39_cif.got.tgz:76125.got - 2010.06.03 11:33:40.
