data_PCOD9152497
_publ_section_title
;
Structure prediction by ZEFSAII (Michael W. Deem and Ramdas Pophale) SiO2 
 PCOD9152497
Probable space group: P 2/M
;
_chemical_formula_sum "Si O2"
_cell_formula_units_Z 20
_cell_length_a 22.234562
_cell_length_b 7.300110
_cell_length_c 9.996039
_cell_angle_alpha 90.000000
_cell_angle_beta 141.745764
_cell_angle_gamma 90.000000
_cell_volume 1004.576953
_symmetry_space_group_name_H-M "P 2/M"
_symmetry_group_IT_number 10
_symmetry_cell_setting 'monoclinic'
loop_
_space_group_symop_operation_xyz
x,y,z
-x,y,-z
-x,-y,-z
x,-y,z
loop_
_atom_site_type_symbol
_atom_site_label
_atom_site_fract_x
_atom_site_fract_y
_atom_site_fract_z
Si Si1 0.094671 0.000000 0.070657
Si Si2 0.632021 0.277214 0.846455
Si Si3 0.417243 0.722293 0.537481
Si Si4 0.201788 0.281218 0.661194
Si Si5 0.749427 0.281204 0.556521
Si Si6 0.967456 0.000000 0.595615
O O1 0.161202 0.174235 0.221499
O O2 0.000000 0.000000 0.000000
O O3 0.056888 0.000000 0.853709
O O4 0.632345 0.500000 0.848157
O O5 0.628977 0.221403 0.685812
O O6 0.529428 0.218827 0.732172
O O7 0.724531 0.220457 0.093666
O O8 0.419410 0.500000 0.541153
O O9 0.349167 0.776984 0.540886
O O10 0.187211 0.500000 0.645707
O O11 0.248855 0.242895 0.598504
O O12 0.101228 0.174226 0.495718
O O13 0.760567 0.500000 0.593186
O O14 0.000000 0.000000 0.500000
#
# Coordination Sequence:
#
# PCOD9152497 Si02
#       6
#     2   4   4   4   4   2
#     4  12  24  44  61  80 115 149 188 247 292 334
#     4   8  15  30  54  84 121 154 185 229 276 331
#     4   8  15  30  54  86 118 153 190 225 275 337
#     4  10  21  39  61  87 117 150 189 235 285 340
#     4  10  21  37  62  89 114 151 193 230 283 344
#     4  12  28  44  59  84 113 147 194 245 294 340
#
# _framework density 19.908877
#
# number of rings (size 3 to 8) (size 9 to 14) (size 15 to 20)
#    0.000    2.400    2.000    1.200    2.800    2.400 
#    0.000    5.000    0.000    4.800    0.000    0.000 
#    0.000    0.000    0.000    0.000    0.000    0.000 
#
# Total GULP energy -111692.534765 kJ/mol
# GULP energy per Si atom -5584.626738 kJ/mol
# Density = 1.986356 g / cm^3
# Si number density = 19.908877 Si / 1000 Ang^3
#
#
#
# Elastic Constant Matrix: (Units=GPa)
#
#
# Indices 1 2 3 4 5 6 
#
# 1 78.8011 10.3461 -33.1960 0.0000 -9.7766 0.0000
# 2 10.3461 77.4525 8.3878 0.0000 -2.7940 0.0000
# 3 -33.1960 8.3878 58.1043 0.0000 -11.7444 0.0000
# 4 0.0000 0.0000 0.0000 33.6145 0.0000 13.9291
# 5 -9.7766 -2.7940 -11.7444 0.0000 22.5977 0.0000
# 6 0.0000 0.0000 0.0000 13.9291 0.0000 16.6792
#
#
#
# Elastic Compliance Matrix: (Units=1/GPa)
#
#
# Indices 1 2 3 4 5 6 
#
# 1 0.022866 -0.004275 0.017402 0.000000 0.018408 0.000000
# 2 -0.004275 0.013926 -0.005004 0.000000 -0.002728 0.000000
# 3 0.017402 -0.005004 0.032707 0.000000 0.023908 0.000000
# 4 0.000000 0.000000 0.000000 0.045492 0.000000 -0.037991
# 5 0.018408 -0.002728 0.023908 0.000000 0.064304 0.000000
# 6 0.000000 0.000000 0.000000 -0.037991 0.000000 0.091682
#
#
# Mechanical properties :
#
#
# Convention : Reuss Voigt Hill
#
# Bulk Modulus (GPa) = 11.66265 20.60375 16.13320
# Shear Modulus (GPa) = 17.64830 29.83294 23.74062
#
# Velocity S-wave (km/s) = 2.98057 3.87521 3.45695
# Velocity P-wave (km/s) = 4.20901 5.51312 4.90460
#
# Compressibility (1/GPa) = 0.08574384
#
# Stress axis : x y z
#
# Youngs Moduli (GPa) = 43.73317 71.80971 30.57435
#
# Poissons Ratio (x) = 0.30698 -0.53204
# Poissons Ratio (y) = 0.18696 0.15300
# Poissons Ratio (z) = -0.76103 0.35934
#
# Static dielectric constant tensor:
#      x y z
#    x 1.680430 0.000000 -0.010510 
#    y 0.000000 1.752080 0.000000 
#    z -0.010510 0.000000 1.659400 
# 
# From -- ./inp_files/34078.got.cif
#   From: 2010.05.17/outbox.cif.g08.bks.cpg/sg10_18_cif.got.tgz:34078.got - 2010.06.03 11:33:40.
