data_PCOD9152569
_publ_section_title
;
Structure prediction by ZEFSAII (Michael W. Deem and Ramdas Pophale) SiO2 
 PCOD9152569
Probable space group: P 2/M
;
_chemical_formula_sum "Si O2"
_cell_formula_units_Z 30
_cell_length_a 10.372277
_cell_length_b 20.168333
_cell_length_c 11.579259
_cell_angle_alpha 90.000000
_cell_angle_beta 38.873058
_cell_angle_gamma 90.000000
_cell_volume 1520.217624
_symmetry_space_group_name_H-M "P 2/M"
_symmetry_group_IT_number 10
_symmetry_cell_setting 'monoclinic'
loop_
_space_group_symop_operation_xyz
x,y,z
-x,y,-z
-x,-y,-z
x,-y,z
loop_
_atom_site_type_symbol
_atom_site_label
_atom_site_fract_x
_atom_site_fract_y
_atom_site_fract_z
Si Si1 0.728774 0.283482 0.067110
Si Si2 0.656969 0.146893 0.995724
Si Si3 0.282357 0.571617 0.920490
Si Si4 0.500000 0.822589 0.500000
Si Si5 0.975295 0.922711 0.380048
Si Si6 0.209956 0.286547 0.698117
Si Si7 0.511568 0.925690 0.313791
Si Si8 0.207518 0.570607 0.698744
O O1 0.638226 0.217617 0.073855
O O2 0.636323 0.355995 0.099503
O O3 0.966326 0.282410 0.860413
O O4 0.739163 0.281940 0.199756
O O5 0.880915 0.127146 0.791353
O O6 0.500000 0.146564 0.000000
O O7 0.591908 0.090657 0.131469
O O8 0.370868 0.500000 0.896871
O O9 0.040873 0.571358 0.124898
O O10 0.274841 0.570900 0.785985
O O11 0.666770 0.774091 0.440897
O O12 0.601934 0.871307 0.337017
O O13 0.000000 0.909849 0.500000
O O14 0.735472 0.918025 0.514693
O O15 0.038556 0.000000 0.316748
O O16 0.275858 0.358430 0.603305
O O17 0.564320 0.000000 0.312508
O O18 0.273766 0.500000 0.600148
#
# Coordination Sequence:
#
# PCOD9152569 Si02
#       8
#     4   4   4   2   4   4   4   4
#     4   9  17  31  47  76 103 132 175 212 257 308
#     4  12  22  36  59  82 107 135 173 222 268 311
#     4   7  10  19  40  65  95 130 166 208 248 294
#     4  12  21  36  51  74 108 144 174 204 257 326
#     4  10  21  38  58  80 104 131 169 218 268 313
#     4   9  17  29  50  69 104 142 168 210 257 308
#     4  11  24  40  57  79 106 139 176 216 261 316
#     4   7  10  19  37  66  95 128 170 206 247 298
#
# _framework density 19.734017999999999
#
# number of rings (size 3 to 8) (size 9 to 14) (size 15 to 20)
#    0.000    2.533    2.667    3.800    0.000    0.533 
#    0.000    0.333    0.000    3.600    0.000    0.000 
#    0.000    0.533    0.000    0.267    0.000    0.000 
#
# Total GULP energy -167178.514712 kJ/mol
# GULP energy per Si atom -5572.617157 kJ/mol
# Density = 1.968910 g / cm^3
# Si number density = 19.734018 Si / 1000 Ang^3
#
#
#
# Elastic Constant Matrix: (Units=GPa)
#
#
# Indices 1 2 3 4 5 6 
#
# 1 8.3467 4.4644 1.2259 0.0000 4.3074 0.0000
# 2 4.4644 166.2374 20.8016 0.0000 8.6432 0.0000
# 3 1.2259 20.8016 41.9729 0.0000 -3.8992 0.0000
# 4 0.0000 0.0000 0.0000 14.7447 0.0000 -1.9841
# 5 4.3074 8.6432 -3.8992 0.0000 18.3948 0.0000
# 6 0.0000 0.0000 0.0000 -1.9841 0.0000 6.8776
#
#
#
# Elastic Compliance Matrix: (Units=1/GPa)
#
#
# Indices 1 2 3 4 5 6 
#
# 1 0.138576 -0.001170 -0.006560 0.000000 -0.033291 0.000000
# 2 -0.001170 0.006689 -0.003619 0.000000 -0.003636 0.000000
# 3 -0.006560 -0.003619 0.026635 0.000000 0.008882 0.000000
# 4 0.000000 0.000000 0.000000 0.070560 0.000000 0.020356
# 5 -0.033291 -0.003636 0.008882 0.000000 0.065750 0.000000
# 6 0.000000 0.000000 0.000000 0.020356 0.000000 0.151272
#
#
# Mechanical properties :
#
#
# Convention : Reuss Voigt Hill
#
# Bulk Modulus (GPa) = 6.70227 29.94897 18.32562
# Shear Modulus (GPa) = 9.40001 20.67442 15.03722
#
# Velocity S-wave (km/s) = 2.18488 3.24026 2.76342
# Velocity P-wave (km/s) = 3.12548 5.40447 4.41457
#
# Compressibility (1/GPa) = 0.14920324
#
# Stress axis : x y z
#
# Youngs Moduli (GPa) = 7.21623 149.50482 37.54464
#
# Poissons Ratio (x) = 0.17488 0.24630
# Poissons Ratio (y) = 0.00844 0.13586
# Poissons Ratio (z) = 0.04734 0.54099
#
# Static dielectric constant tensor:
#      x y z
#    x 1.659900 0.000000 -0.014620 
#    y 0.000000 1.774460 0.000000 
#    z -0.014620 0.000000 1.714880 
# 
# From -- ./inp_files/47904.got.cif
#   From: 2010.05.17/outbox.cif.g08.bks.cpg/sg10_24_cif.got.tgz:47904.got - 2010.06.03 11:33:40.
