data_PCOD9152609
_publ_section_title
;
Structure prediction by ZEFSAII (Michael W. Deem and Ramdas Pophale) SiO2 
 PCOD9152609
Probable space group: P 2/M
;
_chemical_formula_sum "Si O2"
_cell_formula_units_Z 29
_cell_length_a 9.024128
_cell_length_b 9.387522
_cell_length_c 27.777279
_cell_angle_alpha 90.000000
_cell_angle_beta 140.800828
_cell_angle_gamma 90.000000
_cell_volume 1487.220743
_symmetry_space_group_name_H-M "P 2/M"
_symmetry_group_IT_number 10
_symmetry_cell_setting 'monoclinic'
loop_
_space_group_symop_operation_xyz
x,y,z
-x,y,-z
-x,-y,-z
x,-y,z
loop_
_atom_site_type_symbol
_atom_site_label
_atom_site_fract_x
_atom_site_fract_y
_atom_site_fract_z
Si Si1 0.777772 0.666203 0.578541
Si Si2 0.567154 0.665316 0.156687
Si Si3 0.615951 0.164816 0.718781
Si Si4 0.821084 0.228737 0.874287
Si Si5 0.052856 0.172338 0.284735
Si Si6 0.335295 0.331412 0.999508
Si Si7 0.082079 0.170321 0.575925
Si Si8 0.000000 0.000000 0.000000
O O1 0.500000 0.668800 0.500000
O O2 0.850172 0.500000 0.602389
O O3 0.829466 0.757767 0.639091
O O4 0.916915 0.740593 0.569895
O O5 0.638736 0.500000 0.169135
O O6 0.385333 0.677935 0.154590
O O7 0.790868 0.765415 0.218099
O O8 0.426217 0.717283 0.074084
O O9 0.718643 0.170740 0.798377
O O10 0.801630 0.220196 0.726138
O O11 0.351355 0.223094 0.649374
O O12 0.585917 0.000000 0.697530
O O13 0.901773 0.120936 0.936594
O O14 0.063461 0.305864 0.922645
O O15 0.046761 0.000000 0.285883
O O16 0.370892 0.500000 0.008899
O O17 0.500000 0.265759 0.000000
O O18 0.000000 0.185324 0.500000
O O19 0.069756 0.000000 0.584952
#
# Coordination Sequence:
#
# PCOD9152609 Si02
#       8
#     4   4   4   4   4   4   4   1
#     4  11  24  42  64  93 130 168 208 256 312 378
#     4  11  23  39  60  86 120 158 202 253 311 376
#     4  10  22  39  60  89 124 159 203 262 315 375
#     4  12  22  39  59  88 123 160 210 258 322 371
#     4  11  24  41  64  92 121 162 207 259 316 371
#     4  10  21  38  59  82 112 155 202 250 308 372
#     4  10  21  40  67  97 128 167 213 260 313 374
#     4  12  24  36  60  92 118 168 208 272 304 392
#
# _framework density 19.499458000000001
#
# number of rings (size 3 to 8) (size 9 to 14) (size 15 to 20)
#    0.000    1.241    2.069    3.724    0.966    4.690 
#    0.000    4.483    0.000    0.000    0.000    0.000 
#    0.000    0.000    0.000    0.000    0.000    0.000 
#
# Total GULP energy -161559.303308 kJ/mol
# GULP energy per Si atom -5571.010459 kJ/mol
# Density = 1.945508 g / cm^3
# Si number density = 19.499458 Si / 1000 Ang^3
#
#
#
# Elastic Constant Matrix: (Units=GPa)
#
#
# Indices 1 2 3 4 5 6 
#
# 1 153.3777 46.0724 57.8917 0.0000 7.1738 0.0000
# 2 46.0724 77.5288 38.7865 0.0000 -2.7955 0.0000
# 3 57.8917 38.7865 123.5371 0.0000 9.0300 0.0000
# 4 0.0000 0.0000 0.0000 -11.7843 0.0000 -14.7713
# 5 7.1738 -2.7955 9.0300 0.0000 30.8195 0.0000
# 6 0.0000 0.0000 0.0000 -14.7713 0.0000 69.3564
#
#
#
# Elastic Compliance Matrix: (Units=1/GPa)
#
#
# Indices 1 2 3 4 5 6 
#
# 1 0.008820 -0.003902 -0.002792 0.000000 -0.001589 0.000000
# 2 -0.003902 0.017278 -0.003860 0.000000 0.003606 0.000000
# 3 -0.002792 -0.003860 0.010825 0.000000 -0.002872 0.000000
# 4 0.000000 0.000000 0.000000 -0.066978 0.000000 -0.014265
# 5 -0.001589 0.003606 -0.002872 0.000000 0.033985 0.000000
# 6 0.000000 0.000000 0.000000 -0.014265 0.000000 0.011380
#
#
# Mechanical properties :
#
#
# Convention : Reuss Voigt Hill
#
# Bulk Modulus (GPa) = 63.22878 71.10498 67.16688
# Shear Modulus (GPa) = 119.93128 31.79117 75.86123
#
# Velocity S-wave (km/s) = 7.85102 4.04215 6.24410
# Velocity P-wave (km/s) = 10.70892 7.63738 9.30082
#
# Compressibility (1/GPa) = 0.01581558
#
# Stress axis : x y z
#
# Youngs Moduli (GPa) = 113.37748 57.87609 92.37931
#
# Poissons Ratio (x) = 0.22583 0.25793
# Poissons Ratio (y) = 0.44239 0.35658
# Poissons Ratio (z) = 0.31655 0.22340
#
# Static dielectric constant tensor:
#      x y z
#    x 1.710240 0.000000 0.005230 
#    y 0.000000 1.675390 0.000000 
#    z 0.005230 0.000000 1.680530 
# 
# From -- ./inp_files/92136.got.cif
#   From: 2010.05.17/outbox.cif.g08.bks.cpg/sg10_47_cif.got.tgz:92136.got - 2010.06.03 11:33:40.
