data_PCOD9152539
_publ_section_title
;
Structure prediction by ZEFSAII (Michael W. Deem and Ramdas Pophale) SiO2 
 PCOD9152539
Probable space group: P 2/M
;
_chemical_formula_sum "Si O2"
_cell_formula_units_Z 22
_cell_length_a 21.866050
_cell_length_b 12.376621
_cell_length_c 21.866296
_cell_angle_alpha 90.000000
_cell_angle_beta 13.896294
_cell_angle_gamma 90.000000
_cell_volume 1421.208604
_symmetry_space_group_name_H-M "P 2/M"
_symmetry_group_IT_number 10
_symmetry_cell_setting 'monoclinic'
loop_
_space_group_symop_operation_xyz
x,y,z
-x,y,-z
-x,-y,-z
x,-y,z
loop_
_atom_site_type_symbol
_atom_site_label
_atom_site_fract_x
_atom_site_fract_y
_atom_site_fract_z
Si Si1 0.572507 0.868765 0.071203
Si Si2 0.963723 0.131833 0.465000
Si Si3 0.819693 0.194319 0.319154
Si Si4 0.643464 0.131150 0.144093
Si Si5 0.769568 0.370798 0.269562
Si Si6 0.229212 0.000000 0.729221
O O1 0.304499 0.833092 0.303029
O O2 0.607783 0.839136 0.107636
O O3 0.571853 0.000000 0.070507
O O4 0.804909 0.833096 0.802825
O O5 0.000000 0.165715 0.500000
O O6 0.963771 0.000000 0.465106
O O7 0.590568 0.175305 0.588890
O O8 0.801714 0.307647 0.301567
O O9 0.792694 0.104048 0.292650
O O10 0.089737 0.175318 0.089590
O O11 0.645970 0.000000 0.146619
O O12 0.500000 0.341612 0.500000
O O13 0.774015 0.500000 0.274062
O O14 0.000000 0.341629 0.000000
O O15 0.500000 0.000000 0.500000
O O16 0.000000 0.000000 0.000000
#
# Coordination Sequence:
#
# PCOD9152539 Si02
#       6
#     4   4   4   4   4   2
#     4   9  17  26  39  55  81 117 151 188 223 258
#     4   9  15  24  37  56  78 109 155 199 225 247
#     4  12  21  34  50  69  93 121 154 190 232 280
#     4  11  20  33  45  66  95 126 158 187 225 278
#     4  10  21  38  56  72  90 115 151 195 240 287
#     4  12  22  32  46  66  92 114 141 184 231 270
#
# _framework density 15.479782
#
# number of rings (size 3 to 8) (size 9 to 14) (size 15 to 20)
#    0.000    1.636    1.818    4.909    0.000    5.091 
#    0.000    0.000    0.000    0.000    0.000    0.000 
#    0.000    0.000    0.000    0.000    0.000   63.636 
#
# Total GULP energy -122812.889391 kJ/mol
# GULP energy per Si atom -5582.404063 kJ/mol
# Density = 1.544455 g / cm^3
# Si number density = 15.479782 Si / 1000 Ang^3
#
#
#
# Elastic Constant Matrix: (Units=GPa)
#
#
# Indices 1 2 3 4 5 6 
#
# 1 167.1955 31.1148 113.4076 0.0000 1.2077 0.0000
# 2 31.1148 24.6268 24.9430 0.0000 0.8665 0.0000
# 3 113.4076 24.9430 197.2668 0.0000 -0.3000 0.0000
# 4 0.0000 0.0000 0.0000 3.8486 0.0000 0.7823
# 5 1.2077 0.8665 -0.3000 0.0000 30.0045 0.0000
# 6 0.0000 0.0000 0.0000 0.7823 0.0000 13.2247
#
#
#
# Elastic Compliance Matrix: (Units=1/GPa)
#
#
# Indices 1 2 3 4 5 6 
#
# 1 0.011251 -0.008779 -0.005359 0.000000 -0.000253 0.000000
# 2 -0.008779 0.053480 -0.001717 0.000000 -0.001208 0.000000
# 3 -0.005359 -0.001717 0.008368 0.000000 0.000349 0.000000
# 4 0.000000 0.000000 0.000000 0.262995 0.000000 -0.015557
# 5 -0.000253 -0.001208 0.000349 0.000000 0.033377 0.000000
# 6 0.000000 0.000000 0.000000 -0.015557 0.000000 0.076536
#
#
# Mechanical properties :
#
#
# Convention : Reuss Voigt Hill
#
# Bulk Modulus (GPa) = 24.16092 80.89109 52.52601
# Shear Modulus (GPa) = 10.17269 24.05715 17.11492
#
# Velocity S-wave (km/s) = 2.56629 3.94649 3.32871
# Velocity P-wave (km/s) = 4.94197 8.55194 6.98423
#
# Compressibility (1/GPa) = 0.04138915
#
# Stress axis : x y z
#
# Youngs Moduli (GPa) = 88.87778 18.69870 119.50903
#
# Poissons Ratio (x) = 0.16416 0.64041
# Poissons Ratio (y) = 0.78028 0.20518
# Poissons Ratio (z) = 0.47627 0.03210
#
# Static dielectric constant tensor:
#      x y z
#    x 1.501760 0.000000 -0.001600 
#    y 0.000000 1.489910 0.000000 
#    z -0.001600 0.000000 1.520250 
# 
# From -- ./inp_files/11018.got.cif
#   From: 2010.05.17/outbox.cif.g08.bks.cpg/sg10_6_cif.got.tgz:11018.got - 2010.06.03 11:33:40.
