data_PCOD9152783
_publ_section_title
;
Structure prediction by ZEFSAII (Michael W. Deem and Ramdas Pophale) SiO2 
 PCOD9152783
Probable space group: P 2/M
;
_chemical_formula_sum "Si O2"
_cell_formula_units_Z 32
_cell_length_a 9.168999
_cell_length_b 22.453815
_cell_length_c 15.111739
_cell_angle_alpha 90.000000
_cell_angle_beta 30.776120
_cell_angle_gamma 90.000000
_cell_volume 1591.948602
_symmetry_space_group_name_H-M "P 2/M"
_symmetry_group_IT_number 10
_symmetry_cell_setting 'monoclinic'
loop_
_space_group_symop_operation_xyz
x,y,z
-x,y,-z
-x,-y,-z
x,-y,z
loop_
_atom_site_type_symbol
_atom_site_label
_atom_site_fract_x
_atom_site_fract_y
_atom_site_fract_z
Si Si1 0.681180 0.566946 0.678058
Si Si2 0.671342 0.162202 0.642338
Si Si3 0.118814 0.848943 0.033540
Si Si4 0.396780 0.070014 0.654628
Si Si5 0.364770 0.266605 0.476835
Si Si6 0.842716 0.359659 0.988717
Si Si7 0.819980 0.747858 0.864161
Si Si8 0.594481 0.402266 0.355212
O O1 0.693986 0.500000 0.709712
O O2 0.550401 0.563863 0.648510
O O3 0.000000 0.590636 0.500000
O O4 0.464102 0.610709 0.839948
O O5 0.601085 0.108935 0.610932
O O6 0.595375 0.222636 0.626738
O O7 0.000000 0.164327 0.500000
O O8 0.456629 0.150043 0.836403
O O9 0.071493 0.805377 0.139898
O O10 0.924801 0.906311 0.157456
O O11 0.000000 0.827123 0.000000
O O12 0.500000 0.079360 0.500000
O O13 0.413504 0.000000 0.665283
O O14 0.500000 0.244577 0.500000
O O15 0.497582 0.332327 0.394790
O O16 0.029716 0.269125 0.674825
O O17 0.825491 0.303865 0.934054
O O18 0.066568 0.405352 0.829391
O O19 0.000000 0.344889 0.000000
O O20 0.500000 0.757234 0.000000
O O21 0.500000 0.422029 0.500000
#
# Coordination Sequence:
#
# PCOD9152783 Si02
#       8
#     4   4   4   4   4   4   4   4
#     4  10  24  43  64  88 120 162 203 256 308 361
#     4  11  23  37  59  92 127 160 198 257 312 362
#     4  10  22  37  60  87 123 162 205 246 298 370
#     4  10  22  42  67  87 115 168 216 254 300 360
#     4  11  21  38  58  85 127 161 198 244 304 372
#     4  10  22  38  61  86 120 157 203 244 296 367
#     4  12  23  35  57  90 125 158 195 251 309 367
#     4  10  21  38  62  89 119 159 203 252 298 364
#
# _framework density 20.101151000000002
#
# number of rings (size 3 to 8) (size 9 to 14) (size 15 to 20)
#    0.000    1.500    2.500    3.750    5.250    5.500 
#    0.000    0.000    0.000    3.750    0.000    0.000 
#    0.000    0.000    0.000    0.000    0.000    0.000 
#
# Total GULP energy -178616.502003 kJ/mol
# GULP energy per Si atom -5581.765688 kJ/mol
# Density = 2.005540 g / cm^3
# Si number density = 20.101151 Si / 1000 Ang^3
#
#
#
# Elastic Constant Matrix: (Units=GPa)
#
#
# Indices 1 2 3 4 5 6 
#
# 1 13.1513 13.5625 3.5661 0.0000 -7.1979 0.0000
# 2 13.5625 70.6460 30.8925 0.0000 -2.1909 0.0000
# 3 3.5661 30.8925 116.8754 0.0000 -12.3920 0.0000
# 4 0.0000 0.0000 0.0000 -50.2352 0.0000 -57.5029
# 5 -7.1979 -2.1909 -12.3920 0.0000 38.8090 0.0000
# 6 0.0000 0.0000 0.0000 -57.5029 0.0000 -66.9663
#
#
#
# Elastic Compliance Matrix: (Units=1/GPa)
#
#
# Indices 1 2 3 4 5 6 
#
# 1 0.109033 -0.022378 0.004760 0.000000 0.020479 0.000000
# 2 -0.022378 0.020606 -0.005259 0.000000 -0.004666 0.000000
# 3 0.004760 -0.005259 0.010209 0.000000 0.003846 0.000000
# 4 0.000000 0.000000 0.000000 -1.164884 0.000000 1.000267
# 5 0.020479 -0.004666 0.003846 0.000000 0.030530 0.000000
# 6 0.000000 0.000000 0.000000 1.000267 0.000000 -0.873845
#
#
# Mechanical properties :
#
#
# Convention : Reuss Voigt Hill
#
# Bulk Modulus (GPa) = 10.62772 32.96832 21.79802
# Shear Modulus (GPa) = -2.79137 -5.50173 -4.14655
#
# Velocity S-wave (km/s) = -1.17969 -1.65619 -1.43782
# Velocity P-wave (km/s) = 1.85554 3.57485 2.84803
#
# Compressibility (1/GPa) = 0.09409355
#
# Stress axis : x y z
#
# Youngs Moduli (GPa) = 9.17149 48.52953 97.95692
#
# Poissons Ratio (x) = 1.08601 -0.46623
# Poissons Ratio (y) = 0.20524 0.51511
# Poissons Ratio (z) = -0.04365 0.25519
#
# Static dielectric constant tensor:
#      x y z
#    x 1.759900 0.000000 -0.058020 
#    y 0.000000 1.720960 0.000000 
#    z -0.058020 0.000000 1.820220 
# 
# From -- ./inp_files/62692.got.cif
#   From: 2010.05.17/outbox.cif.g08.bks.cpg/sg10_32_cif.got.tgz:62692.got - 2010.06.03 11:33:40.
