data_PCOD9152867
_publ_section_title
;
Structure prediction by ZEFSAII (Michael W. Deem and Ramdas Pophale) SiO2 
 PCOD9152867
Probable space group: P 2/M
;
_chemical_formula_sum "Si O2"
_cell_formula_units_Z 28
_cell_length_a 27.090834
_cell_length_b 8.874347
_cell_length_c 8.575422
_cell_angle_alpha 90.000000
_cell_angle_beta 36.144564
_cell_angle_gamma 90.000000
_cell_volume 1216.010100
_symmetry_space_group_name_H-M "P 2/M"
_symmetry_group_IT_number 10
_symmetry_cell_setting 'monoclinic'
loop_
_space_group_symop_operation_xyz
x,y,z
-x,y,-z
-x,-y,-z
x,-y,z
loop_
_atom_site_type_symbol
_atom_site_label
_atom_site_fract_x
_atom_site_fract_y
_atom_site_fract_z
Si Si1 0.789271 0.173986 0.078113
Si Si2 0.036800 0.169898 0.196543
Si Si3 0.597011 0.328179 0.297763
Si Si4 0.160060 0.166967 0.599110
Si Si5 0.864874 0.667897 0.628474
Si Si6 0.373627 0.675975 0.421420
Si Si7 0.352726 0.827437 0.154457
O O1 0.883687 0.195342 0.896286
O O2 0.799123 0.217887 0.873653
O O3 0.764367 0.000000 0.167545
O O4 0.725350 0.290607 0.314442
O O5 0.960836 0.282707 0.406871
O O6 0.004562 0.000000 0.305637
O O7 0.082668 0.173375 0.913877
O O8 0.500000 0.335568 0.500000
O O9 0.631580 0.500000 0.216546
O O10 0.599907 0.267111 0.470651
O O11 0.635486 0.244985 0.047791
O O12 0.151313 0.308864 0.511238
O O13 0.252055 0.170340 0.439016
O O14 0.153620 0.000000 0.538154
O O15 0.850774 0.500000 0.721514
O O16 0.394851 0.500000 0.359864
O O17 0.396129 0.749151 0.195184
O O18 0.381822 0.000000 0.073713
#
# Coordination Sequence:
#
# PCOD9152867 Si02
#       7
#     4   4   4   4   4   4   4
#     4  11  22  40  62  85 116 159 209 258 310 375
#     4  10  21  39  59  80 111 157 208 255 312 377
#     4  10  24  46  69  98 136 175 214 256 312 384
#     4  10  21  40  61  83 114 159 209 254 307 376
#     4  12  25  36  52  85 121 158 204 262 324 370
#     4  11  23  41  69 100 131 170 213 266 324 378
#     4  11  23  42  69 100 132 171 217 265 319 381
#
# _framework density 23.026125
#
# number of rings (size 3 to 8) (size 9 to 14) (size 15 to 20)
#    0.000    1.286    1.429    4.286    0.000   10.571 
#    0.000    2.857    0.000    0.000    0.000    0.000 
#    0.000    0.000    0.000    0.000    0.000    0.000 
#
# Total GULP energy -156227.080479 kJ/mol
# GULP energy per Si atom -5579.538589 kJ/mol
# Density = 2.297372 g / cm^3
# Si number density = 23.026125 Si / 1000 Ang^3
#
#
#
# Elastic Constant Matrix: (Units=GPa)
#
#
# Indices 1 2 3 4 5 6 
#
# 1 115.7351 31.4100 16.2610 0.0000 26.6800 0.0000
# 2 31.4100 51.7373 11.2577 0.0000 13.2394 0.0000
# 3 16.2610 11.2577 50.7874 0.0000 19.6467 0.0000
# 4 0.0000 0.0000 0.0000 78.1363 0.0000 37.0255
# 5 26.6800 13.2394 19.6467 0.0000 38.5446 0.0000
# 6 0.0000 0.0000 0.0000 37.0255 0.0000 40.6389
#
#
#
# Elastic Compliance Matrix: (Units=1/GPa)
#
#
# Indices 1 2 3 4 5 6 
#
# 1 0.011524 -0.005418 -0.000153 0.000000 -0.006038 0.000000
# 2 -0.005418 0.023965 -0.002297 0.000000 -0.003310 0.000000
# 3 -0.000153 -0.002297 0.024790 0.000000 -0.011741 0.000000
# 4 0.000000 0.000000 0.000000 0.022521 0.000000 -0.020519
# 5 -0.006038 -0.003310 -0.011741 0.000000 0.037245 0.000000
# 6 0.000000 0.000000 0.000000 -0.020519 0.000000 0.043301
#
#
# Mechanical properties :
#
#
# Convention : Reuss Voigt Hill
#
# Bulk Modulus (GPa) = 22.45024 37.34637 29.89830
# Shear Modulus (GPa) = 25.78262 42.08604 33.93433
#
# Velocity S-wave (km/s) = 3.34984 4.27986 3.84309
# Velocity P-wave (km/s) = 4.97322 6.37787 5.71884
#
# Compressibility (1/GPa) = 0.04454296
#
# Stress axis : x y z
#
# Youngs Moduli (GPa) = 86.77355 41.72820 40.33897
#
# Poissons Ratio (x) = 0.22608 0.00618
# Poissons Ratio (y) = 0.47014 0.09265
# Poissons Ratio (z) = 0.01329 0.09584
#
# Static dielectric constant tensor:
#      x y z
#    x 1.962840 0.000000 0.055690 
#    y 0.000000 1.842830 0.000000 
#    z 0.055690 0.000000 1.872240 
# 
# From -- ./inp_files/37066.got.cif
#   From: 2010.05.17/outbox.cif.g08.bks.cpg/sg10_19_cif.got.tgz:37066.got - 2010.06.03 11:33:40.
