data_PCOD9152439
_publ_section_title
;
Structure prediction by ZEFSAII (Michael W. Deem and Ramdas Pophale) SiO2 
 PCOD9152439
Probable space group: P 2/M
;
_chemical_formula_sum "Si O2"
_cell_formula_units_Z 28
_cell_length_a 7.967705
_cell_length_b 7.926268
_cell_length_c 29.011204
_cell_angle_alpha 90.000000
_cell_angle_beta 46.466996
_cell_angle_gamma 90.000000
_cell_volume 1328.288531
_symmetry_space_group_name_H-M "P 2/M"
_symmetry_group_IT_number 10
_symmetry_cell_setting 'monoclinic'
loop_
_space_group_symop_operation_xyz
x,y,z
-x,y,-z
-x,-y,-z
x,-y,z
loop_
_atom_site_type_symbol
_atom_site_label
_atom_site_fract_x
_atom_site_fract_y
_atom_site_fract_z
Si Si1 0.117739 0.306456 0.432635
Si Si2 0.914830 0.801872 0.157514
Si Si3 0.043942 0.693635 0.701334
Si Si4 0.280445 0.306440 0.567136
Si Si5 0.821964 0.797173 0.072206
Si Si6 0.704688 0.299338 0.839456
Si Si7 0.556316 0.692319 0.297686
O O1 0.190198 0.500000 0.432527
O O2 0.338018 0.227863 0.365210
O O3 0.000000 0.227569 0.500000
O O4 0.918819 0.317421 0.432678
O O5 0.884080 0.731150 0.111739
O O6 0.676236 0.773857 0.230837
O O7 0.127707 0.735273 0.148548
O O8 0.956005 0.000000 0.146086
O O9 0.981001 0.500000 0.699470
O O10 0.828111 0.771794 0.769561
O O11 0.164279 0.774156 0.634119
O O12 0.241274 0.684951 0.702796
O O13 0.500000 0.226821 0.500000
O O14 0.353577 0.500000 0.566843
O O15 0.557681 0.760833 0.108094
O O16 0.845129 0.000000 0.069784
O O17 0.000000 0.732811 0.000000
O O18 0.702132 0.500000 0.834486
O O19 0.490381 0.500000 0.297161
#
# Coordination Sequence:
#
# PCOD9152439 Si02
#       7
#     4   4   4   4   4   4   4
#     4   9  16  24  38  64  98 137 175 221 278 328
#     4  10  21  38  60  84 114 152 193 233 282 346
#     4   8  15  27  42  66  98 133 170 215 271 323
#     4   9  15  22  35  58  93 134 172 212 263 323
#     4  10  23  42  62  85 115 153 195 237 282 341
#     4  10  21  37  60  88 119 150 187 238 291 343
#     4   9  17  30  49  73 104 137 179 233 281 329
#
# _framework density 21.079758000000002
#
# number of rings (size 3 to 8) (size 9 to 14) (size 15 to 20)
#    0.000    2.714    0.000    2.571    2.000    5.429 
#    0.000    2.857    0.000    0.429    0.000    0.000 
#    0.000    6.571    0.000    0.000    0.000    0.000 
#
# Total GULP energy -156038.486736 kJ/mol
# GULP energy per Si atom -5572.803098 kJ/mol
# Density = 2.103178 g / cm^3
# Si number density = 21.079758 Si / 1000 Ang^3
#
#
#
# Elastic Constant Matrix: (Units=GPa)
#
#
# Indices 1 2 3 4 5 6 
#
# 1 81.8047 1.0402 87.9193 0.0000 3.6005 0.0000
# 2 1.0402 21.8092 9.9976 0.0000 4.6434 0.0000
# 3 87.9193 9.9976 230.3797 0.0000 -1.9369 0.0000
# 4 0.0000 0.0000 0.0000 12.8122 0.0000 -2.0766
# 5 3.6005 4.6434 -1.9369 0.0000 41.0303 0.0000
# 6 0.0000 0.0000 0.0000 -2.0766 0.0000 13.2483
#
#
#
# Elastic Compliance Matrix: (Units=1/GPa)
#
#
# Indices 1 2 3 4 5 6 
#
# 1 0.021151 0.003326 -0.008238 0.000000 -0.002621 0.000000
# 2 0.003326 0.048530 -0.003425 0.000000 -0.005946 0.000000
# 3 -0.008238 -0.003425 0.007646 0.000000 0.001471 0.000000
# 4 0.000000 0.000000 0.000000 0.080085 0.000000 0.012553
# 5 -0.002621 -0.005946 0.001471 0.000000 0.025345 0.000000
# 6 0.000000 0.000000 0.000000 0.012553 0.000000 0.077449
#
#
# Mechanical properties :
#
#
# Convention : Reuss Voigt Hill
#
# Bulk Modulus (GPa) = 16.48772 59.10088 37.79430
# Shear Modulus (GPa) = 16.82947 29.08726 22.95837
#
# Velocity S-wave (km/s) = 2.82861 3.71869 3.30376
# Velocity P-wave (km/s) = 4.30193 6.82172 5.70274
#
# Compressibility (1/GPa) = 0.06065120
#
# Stress axis : x y z
#
# Youngs Moduli (GPa) = 47.27803 20.60599 130.79318
#
# Poissons Ratio (x) = -0.06853 1.07752
# Poissons Ratio (y) = -0.15724 0.44799
# Poissons Ratio (z) = 0.38949 0.07058
#
# Static dielectric constant tensor:
#      x y z
#    x 1.725870 0.000000 0.010540 
#    y 0.000000 1.788210 0.000000 
#    z 0.010540 0.000000 1.824460 
# 
# From -- ./inp_files/94503.got.cif
#   From: 2010.05.17/outbox.cif.g08.bks.cpg/sg10_48_cif.got.tgz:94503.got - 2010.06.03 11:33:40.
