data_PCOD9152013
_publ_section_title
;
Structure prediction by ZEFSAII (Michael W. Deem and Ramdas Pophale) SiO2 
 PCOD9152013
Probable space group: P 2/M
;
_chemical_formula_sum "Si O2"
_cell_formula_units_Z 32
_cell_length_a 15.457213
_cell_length_b 9.411015
_cell_length_c 23.073616
_cell_angle_alpha 90.000000
_cell_angle_beta 29.100313
_cell_angle_gamma 90.000000
_cell_volume 1632.388196
_symmetry_space_group_name_H-M "P 2/M"
_symmetry_group_IT_number 10
_symmetry_cell_setting 'monoclinic'
loop_
_space_group_symop_operation_xyz
x,y,z
-x,y,-z
-x,-y,-z
x,-y,z
loop_
_atom_site_type_symbol
_atom_site_label
_atom_site_fract_x
_atom_site_fract_y
_atom_site_fract_z
Si Si1 0.125239 0.332649 0.685106
Si Si2 0.543398 0.832901 0.907082
Si Si3 0.316701 0.839011 0.668794
Si Si4 0.970376 0.165324 0.951276
Si Si5 0.685410 0.166017 0.520425
Si Si6 0.225236 0.331149 0.032703
Si Si7 0.242061 0.335108 0.413548
Si Si8 0.180477 0.665165 0.318152
O O1 0.146546 0.500000 0.662937
O O2 0.267415 0.272908 0.648356
O O3 0.162813 0.248719 0.604168
O O4 0.934154 0.307809 0.827117
O O5 0.733403 0.767710 0.778960
O O6 0.535623 0.000000 0.898449
O O7 0.500000 0.813301 0.000000
O O8 0.398549 0.746682 0.954948
O O9 0.160005 0.831074 0.807742
O O10 0.503465 0.817502 0.590747
O O11 0.312314 0.000000 0.646273
O O12 0.840381 0.261771 0.989014
O O13 0.909592 0.000000 0.987064
O O14 0.000000 0.211282 0.000000
O O15 0.662175 0.234083 0.597184
O O16 0.727254 0.000000 0.500231
O O17 0.251715 0.500000 0.011236
O O18 0.291480 0.500000 0.393814
O O19 0.263131 0.302847 0.333291
O O20 0.031055 0.321931 0.550452
O O21 0.218474 0.500000 0.281908
#
# Coordination Sequence:
#
# PCOD9152013 Si02
#       8
#     4   4   4   4   4   4   4   4
#     4  10  21  36  55  79 109 146 189 235 282 335
#     4  11  25  41  60  89 121 153 195 245 296 352
#     4   9  19  35  51  75 111 147 183 225 278 336
#     4   9  18  35  59  83 112 151 189 232 286 342
#     4  11  22  33  52  82 114 149 188 229 279 340
#     4  10  22  39  58  83 113 150 194 239 293 349
#     4   9  20  39  61  86 114 149 191 235 287 341
#     4   9  20  41  64  84 114 151 189 237 290 343
#
# _framework density 19.603179999999998
#
# number of rings (size 3 to 8) (size 9 to 14) (size 15 to 20)
#    0.000    2.250    0.000    2.625    1.750    7.250 
#    0.000    2.500    0.000    0.000    0.000    0.000 
#    0.000    0.000    0.000    0.000    0.000    0.000 
#
# Total GULP energy -178771.843433 kJ/mol
# GULP energy per Si atom -5586.620107 kJ/mol
# Density = 1.955856 g / cm^3
# Si number density = 19.603180 Si / 1000 Ang^3
#
#
#
# Elastic Constant Matrix: (Units=GPa)
#
#
# Indices 1 2 3 4 5 6 
#
# 1 44.1438 28.0452 8.7390 0.0000 5.1778 0.0000
# 2 28.0452 69.1019 31.9987 0.0000 5.8473 0.0000
# 3 8.7390 31.9987 36.9991 0.0000 4.7615 0.0000
# 4 0.0000 0.0000 0.0000 -18.1422 0.0000 -7.5446
# 5 5.1778 5.8473 4.7615 0.0000 22.5541 0.0000
# 6 0.0000 0.0000 0.0000 -7.5446 0.0000 17.0601
#
#
#
# Elastic Compliance Matrix: (Units=1/GPa)
#
#
# Indices 1 2 3 4 5 6 
#
# 1 0.031766 -0.015515 0.006513 0.000000 -0.004645 0.000000
# 2 -0.015515 0.031796 -0.023881 0.000000 0.000360 0.000000
# 3 0.006513 -0.023881 0.046810 0.000000 -0.005186 0.000000
# 4 0.000000 0.000000 0.000000 -0.046558 0.000000 -0.020590
# 5 -0.004645 0.000360 -0.005186 0.000000 0.046406 0.000000
# 6 0.000000 0.000000 0.000000 -0.020590 0.000000 0.049511
#
#
# Mechanical properties :
#
#
# Convention : Reuss Voigt Hill
#
# Bulk Modulus (GPa) = 22.41822 31.97896 27.19859
# Shear Modulus (GPa) = 20.80173 9.72520 15.26347
#
# Velocity S-wave (km/s) = 3.26105 2.22975 2.79341
# Velocity P-wave (km/s) = 5.06361 4.79350 4.93040
#
# Compressibility (1/GPa) = 0.04460658
#
# Stress axis : x y z
#
# Youngs Moduli (GPa) = 31.48051 31.45040 21.36298
#
# Poissons Ratio (x) = 0.48796 -0.13914
# Poissons Ratio (y) = 0.48843 0.51016
# Poissons Ratio (z) = -0.20504 0.75106
#
# Static dielectric constant tensor:
#      x y z
#    x 1.677420 0.000000 0.005590 
#    y 0.000000 1.655910 0.000000 
#    z 0.005590 0.000000 1.708330 
# 
# From -- ./inp_files/89533.got.cif
#   From: 2010.05.17/outbox.cif.g08.bks.cpg/sg10_45_cif.got.tgz:89533.got - 2010.06.03 11:33:40.
