data_PCOD9152528
_publ_section_title
;
Structure prediction by ZEFSAII (Michael W. Deem and Ramdas Pophale) SiO2 
 PCOD9152528
Probable space group: P 2/M
;
_chemical_formula_sum "Si O2"
_cell_formula_units_Z 32
_cell_length_a 20.500810
_cell_length_b 11.186982
_cell_length_c 20.369995
_cell_angle_alpha 90.000000
_cell_angle_beta 21.350551
_cell_angle_gamma 90.000000
_cell_volume 1700.840065
_symmetry_space_group_name_H-M "P 2/M"
_symmetry_group_IT_number 10
_symmetry_cell_setting 'monoclinic'
loop_
_space_group_symop_operation_xyz
x,y,z
-x,y,-z
-x,-y,-z
x,-y,z
loop_
_atom_site_type_symbol
_atom_site_label
_atom_site_fract_x
_atom_site_fract_y
_atom_site_fract_z
Si Si1 0.718974 0.146319 0.440780
Si Si2 0.197901 0.301543 0.389791
Si Si3 0.735354 0.864227 0.007695
Si Si4 0.207151 0.632755 0.242105
Si Si5 0.055618 0.860951 0.048929
Si Si6 0.429395 0.635445 0.900878
Si Si7 0.610156 0.145528 0.333024
Si Si8 0.113259 0.136847 0.583950
O O1 0.519737 0.175918 0.605924
O O2 0.779880 0.192703 0.454513
O O3 0.732113 0.000000 0.428723
O O4 0.863345 0.188386 0.250856
O O5 0.242199 0.282756 0.271559
O O6 0.365088 0.362718 0.268430
O O7 0.158230 0.187996 0.471589
O O8 0.005910 0.367155 0.570860
O O9 0.904244 0.856143 0.799369
O O10 0.655741 0.000000 0.076525
O O11 0.827991 0.859288 0.992615
O O12 0.614288 0.748980 0.104838
O O13 0.260675 0.500000 0.215136
O O14 0.312695 0.656093 0.076550
O O15 0.188811 0.810169 0.868936
O O16 0.023376 0.000000 0.061709
O O17 0.386016 0.500000 0.917061
O O18 0.500000 0.184459 0.500000
O O19 0.621133 0.000000 0.326002
O O20 0.164759 0.000000 0.535469
#
# Coordination Sequence:
#
# PCOD9152528 Si02
#       8
#     4   4   4   4   4   4   4   4
#     4   8  15  27  41  59  89 127 165 203 241 291
#     4  11  20  33  54  75  94 129 170 206 256 311
#     4   9  18  35  54  74 102 138 175 209 252 310
#     4  10  21  38  53  70  99 131 165 208 258 314
#     4   8  15  27  43  62  90 128 164 198 240 290
#     4  11  22  35  54  80 103 129 168 214 261 308
#     4   9  16  24  38  64  94 127 166 201 238 289
#     4   9  18  33  51  73 100 134 177 214 252 303
#
# _framework density 18.814232000000001
#
# number of rings (size 3 to 8) (size 9 to 14) (size 15 to 20)
#    0.000    2.625    1.250    3.375    1.750    2.000 
#    0.000    4.375    0.000    1.500    0.000    0.000 
#    0.000    0.500    0.000    3.500    0.000    3.750 
#
# Total GULP energy -178155.392413 kJ/mol
# GULP energy per Si atom -5567.356013 kJ/mol
# Density = 1.877141 g / cm^3
# Si number density = 18.814232 Si / 1000 Ang^3
#
#
#
# Elastic Constant Matrix: (Units=GPa)
#
#
# Indices 1 2 3 4 5 6 
#
# 1 37.7082 17.8636 3.8040 0.0000 -3.0340 0.0000
# 2 17.8636 45.9970 8.4443 0.0000 -1.1555 0.0000
# 3 3.8040 8.4443 79.7208 0.0000 2.7533 0.0000
# 4 0.0000 0.0000 0.0000 10.0884 0.0000 -7.0273
# 5 -3.0340 -1.1555 2.7533 0.0000 28.3620 0.0000
# 6 0.0000 0.0000 0.0000 -7.0273 0.0000 7.2049
#
#
#
# Elastic Compliance Matrix: (Units=1/GPa)
#
#
# Indices 1 2 3 4 5 6 
#
# 1 0.032758 -0.012585 -0.000335 0.000000 0.003024 0.000000
# 2 -0.012585 0.027043 -0.002263 0.000000 -0.000025 0.000000
# 3 -0.000335 -0.002263 0.012847 0.000000 -0.001375 0.000000
# 4 0.000000 0.000000 0.000000 0.309168 0.000000 0.301543
# 5 0.003024 -0.000025 -0.001375 0.000000 0.035714 0.000000
# 6 0.000000 0.000000 0.000000 0.301543 0.000000 0.432899
#
#
# Mechanical properties :
#
#
# Convention : Reuss Voigt Hill
#
# Bulk Modulus (GPa) = 23.64999 24.84996 24.24997
# Shear Modulus (GPa) = 5.58729 18.01868 11.80298
#
# Velocity S-wave (km/s) = 1.72515 3.09806 2.50740
# Velocity P-wave (km/s) = 4.07011 5.10235 4.61518
#
# Compressibility (1/GPa) = 0.04228332
#
# Stress axis : x y z
#
# Youngs Moduli (GPa) = 30.52657 36.97829 77.83950
#
# Poissons Ratio (x) = 0.46536 0.02604
# Poissons Ratio (y) = 0.38417 0.17616
# Poissons Ratio (z) = 0.01021 0.08369
#
# Static dielectric constant tensor:
#      x y z
#    x 1.700950 0.000000 0.007660 
#    y 0.000000 1.634220 0.000000 
#    z 0.007660 0.000000 1.710220 
# 
# From -- ./inp_files/86239.got.cif
#   From: 2010.05.17/outbox.cif.g08.bks.cpg/sg10_44_cif.got.tgz:86239.got - 2010.06.03 11:33:40.
