data_PCOD9152651
_publ_section_title
;
Structure prediction by ZEFSAII (Michael W. Deem and Ramdas Pophale) SiO2 
 PCOD9152651
Probable space group: P 2/M
;
_chemical_formula_sum "Si O2"
_cell_formula_units_Z 26
_cell_length_a 9.085402
_cell_length_b 8.030573
_cell_length_c 22.042237
_cell_angle_alpha 90.000000
_cell_angle_beta 49.076311
_cell_angle_gamma 90.000000
_cell_volume 1215.145706
_symmetry_space_group_name_H-M "P 2/M"
_symmetry_group_IT_number 10
_symmetry_cell_setting 'monoclinic'
loop_
_space_group_symop_operation_xyz
x,y,z
-x,y,-z
-x,-y,-z
x,-y,z
loop_
_atom_site_type_symbol
_atom_site_label
_atom_site_fract_x
_atom_site_fract_y
_atom_site_fract_z
Si Si1 0.173635 0.809443 0.696834
Si Si2 0.604293 0.801554 0.609903
Si Si3 0.730326 0.309887 0.452952
Si Si4 0.238435 0.187654 0.183549
Si Si5 0.500000 0.752314 0.000000
Si Si6 0.233377 0.500000 0.862239
Si Si7 0.783579 0.500000 0.987220
Si Si8 0.478209 0.798184 0.234737
O O1 0.382431 0.734466 0.659081
O O2 0.165649 0.801228 0.625582
O O3 0.970892 0.731269 0.773601
O O4 0.185535 0.000000 0.716274
O O5 0.743580 0.728767 0.520603
O O6 0.642867 0.775497 0.670383
O O7 0.601934 0.000000 0.599020
O O8 0.500000 0.289332 0.500000
O O9 0.786011 0.500000 0.426232
O O10 0.356959 0.257486 0.208362
O O11 0.189128 0.000000 0.216979
O O12 0.374438 0.173163 0.088469
O O13 0.335728 0.652352 0.007950
O O14 0.340619 0.669984 0.812148
O O15 0.006627 0.500000 0.906934
O O16 0.233367 0.500000 0.935736
O O17 0.526430 0.000000 0.217515
#
# Coordination Sequence:
#
# PCOD9152651 Si02
#       8
#     4   4   4   4   2   2   2   4
#     4   9  18  34  56  82 112 149 193 242 293 349
#     4   9  18  33  56  84 114 150 194 241 293 350
#     4   9  17  31  50  81 114 146 189 239 292 345
#     4  10  21  38  60  85 117 155 198 246 300 356
#     4  11  21  42  58  88 117 157 194 249 295 356
#     4  11  22  44  62  88 122 160 195 254 295 356
#     4  10  24  40  62  86 116 154 204 239 307 357
#     4  10  22  40  61  89 121 160 199 241 300 355
#
# _framework density 21.396612000000001
#
# number of rings (size 3 to 8) (size 9 to 14) (size 15 to 20)
#    0.000    2.308    1.538    0.692    3.231    1.846 
#    4.154    3.077    0.000    4.615    0.000    0.000 
#    0.000    0.000    0.000    0.000    0.000    0.000 
#
# Total GULP energy -144779.528936 kJ/mol
# GULP energy per Si atom -5568.443421 kJ/mol
# Density = 2.134791 g / cm^3
# Si number density = 21.396612 Si / 1000 Ang^3
#
#
#
# Elastic Constant Matrix: (Units=GPa)
#
#
# Indices 1 2 3 4 5 6 
#
# 1 46.2293 4.0240 22.6699 0.0000 11.8359 0.0000
# 2 4.0240 44.0799 7.2793 0.0000 1.1717 0.0000
# 3 22.6699 7.2793 73.2395 0.0000 29.7245 0.0000
# 4 0.0000 0.0000 0.0000 28.0709 0.0000 0.6320
# 5 11.8359 1.1717 29.7245 0.0000 29.0401 0.0000
# 6 0.0000 0.0000 0.0000 0.6320 0.0000 7.6021
#
#
#
# Elastic Compliance Matrix: (Units=1/GPa)
#
#
# Indices 1 2 3 4 5 6 
#
# 1 0.025836 -0.001225 -0.006195 0.000000 -0.004139 0.000000
# 2 -0.001225 0.023223 -0.002996 0.000000 0.002629 0.000000
# 3 -0.006195 -0.002996 0.025309 0.000000 -0.023260 0.000000
# 4 0.000000 0.000000 0.000000 0.035691 0.000000 -0.002967
# 5 -0.004139 0.002629 -0.023260 0.000000 0.059824 0.000000
# 6 0.000000 0.000000 0.000000 -0.002967 0.000000 0.131789
#
#
# Mechanical properties :
#
#
# Convention : Reuss Voigt Hill
#
# Bulk Modulus (GPa) = 18.67939 25.72168 22.20053
# Shear Modulus (GPa) = 14.69078 21.58099 18.13588
#
# Velocity S-wave (km/s) = 2.62314 3.17932 2.91452
# Velocity P-wave (km/s) = 4.23361 5.05222 4.66092
#
# Compressibility (1/GPa) = 0.05353495
#
# Stress axis : x y z
#
# Youngs Moduli (GPa) = 38.70614 43.06112 39.51112
#
# Poissons Ratio (x) = 0.05277 0.24478
# Poissons Ratio (y) = 0.04743 0.11837
# Poissons Ratio (z) = 0.23979 0.12900
#
# Static dielectric constant tensor:
#      x y z
#    x 1.833180 0.000000 -0.014680 
#    y 0.000000 1.810380 0.000000 
#    z -0.014680 0.000000 1.777110 
# 
# From -- ./inp_files/82216.got.cif
#   From: 2010.05.17/outbox.cif.g08.bks.cpg/sg10_42_cif.got.tgz:82216.got - 2010.06.03 11:33:40.
