data_PCOD9152808
_publ_section_title
;
Structure prediction by ZEFSAII (Michael W. Deem and Ramdas Pophale) SiO2 
 PCOD9152808
Probable space group: P 2/M
;
_chemical_formula_sum "Si O2"
_cell_formula_units_Z 28
_cell_length_a 7.558197
_cell_length_b 8.552654
_cell_length_c 23.529551
_cell_angle_alpha 90.000000
_cell_angle_beta 52.798762
_cell_angle_gamma 90.000000
_cell_volume 1211.511999
_symmetry_space_group_name_H-M "P 2/M"
_symmetry_group_IT_number 10
_symmetry_cell_setting 'monoclinic'
loop_
_space_group_symop_operation_xyz
x,y,z
-x,y,-z
-x,-y,-z
x,-y,z
loop_
_atom_site_type_symbol
_atom_site_label
_atom_site_fract_x
_atom_site_fract_y
_atom_site_fract_z
Si Si1 0.419271 0.241134 0.309736
Si Si2 0.673381 0.325024 0.096605
Si Si3 0.197705 0.500000 0.416403
Si Si4 0.837163 0.818451 0.173720
Si Si5 0.249037 0.827793 0.217046
Si Si6 0.252687 0.173893 0.655309
Si Si7 0.617303 0.500000 0.416937
Si Si8 0.243739 0.821063 0.034935
O O1 0.225396 0.352078 0.370154
O O2 0.660135 0.295495 0.238007
O O3 0.315637 0.169550 0.271990
O O4 0.529123 0.168294 0.345853
O O5 0.728283 0.500000 0.103965
O O6 0.773788 0.198351 0.119812
O O7 0.409205 0.296508 0.156266
O O8 0.766557 0.293246 0.016295
O O9 0.425846 0.500000 0.406962
O O10 0.000000 0.500000 0.500000
O O11 0.799197 0.000000 0.199358
O O12 0.094759 0.779524 0.118629
O O13 0.982736 0.808599 0.265784
O O14 0.302504 0.000000 0.183085
O O15 0.264746 0.332083 0.615540
O O16 0.241154 0.000000 0.629723
O O17 0.500000 0.500000 0.500000
O O18 0.184303 0.000000 0.031222
O O19 0.500000 0.821478 0.000000
#
# Coordination Sequence:
#
# PCOD9152808 Si02
#       8
#     4   4   2   4   4   4   2   4
#     4  10  21  39  64  95 127 163 212 265 313 387
#     4  11  23  37  56  88 121 162 206 262 313 370
#     4  10  24  42  66  98 129 175 206 252 330 391
#     4  10  21  38  63  86 117 162 205 259 314 374
#     4  10  22  38  65  94 123 169 214 265 322 377
#     4  10  22  40  65  95 129 168 214 268 320 383
#     4  10  24  42  66  96 129 172 207 261 317 395
#     4  10  22  39  59  85 118 164 211 257 314 370
#
# _framework density 23.111616000000001
#
# number of rings (size 3 to 8) (size 9 to 14) (size 15 to 20)
#    0.000    1.857    0.000    3.857    9.000    2.857 
#    0.000    0.000    0.000    4.286    0.000    0.000 
#    0.000    0.000    0.000    0.000    0.000    0.000 
#
# Total GULP energy -155929.960510 kJ/mol
# GULP energy per Si atom -5568.927161 kJ/mol
# Density = 2.305901 g / cm^3
# Si number density = 23.111616 Si / 1000 Ang^3
#
#
#
# Elastic Constant Matrix: (Units=GPa)
#
#
# Indices 1 2 3 4 5 6 
#
# 1 69.1872 9.5762 -9.9239 0.0000 -12.4708 0.0000
# 2 9.5762 108.8736 66.4167 0.0000 -3.5745 0.0000
# 3 -9.9239 66.4167 146.8552 0.0000 -11.3920 0.0000
# 4 0.0000 0.0000 0.0000 34.1726 0.0000 -3.5606
# 5 -12.4708 -3.5745 -11.3920 0.0000 38.2390 0.0000
# 6 0.0000 0.0000 0.0000 -3.5606 0.0000 6.3153
#
#
#
# Elastic Compliance Matrix: (Units=1/GPa)
#
#
# Indices 1 2 3 4 5 6 
#
# 1 0.016364 -0.003038 0.002940 0.000000 0.005929 0.000000
# 2 -0.003038 0.013259 -0.006329 0.000000 -0.001637 0.000000
# 3 0.002940 -0.006329 0.010133 0.000000 0.003386 0.000000
# 4 0.000000 0.000000 0.000000 0.031090 0.000000 0.017529
# 5 0.005929 -0.001637 0.003386 0.000000 0.028941 0.000000
# 6 0.000000 0.000000 0.000000 0.017529 0.000000 0.168229
#
#
# Mechanical properties :
#
#
# Convention : Reuss Voigt Hill
#
# Bulk Modulus (GPa) = 37.17166 50.78376 43.97771
# Shear Modulus (GPa) = 17.25105 33.00184 25.12645
#
# Velocity S-wave (km/s) = 2.73504 3.78290 3.30082
# Velocity P-wave (km/s) = 5.10807 6.41104 5.79628
#
# Compressibility (1/GPa) = 0.02690221
#
# Stress axis : x y z
#
# Youngs Moduli (GPa) = 61.10853 75.41880 98.68692
#
# Poissons Ratio (x) = 0.22913 -0.29011
# Poissons Ratio (y) = 0.18565 0.62458
# Poissons Ratio (z) = -0.17964 0.47732
#
# Static dielectric constant tensor:
#      x y z
#    x 1.885460 0.000000 -0.166010 
#    y 0.000000 1.861490 0.000000 
#    z -0.166010 0.000000 1.715070 
# 
# From -- ./inp_files/92043.got.cif
#   From: 2010.05.17/outbox.cif.g08.bks.cpg/sg10_47_cif.got.tgz:92043.got - 2010.06.03 11:33:40.
