data_PCOD9152533
_publ_section_title
;
Structure prediction by ZEFSAII (Michael W. Deem and Ramdas Pophale) SiO2 
 PCOD9152533
Probable space group: P 2/M
;
_chemical_formula_sum "Si O2"
_cell_formula_units_Z 32
_cell_length_a 30.456445
_cell_length_b 7.999182
_cell_length_c 13.035154
_cell_angle_alpha 90.000000
_cell_angle_beta 155.620123
_cell_angle_gamma 90.000000
_cell_volume 1310.884411
_symmetry_space_group_name_H-M "P 2/M"
_symmetry_group_IT_number 10
_symmetry_cell_setting 'monoclinic'
loop_
_space_group_symop_operation_xyz
x,y,z
-x,y,-z
-x,-y,-z
x,-y,z
loop_
_atom_site_type_symbol
_atom_site_label
_atom_site_fract_x
_atom_site_fract_y
_atom_site_fract_z
Si Si1 0.285161 0.802471 0.890612
Si Si2 0.957467 0.298096 0.244927
Si Si3 0.153317 0.199720 0.182323
Si Si4 0.785239 0.197069 0.469566
Si Si5 0.488035 0.302750 0.587367
Si Si6 0.545696 0.692075 0.983894
Si Si7 0.660510 0.807802 0.567269
Si Si8 0.839211 0.699282 0.187537
O O1 0.213418 0.731490 0.643947
O O2 0.258564 0.738386 0.947164
O O3 0.270735 0.000000 0.860666
O O4 0.408362 0.763213 0.132146
O O5 0.956504 0.500000 0.236464
O O6 0.862922 0.239611 0.122251
O O7 0.062472 0.245263 0.529922
O O8 0.944354 0.230630 0.102342
O O9 0.152871 0.265338 0.298313
O O10 0.251729 0.268802 0.322695
O O11 0.168551 0.000000 0.224250
O O12 0.660521 0.221042 0.231909
O O13 0.811562 0.000000 0.517546
O O14 0.500000 0.226022 0.500000
O O15 0.501335 0.500000 0.608594
O O16 0.374930 0.272166 0.400571
O O17 0.555276 0.500000 0.963546
O O18 0.500000 0.676896 0.000000
O O19 0.451818 0.792826 0.729727
O O20 0.687871 0.000000 0.643175
O O21 0.845858 0.500000 0.192941
#
# Coordination Sequence:
#
# PCOD9152533 Si02
#       8
#     4   4   4   4   4   4   4   4
#     4  11  23  38  61  88 115 155 199 236 284 348
#     4   9  20  40  65  89 114 146 187 236 296 352
#     4  10  22  37  57  86 119 153 191 238 294 345
#     4  10  21  38  55  78 116 158 193 233 288 344
#     4  11  25  41  56  80 117 158 198 243 291 339
#     4  11  21  32  51  79 108 145 196 241 277 327
#     4  11  22  36  55  80 113 155 195 236 287 342
#     4   9  20  41  65  88 115 148 186 237 295 351
#
# _framework density 24.411000999999999
#
# number of rings (size 3 to 8) (size 9 to 14) (size 15 to 20)
#    0.000    1.750    2.500    2.250    1.750    4.500 
#    0.000    1.875    0.000    3.750    0.000    0.000 
#    0.000    0.000    0.000    0.000    0.000    0.000 
#
# Total GULP energy -178619.181745 kJ/mol
# GULP energy per Si atom -5581.849430 kJ/mol
# Density = 2.435544 g / cm^3
# Si number density = 24.411001 Si / 1000 Ang^3
#
#
#
# Elastic Constant Matrix: (Units=GPa)
#
#
# Indices 1 2 3 4 5 6 
#
# 1 65.5672 1.2721 14.8597 0.0000 -31.9074 0.0000
# 2 1.2721 24.6312 2.3874 0.0000 -14.6339 0.0000
# 3 14.8597 2.3874 72.1120 0.0000 -29.0713 0.0000
# 4 0.0000 0.0000 0.0000 42.1857 0.0000 -39.8969
# 5 -31.9074 -14.6339 -29.0713 0.0000 54.5690 0.0000
# 6 0.0000 0.0000 0.0000 -39.8969 0.0000 120.3637
#
#
#
# Elastic Compliance Matrix: (Units=1/GPa)
#
#
# Indices 1 2 3 4 5 6 
#
# 1 0.022701 0.008420 0.001662 0.000000 0.016417 0.000000
# 2 0.008420 0.052652 0.005347 0.000000 0.021892 0.000000
# 3 0.001662 0.005347 0.018234 0.000000 0.012120 0.000000
# 4 0.000000 0.000000 0.000000 0.034529 0.000000 0.011445
# 5 0.016417 0.021892 0.012120 0.000000 0.040252 0.000000
# 6 0.000000 0.000000 0.000000 0.011445 0.000000 0.012102
#
#
# Mechanical properties :
#
#
# Convention : Reuss Voigt Hill
#
# Bulk Modulus (GPa) = 8.03568 22.14984 15.09276
# Shear Modulus (GPa) = 26.16527 53.00977 39.58752
#
# Velocity S-wave (km/s) = 3.27749 4.66505 4.03141
# Velocity P-wave (km/s) = 4.19780 6.17335 5.27882
#
# Compressibility (1/GPa) = 0.12444498
#
# Stress axis : x y z
#
# Youngs Moduli (GPa) = 44.05179 18.99252 54.84328
#
# Poissons Ratio (x) = -0.15992 -0.09113
# Poissons Ratio (y) = -0.37092 -0.29327
# Poissons Ratio (z) = -0.07320 -0.10156
#
# Static dielectric constant tensor:
#      x y z
#    x 2.036390 0.000000 -0.048870 
#    y 0.000000 1.877530 0.000000 
#    z -0.048870 0.000000 2.032900 
# 
# From -- ./inp_files/58336.got.cif
#   From: 2010.05.17/outbox.cif.g08.bks.cpg/sg10_30_cif.got.tgz:58336.got - 2010.06.03 11:33:40.
