data_PCOD9152679
_publ_section_title
;
Structure prediction by ZEFSAII (Michael W. Deem and Ramdas Pophale) SiO2 
 PCOD9152679
Probable space group: P 2/M
;
_chemical_formula_sum "Si O2"
_cell_formula_units_Z 32
_cell_length_a 21.404508
_cell_length_b 8.712449
_cell_length_c 27.459186
_cell_angle_alpha 90.000000
_cell_angle_beta 19.724236
_cell_angle_gamma 90.000000
_cell_volume 1728.218022
_symmetry_space_group_name_H-M "P 2/M"
_symmetry_group_IT_number 10
_symmetry_cell_setting 'monoclinic'
loop_
_space_group_symop_operation_xyz
x,y,z
-x,y,-z
-x,-y,-z
x,-y,z
loop_
_atom_site_type_symbol
_atom_site_label
_atom_site_fract_x
_atom_site_fract_y
_atom_site_fract_z
Si Si1 0.992563 0.316153 0.062091
Si Si2 0.738446 0.314277 0.520430
Si Si3 0.953780 0.686124 0.457358
Si Si4 0.702049 0.314518 0.734765
Si Si5 0.362528 0.816330 0.838303
Si Si6 0.921753 0.315790 0.284057
Si Si7 0.284661 0.816018 0.659076
Si Si8 0.328740 0.816698 0.976494
O O1 0.987819 0.500000 0.069133
O O2 0.816289 0.247849 0.219102
O O3 0.000000 0.272699 0.000000
O O4 0.175103 0.253849 0.954594
O O5 0.727376 0.500000 0.530138
O O6 0.880093 0.263256 0.459121
O O7 0.539190 0.247424 0.680102
O O8 0.811083 0.270103 0.413995
O O9 0.956616 0.500000 0.455110
O O10 0.808866 0.729543 0.606263
O O11 0.157914 0.734269 0.324978
O O12 0.686956 0.500000 0.746353
O O13 0.499632 0.242923 0.883053
O O14 0.374436 0.775287 0.886705
O O15 0.355797 0.000000 0.839456
O O16 0.921534 0.500000 0.280608
O O17 0.823977 0.247445 0.308114
O O18 0.132096 0.257646 0.133151
O O19 0.500000 0.770941 0.500000
O O20 0.272492 0.000000 0.667746
O O21 0.313828 0.000000 0.990613
#
# Coordination Sequence:
#
# PCOD9152679 Si02
#       8
#     4   4   4   4   4   4   4   4
#     4  11  25  43  65  93 121 152 195 246 291 338
#     4  10  21  38  60  88 119 152 197 248 297 348
#     4   8  15  30  54  85 116 147 189 243 294 345
#     4   9  16  30  57  85 112 151 194 240 295 346
#     4  11  23  38  60  88 119 156 196 239 295 351
#     4  11  24  40  62  87 115 156 199 244 293 345
#     4  11  25  44  64  88 120 160 196 234 291 356
#     4  11  22  37  57  85 118 155 197 242 290 349
#
# _framework density 18.516182000000001
#
# number of rings (size 3 to 8) (size 9 to 14) (size 15 to 20)
#    0.000    1.750    2.500    2.625    1.750    4.000 
#    0.000    2.500    0.000    3.750    0.000    0.000 
#    0.000    0.000    0.000    0.000    0.000    0.000 
#
# Total GULP energy -178747.504210 kJ/mol
# GULP energy per Si atom -5585.859507 kJ/mol
# Density = 1.847404 g / cm^3
# Si number density = 18.516182 Si / 1000 Ang^3
#
#
#
# Elastic Constant Matrix: (Units=GPa)
#
#
# Indices 1 2 3 4 5 6 
#
# 1 71.7846 23.5764 57.4163 0.0000 -1.5209 0.0000
# 2 23.5764 27.4420 39.6848 0.0000 3.6975 0.0000
# 3 57.4163 39.6848 161.5221 0.0000 -3.1730 0.0000
# 4 0.0000 0.0000 0.0000 47.3681 0.0000 -7.4169
# 5 -1.5209 3.6975 -3.1730 0.0000 36.3161 0.0000
# 6 0.0000 0.0000 0.0000 -7.4169 0.0000 15.5095
#
#
#
# Elastic Compliance Matrix: (Units=1/GPa)
#
#
# Indices 1 2 3 4 5 6 
#
# 1 0.021699 -0.012051 -0.004719 0.000000 0.001723 0.000000
# 2 -0.012051 0.065039 -0.011856 0.000000 -0.008162 0.000000
# 3 -0.004719 -0.011856 0.010820 0.000000 0.001955 0.000000
# 4 0.000000 0.000000 0.000000 0.022820 0.000000 0.010913
# 5 0.001723 -0.008162 0.001955 0.000000 0.028610 0.000000
# 6 0.000000 0.000000 0.000000 0.010913 0.000000 0.069696
#
#
# Mechanical properties :
#
#
# Convention : Reuss Voigt Hill
#
# Bulk Modulus (GPa) = 24.80973 55.78928 40.29951
# Shear Modulus (GPa) = 17.27882 29.17681 23.22781
#
# Velocity S-wave (km/s) = 3.05810 3.97387 3.54568
# Velocity P-wave (km/s) = 5.08895 7.15898 6.21081
#
# Compressibility (1/GPa) = 0.04030677
#
# Stress axis : x y z
#
# Youngs Moduli (GPa) = 46.08458 15.37528 92.42219
#
# Poissons Ratio (x) = 0.18528 0.43612
# Poissons Ratio (y) = 0.55535 1.09579
# Poissons Ratio (z) = 0.21746 0.18229
#
# Static dielectric constant tensor:
#      x y z
#    x 1.637420 0.000000 -0.000300 
#    y 0.000000 1.623330 0.000000 
#    z -0.000300 0.000000 1.612000 
# 
# From -- ./inp_files/93676.got.cif
#   From: 2010.05.17/outbox.cif.g08.bks.cpg/sg10_47_cif.got.tgz:93676.got - 2010.06.03 11:33:40.
