data_PCOD9152725
_publ_section_title
;
Structure prediction by ZEFSAII (Michael W. Deem and Ramdas Pophale) SiO2 
 PCOD9152725
Probable space group: P 2/M
;
_chemical_formula_sum "Si O2"
_cell_formula_units_Z 28
_cell_length_a 11.406401
_cell_length_b 8.809743
_cell_length_c 14.886391
_cell_angle_alpha 90.000000
_cell_angle_beta 67.257494
_cell_angle_gamma 90.000000
_cell_volume 1379.592064
_symmetry_space_group_name_H-M "P 2/M"
_symmetry_group_IT_number 10
_symmetry_cell_setting 'monoclinic'
loop_
_space_group_symop_operation_xyz
x,y,z
-x,y,-z
-x,-y,-z
x,-y,z
loop_
_atom_site_type_symbol
_atom_site_label
_atom_site_fract_x
_atom_site_fract_y
_atom_site_fract_z
Si Si1 0.845316 0.679110 0.800124
Si Si2 0.360929 0.816856 0.651818
Si Si3 0.660351 0.320632 0.156039
Si Si4 0.342336 0.183971 0.456926
Si Si5 0.883398 0.819773 0.602515
Si Si6 0.566564 0.178264 0.882967
Si Si7 0.123574 0.826013 0.025446
O O1 0.854810 0.500000 0.808490
O O2 0.903126 0.733255 0.689156
O O3 0.697718 0.731076 0.842326
O O4 0.905299 0.763736 0.867505
O O5 0.302743 0.739460 0.756286
O O6 0.511427 0.776385 0.605426
O O7 0.309166 0.770338 0.569106
O O8 0.350465 0.000000 0.662806
O O9 0.642291 0.500000 0.162091
O O10 0.531545 0.238530 0.161980
O O11 0.767713 0.273564 0.053100
O O12 0.243381 0.235875 0.411445
O O13 0.337402 0.000000 0.458431
O O14 0.000000 0.802268 0.500000
O O15 0.869226 0.000000 0.626012
O O16 0.592067 0.000000 0.860570
O O17 0.500000 0.195728 0.000000
O O18 0.170320 0.000000 0.018069
O O19 0.000000 0.822627 0.000000
#
# Coordination Sequence:
#
# PCOD9152725 Si02
#       7
#     4   4   4   4   4   4   4
#     4  12  25  41  64  94 129 162 197 254 322 374
#     4   9  17  33  58  83 113 154 200 247 296 352
#     4  12  24  37  58  92 129 160 196 245 310 372
#     4   8  16  33  57  84 111 148 201 254 294 338
#     4  10  21  38  61  87 118 160 210 253 294 356
#     4  11  22  38  64  91 121 161 207 252 298 360
#     4  11  25  45  66  86 114 159 211 253 293 357
#
# _framework density 20.295855
#
# number of rings (size 3 to 8) (size 9 to 14) (size 15 to 20)
#    0.000    1.571    1.429    5.143    0.000    4.286 
#    0.000    5.000    0.000    0.000    0.000    0.000 
#    0.000    0.000    0.000    0.000    0.000    0.000 
#
# Total GULP energy -156577.433157 kJ/mol
# GULP energy per Si atom -5592.051184 kJ/mol
# Density = 2.024966 g / cm^3
# Si number density = 20.295855 Si / 1000 Ang^3
#
#
#
# Elastic Constant Matrix: (Units=GPa)
#
#
# Indices 1 2 3 4 5 6 
#
# 1 38.8700 5.5750 10.2759 0.0000 18.9284 0.0000
# 2 5.5750 47.1369 26.7790 0.0000 9.0479 0.0000
# 3 10.2759 26.7790 109.6363 0.0000 31.1332 0.0000
# 4 0.0000 0.0000 0.0000 0.1283 0.0000 -14.5425
# 5 18.9284 9.0479 31.1332 0.0000 28.7640 0.0000
# 6 0.0000 0.0000 0.0000 -14.5425 0.0000 0.8232
#
#
#
# Elastic Compliance Matrix: (Units=1/GPa)
#
#
# Indices 1 2 3 4 5 6 
#
# 1 0.040078 -0.001886 0.005811 0.000000 -0.032071 0.000000
# 2 -0.001886 0.024785 -0.005797 0.000000 -0.000281 0.000000
# 3 0.005811 -0.005797 0.015247 0.000000 -0.018503 0.000000
# 4 0.000000 0.000000 0.000000 -0.003894 0.000000 -0.068798
# 5 -0.032071 -0.000281 -0.018503 0.000000 0.075986 0.000000
# 6 0.000000 0.000000 0.000000 -0.068798 0.000000 -0.000607
#
#
# Mechanical properties :
#
#
# Convention : Reuss Voigt Hill
#
# Bulk Modulus (GPa) = 13.09474 31.21144 22.15309
# Shear Modulus (GPa) = 27.65580 16.14397 21.89989
#
# Velocity S-wave (km/s) = 3.69539 2.82340 3.28843
# Velocity P-wave (km/s) = 4.96727 5.10298 5.03558
#
# Compressibility (1/GPa) = 0.07636655
#
# Stress axis : x y z
#
# Youngs Moduli (GPa) = 24.95113 40.34656 65.58776
#
# Poissons Ratio (x) = 0.07608 -0.38114
# Poissons Ratio (y) = 0.04705 0.38024
# Poissons Ratio (z) = -0.14500 0.23391
#
# Static dielectric constant tensor:
#      x y z
#    x 1.719260 0.000000 0.009870 
#    y 0.000000 1.677330 0.000000 
#    z 0.009870 0.000000 1.732220 
# 
# From -- ./inp_files/63354.got.cif
#   From: 2010.05.17/outbox.cif.g08.bks.cpg/sg10_32_cif.got.tgz:63354.got - 2010.06.03 11:33:40.
