data_PCOD9152124
_publ_section_title
;
Structure prediction by ZEFSAII (Michael W. Deem and Ramdas Pophale) SiO2 
 PCOD9152124
Probable space group: P 2/M
;
_chemical_formula_sum "Si O2"
_cell_formula_units_Z 29
_cell_length_a 20.760344
_cell_length_b 7.524995
_cell_length_c 14.819191
_cell_angle_alpha 90.000000
_cell_angle_beta 146.062579
_cell_angle_gamma 90.000000
_cell_volume 1292.477049
_symmetry_space_group_name_H-M "P 2/M"
_symmetry_group_IT_number 10
_symmetry_cell_setting 'monoclinic'
loop_
_space_group_symop_operation_xyz
x,y,z
-x,y,-z
-x,-y,-z
x,-y,z
loop_
_atom_site_type_symbol
_atom_site_label
_atom_site_fract_x
_atom_site_fract_y
_atom_site_fract_z
Si Si1 0.618801 0.286553 0.542926
Si Si2 0.325133 0.710376 0.022242
Si Si3 0.243907 0.705484 0.122929
Si Si4 0.006645 0.206746 0.784520
Si Si5 0.533781 0.282025 0.140193
Si Si6 0.920579 0.785285 0.326676
Si Si7 0.257514 0.287634 0.501774
Si Si8 0.500000 0.000000 0.500000
O O1 0.594630 0.500000 0.518601
O O2 0.702972 0.222905 0.722714
O O3 0.678224 0.249035 0.517160
O O4 0.511869 0.159143 0.436443
O O5 0.344318 0.500000 0.056851
O O6 0.286212 0.781900 0.075547
O O7 0.438164 0.778030 0.102313
O O8 0.213305 0.733313 0.828452
O O9 0.278781 0.500000 0.163736
O O10 0.104956 0.711775 0.961912
O O11 0.028218 0.279303 0.709009
O O12 0.873322 0.223933 0.652770
O O13 0.035891 0.000000 0.817317
O O14 0.532820 0.500000 0.139406
O O15 0.660023 0.224231 0.321257
O O16 0.500000 0.226136 0.000000
O O17 0.000000 0.719951 0.500000
O O18 0.925009 0.000000 0.332844
O O19 0.250634 0.500000 0.501332
#
# Coordination Sequence:
#
# PCOD9152124 Si02
#       8
#     4   4   4   4   4   4   4   1
#     4  10  24  43  65  96 129 169 213 262 315 373
#     4   9  18  33  56  83 108 143 193 249 299 354
#     4   9  19  38  61  86 118 157 204 251 310 370
#     4  10  21  36  58  85 120 157 201 258 305 371
#     4   9  19  35  56  84 117 155 199 251 308 368
#     4   9  19  35  53  77 112 154 194 243 309 362
#     4  10  22  40  61  87 123 163 204 251 315 376
#     4  12  26  40  68  96 130 168 214 264 312 378
#
# _framework density 22.437536999999999
#
# number of rings (size 3 to 8) (size 9 to 14) (size 15 to 20)
#    0.000    2.483    0.000    0.621    5.793    1.379 
#    0.000    3.448    0.000    0.828    0.000    0.000 
#    0.000    0.000    0.000    0.000    0.000    0.000 
#
# Total GULP energy -161645.212497 kJ/mol
# GULP energy per Si atom -5573.972845 kJ/mol
# Density = 2.238647 g / cm^3
# Si number density = 22.437537 Si / 1000 Ang^3
#
#
#
# Elastic Constant Matrix: (Units=GPa)
#
#
# Indices 1 2 3 4 5 6 
#
# 1 61.5121 16.9489 38.0100 0.0000 6.3277 0.0000
# 2 16.9489 62.2007 -3.6586 0.0000 -3.5644 0.0000
# 3 38.0100 -3.6586 147.3108 0.0000 -12.8017 0.0000
# 4 0.0000 0.0000 0.0000 -2.7546 0.0000 2.7837
# 5 6.3277 -3.5644 -12.8017 0.0000 35.4418 0.0000
# 6 0.0000 0.0000 0.0000 2.7837 0.0000 9.9562
#
#
#
# Elastic Compliance Matrix: (Units=1/GPa)
#
#
# Indices 1 2 3 4 5 6 
#
# 1 0.023170 -0.007132 -0.006790 0.000000 -0.007307 0.000000
# 2 -0.007132 0.018410 0.002652 0.000000 0.004083 0.000000
# 3 -0.006790 0.002652 0.009018 0.000000 0.004736 0.000000
# 4 0.000000 0.000000 0.000000 -0.283052 0.000000 0.079139
# 5 -0.007307 0.004083 0.004736 0.000000 0.031641 0.000000
# 6 0.000000 0.000000 0.000000 0.079139 0.000000 0.078313
#
#
# Mechanical properties :
#
#
# Convention : Reuss Voigt Hill
#
# Bulk Modulus (GPa) = 35.64030 41.51378 38.57704
# Shear Modulus (GPa) = -55.18310 23.17690 -16.00310
#
# Velocity S-wave (km/s) = -4.96462 3.21744 -2.67353
# Velocity P-wave (km/s) = 4.11638 5.68724 2.77489
#
# Compressibility (1/GPa) = 0.02805813
#
# Stress axis : x y z
#
# Youngs Moduli (GPa) = 43.16004 54.31780 110.88996
#
# Poissons Ratio (x) = 0.38737 0.75299
# Poissons Ratio (y) = 0.30780 -0.29410
# Poissons Ratio (z) = 0.29308 -0.14406
#
# Static dielectric constant tensor:
#      x y z
#    x 1.821330 0.000000 0.011260 
#    y 0.000000 1.853400 0.000000 
#    z 0.011260 0.000000 1.883590 
# 
# From -- ./inp_files/70328.got.cif
#   From: 2010.05.17/outbox.cif.g08.bks.cpg/sg10_36_cif.got.tgz:70328.got - 2010.06.03 11:33:40.
