data_PCOD9152669
_publ_section_title
;
Structure prediction by ZEFSAII (Michael W. Deem and Ramdas Pophale) SiO2 
 PCOD9152669
Probable space group: P 2/M
;
_chemical_formula_sum "Si O2"
_cell_formula_units_Z 32
_cell_length_a 11.953244
_cell_length_b 7.974933
_cell_length_c 15.233095
_cell_angle_alpha 90.000000
_cell_angle_beta 91.722463
_cell_angle_gamma 90.000000
_cell_volume 1451.458755
_symmetry_space_group_name_H-M "P 2/M"
_symmetry_group_IT_number 10
_symmetry_cell_setting 'monoclinic'
loop_
_space_group_symop_operation_xyz
x,y,z
-x,y,-z
-x,-y,-z
x,-y,z
loop_
_atom_site_type_symbol
_atom_site_label
_atom_site_fract_x
_atom_site_fract_y
_atom_site_fract_z
Si Si1 0.719755 0.303513 0.315365
Si Si2 0.035255 0.693266 0.905471
Si Si3 0.970148 0.804145 0.287068
Si Si4 0.626442 0.802008 0.498347
Si Si5 0.429065 0.299695 0.851648
Si Si6 0.793545 0.794044 0.652657
Si Si7 0.743160 0.803556 0.023060
Si Si8 0.314891 0.202154 0.167351
O O1 0.694866 0.500000 0.322941
O O2 0.851926 0.281309 0.303179
O O3 0.677732 0.219073 0.403372
O O4 0.648835 0.238864 0.230673
O O5 0.999289 0.500000 0.899663
O O6 0.000302 0.784273 0.815732
O O7 0.169688 0.704342 0.914938
O O8 0.000000 0.764171 0.000000
O O9 0.076825 0.740505 0.344354
O O10 0.954268 0.000000 0.305442
O O11 0.500000 0.731277 0.500000
O O12 0.714217 0.734385 0.572181
O O13 0.616652 0.000000 0.518049
O O14 0.419674 0.500000 0.859287
O O15 0.378895 0.220817 0.938684
O O16 0.556280 0.253653 0.835728
O O17 0.740071 0.739851 0.743844
O O18 0.795787 0.000000 0.651959
O O19 0.772408 0.000000 0.026762
O O20 0.745570 0.740212 0.923269
O O21 0.309642 0.000000 0.165880
#
# Coordination Sequence:
#
# PCOD9152669 Si02
#       8
#     4   4   4   4   4   4   4   4
#     4  11  24  41  61  88 125 163 202 253 309 366
#     4  11  23  38  57  84 122 164 205 252 304 362
#     4  11  22  39  64  89 119 160 207 254 302 360
#     4  10  21  40  68  96 121 156 201 250 307 369
#     4  11  23  38  57  83 121 162 201 249 306 366
#     4   9  20  39  62  91 122 152 196 255 307 358
#     4  11  22  36  58  87 117 156 205 253 301 357
#     4  10  21  38  60  87 120 155 200 254 305 362
#
# _framework density 22.046783000000001
#
# number of rings (size 3 to 8) (size 9 to 14) (size 15 to 20)
#    0.000    1.500    1.250    3.750    0.000    7.750 
#    0.000    5.625    0.000    0.000    0.000    0.000 
#    0.000    0.000    0.000    0.000    0.000    0.000 
#
# Total GULP energy -178930.762586 kJ/mol
# GULP energy per Si atom -5591.586331 kJ/mol
# Density = 2.199660 g / cm^3
# Si number density = 22.046783 Si / 1000 Ang^3
#
#
#
# Elastic Constant Matrix: (Units=GPa)
#
#
# Indices 1 2 3 4 5 6 
#
# 1 92.2114 -3.3255 25.4897 0.0000 16.2338 0.0000
# 2 -3.3255 26.0505 -3.7555 0.0000 8.8298 0.0000
# 3 25.4897 -3.7555 100.0742 0.0000 15.4879 0.0000
# 4 0.0000 0.0000 0.0000 -7.9212 0.0000 13.8219
# 5 16.2338 8.8298 15.4879 0.0000 38.2847 0.0000
# 6 0.0000 0.0000 0.0000 13.8219 0.0000 -17.2925
#
#
#
# Elastic Compliance Matrix: (Units=1/GPa)
#
#
# Indices 1 2 3 4 5 6 
#
# 1 0.012472 0.002975 -0.002283 0.000000 -0.005051 0.000000
# 2 0.002975 0.043369 0.002787 0.000000 -0.012392 0.000000
# 3 -0.002283 0.002787 0.011338 0.000000 -0.004262 0.000000
# 4 0.000000 0.000000 0.000000 0.319833 0.000000 0.255643
# 5 -0.005051 -0.012392 -0.004262 0.000000 0.032844 0.000000
# 6 0.000000 0.000000 0.000000 0.255643 0.000000 0.146507
#
#
# Mechanical properties :
#
#
# Convention : Reuss Voigt Hill
#
# Bulk Modulus (GPa) = 13.48844 28.35040 20.91942
# Shear Modulus (GPa) = 8.55992 15.94267 12.25130
#
# Velocity S-wave (km/s) = 1.97257 2.69202 2.35988
# Velocity P-wave (km/s) = 3.36444 4.74866 4.11517
#
# Compressibility (1/GPa) = 0.07413756
#
# Stress axis : x y z
#
# Youngs Moduli (GPa) = 80.17723 23.05810 88.19635
#
# Poissons Ratio (x) = -0.06860 0.20139
# Poissons Ratio (y) = -0.23853 -0.24585
# Poissons Ratio (z) = 0.18308 -0.06427
#
# Static dielectric constant tensor:
#      x y z
#    x 1.824390 0.000000 0.011040 
#    y 0.000000 1.778240 0.000000 
#    z 0.011040 0.000000 1.791380 
# 
# From -- ./inp_files/63783.got.cif
#   From: 2010.05.17/outbox.cif.g08.bks.cpg/sg10_32_cif.got.tgz:63783.got - 2010.06.03 11:33:40.
