data_PCOD9152192
_publ_section_title
;
Structure prediction by ZEFSAII (Michael W. Deem and Ramdas Pophale) SiO2 
 PCOD9152192
Probable space group: P 2/M
;
_chemical_formula_sum "Si O2"
_cell_formula_units_Z 30
_cell_length_a 21.774081
_cell_length_b 7.631200
_cell_length_c 12.351548
_cell_angle_alpha 90.000000
_cell_angle_beta 142.974037
_cell_angle_gamma 90.000000
_cell_volume 1235.885166
_symmetry_space_group_name_H-M "P 2/M"
_symmetry_group_IT_number 10
_symmetry_cell_setting 'monoclinic'
loop_
_space_group_symop_operation_xyz
x,y,z
-x,y,-z
-x,-y,-z
x,-y,z
loop_
_atom_site_type_symbol
_atom_site_label
_atom_site_fract_x
_atom_site_fract_y
_atom_site_fract_z
Si Si1 0.319147 0.792989 0.514879
Si Si2 0.613982 0.702143 0.154410
Si Si3 0.103940 0.201735 0.189718
Si Si4 0.977193 0.800793 0.688142
Si Si5 0.850253 0.500000 0.032546
Si Si6 0.196489 0.711789 0.723345
Si Si7 0.488621 0.290837 0.358868
Si Si8 0.266115 0.189720 0.049505
O O1 0.343021 0.707748 0.663737
O O2 0.213415 0.720081 0.316640
O O3 0.415115 0.770787 0.573328
O O4 0.302549 0.000000 0.511512
O O5 0.599929 0.500000 0.098807
O O6 0.702967 0.772995 0.201525
O O7 0.500000 0.782329 0.000000
O O8 0.093809 0.202690 0.304649
O O9 0.102875 0.000000 0.147090
O O10 0.000000 0.286944 0.000000
O O11 0.904712 0.759880 0.484889
O O12 0.062286 0.655067 0.828570
O O13 0.017127 0.000000 0.736516
O O14 0.761890 0.346556 0.911289
O O15 0.199847 0.500000 0.739359
O O16 0.198504 0.788519 0.846174
O O17 0.500000 0.241199 0.500000
O O18 0.483056 0.500000 0.341506
O O19 0.381545 0.213509 0.170174
O O20 0.255361 0.000000 0.085445
#
# Coordination Sequence:
#
# PCOD9152192 Si02
#       8
#     4   4   4   4   2   4   4   4
#     4  11  22  38  67 102 137 178 228 281 341 413
#     4  10  21  36  62  95 133 181 225 274 346 415
#     4   9  20  41  66 100 142 182 231 288 344 411
#     4  11  23  42  70 100 138 189 235 287 354 412
#     4  12  26  47  68  98 140 178 240 297 341 422
#     4  11  21  40  67  97 144 181 224 294 349 410
#     4  11  25  48  72  99 141 182 230 288 343 411
#     4  12  26  46  73 102 136 182 233 291 354 414
#
# _framework density 24.274097999999999
#
# number of rings (size 3 to 8) (size 9 to 14) (size 15 to 20)
#    0.000    1.200    3.333    2.400    0.000    5.067 
#    1.200    3.000    0.000    0.000    0.000    0.000 
#    0.000    0.000    0.000    0.000    0.000    0.000 
#
# Total GULP energy -167445.804381 kJ/mol
# GULP energy per Si atom -5581.526813 kJ/mol
# Density = 2.421885 g / cm^3
# Si number density = 24.274098 Si / 1000 Ang^3
#
#
#
# Elastic Constant Matrix: (Units=GPa)
#
#
# Indices 1 2 3 4 5 6 
#
# 1 74.1649 19.6061 12.7344 0.0000 13.6252 0.0000
# 2 19.6061 142.7703 3.3884 0.0000 17.6454 0.0000
# 3 12.7344 3.3884 96.6963 0.0000 25.7835 0.0000
# 4 0.0000 0.0000 0.0000 -16.3959 0.0000 -5.3620
# 5 13.6252 17.6454 25.7835 0.0000 50.6853 0.0000
# 6 0.0000 0.0000 0.0000 -5.3620 0.0000 7.3237
#
#
#
# Elastic Compliance Matrix: (Units=1/GPa)
#
#
# Indices 1 2 3 4 5 6 
#
# 1 0.014622 -0.001637 -0.001125 0.000000 -0.002789 0.000000
# 2 -0.001637 0.007522 0.000617 0.000000 -0.002493 0.000000
# 3 -0.001125 0.000617 0.012084 0.000000 -0.006059 0.000000
# 4 0.000000 0.000000 0.000000 -0.049209 0.000000 -0.036028
# 5 -0.002789 -0.002493 -0.006059 0.000000 0.024429 0.000000
# 6 0.000000 0.000000 0.000000 -0.036028 0.000000 0.110166
#
#
# Mechanical properties :
#
#
# Convention : Reuss Voigt Hill
#
# Bulk Modulus (GPa) = 33.40180 42.78769 38.09475
# Shear Modulus (GPa) = 37.34591 26.84945 32.09768
#
# Velocity S-wave (km/s) = 3.92664 3.32941 3.64029
# Velocity P-wave (km/s) = 5.86073 5.69606 5.77898
#
# Compressibility (1/GPa) = 0.02993850
#
# Stress axis : x y z
#
# Youngs Moduli (GPa) = 68.39220 132.93587 82.75509
#
# Poissons Ratio (x) = 0.21756 0.09307
# Poissons Ratio (y) = 0.11193 -0.05102
# Poissons Ratio (z) = 0.07692 -0.08196
#
# Static dielectric constant tensor:
#      x y z
#    x 1.933570 0.000000 0.019850 
#    y 0.000000 1.914630 0.000000 
#    z 0.019850 0.000000 1.964310 
# 
# From -- ./inp_files/71340.got.cif
#   From: 2010.05.17/outbox.cif.g08.bks.cpg/sg10_36_cif.got.tgz:71340.got - 2010.06.03 11:33:40.
