data_PCOD9152524
_publ_section_title
;
Structure prediction by ZEFSAII (Michael W. Deem and Ramdas Pophale) SiO2 
 PCOD9152524
Probable space group: P 2/M
;
_chemical_formula_sum "Si O2"
_cell_formula_units_Z 24
_cell_length_a 13.568536
_cell_length_b 15.485402
_cell_length_c 8.059295
_cell_angle_alpha 90.000000
_cell_angle_beta 43.478873
_cell_angle_gamma 90.000000
_cell_volume 1165.187769
_symmetry_space_group_name_H-M "P 2/M"
_symmetry_group_IT_number 10
_symmetry_cell_setting 'monoclinic'
loop_
_space_group_symop_operation_xyz
x,y,z
-x,y,-z
-x,-y,-z
x,-y,z
loop_
_atom_site_type_symbol
_atom_site_label
_atom_site_fract_x
_atom_site_fract_y
_atom_site_fract_z
Si Si1 0.783649 0.334341 0.369580
Si Si2 0.276682 0.000000 0.870707
Si Si3 0.084787 0.673466 0.148011
Si Si4 0.123376 0.144147 0.243434
Si Si5 0.658646 0.500000 0.386236
Si Si6 0.866885 0.500000 0.798875
Si Si7 0.349215 0.817120 0.250159
Si Si8 0.584331 0.000000 0.658306
O O1 0.679576 0.415530 0.474003
O O2 0.718339 0.252025 0.541550
O O3 0.930114 0.364330 0.282550
O O4 0.827820 0.311033 0.127626
O O5 0.415453 0.000000 0.821722
O O6 0.332922 0.000000 0.616657
O O7 0.183950 0.083716 0.026706
O O8 0.060478 0.766806 0.252908
O O9 0.159812 0.604478 0.178034
O O10 0.248804 0.168713 0.215478
O O11 0.000000 0.098911 0.500000
O O12 0.500000 0.500000 0.500000
O O13 0.790633 0.500000 0.087477
O O14 0.000000 0.500000 0.500000
O O15 0.375988 0.911682 0.296846
O O16 0.500000 0.782808 0.000000
#
# Coordination Sequence:
#
# PCOD9152524 Si02
#       8
#     4   2   4   4   2   2   4   2
#     4  10  22  42  66  93 130 176 214 274 322 396
#     4  11  24  43  68  93 126 175 216 272 325 403
#     4  10  21  41  65  96 130 168 223 263 335 391
#     4  12  23  41  64  97 132 164 219 279 326 384
#     4  10  23  45  66  98 135 180 222 269 331 400
#     4  10  21  37  67  94 125 171 214 277 316 387
#     4  12  24  42  66  95 134 171 217 273 332 393
#     4  11  24  46  64  94 130 175 222 256 338 408
#
# _framework density 20.597538
#
# number of rings (size 3 to 8) (size 9 to 14) (size 15 to 20)
#    0.000    1.167    3.333    3.000    0.000    4.667 
#    3.000    1.250    0.000    0.000    0.000    0.000 
#    0.000    0.000    0.000    0.000    0.000    0.000 
#
# Total GULP energy -133629.174003 kJ/mol
# GULP energy per Si atom -5567.882250 kJ/mol
# Density = 2.055066 g / cm^3
# Si number density = 20.597538 Si / 1000 Ang^3
#
#
#
# Elastic Constant Matrix: (Units=GPa)
#
#
# Indices 1 2 3 4 5 6 
#
# 1 52.1209 4.0951 2.1394 0.0000 -9.0826 0.0000
# 2 4.0951 117.8602 24.1827 0.0000 7.4014 0.0000
# 3 2.1394 24.1827 93.9793 0.0000 2.8455 0.0000
# 4 0.0000 0.0000 0.0000 10.8099 0.0000 16.5081
# 5 -9.0826 7.4014 2.8455 0.0000 27.3930 0.0000
# 6 0.0000 0.0000 0.0000 16.5081 0.0000 23.4535
#
#
#
# Elastic Compliance Matrix: (Units=1/GPa)
#
#
# Indices 1 2 3 4 5 6 
#
# 1 0.020532 -0.001079 -0.000406 0.000000 0.007141 0.000000
# 2 -0.001079 0.009147 -0.002251 0.000000 -0.002595 0.000000
# 3 -0.000406 -0.002251 0.011250 0.000000 -0.000695 0.000000
# 4 0.000000 0.000000 0.000000 -1.235212 0.000000 0.869422
# 5 0.007141 -0.002595 -0.000695 0.000000 0.039647 0.000000
# 6 0.000000 0.000000 0.000000 0.869422 0.000000 -0.569318
#
#
# Mechanical properties :
#
#
# Convention : Reuss Voigt Hill
#
# Bulk Modulus (GPa) = 29.88770 36.08830 32.98800
# Shear Modulus (GPa) = -2.93198 27.90082 12.48442
#
# Velocity S-wave (km/s) = -1.19438 3.68444 2.46461
# Velocity P-wave (km/s) = 3.55524 5.97150 4.91420
#
# Compressibility (1/GPa) = 0.03345858
#
# Stress axis : x y z
#
# Youngs Moduli (GPa) = 48.70443 109.32731 88.88864
#
# Poissons Ratio (x) = 0.11791 0.03610
# Poissons Ratio (y) = 0.05253 0.20005
# Poissons Ratio (z) = 0.01978 0.24604
#
# Static dielectric constant tensor:
#      x y z
#    x 1.808970 0.000000 -0.046740 
#    y 0.000000 1.731000 0.000000 
#    z -0.046740 0.000000 1.779440 
# 
# From -- ./inp_files/29382.got.cif
#   From: 2010.05.17/outbox.cif.g08.bks.cpg/sg10_15_cif.got.tgz:29382.got - 2010.06.03 11:33:40.
