data_PCOD9152704
_publ_section_title
;
Structure prediction by ZEFSAII (Michael W. Deem and Ramdas Pophale) SiO2 
 PCOD9152704
Probable space group: P 2/M
;
_chemical_formula_sum "Si O2"
_cell_formula_units_Z 28
_cell_length_a 25.084421
_cell_length_b 8.953475
_cell_length_c 22.251740
_cell_angle_alpha 90.000000
_cell_angle_beta 162.376710
_cell_angle_gamma 90.000000
_cell_volume 1513.053705
_symmetry_space_group_name_H-M "P 2/M"
_symmetry_group_IT_number 10
_symmetry_cell_setting 'monoclinic'
loop_
_space_group_symop_operation_xyz
x,y,z
-x,y,-z
-x,-y,-z
x,-y,z
loop_
_atom_site_type_symbol
_atom_site_label
_atom_site_fract_x
_atom_site_fract_y
_atom_site_fract_z
Si Si1 0.388596 0.820499 0.820479
Si Si2 0.622756 0.319482 0.838013
Si Si3 0.104858 0.320731 0.969145
Si Si4 0.267028 0.679059 0.386531
Si Si5 0.336014 0.820827 0.987691
Si Si6 0.014328 0.678085 0.443983
Si Si7 0.290261 0.175024 0.283014
O O1 0.199817 0.741812 0.619918
O O2 0.362637 0.000000 0.792881
O O3 0.500000 0.781676 0.000000
O O4 0.508774 0.780320 0.892435
O O5 0.622664 0.500000 0.845020
O O6 0.449906 0.277297 0.613949
O O7 0.791105 0.274937 0.978730
O O8 0.624314 0.243232 0.904079
O O9 0.121596 0.500000 0.991533
O O10 0.899156 0.282765 0.750309
O O11 0.194759 0.251739 0.124540
O O12 0.270564 0.500000 0.381928
O O13 0.241994 0.752890 0.294825
O O14 0.152162 0.753717 0.766762
O O15 0.323725 0.000000 0.975740
O O16 0.007827 0.500000 0.428097
O O17 0.000000 0.708951 0.500000
O O18 0.500000 0.193299 0.500000
O O19 0.248286 0.000000 0.238605
#
# Coordination Sequence:
#
# PCOD9152704 Si02
#       7
#     4   4   4   4   4   4   4
#     4  10  21  39  63  90 122 160 198 241 297 360
#     4  10  22  40  59  83 119 157 197 246 294 347
#     4  10  21  38  61  86 114 153 199 240 291 352
#     4  10  21  38  61  85 112 152 198 241 291 351
#     4  11  24  41  63  90 123 161 202 246 299 363
#     4  11  23  38  62  94 124 155 196 247 300 352
#     4  11  22  35  56  87 119 151 192 245 300 346
#
# _framework density 18.505621999999999
#
# number of rings (size 3 to 8) (size 9 to 14) (size 15 to 20)
#    0.000    1.571    2.857    1.714    0.000    7.143 
#    0.000    1.429    0.000    0.000    0.000    0.000 
#    0.000    0.000    0.000    0.000    0.000    0.000 
#
# Total GULP energy -156472.186831 kJ/mol
# GULP energy per Si atom -5588.292387 kJ/mol
# Density = 1.846350 g / cm^3
# Si number density = 18.505622 Si / 1000 Ang^3
#
#
#
# Elastic Constant Matrix: (Units=GPa)
#
#
# Indices 1 2 3 4 5 6 
#
# 1 167.8421 46.3221 56.6085 0.0000 16.8558 0.0000
# 2 46.3221 23.7941 27.5249 0.0000 10.6506 0.0000
# 3 56.6085 27.5249 55.2705 0.0000 25.9652 0.0000
# 4 0.0000 0.0000 0.0000 21.6195 0.0000 -5.5248
# 5 16.8558 10.6506 25.9652 0.0000 33.0028 0.0000
# 6 0.0000 0.0000 0.0000 -5.5248 0.0000 21.6416
#
#
#
# Elastic Compliance Matrix: (Units=1/GPa)
#
#
# Indices 1 2 3 4 5 6 
#
# 1 0.013209 -0.022914 -0.003843 0.000000 0.003671 0.000000
# 2 -0.022914 0.141409 -0.049197 0.000000 0.004774 0.000000
# 3 -0.003843 -0.049197 0.060515 0.000000 -0.029771 0.000000
# 4 0.000000 0.000000 0.000000 0.049483 0.000000 0.012632
# 5 0.003671 0.004774 -0.029771 0.000000 0.050308 0.000000
# 6 0.000000 0.000000 0.000000 0.012632 0.000000 0.049432
#
#
# Mechanical properties :
#
#
# Convention : Reuss Voigt Hill
#
# Bulk Modulus (GPa) = 15.81592 56.42420 36.12006
# Shear Modulus (GPa) = 9.30515 23.01618 16.16067
#
# Velocity S-wave (km/s) = 2.24482 3.53050 2.95834
# Velocity P-wave (km/s) = 3.90948 6.86846 5.58837
#
# Compressibility (1/GPa) = 0.06322743
#
# Stress axis : x y z
#
# Youngs Moduli (GPa) = 75.70525 7.07167 16.52494
#
# Poissons Ratio (x) = 0.16204 0.06350
# Poissons Ratio (y) = 1.73469 0.81297
# Poissons Ratio (z) = 0.29090 0.34790
#
# Static dielectric constant tensor:
#      x y z
#    x 1.617320 0.000000 0.025270 
#    y 0.000000 1.620110 0.000000 
#    z 0.025270 0.000000 1.618580 
# 
# From -- ./inp_files/86537.got.cif
#   From: 2010.05.17/outbox.cif.g08.bks.cpg/sg10_44_cif.got.tgz:86537.got - 2010.06.03 11:33:40.
