data_PCOD9152205
_publ_section_title
;
Structure prediction by ZEFSAII (Michael W. Deem and Ramdas Pophale) SiO2 
 PCOD9152205
Probable space group: P 2/M
;
_chemical_formula_sum "Si O2"
_cell_formula_units_Z 32
_cell_length_a 25.650444
_cell_length_b 8.886611
_cell_length_c 12.263182
_cell_angle_alpha 90.000000
_cell_angle_beta 45.294392
_cell_angle_gamma 90.000000
_cell_volume 1986.731873
_symmetry_space_group_name_H-M "P 2/M"
_symmetry_group_IT_number 10
_symmetry_cell_setting 'monoclinic'
loop_
_space_group_symop_operation_xyz
x,y,z
-x,y,-z
-x,-y,-z
x,-y,z
loop_
_atom_site_type_symbol
_atom_site_label
_atom_site_fract_x
_atom_site_fract_y
_atom_site_fract_z
Si Si1 0.531687 0.179362 0.679105
Si Si2 0.232742 0.678257 0.675190
Si Si3 0.298167 0.819531 0.192238
Si Si4 0.418926 0.676027 0.172338
Si Si5 0.362163 0.319649 0.645403
Si Si6 0.627675 0.679699 0.115150
Si Si7 0.812746 0.821231 0.468218
Si Si8 0.922734 0.321026 0.157542
O O1 0.574751 0.251561 0.717648
O O2 0.571439 0.234158 0.510584
O O3 0.449448 0.243371 0.801336
O O4 0.531344 0.000000 0.687873
O O5 0.241923 0.500000 0.641609
O O6 0.288578 0.721689 0.687107
O O7 0.242189 0.764919 0.547169
O O8 0.145740 0.703558 0.824968
O O9 0.362994 0.761921 0.176085
O O10 0.222672 0.777653 0.364905
O O11 0.301862 0.000000 0.177589
O O12 0.311794 0.743419 0.056131
O O13 0.398434 0.500000 0.210582
O O14 0.500000 0.684588 0.000000
O O15 0.373986 0.500000 0.616077
O O16 0.356358 0.287719 0.781777
O O17 0.620671 0.500000 0.111389
O O18 0.889733 0.750058 0.316646
O O19 0.818009 0.000000 0.455725
O O20 0.929775 0.500000 0.163439
O O21 0.000000 0.262282 0.000000
#
# Coordination Sequence:
#
# PCOD9152205 Si02
#       8
#     4   4   4   4   4   4   4   4
#     4  12  24  36  52  72  96 126 163 212 263 304
#     4   8  16  31  50  73 100 128 157 192 239 285
#     4  11  22  35  50  71  99 128 162 206 252 297
#     4  11  22  35  53  72  93 125 165 206 252 302
#     4  10  21  37  54  70  94 129 170 212 249 293
#     4  11  23  37  52  69  91 128 175 215 251 294
#     4   9  18  30  47  74 103 129 155 188 234 289
#     4   8  15  29  50  77 106 132 157 187 230 285
#
# _framework density 16.106853999999998
#
# number of rings (size 3 to 8) (size 9 to 14) (size 15 to 20)
#    0.750    1.250    1.250    3.375    0.000    7.750 
#    0.000    0.000    0.000    0.000    0.000    0.875 
#    0.000    7.000    0.000    0.000    0.000    0.000 
#
# Total GULP energy -178339.468988 kJ/mol
# GULP energy per Si atom -5573.108406 kJ/mol
# Density = 1.607019 g / cm^3
# Si number density = 16.106854 Si / 1000 Ang^3
#
#
#
# Elastic Constant Matrix: (Units=GPa)
#
#
# Indices 1 2 3 4 5 6 
#
# 1 23.7872 17.2097 33.5569 0.0000 7.6176 0.0000
# 2 17.2097 47.7981 44.0292 0.0000 8.1684 0.0000
# 3 33.5569 44.0292 133.4401 0.0000 5.1344 0.0000
# 4 0.0000 0.0000 0.0000 39.8031 0.0000 48.8742
# 5 7.6176 8.1684 5.1344 0.0000 27.8130 0.0000
# 6 0.0000 0.0000 0.0000 48.8742 0.0000 159.2151
#
#
#
# Elastic Compliance Matrix: (Units=1/GPa)
#
#
# Indices 1 2 3 4 5 6 
#
# 1 0.075661 -0.011090 -0.014801 0.000000 -0.014733 0.000000
# 2 -0.011090 0.033119 -0.007938 0.000000 -0.005224 0.000000
# 3 -0.014801 -0.007938 0.013687 0.000000 0.003858 0.000000
# 4 0.000000 0.000000 0.000000 0.040322 0.000000 -0.012378
# 5 -0.014733 -0.005224 0.003858 0.000000 0.040812 0.000000
# 6 0.000000 0.000000 0.000000 -0.012378 0.000000 0.010080
#
#
# Mechanical properties :
#
#
# Convention : Reuss Voigt Hill
#
# Bulk Modulus (GPa) = 18.24521 43.84633 31.04577
# Shear Modulus (GPa) = 16.68849 52.71487 34.70168
#
# Velocity S-wave (km/s) = 3.22236 5.72706 4.64666
# Velocity P-wave (km/s) = 5.01966 8.42696 6.93580
#
# Compressibility (1/GPa) = 0.05480889
#
# Stress axis : x y z
#
# Youngs Moduli (GPa) = 13.21692 30.19408 73.06380
#
# Poissons Ratio (x) = 0.33486 1.08139
# Poissons Ratio (y) = 0.14658 0.57997
# Poissons Ratio (z) = 0.19562 0.23968
#
# Static dielectric constant tensor:
#      x y z
#    x 1.528860 0.000000 -0.009240 
#    y 0.000000 1.537170 0.000000 
#    z -0.009240 0.000000 1.569190 
# 
# From -- ./inp_files/56441.got.cif
#   From: 2010.05.17/outbox.cif.g08.bks.cpg/sg10_29_cif.got.tgz:56441.got - 2010.06.03 11:33:40.
