data_PCOD9152376
_publ_section_title
;
Structure prediction by ZEFSAII (Michael W. Deem and Ramdas Pophale) SiO2 
 PCOD9152376
Probable space group: P 2/M
;
_chemical_formula_sum "Si O2"
_cell_formula_units_Z 32
_cell_length_a 23.564021
_cell_length_b 13.682044
_cell_length_c 9.065793
_cell_angle_alpha 90.000000
_cell_angle_beta 30.306880
_cell_angle_gamma 90.000000
_cell_volume 1474.960408
_symmetry_space_group_name_H-M "P 2/M"
_symmetry_group_IT_number 10
_symmetry_cell_setting 'monoclinic'
loop_
_space_group_symop_operation_xyz
x,y,z
-x,y,-z
-x,-y,-z
x,-y,z
loop_
_atom_site_type_symbol
_atom_site_label
_atom_site_fract_x
_atom_site_fract_y
_atom_site_fract_z
Si Si1 0.522641 0.808883 0.780805
Si Si2 0.335812 0.385275 0.503635
Si Si3 0.727499 0.613283 0.700831
Si Si4 0.727712 0.885456 0.148206
Si Si5 0.381332 0.754020 0.850625
Si Si6 0.052147 0.265314 0.735287
Si Si7 0.040925 0.105960 0.242906
Si Si8 0.085774 0.616200 0.176294
O O1 0.573625 0.697617 0.659278
O O2 0.616279 0.876437 0.496787
O O3 0.410570 0.813410 0.934112
O O4 0.500000 0.832442 0.000000
O O5 0.367426 0.500000 0.458228
O O6 0.316814 0.375559 0.368234
O O7 0.220129 0.364666 0.855605
O O8 0.757609 0.500000 0.650058
O O9 0.832575 0.684102 0.486019
O O10 0.652830 0.649125 0.006952
O O11 0.704057 0.812285 0.064170
O O12 0.745648 0.000000 0.064870
O O13 0.832627 0.854914 0.016600
O O14 0.500000 0.748139 0.500000
O O15 0.046610 0.176759 0.636020
O O16 0.970513 0.345972 0.846981
O O17 0.000000 0.224873 0.000000
O O18 0.000000 0.095501 0.500000
O O19 0.046372 0.000000 0.157771
O O20 0.079515 0.500000 0.198582
O O21 0.000000 0.653142 0.500000
#
# Coordination Sequence:
#
# PCOD9152376 Si02
#       8
#     4   4   4   4   4   4   4   4
#     4  11  22  39  65  93 129 164 219 269 325 378
#     4  10  21  38  62  91 128 174 217 260 319 384
#     4  11  23  39  61  92 131 174 218 261 313 377
#     4  10  23  44  69  94 126 166 211 266 327 393
#     4  10  23  41  64  94 126 169 213 273 324 377
#     4  12  23  36  62  93 131 168 204 262 320 383
#     4  10  22  42  67  93 123 165 211 259 324 394
#     4  10  21  37  58  89 127 168 214 261 314 382
#
# _framework density 21.695498000000001
#
# number of rings (size 3 to 8) (size 9 to 14) (size 15 to 20)
#    0.000    1.500    2.500    2.250    0.000    6.250 
#    0.000    4.375    0.000    0.750    0.000    0.000 
#    0.000    0.000    0.000    0.000    0.000    0.000 
#
# Total GULP energy -178526.290061 kJ/mol
# GULP energy per Si atom -5578.946564 kJ/mol
# Density = 2.164612 g / cm^3
# Si number density = 21.695498 Si / 1000 Ang^3
#
#
#
# Elastic Constant Matrix: (Units=GPa)
#
#
# Indices 1 2 3 4 5 6 
#
# 1 68.6754 32.0589 12.0448 0.0000 12.7525 0.0000
# 2 32.0589 100.6026 15.5678 0.0000 0.3890 0.0000
# 3 12.0448 15.5678 50.6475 0.0000 13.8801 0.0000
# 4 0.0000 0.0000 0.0000 22.1782 0.0000 5.3034
# 5 12.7525 0.3890 13.8801 0.0000 34.5126 0.0000
# 6 0.0000 0.0000 0.0000 5.3034 0.0000 29.5490
#
#
#
# Elastic Compliance Matrix: (Units=1/GPa)
#
#
# Indices 1 2 3 4 5 6 
#
# 1 0.018607 -0.005768 -0.000883 0.000000 -0.006455 0.000000
# 2 -0.005768 0.012278 -0.003314 0.000000 0.003326 0.000000
# 3 -0.000883 -0.003314 0.023459 0.000000 -0.009071 0.000000
# 4 0.000000 0.000000 0.000000 0.047111 0.000000 -0.008456
# 5 -0.006455 0.003326 -0.009071 0.000000 0.034971 0.000000
# 6 0.000000 0.000000 0.000000 -0.008456 0.000000 0.035360
#
#
# Mechanical properties :
#
#
# Convention : Reuss Voigt Hill
#
# Bulk Modulus (GPa) = 29.05723 37.69648 33.37686
# Shear Modulus (GPa) = 24.60785 27.93155 26.26970
#
# Velocity S-wave (km/s) = 3.37150 3.59198 3.48348
# Velocity P-wave (km/s) = 5.34587 5.88354 5.62114
#
# Compressibility (1/GPa) = 0.03441485
#
# Stress axis : x y z
#
# Youngs Moduli (GPa) = 53.74194 81.44594 42.62796
#
# Poissons Ratio (x) = 0.46978 0.03765
# Poissons Ratio (y) = 0.30998 0.14125
# Poissons Ratio (z) = 0.04746 0.26988
#
# Static dielectric constant tensor:
#      x y z
#    x 1.757960 0.000000 -0.036540 
#    y 0.000000 1.790810 0.000000 
#    z -0.036540 0.000000 1.872740 
# 
# From -- ./inp_files/36345.got.cif
#   From: 2010.05.17/outbox.cif.g08.bks.cpg/sg10_19_cif.got.tgz:36345.got - 2010.06.03 11:33:40.
