data_PCOD9152347
_publ_section_title
;
Structure prediction by ZEFSAII (Michael W. Deem and Ramdas Pophale) SiO2 
 PCOD9152347
Probable space group: P 2/M
;
_chemical_formula_sum "Si O2"
_cell_formula_units_Z 28
_cell_length_a 10.173126
_cell_length_b 28.928162
_cell_length_c 5.524298
_cell_angle_alpha 90.000000
_cell_angle_beta 57.928775
_cell_angle_gamma 90.000000
_cell_volume 1377.637725
_symmetry_space_group_name_H-M "P 2/M"
_symmetry_group_IT_number 10
_symmetry_cell_setting 'monoclinic'
loop_
_space_group_symop_operation_xyz
x,y,z
-x,y,-z
-x,-y,-z
x,-y,z
loop_
_atom_site_type_symbol
_atom_site_label
_atom_site_fract_x
_atom_site_fract_y
_atom_site_fract_z
Si Si1 0.663201 0.707217 0.423139
Si Si2 0.094588 0.113096 0.656646
Si Si3 0.327053 0.383289 0.271099
Si Si4 0.313405 0.551421 0.674867
Si Si5 0.591215 0.944673 0.661252
Si Si6 0.142280 0.640001 0.048987
Si Si7 0.906564 0.777958 0.344004
O O1 0.500000 0.727159 0.500000
O O2 0.630215 0.659373 0.594203
O O3 0.767440 0.687096 0.104221
O O4 0.760458 0.744170 0.475233
O O5 0.247701 0.082344 0.503487
O O6 0.134913 0.167739 0.613385
O O7 0.000000 0.103912 0.500000
O O8 0.000000 0.104663 0.000000
O O9 0.275264 0.431154 0.443597
O O10 0.500000 0.392750 0.000000
O O11 0.168115 0.362894 0.309693
O O12 0.500000 0.551964 0.500000
O O13 0.258766 0.500000 0.786651
O O14 0.242334 0.592858 0.900579
O O15 0.500000 0.934206 0.500000
O O16 0.617136 0.000000 0.640568
O O17 0.500000 0.932868 0.000000
O O18 0.000000 0.638112 0.000000
O O19 0.000000 0.768450 0.500000
O O20 0.000000 0.770452 0.000000
#
# Coordination Sequence:
#
# PCOD9152347 Si02
#       7
#     4   4   4   4   4   4   4
#     4  11  23  37  58  85 112 145 194 242 290 362
#     4  10  21  40  62  89 127 172 219 269 326 393
#     4  11  20  38  59  82 110 145 187 236 285 352
#     4  10  21  37  58  84 109 141 186 229 283 353
#     4  10  21  37  60  93 131 172 221 278 333 385
#     4  11  23  38  57  82 112 144 182 234 294 345
#     4  10  24  42  62  90 125 162 204 257 314 370
#
# _framework density 20.324646999999999
#
# number of rings (size 3 to 8) (size 9 to 14) (size 15 to 20)
#    0.000    1.571    2.857    2.143    4.000    4.000 
#    0.000    1.429    0.000    0.000    0.000    0.000 
#    0.000    0.000    0.000    0.000    0.000    0.000 
#
# Total GULP energy -155888.729938 kJ/mol
# GULP energy per Si atom -5567.454641 kJ/mol
# Density = 2.027839 g / cm^3
# Si number density = 20.324647 Si / 1000 Ang^3
#
#
#
# Elastic Constant Matrix: (Units=GPa)
#
#
# Indices 1 2 3 4 5 6 
#
# 1 150.2431 63.1457 24.7814 0.0000 5.1032 0.0000
# 2 63.1457 79.3683 38.6805 0.0000 -9.2299 0.0000
# 3 24.7814 38.6805 47.9852 0.0000 9.1374 0.0000
# 4 0.0000 0.0000 0.0000 -16.9008 0.0000 44.2502
# 5 5.1032 -9.2299 9.1374 0.0000 26.3023 0.0000
# 6 0.0000 0.0000 0.0000 44.2502 0.0000 -51.5430
#
#
#
# Elastic Compliance Matrix: (Units=1/GPa)
#
#
# Indices 1 2 3 4 5 6 
#
# 1 0.011570 -0.013590 0.006762 0.000000 -0.009363 0.000000
# 2 -0.013590 0.043006 -0.033223 0.000000 0.029270 0.000000
# 3 0.006762 -0.033223 0.049899 0.000000 -0.030305 0.000000
# 4 0.000000 0.000000 0.000000 0.047419 0.000000 0.040710
# 5 -0.009363 0.029270 -0.030305 0.000000 0.060635 0.000000
# 6 0.000000 0.000000 0.000000 0.040710 0.000000 0.015549
#
#
# Mechanical properties :
#
#
# Convention : Reuss Voigt Hill
#
# Bulk Modulus (GPa) = 41.02539 58.97909 50.00224
# Shear Modulus (GPa) = 15.80758 1.63764 8.72261
#
# Velocity S-wave (km/s) = 2.79185 0.89860 2.07388
# Velocity P-wave (km/s) = 5.53366 5.49164 5.51269
#
# Compressibility (1/GPa) = 0.02437515
#
# Stress axis : x y z
#
# Youngs Moduli (GPa) = 86.42970 23.25235 20.04059
#
# Poissons Ratio (x) = 0.31599 -0.13552
# Poissons Ratio (y) = 1.17454 0.66580
# Poissons Ratio (z) = -0.58444 0.77250
#
# Static dielectric constant tensor:
#      x y z
#    x 1.793450 0.000000 0.012290 
#    y 0.000000 1.665580 0.000000 
#    z 0.012290 0.000000 1.333620 
# 
# From -- ./inp_files/5495.got.cif
#   From: 2010.05.17/outbox.cif.g08.bks.cpg/sg10_3_cif.got.tgz:5495.got - 2010.06.03 11:33:40.
