data_PCOD9152330
_publ_section_title
;
Structure prediction by ZEFSAII (Michael W. Deem and Ramdas Pophale) SiO2 
 PCOD9152330
Probable space group: P 2/M
;
_chemical_formula_sum "Si O2"
_cell_formula_units_Z 30
_cell_length_a 19.877595
_cell_length_b 12.186331
_cell_length_c 12.652482
_cell_angle_alpha 90.000000
_cell_angle_beta 27.997356
_cell_angle_gamma 90.000000
_cell_volume 1438.746012
_symmetry_space_group_name_H-M "P 2/M"
_symmetry_group_IT_number 10
_symmetry_cell_setting 'monoclinic'
loop_
_space_group_symop_operation_xyz
x,y,z
-x,y,-z
-x,-y,-z
x,-y,z
loop_
_atom_site_type_symbol
_atom_site_label
_atom_site_fract_x
_atom_site_fract_y
_atom_site_fract_z
Si Si1 0.606084 0.302974 0.072704
Si Si2 0.424093 0.876091 0.718237
Si Si3 0.131016 0.793277 0.042146
Si Si4 0.846726 0.120898 0.354724
Si Si5 0.660513 0.123446 0.822468
Si Si6 0.088590 0.376244 0.269750
Si Si7 0.610617 0.500000 0.621148
Si Si8 0.168276 0.320863 0.779433
O O1 0.535988 0.218524 0.254411
O O2 0.500543 0.400716 0.186684
O O3 0.664331 0.222519 0.900160
O O4 0.743803 0.358920 0.936926
O O5 0.500000 0.862466 0.500000
O O6 0.452347 0.000000 0.717600
O O7 0.255539 0.858912 0.927858
O O8 0.050630 0.715265 0.237197
O O9 0.015004 0.869305 0.147188
O O10 0.193950 0.711955 0.865557
O O11 0.763022 0.140583 0.580077
O O12 0.814812 0.211324 0.312942
O O13 0.808954 0.000000 0.368736
O O14 0.691387 0.000000 0.823761
O O15 0.500000 0.121632 0.000000
O O16 0.063709 0.500000 0.264686
O O17 0.000000 0.362530 0.500000
O O18 0.721266 0.406812 0.419476
O O19 0.000000 0.354741 0.000000
#
# Coordination Sequence:
#
# PCOD9152330 Si02
#       8
#     4   4   4   4   4   4   2   4
#     4  11  22  39  60  87 117 160 201 251 293 355
#     4  10  21  37  57  87 121 153 196 246 303 358
#     4  10  21  37  61  92 116 158 194 245 296 359
#     4  10  21  40  64  92 122 154 195 245 303 365
#     4  10  21  38  62  89 120 156 196 247 307 361
#     4  10  21  39  60  86 119 158 199 242 295 347
#     4  12  23  40  59  80 117 156 207 248 283 352
#     4  10  23  40  60  88 121 160 197 247 301 354
#
# _framework density 20.851490999999999
#
# number of rings (size 3 to 8) (size 9 to 14) (size 15 to 20)
#    0.000    1.733    0.667    3.400    0.933    2.933 
#    1.200    8.000    2.933    6.400    0.000    0.000 
#    0.000    0.000    0.000    0.000    0.000    0.000 
#
# Total GULP energy -167063.408609 kJ/mol
# GULP energy per Si atom -5568.780287 kJ/mol
# Density = 2.080403 g / cm^3
# Si number density = 20.851491 Si / 1000 Ang^3
#
#
#
# Elastic Constant Matrix: (Units=GPa)
#
#
# Indices 1 2 3 4 5 6 
#
# 1 18.0773 14.5146 -11.5706 0.0000 1.7346 0.0000
# 2 14.5146 138.4067 39.2754 0.0000 16.7582 0.0000
# 3 -11.5706 39.2754 71.2426 0.0000 3.1028 0.0000
# 4 0.0000 0.0000 0.0000 -4.5013 0.0000 -10.4121
# 5 1.7346 16.7582 3.1028 0.0000 25.5653 0.0000
# 6 0.0000 0.0000 0.0000 -10.4121 0.0000 0.0374
#
#
#
# Elastic Compliance Matrix: (Units=1/GPa)
#
#
# Indices 1 2 3 4 5 6 
#
# 1 0.080319 -0.014573 0.021011 0.000000 0.001553 0.000000
# 2 -0.014573 0.011916 -0.008685 0.000000 -0.005768 0.000000
# 3 0.021011 -0.008685 0.022168 0.000000 0.001577 0.000000
# 4 0.000000 0.000000 0.000000 -0.000344 0.000000 -0.095893
# 5 0.001553 -0.005768 0.001577 0.000000 0.042600 0.000000
# 6 0.000000 0.000000 0.000000 -0.095893 0.000000 0.041456
#
#
# Mechanical properties :
#
#
# Convention : Reuss Voigt Hill
#
# Bulk Modulus (GPa) = 9.09846 34.68505 21.89176
# Shear Modulus (GPa) = 20.89906 16.58742 18.74324
#
# Velocity S-wave (km/s) = 3.16932 2.82353 3.00141
# Velocity P-wave (km/s) = 4.21494 5.22496 4.74689
#
# Compressibility (1/GPa) = 0.10990868
#
# Stress axis : x y z
#
# Youngs Moduli (GPa) = 12.45043 83.91842 45.10956
#
# Poissons Ratio (x) = 1.22297 -0.94780
# Poissons Ratio (y) = 0.18144 0.39178
# Poissons Ratio (z) = -0.26160 0.72883
#
# Static dielectric constant tensor:
#      x y z
#    x 1.734870 0.000000 -0.003170 
#    y 0.000000 1.741370 0.000000 
#    z -0.003170 0.000000 1.757440 
# 
# From -- ./inp_files/46585.got.cif
#   From: 2010.05.17/outbox.cif.g08.bks.cpg/sg10_24_cif.got.tgz:46585.got - 2010.06.03 11:33:40.
