data_PCOD9152660
_publ_section_title
;
Structure prediction by ZEFSAII (Michael W. Deem and Ramdas Pophale) SiO2 
 PCOD9152660
Probable space group: P 2/M
;
_chemical_formula_sum "Si O2"
_cell_formula_units_Z 16
_cell_length_a 5.349355
_cell_length_b 22.940287
_cell_length_c 5.348274
_cell_angle_alpha 90.000000
_cell_angle_beta 83.053080
_cell_angle_gamma 90.000000
_cell_volume 651.499126
_symmetry_space_group_name_H-M "P 2/M"
_symmetry_group_IT_number 10
_symmetry_cell_setting 'monoclinic'
loop_
_space_group_symop_operation_xyz
x,y,z
-x,y,-z
-x,-y,-z
x,-y,z
loop_
_atom_site_type_symbol
_atom_site_label
_atom_site_fract_x
_atom_site_fract_y
_atom_site_fract_z
Si Si1 0.727455 0.875450 0.667778
Si Si2 0.167568 0.625521 0.227381
Si Si3 0.168392 0.749744 0.227746
Si Si4 0.725393 0.500000 0.664338
Si Si5 0.269234 0.000000 0.326703
O O1 0.500000 0.878143 0.500000
O O2 0.700749 0.812470 0.796455
O O3 0.000000 0.874452 0.500000
O O4 0.723950 0.937483 0.813034
O O5 0.313111 0.687557 0.226076
O O6 0.293540 0.562308 0.199096
O O7 0.000000 0.624394 0.500000
O O8 0.000000 0.628472 0.000000
O O9 0.000000 0.750372 0.500000
O O10 0.000000 0.748135 0.000000
O O11 0.500000 0.500000 0.500000
O O12 0.000000 0.500000 0.500000
O O13 0.500000 0.000000 0.500000
O O14 0.000000 0.000000 0.500000
#
# Coordination Sequence:
#
# PCOD9152660 Si02
#       5
#     4   4   4   2   2
#     4   9  17  31  52  78 109 144 184 229 278 332
#     4   9  18  35  57  82 113 148 187 231 280 334
#     4   9  18  34  56  82 112 147 187 231 280 334
#     4  10  21  38  60  86 116 150 190 234 282 336
#     4   8  14  26  47  74 104 140 180 224 274 328
#
# _framework density 24.558744999999998
#
# number of rings (size 3 to 8) (size 9 to 14) (size 15 to 20)
#    0.000    3.000    0.000    0.375    0.000    1.000 
#    0.000   15.625    0.000   27.000    0.000   26.250 
#    0.000    0.000    0.000    0.000    0.000    0.000 
#
# Total GULP energy -89160.315989 kJ/mol
# GULP energy per Si atom -5572.519749 kJ/mol
# Density = 2.450285 g / cm^3
# Si number density = 24.558745 Si / 1000 Ang^3
#
#
#
# Elastic Constant Matrix: (Units=GPa)
#
#
# Indices 1 2 3 4 5 6 
#
# 1 134.7369 18.6405 43.3164 0.0000 -20.4490 0.0000
# 2 18.6405 401.0116 22.1233 0.0000 11.5078 0.0000
# 3 43.3164 22.1233 120.7728 0.0000 -16.0275 0.0000
# 4 0.0000 0.0000 0.0000 -14.5666 0.0000 49.7111
# 5 -20.4490 11.5078 -16.0275 0.0000 54.7588 0.0000
# 6 0.0000 0.0000 0.0000 49.7111 0.0000 -34.9790
#
#
#
# Elastic Compliance Matrix: (Units=1/GPa)
#
#
# Indices 1 2 3 4 5 6 
#
# 1 0.008730 -0.000327 -0.002736 0.000000 0.002528 0.000000
# 2 -0.000327 0.002557 -0.000456 0.000000 -0.000793 0.000000
# 3 -0.002736 -0.000456 0.009595 0.000000 0.001883 0.000000
# 4 0.000000 0.000000 0.000000 0.017831 0.000000 0.025341
# 5 0.002528 -0.000793 0.001883 0.000000 0.019924 0.000000
# 6 0.000000 0.000000 0.000000 0.025341 0.000000 0.007426
#
#
# Mechanical properties :
#
#
# Convention : Reuss Voigt Hill
#
# Bulk Modulus (GPa) = 72.23803 91.63129 81.93466
# Shear Modulus (GPa) = 64.33714 39.20537 51.77125
#
# Velocity S-wave (km/s) = 5.12388 3.99982 4.59634
# Velocity P-wave (km/s) = 8.03018 7.66313 7.84880
#
# Compressibility (1/GPa) = 0.01384312
#
# Stress axis : x y z
#
# Youngs Moduli (GPa) = 114.54211 391.10757 104.22533
#
# Poissons Ratio (x) = 0.12807 0.28513
# Poissons Ratio (y) = 0.03751 0.04755
# Poissons Ratio (z) = 0.31336 0.17841
#
# Static dielectric constant tensor:
#      x y z
#    x 1.894190 0.000000 0.053350 
#    y 0.000000 2.184720 0.000000 
#    z 0.053350 0.000000 1.976940 
# 
# From -- ./inp_files/1637.got.cif
#   From: 2010.05.17/outbox.cif.g08.bks.cpg/sg10_1_cif.got.tgz:1637.got - 2010.06.03 11:33:40.
