data_PCOD9152024
_publ_section_title
;
Structure prediction by ZEFSAII (Michael W. Deem and Ramdas Pophale) SiO2 
 PCOD9152024
Probable space group: P 2/M
;
_chemical_formula_sum "Si O2"
_cell_formula_units_Z 28
_cell_length_a 8.370402
_cell_length_b 7.568286
_cell_length_c 22.862660
_cell_angle_alpha 90.000000
_cell_angle_beta 48.554788
_cell_angle_gamma 90.000000
_cell_volume 1085.659937
_symmetry_space_group_name_H-M "P 2/M"
_symmetry_group_IT_number 10
_symmetry_cell_setting 'monoclinic'
loop_
_space_group_symop_operation_xyz
x,y,z
-x,y,-z
-x,-y,-z
x,-y,z
loop_
_atom_site_type_symbol
_atom_site_label
_atom_site_fract_x
_atom_site_fract_y
_atom_site_fract_z
Si Si1 0.787751 0.295262 0.761663
Si Si2 0.297950 0.789591 0.471431
Si Si3 0.854739 0.786013 0.619587
Si Si4 0.743932 0.712790 0.329196
Si Si5 0.737508 0.205356 0.951563
Si Si6 0.805444 0.704304 0.188329
Si Si7 0.660135 0.715593 0.097946
O O1 0.801375 0.500000 0.775025
O O2 0.737881 0.284816 0.704710
O O3 0.586355 0.222157 0.845021
O O4 0.022869 0.216336 0.710731
O O5 0.241331 0.728056 0.419138
O O6 0.546832 0.754149 0.419023
O O7 0.103450 0.724395 0.558610
O O8 0.274565 0.000000 0.477479
O O9 0.846009 0.000000 0.624021
O O10 0.754480 0.500000 0.324758
O O11 0.708200 0.780945 0.271389
O O12 0.777315 0.223865 0.011424
O O13 0.733046 0.000000 0.936629
O O14 0.500000 0.282127 0.000000
O O15 0.936965 0.288712 0.869885
O O16 0.740750 0.500000 0.202097
O O17 0.745428 0.780729 0.139835
O O18 0.669263 0.500000 0.095441
#
# Coordination Sequence:
#
# PCOD9152024 Si02
#       7
#     4   4   4   4   4   4   4
#     4  10  21  36  55  81 111 142 178 221 269 320
#     4   9  19  36  56  78 106 142 183 224 268 320
#     4   9  19  36  56  78 106 142 183 224 268 320
#     4  10  21  36  55  81 111 142 178 221 269 320
#     4  11  24  39  56  82 114 145 178 217 264 318
#     4  10  21  38  60  83 107 140 182 223 266 318
#     4  10  21  38  60  83 107 140 182 223 266 318
#
# _framework density 25.790766999999999
#
# number of rings (size 3 to 8) (size 9 to 14) (size 15 to 20)
#    0.000    2.143    0.000    3.429    0.000    9.143 
#    0.000    4.286    0.000    0.000    0.000    0.000 
#    0.000    0.000    0.000    0.000    0.000    0.000 
#
# Total GULP energy -156616.788415 kJ/mol
# GULP energy per Si atom -5593.456729 kJ/mol
# Density = 2.573207 g / cm^3
# Si number density = 25.790767 Si / 1000 Ang^3
#
#
#
# Elastic Constant Matrix: (Units=GPa)
#
#
# Indices 1 2 3 4 5 6 
#
# 1 62.6350 -3.0378 5.2081 0.0000 -8.5589 0.0000
# 2 -3.0378 70.9155 -5.2864 0.0000 -0.8471 0.0000
# 3 5.2081 -5.2864 147.3891 0.0000 -9.5129 0.0000
# 4 0.0000 0.0000 0.0000 -13.3843 0.0000 -52.6745
# 5 -8.5589 -0.8471 -9.5129 0.0000 46.8725 0.0000
# 6 0.0000 0.0000 0.0000 -52.6745 0.0000 -74.3712
#
#
#
# Elastic Compliance Matrix: (Units=1/GPa)
#
#
# Indices 1 2 3 4 5 6 
#
# 1 0.016432 0.000712 -0.000365 0.000000 0.002939 0.000000
# 2 0.000712 0.014176 0.000515 0.000000 0.000491 0.000000
# 3 -0.000365 0.000515 0.006903 0.000000 0.001344 0.000000
# 4 0.000000 0.000000 0.000000 0.041801 0.000000 -0.029606
# 5 0.002939 0.000491 0.001344 0.000000 0.022153 0.000000
# 6 0.000000 0.000000 0.000000 -0.029606 0.000000 0.007523
#
#
# Mechanical properties :
#
#
# Convention : Reuss Voigt Hill
#
# Bulk Modulus (GPa) = 25.48838 30.52307 28.00573
# Shear Modulus (GPa) = 41.54821 10.76045 26.15433
#
# Velocity S-wave (km/s) = 4.01805 2.04481 3.18794
# Velocity P-wave (km/s) = 5.60629 4.17560 4.94298
#
# Compressibility (1/GPa) = 0.03923356
#
# Stress axis : x y z
#
# Youngs Moduli (GPa) = 60.85672 70.54167 144.86753
#
# Poissons Ratio (x) = -0.05021 0.05294
# Poissons Ratio (y) = -0.04332 -0.07460
# Poissons Ratio (z) = 0.02224 -0.03633
#
# Static dielectric constant tensor:
#      x y z
#    x 2.130870 0.000000 -0.036680 
#    y 0.000000 1.940480 0.000000 
#    z -0.036680 0.000000 1.969290 
# 
# From -- ./inp_files/37129.got.cif
#   From: 2010.05.17/outbox.cif.g08.bks.cpg/sg10_19_cif.got.tgz:37129.got - 2010.06.03 11:33:40.
