data_PCOD9152658
_publ_section_title
;
Structure prediction by ZEFSAII (Michael W. Deem and Ramdas Pophale) SiO2 
 PCOD9152658
Probable space group: P 2/M
;
_chemical_formula_sum "Si O2"
_cell_formula_units_Z 28
_cell_length_a 12.604807
_cell_length_b 13.785176
_cell_length_c 9.163256
_cell_angle_alpha 90.000000
_cell_angle_beta 113.431710
_cell_angle_gamma 90.000000
_cell_volume 1460.901135
_symmetry_space_group_name_H-M "P 2/M"
_symmetry_group_IT_number 10
_symmetry_cell_setting 'monoclinic'
loop_
_space_group_symop_operation_xyz
x,y,z
-x,y,-z
-x,-y,-z
x,-y,z
loop_
_atom_site_type_symbol
_atom_site_label
_atom_site_fract_x
_atom_site_fract_y
_atom_site_fract_z
Si Si1 0.970551 0.383771 0.152306
Si Si2 0.781435 0.384394 0.607897
Si Si3 0.752965 0.256324 0.118028
Si Si4 0.398299 0.716755 0.709158
Si Si5 0.351521 0.737815 0.241125
Si Si6 0.335773 0.112999 0.495212
Si Si7 0.131373 0.113725 0.588541
O O1 0.956567 0.500000 0.147308
O O2 0.854895 0.332857 0.144562
O O3 0.082563 0.359251 0.313164
O O4 0.000000 0.356382 0.000000
O O5 0.771458 0.500000 0.592989
O O6 0.702006 0.334839 0.441190
O O7 0.728905 0.343380 0.729277
O O8 0.643207 0.296232 0.149068
O O9 0.806548 0.174512 0.251706
O O10 0.706228 0.222504 0.936840
O O11 0.526239 0.687937 0.731191
O O12 0.398544 0.830637 0.661863
O O13 0.360971 0.823564 0.365969
O O14 0.202342 0.121699 0.475562
O O15 0.364656 0.000000 0.496886
O O16 0.000000 0.146199 0.500000
O O17 0.132238 0.000000 0.627973
#
# Coordination Sequence:
#
# PCOD9152658 Si02
#       7
#     4   4   4   4   4   4   4
#     4  10  21  38  60  86 116 147 188 237 288 345
#     4  10  21  39  61  84 111 148 193 239 284 337
#     4  11  23  36  60  83 120 154 185 232 301 336
#     4  10  23  38  56  85 116 150 194 236 282 341
#     4  11  22  37  57  86 116 150 195 236 279 343
#     4   9  19  37  59  83 111 150 195 235 279 332
#     4   9  20  37  57  84 120 155 189 233 286 343
#
# _framework density 19.166253999999999
#
# number of rings (size 3 to 8) (size 9 to 14) (size 15 to 20)
#    0.000    2.000    1.429    2.143    6.000    3.429 
#    0.000    1.429    0.000    9.857    0.000    0.000 
#    0.000    0.000    0.000    0.000    0.000    0.000 
#
# Total GULP energy -156126.568170 kJ/mol
# GULP energy per Si atom -5575.948863 kJ/mol
# Density = 1.912263 g / cm^3
# Si number density = 19.166254 Si / 1000 Ang^3
#
#
#
# Elastic Constant Matrix: (Units=GPa)
#
#
# Indices 1 2 3 4 5 6 
#
# 1 104.2035 14.1172 8.8262 0.0000 -10.7822 0.0000
# 2 14.1172 61.0650 10.6689 0.0000 -4.9885 0.0000
# 3 8.8262 10.6689 63.1281 0.0000 -10.6614 0.0000
# 4 0.0000 0.0000 0.0000 16.7471 0.0000 -3.5953
# 5 -10.7822 -4.9885 -10.6614 0.0000 28.8487 0.0000
# 6 0.0000 0.0000 0.0000 -3.5953 0.0000 11.5720
#
#
#
# Elastic Compliance Matrix: (Units=1/GPa)
#
#
# Indices 1 2 3 4 5 6 
#
# 1 0.010254 -0.002008 -0.000539 0.000000 0.003286 0.000000
# 2 -0.002008 0.017375 -0.002427 0.000000 0.001357 0.000000
# 3 -0.000539 -0.002427 0.017301 0.000000 0.005773 0.000000
# 4 0.000000 0.000000 0.000000 0.063979 0.000000 0.019877
# 5 0.003286 0.001357 0.005773 0.000000 0.038260 0.000000
# 6 0.000000 0.000000 0.000000 0.019877 0.000000 0.092591
#
#
# Mechanical properties :
#
#
# Convention : Reuss Voigt Hill
#
# Bulk Modulus (GPa) = 28.58539 32.84680 30.71609
# Shear Modulus (GPa) = 19.13004 24.41919 21.77461
#
# Velocity S-wave (km/s) = 3.16272 3.57329 3.37425
# Velocity P-wave (km/s) = 5.31826 5.84804 5.58943
#
# Compressibility (1/GPa) = 0.03498291
#
# Stress axis : x y z
#
# Youngs Moduli (GPa) = 97.51964 57.55387 57.79936
#
# Poissons Ratio (x) = 0.11557 0.03118
# Poissons Ratio (y) = 0.19582 0.14025
# Poissons Ratio (z) = 0.05260 0.13965
#
# Static dielectric constant tensor:
#      x y z
#    x 1.717870 0.000000 0.000030 
#    y 0.000000 1.651660 0.000000 
#    z 0.000030 0.000000 1.683000 
# 
# From -- ./inp_files/25065.got.cif
#   From: 2010.05.17/outbox.cif.g08.bks.cpg/sg10_13_cif.got.tgz:25065.got - 2010.06.03 11:33:40.
