data_PCOD9152843
_publ_section_title
;
Structure prediction by ZEFSAII (Michael W. Deem and Ramdas Pophale) SiO2 
 PCOD9152843
Probable space group: P 2/M
;
_chemical_formula_sum "Si O2"
_cell_formula_units_Z 24
_cell_length_a 12.116102
_cell_length_b 11.078897
_cell_length_c 11.619488
_cell_angle_alpha 90.000000
_cell_angle_beta 128.835144
_cell_angle_gamma 90.000000
_cell_volume 1214.948741
_symmetry_space_group_name_H-M "P 2/M"
_symmetry_group_IT_number 10
_symmetry_cell_setting 'monoclinic'
loop_
_space_group_symop_operation_xyz
x,y,z
-x,y,-z
-x,-y,-z
x,-y,z
loop_
_atom_site_type_symbol
_atom_site_label
_atom_site_fract_x
_atom_site_fract_y
_atom_site_fract_z
Si Si1 0.332993 0.000000 0.536867
Si Si2 0.157849 0.812502 0.567667
Si Si3 0.158760 0.765659 0.139661
Si Si4 0.220234 0.633419 0.961067
Si Si5 0.666528 0.137274 0.087614
Si Si6 0.898862 0.637505 0.663937
Si Si7 0.342962 0.000000 0.266615
O O1 0.244009 0.890317 0.530899
O O2 0.341036 0.000000 0.404796
O O3 0.498431 0.000000 0.680938
O O4 0.251004 0.824050 0.742735
O O5 0.135004 0.687310 0.484934
O O6 0.000000 0.855419 0.500000
O O7 0.162038 0.720761 0.273216
O O8 0.260919 0.877790 0.182668
O O9 0.192538 0.653646 0.078188
O O10 0.000000 0.804176 0.000000
O O11 0.281324 0.500000 0.979062
O O12 0.305118 0.751331 0.978256
O O13 0.068271 0.640041 0.797422
O O14 0.714183 0.000000 0.085301
O O15 0.500000 0.130486 0.000000
O O16 0.850580 0.500000 0.645710
#
# Coordination Sequence:
#
# PCOD9152843 Si02
#       7
#     2   4   4   4   4   4   2
#     4  11  25  40  62  95 129 167 208 270 344 374
#     4  12  23  42  67  95 126 169 217 271 315 391
#     4  10  21  38  64  98 127 167 213 270 324 390
#     4  10  22  40  63  92 131 172 214 265 325 386
#     4  11  26  42  63  94 131 173 214 267 329 391
#     4  10  21  40  65  95 126 166 218 271 322 383
#     4  11  23  40  65  92 135 167 212 273 332 400
#
# _framework density 19.753920999999998
#
# number of rings (size 3 to 8) (size 9 to 14) (size 15 to 20)
#    0.000    1.333    4.167    1.000    3.500    3.333 
#    1.500    0.000    0.000    1.000    0.000    0.000 
#    0.000    0.000    0.000    0.000    0.000    0.000 
#
# Total GULP energy -133861.417899 kJ/mol
# GULP energy per Si atom -5577.559079 kJ/mol
# Density = 1.970896 g / cm^3
# Si number density = 19.753921 Si / 1000 Ang^3
#
#
#
# Elastic Constant Matrix: (Units=GPa)
#
#
# Indices 1 2 3 4 5 6 
#
# 1 94.9564 50.3673 41.1538 0.0000 5.2303 0.0000
# 2 50.3673 147.3135 38.7397 0.0000 4.8338 0.0000
# 3 41.1538 38.7397 73.5329 0.0000 8.6948 0.0000
# 4 0.0000 0.0000 0.0000 -48.1600 0.0000 -23.4456
# 5 5.2303 4.8338 8.6948 0.0000 21.1053 0.0000
# 6 0.0000 0.0000 0.0000 -23.4456 0.0000 21.4677
#
#
#
# Elastic Compliance Matrix: (Units=1/GPa)
#
#
# Indices 1 2 3 4 5 6 
#
# 1 0.015282 -0.003454 -0.006706 0.000000 -0.000234 0.000000
# 2 -0.003454 0.008661 -0.002624 0.000000 -0.000047 0.000000
# 3 -0.006706 -0.002624 0.019413 0.000000 -0.005735 0.000000
# 4 0.000000 0.000000 0.000000 -0.013556 0.000000 -0.014805
# 5 -0.000234 -0.000047 -0.005735 0.000000 0.049813 0.000000
# 6 0.000000 0.000000 0.000000 -0.014805 0.000000 0.030412
#
#
# Mechanical properties :
#
#
# Convention : Reuss Voigt Hill
#
# Bulk Modulus (GPa) = 56.21692 64.03605 60.12648
# Shear Modulus (GPa) = 35.33030 11.25206 23.29118
#
# Velocity S-wave (km/s) = 4.23368 2.38924 3.43748
# Velocity P-wave (km/s) = 7.24010 6.33234 6.80138
#
# Compressibility (1/GPa) = 0.01778824
#
# Stress axis : x y z
#
# Youngs Moduli (GPa) = 65.43507 115.46234 51.51212
#
# Poissons Ratio (x) = 0.39881 0.34542
# Poissons Ratio (y) = 0.22601 0.13518
# Poissons Ratio (z) = 0.43878 0.30300
#
# Static dielectric constant tensor:
#      x y z
#    x 1.706060 0.000000 -0.039620 
#    y 0.000000 1.698390 0.000000 
#    z -0.039620 0.000000 1.710840 
# 
# From -- ./inp_files/46796.got.cif
#   From: 2010.05.17/outbox.cif.g08.bks.cpg/sg10_24_cif.got.tgz:46796.got - 2010.06.03 11:33:40.
