data_PCOD9152049
_publ_section_title
;
Structure prediction by ZEFSAII (Michael W. Deem and Ramdas Pophale) SiO2 
 PCOD9152049
Probable space group: P 2/M
;
_chemical_formula_sum "Si O2"
_cell_formula_units_Z 26
_cell_length_a 11.814067
_cell_length_b 21.332936
_cell_length_c 7.374590
_cell_angle_alpha 90.000000
_cell_angle_beta 140.202578
_cell_angle_gamma 90.000000
_cell_volume 1189.649136
_symmetry_space_group_name_H-M "P 2/M"
_symmetry_group_IT_number 10
_symmetry_cell_setting 'monoclinic'
loop_
_space_group_symop_operation_xyz
x,y,z
-x,y,-z
-x,-y,-z
x,-y,z
loop_
_atom_site_type_symbol
_atom_site_label
_atom_site_fract_x
_atom_site_fract_y
_atom_site_fract_z
Si Si1 0.057509 0.570628 0.784991
Si Si2 0.000000 0.892399 0.000000
Si Si3 0.268403 0.796233 0.944517
Si Si4 0.871375 0.783473 0.613327
Si Si5 0.639839 0.661460 0.923897
Si Si6 0.742328 0.350337 0.480555
Si Si7 0.677510 0.067474 0.839075
O O1 0.108548 0.500000 0.895407
O O2 0.885897 0.595895 0.676647
O O3 0.000000 0.570174 0.500000
O O4 0.211960 0.621688 0.995051
O O5 0.869589 0.844009 0.736465
O O6 0.864518 0.929754 0.959697
O O7 0.255894 0.793603 0.712820
O O8 0.373701 0.735184 0.138448
O O9 0.071309 0.783225 0.780993
O O10 0.326395 0.865778 0.065993
O O11 0.821471 0.716874 0.637261
O O12 0.700244 0.657688 0.211281
O O13 0.444992 0.634505 0.663588
O O14 0.500000 0.066762 0.500000
O O15 0.677761 0.000000 0.940926
#
# Coordination Sequence:
#
# PCOD9152049 Si02
#       7
#     4   2   4   4   4   4   4
#     4   9  16  26  40  64 104 141 169 209 262 312
#     4  10  21  36  56  80 107 136 174 220 271 312
#     4   9  17  33  55  76 104 141 178 220 264 316
#     4   9  17  32  53  79 104 135 177 224 266 310
#     4   9  16  26  44  69  96 130 175 217 257 301
#     4   9  16  26  43  68  97 131 171 216 259 304
#     4  10  22  39  56  78 111 142 172 215 269 319
#
# _framework density 21.855184000000001
#
# number of rings (size 3 to 8) (size 9 to 14) (size 15 to 20)
#    0.000    2.769    1.538    0.231    2.154    0.615 
#    0.000   10.000    0.000    1.846    0.000    0.538 
#    0.000    1.846    0.000    0.154    0.000    0.000 
#
# Total GULP energy -145082.317997 kJ/mol
# GULP energy per Si atom -5580.089154 kJ/mol
# Density = 2.180544 g / cm^3
# Si number density = 21.855184 Si / 1000 Ang^3
#
#
#
# Elastic Constant Matrix: (Units=GPa)
#
#
# Indices 1 2 3 4 5 6 
#
# 1 32.9758 30.2184 18.6011 0.0000 12.5101 0.0000
# 2 30.2184 161.0798 43.9861 0.0000 16.6790 0.0000
# 3 18.6011 43.9861 64.6257 0.0000 15.5216 0.0000
# 4 0.0000 0.0000 0.0000-1039.8021 0.0000 122.2221
# 5 12.5101 16.6790 15.5216 0.0000 27.5230 0.0000
# 6 0.0000 0.0000 0.0000 122.2221 0.0000 6.3401
#
#
#
# Elastic Compliance Matrix: (Units=1/GPa)
#
#
# Indices 1 2 3 4 5 6 
#
# 1 0.043381 -0.005187 -0.005755 0.000000 -0.013330 0.000000
# 2 -0.005187 0.008338 -0.004089 0.000000 -0.000390 0.000000
# 3 -0.005755 -0.004089 0.021618 0.000000 -0.007098 0.000000
# 4 0.000000 0.000000 0.000000 -0.000294 0.000000 0.005677
# 5 -0.013330 -0.000390 -0.007098 0.000000 0.046631 0.000000
# 6 0.000000 0.000000 0.000000 0.005677 0.000000 0.048294
#
#
# Mechanical properties :
#
#
# Convention : Reuss Voigt Hill
#
# Bulk Modulus (GPa) = 23.10699 49.36582 36.23641
# Shear Modulus (GPa) = 23.53465 -190.12942 -83.29738
#
# Velocity S-wave (km/s) = 3.28509 -9.33724 -6.18030
# Velocity P-wave (km/s) = 4.99848 9.67515 5.85763
#
# Compressibility (1/GPa) = 0.04327694
#
# Stress axis : x y z
#
# Youngs Moduli (GPa) = 23.05146 119.93394 46.25851
#
# Poissons Ratio (x) = 0.62205 0.26620
# Poissons Ratio (y) = 0.11956 0.18913
# Poissons Ratio (z) = 0.13265 0.49036
#
# Static dielectric constant tensor:
#      x y z
#    x 1.879560 0.000000 -0.036990 
#    y 0.000000 1.774460 0.000000 
#    z -0.036990 0.000000 1.839490 
# 
# From -- ./inp_files/26122.got.cif
#   From: 2010.05.17/outbox.cif.g08.bks.cpg/sg10_14_cif.got.tgz:26122.got - 2010.06.03 11:33:40.
