data_PCOD9152635
_publ_section_title
;
Structure prediction by ZEFSAII (Michael W. Deem and Ramdas Pophale) SiO2 
 PCOD9152635
Probable space group: P 2/M
;
_chemical_formula_sum "Si O2"
_cell_formula_units_Z 20
_cell_length_a 9.504563
_cell_length_b 25.399159
_cell_length_c 8.020319
_cell_angle_alpha 90.000000
_cell_angle_beta 147.735269
_cell_angle_gamma 90.000000
_cell_volume 1033.588542
_symmetry_space_group_name_H-M "P 2/M"
_symmetry_group_IT_number 10
_symmetry_cell_setting 'monoclinic'
loop_
_space_group_symop_operation_xyz
x,y,z
-x,y,-z
-x,-y,-z
x,-y,z
loop_
_atom_site_type_symbol
_atom_site_label
_atom_site_fract_x
_atom_site_fract_y
_atom_site_fract_z
Si Si1 0.750273 0.670249 0.872604
Si Si2 0.881859 0.160410 0.565279
Si Si3 0.383374 0.217264 0.195588
Si Si4 0.744153 0.940281 0.626779
Si Si5 0.248850 0.556457 0.125874
O O1 0.500000 0.667334 0.500000
O O2 0.709232 0.723132 0.936308
O O3 0.762998 0.613290 0.975240
O O4 0.000000 0.676991 0.000000
O O5 0.625213 0.197204 0.326180
O O6 0.790017 0.102927 0.532379
O O7 0.000000 0.159915 0.500000
O O8 0.123993 0.181340 0.920931
O O9 0.500000 0.216001 0.500000
O O10 0.500000 0.925229 0.500000
O O11 0.698083 0.000000 0.518192
O O12 0.000000 0.941085 0.000000
O O13 0.500000 0.556246 0.500000
O O14 0.249024 0.500000 0.032977
O O15 0.000000 0.556570 0.000000
#
# Coordination Sequence:
#
# PCOD9152635 Si02
#       5
#     4   4   4   4   4
#     4   9  16  26  43  68  94 127 170 209 249 301
#     4  12  24  37  55  81 111 138 170 215 264 306
#     4  11  21  36  56  77 104 141 181 215 253 309
#     4  10  21  38  60  82 104 135 174 210 249 305
#     4   8  13  21  34  56  90 125 154 195 254 306
#
# _framework density 19.350059000000002
#
# number of rings (size 3 to 8) (size 9 to 14) (size 15 to 20)
#    0.000    2.000    0.000    6.600    0.000    0.400 
#    0.000    0.000    0.000    6.000    0.000    0.000 
#    0.000    4.800    0.000    0.000    0.000    0.000 
#
# Total GULP energy -111503.010358 kJ/mol
# GULP energy per Si atom -5575.150518 kJ/mol
# Density = 1.930602 g / cm^3
# Si number density = 19.350059 Si / 1000 Ang^3
#
#
#
# Elastic Constant Matrix: (Units=GPa)
#
#
# Indices 1 2 3 4 5 6 
#
# 1 82.0178 66.7414 23.4878 0.0000 27.0790 0.0000
# 2 66.7414 188.1290 13.7654 0.0000 16.5445 0.0000
# 3 23.4878 13.7654 93.0470 0.0000 37.7057 0.0000
# 4 0.0000 0.0000 0.0000 22.7701 0.0000 16.8072
# 5 27.0790 16.5445 37.7057 0.0000 34.6524 0.0000
# 6 0.0000 0.0000 0.0000 16.8072 0.0000 5.0473
#
#
#
# Elastic Compliance Matrix: (Units=1/GPa)
#
#
# Indices 1 2 3 4 5 6 
#
# 1 0.022542 -0.006682 0.002046 0.000000 -0.016651 0.000000
# 2 -0.006682 0.007540 -0.000154 0.000000 0.001789 0.000000
# 3 0.002046 -0.000154 0.019446 0.000000 -0.022685 0.000000
# 4 0.000000 0.000000 0.000000 -0.030123 0.000000 0.100309
# 5 -0.016651 0.001789 -0.022685 0.000000 0.065699 0.000000
# 6 0.000000 0.000000 0.000000 0.100309 0.000000 -0.135897
#
#
# Mechanical properties :
#
#
# Convention : Reuss Voigt Hill
#
# Bulk Modulus (GPa) = 25.03270 63.46476 44.24873
# Shear Modulus (GPa) = -179.23359 29.77391 -74.72984
#
# Velocity S-wave (km/s) = -9.63473 3.92688 -6.22124
# Velocity P-wave (km/s) = 10.52643 7.30958 5.35611
#
# Compressibility (1/GPa) = 0.03994774
#
# Stress axis : x y z
#
# Youngs Moduli (GPa) = 44.36196 132.62474 51.42367
#
# Poissons Ratio (x) = 0.88625 -0.10521
# Poissons Ratio (y) = 0.29644 0.00790
# Poissons Ratio (z) = -0.09076 0.02039
#
# Static dielectric constant tensor:
#      x y z
#    x 1.628840 0.000000 -0.004970 
#    y 0.000000 1.797220 0.000000 
#    z -0.004970 0.000000 1.652600 
# 
# From -- ./inp_files/20794.got.cif
#   From: 2010.05.17/outbox.cif.g08.bks.cpg/sg10_11_cif.got.tgz:20794.got - 2010.06.03 11:33:40.
