data_PCOD9152600
_publ_section_title
;
Structure prediction by ZEFSAII (Michael W. Deem and Ramdas Pophale) SiO2 
 PCOD9152600
Probable space group: P 2/M
;
_chemical_formula_sum "Si O2"
_cell_formula_units_Z 28
_cell_length_a 29.293855
_cell_length_b 9.251173
_cell_length_c 9.072287
_cell_angle_alpha 90.000000
_cell_angle_beta 40.069839
_cell_angle_gamma 90.000000
_cell_volume 1582.660292
_symmetry_space_group_name_H-M "P 2/M"
_symmetry_group_IT_number 10
_symmetry_cell_setting 'monoclinic'
loop_
_space_group_symop_operation_xyz
x,y,z
-x,y,-z
-x,-y,-z
x,-y,z
loop_
_atom_site_type_symbol
_atom_site_label
_atom_site_fract_x
_atom_site_fract_y
_atom_site_fract_z
Si Si1 0.071294 0.172486 0.234439
Si Si2 0.648596 0.826499 0.964446
Si Si3 0.931594 0.672545 0.070248
Si Si4 0.506974 0.167772 0.662405
Si Si5 0.787648 0.328764 0.601814
Si Si6 0.643592 0.672082 0.295493
Si Si7 0.198686 0.670752 0.081595
O O1 0.139467 0.236586 0.148598
O O2 0.000000 0.210164 0.500000
O O3 0.076389 0.000000 0.213047
O O4 0.066621 0.241584 0.085299
O O5 0.719498 0.762063 0.718023
O O6 0.652819 0.000000 0.969163
O O7 0.571442 0.793324 0.085448
O O8 0.647009 0.751416 0.128921
O O9 0.933475 0.500000 0.036447
O O10 0.858993 0.703705 0.336898
O O11 0.000000 0.707857 0.000000
O O12 0.500000 0.177909 0.500000
O O13 0.573283 0.265098 0.545012
O O14 0.521658 0.000000 0.659605
O O15 0.771907 0.500000 0.627196
O O16 0.801150 0.301160 0.742556
O O17 0.637102 0.500000 0.289787
O O18 0.721050 0.699478 0.173131
O O19 0.184143 0.500000 0.096900
#
# Coordination Sequence:
#
# PCOD9152600 Si02
#       7
#     4   4   4   4   4   4   4
#     4  11  24  38  53  77 105 132 165 204 246 294
#     4   9  16  25  39  62  95 133 166 199 245 297
#     4  10  21  38  59  79 100 130 166 204 249 299
#     4   8  14  23  35  57  91 129 166 200 241 295
#     4   9  18  32  51  76 101 128 168 211 249 294
#     4   9  16  25  40  64  93 126 166 210 250 288
#     4   9  18  33  52  74 101 133 169 207 248 297
#
# _framework density 17.691731000000001
#
# number of rings (size 3 to 8) (size 9 to 14) (size 15 to 20)
#    0.000    2.714    0.000    3.857    0.000    9.143 
#    0.000    0.000    0.000    0.000    0.000    1.000 
#    0.000    8.000    0.000    0.000    0.000    0.000 
#
# Total GULP energy -156020.756585 kJ/mol
# GULP energy per Si atom -5572.169878 kJ/mol
# Density = 1.765146 g / cm^3
# Si number density = 17.691731 Si / 1000 Ang^3
#
#
#
# Elastic Constant Matrix: (Units=GPa)
#
#
# Indices 1 2 3 4 5 6 
#
# 1 89.2164 65.6081 80.5546 0.0000 -34.7396 0.0000
# 2 65.6081 67.4550 72.0045 0.0000 -29.1303 0.0000
# 3 80.5546 72.0045 123.0609 0.0000 -42.2110 0.0000
# 4 0.0000 0.0000 0.0000 27.6132 0.0000 -4.6859
# 5 -34.7396 -29.1303 -42.2110 0.0000 32.5802 0.0000
# 6 0.0000 0.0000 0.0000 -4.6859 0.0000 39.6881
#
#
#
# Elastic Compliance Matrix: (Units=1/GPa)
#
#
# Indices 1 2 3 4 5 6 
#
# 1 0.045164 -0.031180 -0.007855 0.000000 0.010102 0.000000
# 2 -0.031180 0.062782 -0.015251 0.000000 0.003127 0.000000
# 3 -0.007855 -0.015251 0.026352 0.000000 0.012130 0.000000
# 4 0.000000 0.000000 0.000000 0.036955 0.000000 0.004363
# 5 0.010102 0.003127 0.012130 0.000000 0.059977 0.000000
# 6 0.000000 0.000000 0.000000 0.004363 0.000000 0.025712
#
#
# Mechanical properties :
#
#
# Convention : Reuss Voigt Hill
#
# Bulk Modulus (GPa) = 38.87264 79.56296 59.21780
# Shear Modulus (GPa) = 13.36578 24.08064 18.72321
#
# Velocity S-wave (km/s) = 2.75159 3.69334 3.25669
# Velocity P-wave (km/s) = 5.66700 7.95344 6.90551
#
# Compressibility (1/GPa) = 0.02572503
#
# Stress axis : x y z
#
# Youngs Moduli (GPa) = 22.14163 15.92824 37.94710
#
# Poissons Ratio (x) = 0.49664 0.29807
# Poissons Ratio (y) = 0.69038 0.57875
# Poissons Ratio (z) = 0.17392 0.24293
#
# Static dielectric constant tensor:
#      x y z
#    x 1.595880 0.000000 -0.025650 
#    y 0.000000 1.586190 0.000000 
#    z -0.025650 0.000000 1.650620 
# 
# From -- ./inp_files/37930.got.cif
#   From: 2010.05.17/outbox.cif.g08.bks.cpg/sg10_19_cif.got.tgz:37930.got - 2010.06.03 11:33:40.
