data_PCOD9152873
_publ_section_title
;
Structure prediction by ZEFSAII (Michael W. Deem and Ramdas Pophale) SiO2 
 PCOD9152873
Probable space group: P 2/M
;
_chemical_formula_sum "Si O2"
_cell_formula_units_Z 32
_cell_length_a 7.869856
_cell_length_b 14.369430
_cell_length_c 15.505370
_cell_angle_alpha 90.000000
_cell_angle_beta 119.298238
_cell_angle_gamma 90.000000
_cell_volume 1529.138912
_symmetry_space_group_name_H-M "P 2/M"
_symmetry_group_IT_number 10
_symmetry_cell_setting 'monoclinic'
loop_
_space_group_symop_operation_xyz
x,y,z
-x,y,-z
-x,-y,-z
x,-y,z
loop_
_atom_site_type_symbol
_atom_site_label
_atom_site_fract_x
_atom_site_fract_y
_atom_site_fract_z
Si Si1 0.895188 0.245476 0.251752
Si Si2 0.220941 0.892631 0.199453
Si Si3 0.829021 0.108734 0.386714
Si Si4 0.430855 0.255487 0.130946
Si Si5 0.536652 0.790462 0.610857
Si Si6 0.072903 0.395827 0.609717
Si Si7 0.542346 0.394123 0.715485
Si Si8 0.903984 0.773768 0.065623
O O1 0.900429 0.153224 0.313738
O O2 0.661525 0.254506 0.182381
O O3 0.987342 0.324636 0.333111
O O4 0.964626 0.267815 0.171923
O O5 0.352411 0.832343 0.166791
O O6 0.279877 0.850153 0.307315
O O7 0.999635 0.874915 0.110353
O O8 0.266356 0.000000 0.209383
O O9 0.649434 0.168209 0.382263
O O10 0.000000 0.113197 0.500000
O O11 0.774119 0.000000 0.362018
O O12 0.381529 0.346445 0.176915
O O13 0.318631 0.243197 0.013330
O O14 0.500000 0.799242 0.500000
O O15 0.569963 0.683762 0.648465
O O16 0.996097 0.500000 0.603021
O O17 0.307045 0.399400 0.666684
O O18 0.000000 0.360643 0.500000
O O19 0.612252 0.500000 0.718386
O O20 0.000000 0.740962 0.000000
#
# Coordination Sequence:
#
# PCOD9152873 Si02
#       8
#     4   4   4   4   4   4   4   4
#     4  11  20  37  63  85 118 157 199 250 300 356
#     4  10  21  39  59  83 119 157 201 246 296 360
#     4  11  24  40  59  90 124 160 204 244 291 358
#     4   9  19  38  59  85 110 157 195 252 303 348
#     4  11  23  38  61  89 125 166 195 241 305 355
#     4   9  17  31  57  90 121 153 194 245 297 353
#     4   9  18  35  59  87 119 155 200 246 297 360
#     4  10  23  38  59  86 117 156 200 252 309 353
#
# _framework density 20.926808999999999
#
# number of rings (size 3 to 8) (size 9 to 14) (size 15 to 20)
#    0.000    2.000    3.750    1.125    1.750    4.000 
#    0.000    0.625    0.000   25.500    0.000    0.000 
#    0.000    0.000    0.000    0.000    0.000    0.000 
#
# Total GULP energy -178198.778459 kJ/mol
# GULP energy per Si atom -5568.711827 kJ/mol
# Density = 2.087918 g / cm^3
# Si number density = 20.926809 Si / 1000 Ang^3
#
#
#
# Elastic Constant Matrix: (Units=GPa)
#
#
# Indices 1 2 3 4 5 6 
#
# 1 51.0954 21.7249 26.3299 0.0000 -4.9799 0.0000
# 2 21.7249 127.5920 68.4168 0.0000 -18.5490 0.0000
# 3 26.3299 68.4168 184.4314 0.0000 -16.7860 0.0000
# 4 0.0000 0.0000 0.0000 16.0188 0.0000 13.3061
# 5 -4.9799 -18.5490 -16.7860 0.0000 40.9470 0.0000
# 6 0.0000 0.0000 0.0000 13.3061 0.0000 -9.2260
#
#
#
# Elastic Compliance Matrix: (Units=1/GPa)
#
#
# Indices 1 2 3 4 5 6 
#
# 1 0.021785 -0.002469 -0.002134 0.000000 0.000656 0.000000
# 2 -0.002469 0.010447 -0.003240 0.000000 0.003104 0.000000
# 3 -0.002134 -0.003240 0.007034 0.000000 0.001156 0.000000
# 4 0.000000 0.000000 0.000000 0.028401 0.000000 0.040962
# 5 0.000656 0.003104 0.001156 0.000000 0.026381 0.000000
# 6 0.000000 0.000000 0.000000 0.040962 0.000000 -0.049313
#
#
# Mechanical properties :
#
#
# Convention : Reuss Voigt Hill
#
# Bulk Modulus (GPa) = 42.41338 66.22912 54.32125
# Shear Modulus (GPa) = 73.22443 25.99112 49.60777
#
# Velocity S-wave (km/s) = 5.92171 3.52803 4.87410
# Velocity P-wave (km/s) = 8.18945 6.95073 7.59538
#
# Compressibility (1/GPa) = 0.02357747
#
# Stress axis : x y z
#
# Youngs Moduli (GPa) = 45.90326 95.72455 142.16652
#
# Poissons Ratio (x) = 0.23639 0.30343
# Poissons Ratio (y) = 0.11336 0.46066
# Poissons Ratio (z) = 0.09797 0.31017
#
# Static dielectric constant tensor:
#      x y z
#    x 1.944460 0.000000 0.015110 
#    y 0.000000 1.752930 0.000000 
#    z 0.015110 0.000000 1.772900 
# 
# From -- ./inp_files/61896.got.cif
#   From: 2010.05.17/outbox.cif.g08.bks.cpg/sg10_31_cif.got.tgz:61896.got - 2010.06.03 11:33:40.
