data_PCOD9152159
_publ_section_title
;
Structure prediction by ZEFSAII (Michael W. Deem and Ramdas Pophale) SiO2 
 PCOD9152159
Probable space group: P 2/M
;
_chemical_formula_sum "Si O2"
_cell_formula_units_Z 32
_cell_length_a 25.615599
_cell_length_b 13.577777
_cell_length_c 9.362704
_cell_angle_alpha 90.000000
_cell_angle_beta 153.682996
_cell_angle_gamma 90.000000
_cell_volume 1443.672492
_symmetry_space_group_name_H-M "P 2/M"
_symmetry_group_IT_number 10
_symmetry_cell_setting 'monoclinic'
loop_
_space_group_symop_operation_xyz
x,y,z
-x,y,-z
-x,-y,-z
x,-y,z
loop_
_atom_site_type_symbol
_atom_site_label
_atom_site_fract_x
_atom_site_fract_y
_atom_site_fract_z
Si Si1 0.194594 0.388774 0.013942
Si Si2 0.296423 0.112294 0.492427
Si Si3 0.140917 0.390510 0.210598
Si Si4 0.363267 0.614830 0.971280
Si Si5 0.790552 0.264820 0.194080
Si Si6 0.135854 0.112682 0.828825
Si Si7 0.878729 0.815326 0.706997
Si Si8 0.562395 0.704268 0.289315
O O1 0.201543 0.500000 0.984971
O O2 0.142115 0.384784 0.042993
O O3 0.324780 0.347318 0.365530
O O4 0.137607 0.331138 0.742785
O O5 0.234750 0.139802 0.491289
O O6 0.388228 0.193322 0.657133
O O7 0.342033 0.000000 0.606473
O O8 0.188315 0.116494 0.115728
O O9 0.092187 0.500000 0.124332
O O10 0.091243 0.285830 0.135130
O O11 0.265313 0.388167 0.603141
O O12 0.401228 0.500000 0.084153
O O13 0.462503 0.691869 0.163825
O O14 0.304839 0.661330 0.970165
O O15 0.772061 0.172111 0.043973
O O16 0.847954 0.216142 0.472080
O O17 0.000000 0.147384 0.500000
O O18 0.132279 0.000000 0.770308
O O19 0.000000 0.876148 0.000000
O O20 0.500000 0.651846 0.000000
#
# Coordination Sequence:
#
# PCOD9152159 Si02
#       8
#     4   4   4   4   4   4   4   4
#     4  11  21  36  62  90 124 166 211 258 307 367
#     4  11  24  44  65  93 127 161 214 269 316 379
#     4   9  18  36  58  85 122 164 211 255 300 367
#     4  10  21  36  59  90 125 167 211 254 305 370
#     4  11  22  39  59  93 136 162 202 270 328 372
#     4  10  21  41  70  95 119 164 218 269 324 381
#     4  11  22  39  64  92 123 166 208 261 322 382
#     4  12  21  39  65  94 123 169 217 258 310 369
#
# _framework density 22.165690999999999
#
# number of rings (size 3 to 8) (size 9 to 14) (size 15 to 20)
#    0.000    1.375    3.750    2.250    0.000    2.750 
#    0.000    1.875    0.000    4.500    0.000    0.000 
#    0.000    0.000    0.000    0.000    0.000    0.000 
#
# Total GULP energy -178220.098407 kJ/mol
# GULP energy per Si atom -5569.378075 kJ/mol
# Density = 2.211524 g / cm^3
# Si number density = 22.165691 Si / 1000 Ang^3
#
#
#
# Elastic Constant Matrix: (Units=GPa)
#
#
# Indices 1 2 3 4 5 6 
#
# 1 91.3632 39.5924 34.7299 0.0000 -11.2273 0.0000
# 2 39.5924 91.4449 8.7124 0.0000 6.2906 0.0000
# 3 34.7299 8.7124 43.5333 0.0000 -2.7096 0.0000
# 4 0.0000 0.0000 0.0000 10.8376 0.0000 -19.9454
# 5 -11.2273 6.2906 -2.7096 0.0000 36.9923 0.0000
# 6 0.0000 0.0000 0.0000 -19.9454 0.0000 -26.1097
#
#
#
# Elastic Compliance Matrix: (Units=1/GPa)
#
#
# Indices 1 2 3 4 5 6 
#
# 1 0.020789 -0.008069 -0.014558 0.000000 0.006615 0.000000
# 2 -0.008069 0.014440 0.003257 0.000000 -0.004666 0.000000
# 3 -0.014558 0.003257 0.033778 0.000000 -0.002498 0.000000
# 4 0.000000 0.000000 0.000000 0.038352 0.000000 -0.029298
# 5 0.006615 -0.004666 -0.002498 0.000000 0.029651 0.000000
# 6 0.000000 0.000000 0.000000 -0.029298 0.000000 -0.015919
#
#
# Mechanical properties :
#
#
# Convention : Reuss Voigt Hill
#
# Bulk Modulus (GPa) = 33.04042 43.60120 38.32081
# Shear Modulus (GPa) = 29.42558 13.89781 21.66169
#
# Velocity S-wave (km/s) = 3.64748 2.50671 3.12951
# Velocity P-wave (km/s) = 5.71640 5.30013 5.51220
#
# Compressibility (1/GPa) = 0.03026596
#
# Stress axis : x y z
#
# Youngs Moduli (GPa) = 48.10230 69.25315 29.60508
#
# Poissons Ratio (x) = 0.55880 0.43100
# Poissons Ratio (y) = 0.38813 -0.09642
# Poissons Ratio (z) = 0.70029 -0.22555
#
# Static dielectric constant tensor:
#      x y z
#    x 1.889370 0.000000 0.026070 
#    y 0.000000 1.856320 0.000000 
#    z 0.026070 0.000000 1.854810 
# 
# From -- ./inp_files/36374.got.cif
#   From: 2010.05.17/outbox.cif.g08.bks.cpg/sg10_19_cif.got.tgz:36374.got - 2010.06.03 11:33:40.
