data_PCOD9152452
_publ_section_title
;
Structure prediction by ZEFSAII (Michael W. Deem and Ramdas Pophale) SiO2 
 PCOD9152452
Probable space group: P 2/M
;
_chemical_formula_sum "Si O2"
_cell_formula_units_Z 21
_cell_length_a 11.272648
_cell_length_b 19.375393
_cell_length_c 5.185292
_cell_angle_alpha 90.000000
_cell_angle_beta 72.130034
_cell_angle_gamma 90.000000
_cell_volume 1077.891452
_symmetry_space_group_name_H-M "P 2/M"
_symmetry_group_IT_number 10
_symmetry_cell_setting 'monoclinic'
loop_
_space_group_symop_operation_xyz
x,y,z
-x,y,-z
-x,-y,-z
x,-y,z
loop_
_atom_site_type_symbol
_atom_site_label
_atom_site_fract_x
_atom_site_fract_y
_atom_site_fract_z
Si Si1 0.132044 0.725686 0.335925
Si Si2 0.839221 0.363808 0.173749
Si Si3 0.650344 0.834087 0.913302
Si Si4 0.420221 0.420721 0.812967
Si Si5 0.649609 0.922632 0.413568
Si Si6 0.000000 0.500000 0.000000
O O1 0.162189 0.675408 0.554672
O O2 0.252018 0.772980 0.203122
O O3 0.000000 0.761731 0.500000
O O4 0.104833 0.680752 0.098908
O O5 0.699975 0.376887 0.166445
O O6 0.903655 0.438279 0.157264
O O7 0.675721 0.890471 0.674138
O O8 0.500000 0.816782 0.000000
O O9 0.681290 0.869058 0.166639
O O10 0.500000 0.422335 0.500000
O O11 0.383758 0.500000 0.903144
O O12 0.500000 0.393990 0.000000
O O13 0.500000 0.928329 0.500000
O O14 0.701068 0.000000 0.344338
#
# Coordination Sequence:
#
# PCOD9152452 Si02
#       6
#     4   4   4   4   4   1
#     4  12  25  42  60  89 122 163 205 249 313 374
#     4  12  25  42  65  86 114 154 206 262 314 371
#     4  10  21  37  60  90 125 164 201 246 298 359
#     4  10  21  38  58  84 112 141 178 238 313 373
#     4   9  17  33  61  95 125 157 203 252 294 340
#     4  12  24  46  64  90 112 150 214 276 308 370
#
# _framework density 19.482479999999999
#
# number of rings (size 3 to 8) (size 9 to 14) (size 15 to 20)
#    0.000    1.333    2.857    2.857    0.000    6.095 
#    0.000    0.000    0.000    3.429    0.000    0.000 
#    0.000    0.000    0.000    0.000    0.000    0.000 
#
# Total GULP energy -116938.219307 kJ/mol
# GULP energy per Si atom -5568.486634 kJ/mol
# Density = 1.943814 g / cm^3
# Si number density = 19.482480 Si / 1000 Ang^3
#
#
#
# Elastic Constant Matrix: (Units=GPa)
#
#
# Indices 1 2 3 4 5 6 
#
# 1 89.9030 40.6080 39.5359 0.0000 -6.3714 0.0000
# 2 40.6080 100.7612 45.3423 0.0000 -19.3584 0.0000
# 3 39.5359 45.3423 115.7713 0.0000 3.6738 0.0000
# 4 0.0000 0.0000 0.0000 11.3668 0.0000 -18.8847
# 5 -6.3714 -19.3584 3.6738 0.0000 34.3083 0.0000
# 6 0.0000 0.0000 0.0000 -18.8847 0.0000 -3.3240
#
#
#
# Elastic Compliance Matrix: (Units=1/GPa)
#
#
# Indices 1 2 3 4 5 6 
#
# 1 0.014548 -0.004236 -0.003330 0.000000 0.000668 0.000000
# 2 -0.004236 0.015448 -0.004872 0.000000 0.008451 0.000000
# 3 -0.003330 -0.004872 0.011830 0.000000 -0.004634 0.000000
# 4 0.000000 0.000000 0.000000 0.008428 0.000000 -0.047880
# 5 0.000668 0.008451 -0.004634 0.000000 0.034536 0.000000
# 6 0.000000 0.000000 0.000000 -0.047880 0.000000 -0.028819
#
#
# Mechanical properties :
#
#
# Convention : Reuss Voigt Hill
#
# Bulk Modulus (GPa) = 58.99798 61.93420 60.46609
# Shear Modulus (GPa) = 57.80543 20.53351 39.16947
#
# Velocity S-wave (km/s) = 5.45297 3.24998 4.48872
# Velocity P-wave (km/s) = 8.36629 6.77804 7.61369
#
# Compressibility (1/GPa) = 0.01694973
#
# Stress axis : x y z
#
# Youngs Moduli (GPa) = 68.73582 64.73503 84.53014
#
# Poissons Ratio (x) = 0.27423 0.28152
# Poissons Ratio (y) = 0.29118 0.41180
# Poissons Ratio (z) = 0.22892 0.31537
#
# Static dielectric constant tensor:
#      x y z
#    x 1.724570 0.000000 -0.014090 
#    y 0.000000 1.685660 0.000000 
#    z -0.014090 0.000000 1.679690 
# 
# From -- ./inp_files/7024.got.cif
#   From: 2010.05.17/outbox.cif.g08.bks.cpg/sg10_4_cif.got.tgz:7024.got - 2010.06.03 11:33:40.
