data_PCOD9152649
_publ_section_title
;
Structure prediction by ZEFSAII (Michael W. Deem and Ramdas Pophale) SiO2 
 PCOD9152649
Probable space group: P 2/M
;
_chemical_formula_sum "Si O2"
_cell_formula_units_Z 24
_cell_length_a 19.212657
_cell_length_b 9.078217
_cell_length_c 7.665817
_cell_angle_alpha 90.000000
_cell_angle_beta 66.484433
_cell_angle_gamma 90.000000
_cell_volume 1226.006853
_symmetry_space_group_name_H-M "P 2/M"
_symmetry_group_IT_number 10
_symmetry_cell_setting 'monoclinic'
loop_
_space_group_symop_operation_xyz
x,y,z
-x,y,-z
-x,-y,-z
x,-y,z
loop_
_atom_site_type_symbol
_atom_site_label
_atom_site_fract_x
_atom_site_fract_y
_atom_site_fract_z
Si Si1 0.845184 0.833569 0.446382
Si Si2 0.690165 0.675831 0.017640
Si Si3 0.690165 0.675831 0.602030
Si Si4 0.409695 0.825166 0.590305
Si Si5 0.154816 0.166431 0.136751
Si Si6 0.000000 0.665822 0.792795
O O1 0.771906 0.740801 0.463175
O O2 0.838761 0.843672 0.661239
O O3 0.924115 0.752793 0.331962
O O4 0.844668 0.000000 0.375457
O O5 0.689486 0.500000 0.041498
O O6 0.679249 0.705821 0.820751
O O7 0.771906 0.740802 0.993012
O O8 0.627802 0.751639 0.201687
O O9 0.689486 0.500000 0.579530
O O10 0.627802 0.751639 0.542708
O O11 0.500000 0.803338 0.500000
O O12 0.393894 0.000000 0.606106
O O13 0.075885 0.247207 0.180191
O O14 0.155332 0.000000 0.064793
O O15 0.000000 0.500000 0.718340
O O16 0.000000 0.654560 0.000000
#
# Coordination Sequence:
#
# PCOD9152649 Si02
#       6
#     4   4   4   4   4   4
#     4  10  21  38  60  85 115 154 200 249 301 357
#     4  10  22  41  66  94 125 163 206 254 308 366
#     4  10  22  41  66  94 125 163 206 254 308 366
#     4  11  25  43  65  94 127 164 203 249 307 369
#     4  10  21  38  60  85 115 154 200 249 301 357
#     4  11  24  37  52  80 118 159 202 249 299 351
#
# _framework density 19.575748000000001
#
# number of rings (size 3 to 8) (size 9 to 14) (size 15 to 20)
#    0.000    1.667    0.000    3.500    2.333    9.333 
#    0.000    3.333    0.000    0.000    0.000    0.000 
#    0.000    0.000    0.000    0.000    0.000    0.000 
#
# Total GULP energy -134117.339006 kJ/mol
# GULP energy per Si atom -5588.222459 kJ/mol
# Density = 1.953119 g / cm^3
# Si number density = 19.575748 Si / 1000 Ang^3
#
#
#
# Elastic Constant Matrix: (Units=GPa)
#
#
# Indices 1 2 3 4 5 6 
#
# 1 151.9410 102.6219 56.4799 0.0000 -15.0984 0.0000
# 2 102.6219 182.0535 78.2329 0.0000 -17.7966 0.0000
# 3 56.4799 78.2329 101.5394 0.0000 -21.6793 0.0000
# 4 0.0000 0.0000 0.0000 11.1527 0.0000 31.5361
# 5 -15.0984 -17.7966 -21.6793 0.0000 32.5829 0.0000
# 6 0.0000 0.0000 0.0000 31.5361 0.0000 -32.0653
#
#
#
# Elastic Compliance Matrix: (Units=1/GPa)
#
#
# Indices 1 2 3 4 5 6 
#
# 1 0.010916 -0.005289 -0.001787 0.000000 0.000980 0.000000
# 2 -0.005289 0.010777 -0.005394 0.000000 -0.000154 0.000000
# 3 -0.001787 -0.005394 0.016543 0.000000 0.007232 0.000000
# 4 0.000000 0.000000 0.000000 0.023714 0.000000 0.023323
# 5 0.000980 -0.000154 0.007232 0.000000 0.035873 0.000000
# 6 0.000000 0.000000 0.000000 0.023323 0.000000 -0.008248
#
#
# Mechanical properties :
#
#
# Convention : Reuss Voigt Hill
#
# Bulk Modulus (GPa) = 75.22065 101.13369 88.17717
# Shear Modulus (GPa) = 42.03484 15.54733 28.79108
#
# Velocity S-wave (km/s) = 4.63891 2.82124 3.83920
# Velocity P-wave (km/s) = 8.19766 7.89857 8.04950
#
# Compressibility (1/GPa) = 0.01329422
#
# Stress axis : x y z
#
# Youngs Moduli (GPa) = 91.61195 92.78602 60.44870
#
# Poissons Ratio (x) = 0.49076 0.10804
# Poissons Ratio (y) = 0.48455 0.32609
# Poissons Ratio (z) = 0.16373 0.50053
#
# Static dielectric constant tensor:
#      x y z
#    x 1.672410 0.000000 0.013210 
#    y 0.000000 1.692330 0.000000 
#    z 0.013210 0.000000 1.690520 
# 
# From -- ./inp_files/33443.got.cif
#   From: 2010.05.17/outbox.cif.g08.bks.cpg/sg10_17_cif.got.tgz:33443.got - 2010.06.03 11:33:40.
