data_PCOD9152552
_publ_section_title
;
Structure prediction by ZEFSAII (Michael W. Deem and Ramdas Pophale) SiO2 
 PCOD9152552
Probable space group: P 2/M
;
_chemical_formula_sum "Si O2"
_cell_formula_units_Z 28
_cell_length_a 12.729382
_cell_length_b 20.697209
_cell_length_c 8.130578
_cell_angle_alpha 90.000000
_cell_angle_beta 34.521662
_cell_angle_gamma 90.000000
_cell_volume 1213.968341
_symmetry_space_group_name_H-M "P 2/M"
_symmetry_group_IT_number 10
_symmetry_cell_setting 'monoclinic'
loop_
_space_group_symop_operation_xyz
x,y,z
-x,y,-z
-x,-y,-z
x,-y,z
loop_
_atom_site_type_symbol
_atom_site_label
_atom_site_fract_x
_atom_site_fract_y
_atom_site_fract_z
Si Si1 0.192024 0.822223 0.855022
Si Si2 0.674487 0.304946 0.155972
Si Si3 0.807921 0.297848 0.648456
Si Si4 0.686809 0.428122 0.654025
Si Si5 0.670870 0.830385 0.655928
Si Si6 0.999539 0.925558 0.303677
Si Si7 0.804352 0.428434 0.155323
O O1 0.212978 0.757856 0.932774
O O2 0.354850 0.825974 0.508147
O O3 0.000000 0.817686 0.000000
O O4 0.163104 0.883650 0.009914
O O5 0.500000 0.305500 0.500000
O O6 0.779834 0.371319 0.060016
O O7 0.647592 0.299457 0.995956
O O8 0.799829 0.365690 0.565201
O O9 0.770181 0.236117 0.584501
O O10 0.000000 0.291461 0.500000
O O11 0.773387 0.500000 0.566653
O O12 0.657851 0.422251 0.495004
O O13 0.500000 0.427945 0.000000
O O14 0.809477 0.890512 0.498409
O O15 0.500000 0.838796 0.000000
O O16 0.000000 0.922283 0.500000
O O17 0.007622 0.000000 0.241140
O O18 0.786386 0.500000 0.106077
O O19 0.000000 0.424042 0.000000
#
# Coordination Sequence:
#
# PCOD9152552 Si02
#       7
#     4   4   4   4   4   4   4
#     4  10  21  38  61  84 115 157 197 233 277 344
#     4  12  23  35  56  85 116 147 189 244 294 339
#     4  12  23  36  57  84 117 150 192 244 292 345
#     4  10  21  38  57  77 108 151 195 240 294 351
#     4  11  22  38  61  88 120 155 195 239 282 338
#     4  10  22  42  66  91 121 154 188 231 284 340
#     4  10  21  38  57  77 108 150 194 237 287 349
#
# _framework density 23.064851000000001
#
# number of rings (size 3 to 8) (size 9 to 14) (size 15 to 20)
#    0.000    1.286    0.000    7.286    0.000    4.000 
#    0.000    0.000    0.000    2.143    0.000    0.000 
#    0.000    0.000    0.000    0.000    0.000    0.000 
#
# Total GULP energy -156703.506683 kJ/mol
# GULP energy per Si atom -5596.553810 kJ/mol
# Density = 2.301235 g / cm^3
# Si number density = 23.064851 Si / 1000 Ang^3
#
#
#
# Elastic Constant Matrix: (Units=GPa)
#
#
# Indices 1 2 3 4 5 6 
#
# 1 41.1789 58.9215 8.6611 0.0000 18.9756 0.0000
# 2 58.9215 220.0822 46.6958 0.0000 21.0221 0.0000
# 3 8.6611 46.6958 137.0901 0.0000 25.6875 0.0000
# 4 0.0000 0.0000 0.0000 18.5673 0.0000 83.0100
# 5 18.9756 21.0221 25.6875 0.0000 37.9666 0.0000
# 6 0.0000 0.0000 0.0000 83.0100 0.0000 -654.5998
#
#
#
# Elastic Compliance Matrix: (Units=1/GPa)
#
#
# Indices 1 2 3 4 5 6 
#
# 1 0.051944 -0.012892 0.005310 0.000000 -0.022415 0.000000
# 2 -0.012892 0.008209 -0.002677 0.000000 0.003709 0.000000
# 3 0.005310 -0.002677 0.009265 0.000000 -0.007440 0.000000
# 4 0.000000 0.000000 0.000000 0.034372 0.000000 0.004359
# 5 -0.022415 0.003709 -0.007440 0.000000 0.040522 0.000000
# 6 0.000000 0.000000 0.000000 0.004359 0.000000 -0.000975
#
#
# Mechanical properties :
#
#
# Convention : Reuss Voigt Hill
#
# Bulk Modulus (GPa) = 20.45019 69.65643 45.05331
# Shear Modulus (GPa) = 27.75406 -100.67501 -36.46047
#
# Velocity S-wave (km/s) = 3.47263 -6.61388 -3.98022
# Velocity P-wave (km/s) = 4.99645 5.29705 1.24383
#
# Compressibility (1/GPa) = 0.04889931
#
# Stress axis : x y z
#
# Youngs Moduli (GPa) = 19.25168 121.81886 107.93494
#
# Poissons Ratio (x) = 1.57050 -0.57310
# Poissons Ratio (y) = 0.24819 0.28890
# Poissons Ratio (z) = -0.10222 0.32606
#
# Static dielectric constant tensor:
#      x y z
#    x 1.875210 0.000000 -0.028580 
#    y 0.000000 1.816930 0.000000 
#    z -0.028580 0.000000 1.998170 
# 
# From -- ./inp_files/30423.got.cif
#   From: 2010.05.17/outbox.cif.g08.bks.cpg/sg10_16_cif.got.tgz:30423.got - 2010.06.03 11:33:40.
