data_PCOD9152492
_publ_section_title
;
Structure prediction by ZEFSAII (Michael W. Deem and Ramdas Pophale) SiO2 
 PCOD9152492
Probable space group: P 2/M
;
_chemical_formula_sum "Si O2"
_cell_formula_units_Z 32
_cell_length_a 20.813510
_cell_length_b 8.501981
_cell_length_c 12.313421
_cell_angle_alpha 90.000000
_cell_angle_beta 132.748574
_cell_angle_gamma 90.000000
_cell_volume 1600.077495
_symmetry_space_group_name_H-M "P 2/M"
_symmetry_group_IT_number 10
_symmetry_cell_setting 'monoclinic'
loop_
_space_group_symop_operation_xyz
x,y,z
-x,y,-z
-x,-y,-z
x,-y,z
loop_
_atom_site_type_symbol
_atom_site_label
_atom_site_fract_x
_atom_site_fract_y
_atom_site_fract_z
Si Si1 0.321776 0.313670 0.696072
Si Si2 0.652058 0.821050 0.720306
Si Si3 0.905059 0.687569 0.934349
Si Si4 0.496816 0.679517 0.372077
Si Si5 0.505784 0.816601 0.853644
Si Si6 0.259542 0.811251 0.391773
Si Si7 0.829003 0.176793 0.055677
Si Si8 0.292118 0.810711 0.889118
O O1 0.315065 0.500000 0.696071
O O2 0.425171 0.266846 0.820904
O O3 0.281917 0.258625 0.534949
O O4 0.274414 0.233631 0.744169
O O5 0.608766 0.690789 0.747091
O O6 0.666299 0.765458 0.612821
O O7 0.614584 0.000000 0.683645
O O8 0.747291 0.838829 0.880375
O O9 0.896468 0.500000 0.917156
O O10 0.830879 0.757784 0.768385
O O11 0.894430 0.733445 0.049737
O O12 0.000000 0.736726 0.000000
O O13 0.500000 0.739917 0.500000
O O14 0.526940 0.500000 0.395751
O O15 0.521133 0.791133 0.302635
O O16 0.504335 0.000000 0.879825
O O17 0.605984 0.757858 0.977438
O O18 0.261287 0.000000 0.400252
O O19 0.782836 0.244341 0.112092
O O20 0.862511 0.000000 0.118372
O O21 0.295011 0.000000 0.907582
#
# Coordination Sequence:
#
# PCOD9152492 Si02
#       8
#     4   4   4   4   4   4   4   4
#     4  12  25  38  54  81 114 149 195 247 298 343
#     4   9  17  32  51  73  98 132 177 223 273 329
#     4  10  21  37  61  95 129 154 177 219 284 348
#     4  11  22  31  43  68 102 138 177 228 287 339
#     4  11  22  38  56  74 104 150 202 250 289 334
#     4  10  21  38  60  83 112 152 195 233 280 342
#     4   9  18  35  58  84 112 146 191 233 274 333
#     4  10  21  39  59  79 108 152 203 247 287 334
#
# _framework density 19.999032
#
# number of rings (size 3 to 8) (size 9 to 14) (size 15 to 20)
#    0.000    1.750    1.250    4.500    0.000    9.500 
#    0.000    0.000    0.000    0.750    0.000    5.250 
#    0.000    0.000    0.000    0.000    0.000    0.000 
#
# Total GULP energy -178193.696362 kJ/mol
# GULP energy per Si atom -5568.553011 kJ/mol
# Density = 1.995351 g / cm^3
# Si number density = 19.999032 Si / 1000 Ang^3
#
#
#
# Elastic Constant Matrix: (Units=GPa)
#
#
# Indices 1 2 3 4 5 6 
#
# 1 143.7880 16.9096 44.0951 0.0000 -35.4631 0.0000
# 2 16.9096 36.1722 1.2546 0.0000 -4.2202 0.0000
# 3 44.0951 1.2546 58.6519 0.0000 -28.3136 0.0000
# 4 0.0000 0.0000 0.0000 13.2906 0.0000 15.4436
# 5 -35.4631 -4.2202 -28.3136 0.0000 31.9240 0.0000
# 6 0.0000 0.0000 0.0000 15.4436 0.0000 -0.1694
#
#
#
# Elastic Compliance Matrix: (Units=1/GPa)
#
#
# Indices 1 2 3 4 5 6 
#
# 1 0.010555 -0.003920 -0.004270 0.000000 0.007420 0.000000
# 2 -0.003920 0.029681 0.003680 0.000000 0.002832 0.000000
# 3 -0.004270 0.003680 0.031697 0.000000 0.023856 0.000000
# 4 0.000000 0.000000 0.000000 0.000704 0.000000 0.064146
# 5 0.007420 0.002832 0.023856 0.000000 0.061100 0.000000
# 6 0.000000 0.000000 0.000000 0.064146 0.000000 -0.055204
#
#
# Mechanical properties :
#
#
# Convention : Reuss Voigt Hill
#
# Bulk Modulus (GPa) = 15.89496 40.34785 28.12141
# Shear Modulus (GPa) = 46.07246 20.76590 33.41918
#
# Velocity S-wave (km/s) = 4.80493 3.22583 4.09227
# Velocity P-wave (km/s) = 6.22481 5.83895 6.03497
#
# Compressibility (1/GPa) = 0.06291303
#
# Stress axis : x y z
#
# Youngs Moduli (GPa) = 94.74013 33.69153 31.54852
#
# Poissons Ratio (x) = 0.13209 0.13470
# Poissons Ratio (y) = 0.37143 -0.11609
# Poissons Ratio (z) = 0.40449 -0.12398
#
# Static dielectric constant tensor:
#      x y z
#    x 1.850970 0.000000 0.094240 
#    y 0.000000 1.704050 0.000000 
#    z 0.094240 0.000000 1.925830 
# 
# From -- ./inp_files/55360.got.cif
#   From: 2010.05.17/outbox.cif.g08.bks.cpg/sg10_28_cif.got.tgz:55360.got - 2010.06.03 11:33:40.
