data_PCOD9152885
_publ_section_title
;
Structure prediction by ZEFSAII (Michael W. Deem and Ramdas Pophale) SiO2 
 PCOD9152885
Probable space group: P 2/M
;
_chemical_formula_sum "Si O2"
_cell_formula_units_Z 20
_cell_length_a 9.718793
_cell_length_b 8.999544
_cell_length_c 13.957087
_cell_angle_alpha 90.000000
_cell_angle_beta 46.007020
_cell_angle_gamma 90.000000
_cell_volume 878.239753
_symmetry_space_group_name_H-M "P 2/M"
_symmetry_group_IT_number 10
_symmetry_cell_setting 'monoclinic'
loop_
_space_group_symop_operation_xyz
x,y,z
-x,y,-z
-x,-y,-z
x,-y,z
loop_
_atom_site_type_symbol
_atom_site_label
_atom_site_fract_x
_atom_site_fract_y
_atom_site_fract_z
Si Si1 0.252597 0.826098 0.284342
Si Si2 0.757878 0.820093 0.919595
Si Si3 0.560413 0.324982 0.623963
Si Si4 0.779201 0.178773 0.118931
Si Si5 0.869911 0.828598 0.359958
O O1 0.327090 0.775464 0.142380
O O2 0.323612 0.728871 0.337284
O O3 0.023967 0.824015 0.374023
O O4 0.306208 0.000000 0.274732
O O5 0.985221 0.785037 0.795365
O O6 0.746507 0.000000 0.923338
O O7 0.695031 0.775152 0.055122
O O8 0.540872 0.500000 0.630970
O O9 0.354061 0.249208 0.736315
O O10 0.689554 0.268624 0.473794
O O11 0.772098 0.000000 0.132159
O O12 0.000000 0.220770 0.000000
O O13 0.812340 0.000000 0.374944
#
# Coordination Sequence:
#
# PCOD9152885 Si02
#       5
#     4   4   4   4   4
#     4   8  16  32  56  80 107 136 170 213 257 305
#     4   7  15  33  57  81 103 130 170 220 265 299
#     4  12  23  32  49  80 114 143 171 206 257 317
#     4  10  21  39  60  77  97 133 182 227 262 301
#     4   8  16  33  56  80 106 136 171 213 258 305
#
# _framework density 22.772824
#
# number of rings (size 3 to 8) (size 9 to 14) (size 15 to 20)
#    1.200    1.800    0.000    2.400    0.000    4.400 
#    0.000    7.000    0.000    6.000    0.000    0.000 
#    0.000    0.000    0.000    0.000    0.000    0.000 
#
# Total GULP energy -111529.454227 kJ/mol
# GULP energy per Si atom -5576.472711 kJ/mol
# Density = 2.272099 g / cm^3
# Si number density = 22.772824 Si / 1000 Ang^3
#
#
#
# Elastic Constant Matrix: (Units=GPa)
#
#
# Indices 1 2 3 4 5 6 
#
# 1 70.8903 4.7693 18.1534 0.0000 -8.2981 0.0000
# 2 4.7693 51.5139 26.9040 0.0000 -8.1681 0.0000
# 3 18.1534 26.9040 121.8963 0.0000 0.0605 0.0000
# 4 0.0000 0.0000 0.0000 -22.8938 0.0000 -18.7785
# 5 -8.2981 -8.1681 0.0605 0.0000 39.6684 0.0000
# 6 0.0000 0.0000 0.0000 -18.7785 0.0000 23.6561
#
#
#
# Elastic Compliance Matrix: (Units=1/GPa)
#
#
# Indices 1 2 3 4 5 6 
#
# 1 0.015054 0.000326 -0.002316 0.000000 0.003220 0.000000
# 2 0.000326 0.022792 -0.005081 0.000000 0.004769 0.000000
# 3 -0.002316 -0.005081 0.009671 0.000000 -0.001545 0.000000
# 4 0.000000 0.000000 0.000000 -0.026455 0.000000 -0.021000
# 5 0.003220 0.004769 -0.001545 0.000000 0.026867 0.000000
# 6 0.000000 0.000000 0.000000 -0.021000 0.000000 0.025602
#
#
# Mechanical properties :
#
#
# Convention : Reuss Voigt Hill
#
# Bulk Modulus (GPa) = 29.96215 38.21712 34.08963
# Shear Modulus (GPa) = 50.60810 21.05106 35.82958
#
# Velocity S-wave (km/s) = 4.71924 3.04368 3.97085
# Velocity P-wave (km/s) = 6.54832 5.40096 6.00212
#
# Compressibility (1/GPa) = 0.03337545
#
# Stress axis : x y z
#
# Youngs Moduli (GPa) = 66.42662 43.87480 103.40366
#
# Poissons Ratio (x) = -0.01431 0.23943
# Poissons Ratio (y) = -0.02166 0.52544
# Poissons Ratio (z) = 0.15381 0.22295
#
# Static dielectric constant tensor:
#      x y z
#    x 1.976870 0.000000 -0.043800 
#    y 0.000000 1.732280 0.000000 
#    z -0.043800 0.000000 1.950670 
# 
# From -- ./inp_files/56244.got.cif
#   From: 2010.05.17/outbox.cif.g08.bks.cpg/sg10_29_cif.got.tgz:56244.got - 2010.06.03 11:33:40.
