data_PCOD9152856
_publ_section_title
;
Structure prediction by ZEFSAII (Michael W. Deem and Ramdas Pophale) SiO2 
 PCOD9152856
Probable space group: P 2/M
;
_chemical_formula_sum "Si O2"
_cell_formula_units_Z 18
_cell_length_a 5.252018
_cell_length_b 25.322472
_cell_length_c 5.175922
_cell_angle_alpha 90.000000
_cell_angle_beta 88.041113
_cell_angle_gamma 90.000000
_cell_volume 687.964705
_symmetry_space_group_name_H-M "P 2/M"
_symmetry_group_IT_number 10
_symmetry_cell_setting 'monoclinic'
loop_
_space_group_symop_operation_xyz
x,y,z
-x,y,-z
-x,-y,-z
x,-y,z
loop_
_atom_site_type_symbol
_atom_site_label
_atom_site_fract_x
_atom_site_fract_y
_atom_site_fract_z
Si Si1 0.327892 0.615561 0.261670
Si Si2 0.000000 0.814131 0.000000
Si Si3 0.258576 0.117802 0.342916
Si Si4 0.312509 0.729940 0.256944
Si Si5 0.238588 0.500000 0.173186
Si Si6 0.753672 0.000000 0.824983
O O1 0.500000 0.624549 0.500000
O O2 0.184124 0.671258 0.250764
O O3 0.220622 0.556844 0.309474
O O4 0.500000 0.612391 0.000000
O O5 0.776119 0.856809 0.940978
O O6 0.911242 0.772002 0.783349
O O7 0.500000 0.135878 0.500000
O O8 0.254856 0.054516 0.328864
O O9 0.000000 0.132782 0.500000
O O10 0.500000 0.737163 0.500000
O O11 0.500000 0.734302 0.000000
O O12 0.500000 0.500000 0.000000
O O13 0.000000 0.500000 0.000000
O O14 0.500000 0.000000 0.000000
O O15 0.000000 0.000000 0.000000
#
# Coordination Sequence:
#
# PCOD9152856 Si02
#       6
#     4   2   4   4   2   2
#     4   9  19  40  64  96 134 181 234 296 363 435
#     4  12  28  41  74  97 150 180 258 294 370 424
#     4  12  28  48  76 108 146 192 242 300 367 434
#     4  10  24  44  69  98 142 191 246 304 369 435
#     4  10  21  38  68  98 138 180 234 296 366 438
#     4  12  24  48  78 109 149 192 236 299 369 437
#
# _framework density 26.164134000000001
#
# number of rings (size 3 to 8) (size 9 to 14) (size 15 to 20)
#    0.000    1.333    1.111    3.000    7.778    0.000 
#    0.000    8.889    0.000    0.000    0.000    0.000 
#    0.000    0.000    0.000    0.000    0.000    0.000 
#
# Total GULP energy -100464.779330 kJ/mol
# GULP energy per Si atom -5581.376629 kJ/mol
# Density = 2.610458 g / cm^3
# Si number density = 26.164134 Si / 1000 Ang^3
#
#
#
# Elastic Constant Matrix: (Units=GPa)
#
#
# Indices 1 2 3 4 5 6 
#
# 1 166.6515 31.1870 69.0550 0.0000 22.8247 0.0000
# 2 31.1870 278.0784 29.4665 0.0000 25.2680 0.0000
# 3 69.0550 29.4665 161.0382 0.0000 25.1319 0.0000
# 4 0.0000 0.0000 0.0000 41.7215 0.0000 25.9293
# 5 22.8247 25.2680 25.1319 0.0000 73.5501 0.0000
# 6 0.0000 0.0000 0.0000 25.9293 0.0000 13.4688
#
#
#
# Elastic Compliance Matrix: (Units=1/GPa)
#
#
# Indices 1 2 3 4 5 6 
#
# 1 0.007456 -0.000419 -0.002939 0.000000 -0.001166 0.000000
# 2 -0.000419 0.003775 -0.000348 0.000000 -0.001048 0.000000
# 3 -0.002939 -0.000348 0.007788 0.000000 -0.001630 0.000000
# 4 0.000000 0.000000 0.000000 -0.122011 0.000000 0.234889
# 5 -0.001166 -0.001048 -0.001630 0.000000 0.014875 0.000000
# 6 0.000000 0.000000 0.000000 0.234889 0.000000 -0.377949
#
#
# Mechanical properties :
#
#
# Convention : Reuss Voigt Hill
#
# Bulk Modulus (GPa) = 86.14117 96.13167 91.13642
# Shear Modulus (GPa) = -10.99419 57.48539 23.24560
#
# Velocity S-wave (km/s) = -2.05210 4.69242 2.98393
# Velocity P-wave (km/s) = 5.23259 8.13510 6.83959
#
# Compressibility (1/GPa) = 0.01160885
#
# Stress axis : x y z
#
# Youngs Moduli (GPa) = 134.11395 264.88925 128.40570
#
# Poissons Ratio (x) = 0.11096 0.37736
# Poissons Ratio (y) = 0.05618 0.04463
# Poissons Ratio (z) = 0.39413 0.09206
#
# Static dielectric constant tensor:
#      x y z
#    x 1.389480 0.000000 -0.149360 
#    y 0.000000 1.771310 0.000000 
#    z -0.149360 0.000000 2.174230 
# 
# From -- ./inp_files/1805.got.cif
#   From: 2010.05.17/outbox.cif.g08.bks.cpg/sg10_1_cif.got.tgz:1805.got - 2010.06.03 11:33:40.
