data_PCOD9152861
_publ_section_title
;
Structure prediction by ZEFSAII (Michael W. Deem and Ramdas Pophale) SiO2 
 PCOD9152861
Probable space group: P 2/M
;
_chemical_formula_sum "Si O2"
_cell_formula_units_Z 32
_cell_length_a 31.805168
_cell_length_b 11.522129
_cell_length_c 9.457770
_cell_angle_alpha 90.000000
_cell_angle_beta 152.765576
_cell_angle_gamma 90.000000
_cell_volume 1586.118995
_symmetry_space_group_name_H-M "P 2/M"
_symmetry_group_IT_number 10
_symmetry_cell_setting 'monoclinic'
loop_
_space_group_symop_operation_xyz
x,y,z
-x,y,-z
-x,-y,-z
x,-y,z
loop_
_atom_site_type_symbol
_atom_site_label
_atom_site_fract_x
_atom_site_fract_y
_atom_site_fract_z
Si Si1 0.850656 0.368499 0.348773
Si Si2 0.411357 0.125994 0.299964
Si Si3 0.262968 0.288796 0.261151
Si Si4 0.165426 0.864833 0.200473
Si Si5 0.452511 0.818367 0.725364
Si Si6 0.735351 0.715953 0.258154
Si Si7 0.605972 0.373775 0.110797
Si Si8 0.032410 0.131627 0.261405
O O1 0.892582 0.500000 0.466982
O O2 0.794169 0.361645 0.327594
O O3 0.911003 0.249375 0.537745
O O4 0.789368 0.351550 0.023594
O O5 0.500000 0.188401 0.500000
O O6 0.438077 0.114019 0.540476
O O7 0.401494 0.000000 0.200122
O O8 0.319355 0.195620 0.004961
O O9 0.197779 0.200868 0.155041
O O10 0.351125 0.223251 0.462101
O O11 0.313197 0.367101 0.529957
O O12 0.207636 0.792584 0.458564
O O13 0.196376 0.000000 0.293200
O O14 0.056684 0.865205 0.903956
O O15 0.500000 0.877672 0.000000
O O16 0.525811 0.716398 0.908184
O O17 0.658587 0.651708 0.122165
O O18 0.563308 0.500000 0.982250
O O19 0.075010 0.000000 0.405340
O O20 0.000000 0.137348 0.000000
#
# Coordination Sequence:
#
# PCOD9152861 Si02
#       8
#     4   4   4   4   4   4   4   4
#     4  12  25  41  66 101 136 168 211 267 328 392
#     4  11  22  37  57  85 123 163 206 261 317 368
#     4  10  23  40  60  91 130 163 209 261 313 375
#     4  10  22  43  69  94 123 166 216 265 319 390
#     4  10  21  39  57  84 121 162 211 254 306 371
#     4  11  21  40  62  93 126 162 215 268 319 374
#     4  10  21  39  62  83 117 171 216 258 311 371
#     4  10  22  44  71  98 128 165 212 267 327 390
#
# _framework density 20.175032000000002
#
# number of rings (size 3 to 8) (size 9 to 14) (size 15 to 20)
#    0.000    1.500    3.750    1.125    0.000    5.250 
#    0.000    3.750    0.000    0.000    0.000    0.000 
#    0.000    0.000    0.000    0.000    0.000    0.000 
#
# Total GULP energy -178261.999549 kJ/mol
# GULP energy per Si atom -5570.687486 kJ/mol
# Density = 2.012911 g / cm^3
# Si number density = 20.175032 Si / 1000 Ang^3
#
#
#
# Elastic Constant Matrix: (Units=GPa)
#
#
# Indices 1 2 3 4 5 6 
#
# 1 117.3118 40.7824 24.9068 0.0000 -2.0114 0.0000
# 2 40.7824 143.2633 42.6799 0.0000 5.1268 0.0000
# 3 24.9068 42.6799 54.7410 0.0000 -6.9571 0.0000
# 4 0.0000 0.0000 0.0000 27.5007 0.0000 3.2138
# 5 -2.0114 5.1268 -6.9571 0.0000 36.5679 0.0000
# 6 0.0000 0.0000 0.0000 3.2138 0.0000 24.0530
#
#
#
# Elastic Compliance Matrix: (Units=1/GPa)
#
#
# Indices 1 2 3 4 5 6 
#
# 1 0.009823 -0.001932 -0.002930 0.000000 0.000254 0.000000
# 2 -0.001932 0.009737 -0.007071 0.000000 -0.002817 0.000000
# 3 -0.002930 -0.007071 0.025845 0.000000 0.005747 0.000000
# 4 0.000000 0.000000 0.000000 0.036939 0.000000 -0.004936
# 5 0.000254 -0.002817 0.005747 0.000000 0.028849 0.000000
# 6 0.000000 0.000000 0.000000 -0.004936 0.000000 0.042234
#
#
# Mechanical properties :
#
#
# Convention : Reuss Voigt Hill
#
# Bulk Modulus (GPa) = 46.43066 59.11715 52.77390
# Shear Modulus (GPa) = 27.10420 31.42079 29.26249
#
# Velocity S-wave (km/s) = 3.66929 3.95068 3.81258
# Velocity P-wave (km/s) = 6.40433 7.08352 6.75247
#
# Compressibility (1/GPa) = 0.02153749
#
# Stress axis : x y z
#
# Youngs Moduli (GPa) = 101.80680 102.69582 38.69285
#
# Poissons Ratio (x) = 0.19843 0.11339
# Poissons Ratio (y) = 0.19671 0.27359
# Poissons Ratio (z) = 0.29834 0.72615
#
# Static dielectric constant tensor:
#      x y z
#    x 1.736230 0.000000 -0.006550 
#    y 0.000000 1.732860 0.000000 
#    z -0.006550 0.000000 1.710880 
# 
# From -- ./inp_files/38249.got.cif
#   From: 2010.05.17/outbox.cif.g08.bks.cpg/sg10_20_cif.got.tgz:38249.got - 2010.06.03 11:33:40.
