data_PCOD9152319
_publ_section_title
;
Structure prediction by ZEFSAII (Michael W. Deem and Ramdas Pophale) SiO2 
 PCOD9152319
Probable space group: P 2/M
;
_chemical_formula_sum "Si O2"
_cell_formula_units_Z 20
_cell_length_a 9.577108
_cell_length_b 11.214445
_cell_length_c 16.033721
_cell_angle_alpha 90.000000
_cell_angle_beta 39.638178
_cell_angle_gamma 90.000000
_cell_volume 1098.561729
_symmetry_space_group_name_H-M "P 2/M"
_symmetry_group_IT_number 10
_symmetry_cell_setting 'monoclinic'
loop_
_space_group_symop_operation_xyz
x,y,z
-x,y,-z
-x,-y,-z
x,-y,z
loop_
_atom_site_type_symbol
_atom_site_label
_atom_site_fract_x
_atom_site_fract_y
_atom_site_fract_z
Si Si1 0.600771 0.254758 0.544806
Si Si2 0.579779 0.869763 0.715942
Si Si3 0.876767 0.760670 0.707177
Si Si4 0.670392 0.500000 0.593886
Si Si5 0.758132 0.000000 0.863588
Si Si6 0.171444 0.500000 0.294887
Si Si7 0.202510 0.000000 0.968418
O O1 0.500000 0.244101 0.500000
O O2 0.512667 0.162889 0.653774
O O3 0.561782 0.383893 0.603609
O O4 0.862270 0.236764 0.420315
O O5 0.751859 0.779718 0.676642
O O6 0.689039 0.000000 0.665013
O O7 0.365110 0.889236 0.871872
O O8 0.808378 0.625390 0.763760
O O9 0.811206 0.877072 0.790931
O O10 0.678380 0.500000 0.690762
O O11 0.922718 0.500000 0.445604
O O12 0.500000 0.000000 0.000000
O O13 0.868137 0.000000 0.903745
O O14 0.000000 0.000000 0.000000
#
# Coordination Sequence:
#
# PCOD9152319 Si02
#       7
#     4   4   4   2   2   2   2
#     4  11  23  34  54  89 120 150 187 232 293 339
#     4  10  21  37  57  84 112 150 190 232 290 341
#     4  11  21  37  62  84 119 149 191 241 278 345
#     4   9  17  34  56  74 123 154 187 217 283 359
#     4  12  22  41  62  83 109 154 199 238 286 338
#     4   9  18  34  57  90 106 157 192 227 282 338
#     4  10  24  41  60  79 117 152 195 234 292 344
#
# _framework density 18.205622000000002
#
# number of rings (size 3 to 8) (size 9 to 14) (size 15 to 20)
#    0.600    1.000    5.000    0.900    4.200    1.200 
#    0.000    0.500    0.000    0.000    0.000    3.500 
#    0.000    0.000    0.000    0.000    0.000    0.000 
#
# Total GULP energy -111375.625737 kJ/mol
# GULP energy per Si atom -5568.781287 kJ/mol
# Density = 1.816419 g / cm^3
# Si number density = 18.205622 Si / 1000 Ang^3
#
#
#
# Elastic Constant Matrix: (Units=GPa)
#
#
# Indices 1 2 3 4 5 6 
#
# 1 101.9196 14.6569 18.4459 0.0000 20.7264 0.0000
# 2 14.6569 129.5456 35.0706 0.0000 11.9190 0.0000
# 3 18.4459 35.0706 46.3550 0.0000 14.2228 0.0000
# 4 0.0000 0.0000 0.0000 -26.9920 0.0000 -7.4428
# 5 20.7264 11.9190 14.2228 0.0000 30.6120 0.0000
# 6 0.0000 0.0000 0.0000 -7.4428 0.0000 16.2243
#
#
#
# Elastic Compliance Matrix: (Units=1/GPa)
#
#
# Indices 1 2 3 4 5 6 
#
# 1 0.011637 -0.000004 -0.002578 0.000000 -0.006680 0.000000
# 2 -0.000004 0.009712 -0.007216 0.000000 -0.000426 0.000000
# 3 -0.002578 -0.007216 0.031092 0.000000 -0.009891 0.000000
# 4 0.000000 0.000000 0.000000 -0.032888 0.000000 -0.015087
# 5 -0.006680 -0.000426 -0.009891 0.000000 0.041951 0.000000
# 6 0.000000 0.000000 0.000000 -0.015087 0.000000 0.054715
#
#
# Mechanical properties :
#
#
# Convention : Reuss Voigt Hill
#
# Bulk Modulus (GPa) = 30.44486 46.01858 38.23172
# Shear Modulus (GPa) = 34.06817 17.94531 26.00674
#
# Velocity S-wave (km/s) = 4.33054 3.14299 3.78365
# Velocity P-wave (km/s) = 6.46250 6.20510 6.33511
#
# Compressibility (1/GPa) = 0.03284627
#
# Stress axis : x y z
#
# Youngs Moduli (GPa) = 85.93088 102.96119 32.16216
#
# Poissons Ratio (x) = 0.00042 0.08292
# Poissons Ratio (y) = 0.00035 0.23207
# Poissons Ratio (z) = 0.22154 0.74293
#
# Static dielectric constant tensor:
#      x y z
#    x 1.636550 0.000000 0.019190 
#    y 0.000000 1.686840 0.000000 
#    z 0.019190 0.000000 1.617540 
# 
# From -- ./inp_files/60634.got.cif
#   From: 2010.05.17/outbox.cif.g08.bks.cpg/sg10_31_cif.got.tgz:60634.got - 2010.06.03 11:33:40.
