data_PCOD9152003
_publ_section_title
;
Structure prediction by ZEFSAII (Michael W. Deem and Ramdas Pophale) SiO2 
 PCOD9152003
Probable space group: P 2/M
;
_chemical_formula_sum "Si O2"
_cell_formula_units_Z 28
_cell_length_a 10.007839
_cell_length_b 11.514989
_cell_length_c 17.012216
_cell_angle_alpha 90.000000
_cell_angle_beta 126.399905
_cell_angle_gamma 90.000000
_cell_volume 1577.988512
_symmetry_space_group_name_H-M "P 2/M"
_symmetry_group_IT_number 10
_symmetry_cell_setting 'monoclinic'
loop_
_space_group_symop_operation_xyz
x,y,z
-x,y,-z
-x,-y,-z
x,-y,z
loop_
_atom_site_type_symbol
_atom_site_label
_atom_site_fract_x
_atom_site_fract_y
_atom_site_fract_z
Si Si1 0.127688 0.636934 0.926440
Si Si2 0.392039 0.239988 0.123670
Si Si3 0.732014 0.360054 0.195947
Si Si4 0.626605 0.000000 0.971420
Si Si5 0.205870 0.762999 0.211848
Si Si6 0.012386 0.640288 0.415618
Si Si7 0.311334 0.362793 0.405568
Si Si8 0.986244 0.000000 0.898650
O O1 0.150186 0.500000 0.943498
O O2 0.203350 0.672821 0.868042
O O3 0.935814 0.670107 0.860385
O O4 0.229684 0.703825 0.027638
O O5 0.552595 0.310648 0.152951
O O6 0.358186 0.240169 0.204357
O O7 0.404501 0.112225 0.092599
O O8 0.725553 0.500000 0.195165
O O9 0.864618 0.319380 0.307111
O O10 0.822151 0.000000 0.063104
O O11 0.500000 0.000000 0.000000
O O12 0.267041 0.723114 0.318812
O O13 0.112604 0.886547 0.166464
O O14 0.996969 0.500000 0.414004
O O15 0.000000 0.685167 0.500000
O O16 0.185843 0.663232 0.433113
O O17 0.500000 0.351896 0.500000
O O18 0.283999 0.500000 0.373167
O O19 0.000000 0.000000 0.000000
#
# Coordination Sequence:
#
# PCOD9152003 Si02
#       8
#     4   4   4   2   4   4   4   2
#     4  11  21  36  55  82 122 159 194 240 299 365
#     4  12  24  36  56  87 120 158 203 246 292 359
#     4  10  21  36  54  83 122 157 194 242 300 360
#     4  12  24  40  62  86 115 160 211 252 292 344
#     4  12  23  39  62  86 118 161 202 249 303 356
#     4   9  18  35  58  82 115 158 197 242 301 362
#     4  10  22  39  61  92 123 152 198 256 310 366
#     4  12  22  46  63  86 122 162 208 252 296 354
#
# _framework density 17.744108000000001
#
# number of rings (size 3 to 8) (size 9 to 14) (size 15 to 20)
#    0.000    1.143    4.286    2.571    2.000    4.000 
#    0.000    0.357    0.000    0.000    0.000    1.000 
#    0.000    0.000    0.000    0.000    0.000    0.000 
#
# Total GULP energy -156374.801050 kJ/mol
# GULP energy per Si atom -5584.814323 kJ/mol
# Density = 1.770372 g / cm^3
# Si number density = 17.744108 Si / 1000 Ang^3
#
#
#
# Elastic Constant Matrix: (Units=GPa)
#
#
# Indices 1 2 3 4 5 6 
#
# 1 104.6835 19.1623 31.3661 0.0000 -18.2249 0.0000
# 2 19.1623 45.4614 30.2298 0.0000 -13.6090 0.0000
# 3 31.3661 30.2298 91.0384 0.0000 -14.2943 0.0000
# 4 0.0000 0.0000 0.0000 21.7566 0.0000 -5.2763
# 5 -18.2249 -13.6090 -14.2943 0.0000 34.4108 0.0000
# 6 0.0000 0.0000 0.0000 -5.2763 0.0000 8.7538
#
#
#
# Elastic Compliance Matrix: (Units=1/GPa)
#
#
# Indices 1 2 3 4 5 6 
#
# 1 0.011416 -0.001759 -0.002684 0.000000 0.004236 0.000000
# 2 -0.001759 0.030591 -0.008343 0.000000 0.007701 0.000000
# 3 -0.002684 -0.008343 0.014911 0.000000 0.001473 0.000000
# 4 0.000000 0.000000 0.000000 0.053832 0.000000 0.032447
# 5 0.004236 0.007701 0.001473 0.000000 0.034961 0.000000
# 6 0.000000 0.000000 0.000000 0.032447 0.000000 0.133794
#
#
# Mechanical properties :
#
#
# Convention : Reuss Voigt Hill
#
# Bulk Modulus (GPa) = 31.90209 44.74442 38.32325
# Shear Modulus (GPa) = 15.84656 23.67923 19.76290
#
# Velocity S-wave (km/s) = 2.99165 3.65702 3.34094
# Velocity P-wave (km/s) = 5.47278 6.56529 6.04377
#
# Compressibility (1/GPa) = 0.03134591
#
# Stress axis : x y z
#
# Youngs Moduli (GPa) = 87.59433 32.68933 67.06628
#
# Poissons Ratio (x) = 0.05751 0.18001
# Poissons Ratio (y) = 0.15410 0.55951
# Poissons Ratio (z) = 0.23511 0.27271
#
# Static dielectric constant tensor:
#      x y z
#    x 1.607830 0.000000 -0.016920 
#    y 0.000000 1.595590 0.000000 
#    z -0.016920 0.000000 1.600880 
# 
# From -- ./inp_files/61312.got.cif
#   From: 2010.05.17/outbox.cif.g08.bks.cpg/sg10_31_cif.got.tgz:61312.got - 2010.06.03 11:33:40.
