data_PCOD9152593
_publ_section_title
;
Structure prediction by ZEFSAII (Michael W. Deem and Ramdas Pophale) SiO2 
 PCOD9152593
Probable space group: P 2/M
;
_chemical_formula_sum "Si O2"
_cell_formula_units_Z 28
_cell_length_a 9.288054
_cell_length_b 14.154698
_cell_length_c 11.902964
_cell_angle_alpha 90.000000
_cell_angle_beta 61.814610
_cell_angle_gamma 90.000000
_cell_volume 1379.320821
_symmetry_space_group_name_H-M "P 2/M"
_symmetry_group_IT_number 10
_symmetry_cell_setting 'monoclinic'
loop_
_space_group_symop_operation_xyz
x,y,z
-x,y,-z
-x,-y,-z
x,-y,z
loop_
_atom_site_type_symbol
_atom_site_label
_atom_site_fract_x
_atom_site_fract_y
_atom_site_fract_z
Si Si1 0.265262 0.387740 0.391898
Si Si2 0.935502 0.607367 0.754323
Si Si3 0.974196 0.112353 0.641956
Si Si4 0.189258 0.395337 0.967042
Si Si5 0.566001 0.268198 0.241471
Si Si6 0.600493 0.113332 0.846071
Si Si7 0.781573 0.261842 0.368848
O O1 0.259950 0.500000 0.418842
O O2 0.133273 0.367912 0.342893
O O3 0.438024 0.353971 0.280892
O O4 0.245940 0.320401 0.506498
O O5 0.995520 0.500000 0.725953
O O6 0.081145 0.673159 0.738908
O O7 0.801654 0.610375 0.900982
O O8 0.795376 0.138510 0.760620
O O9 0.000000 0.135777 0.500000
O O10 0.124963 0.164477 0.644820
O O11 0.986979 0.000000 0.648110
O O12 0.252016 0.500000 0.908976
O O13 0.280685 0.306200 0.883965
O O14 0.000000 0.394898 0.000000
O O15 0.487712 0.175371 0.216499
O O16 0.626507 0.253284 0.346295
O O17 0.590400 0.000000 0.831045
O O18 0.500000 0.132085 0.000000
#
# Coordination Sequence:
#
# PCOD9152593 Si02
#       7
#     4   4   4   4   4   4   4
#     4  11  25  41  60  93 131 170 213 260 312 374
#     4  10  21  38  60  84 117 164 214 257 298 362
#     4  10  22  43  69  93 121 163 214 264 318 384
#     4  10  21  38  58  86 124 164 210 256 307 369
#     4  12  25  37  63  92 126 167 206 254 326 381
#     4  10  24  45  68  95 129 168 212 268 329 386
#     4  12  23  38  62  92 126 161 207 255 316 376
#
# _framework density 20.299845999999999
#
# number of rings (size 3 to 8) (size 9 to 14) (size 15 to 20)
#    0.000    1.286    1.429    4.286    4.000    4.000 
#    0.000    2.143    0.000    7.286    0.000    0.000 
#    0.000    0.000    0.000    0.000    0.000    0.000 
#
# Total GULP energy -156255.345717 kJ/mol
# GULP energy per Si atom -5580.548061 kJ/mol
# Density = 2.025364 g / cm^3
# Si number density = 20.299846 Si / 1000 Ang^3
#
#
#
# Elastic Constant Matrix: (Units=GPa)
#
#
# Indices 1 2 3 4 5 6 
#
# 1 90.8100 36.3522 24.9216 0.0000 12.3765 0.0000
# 2 36.3522 57.6957 25.8006 0.0000 5.7259 0.0000
# 3 24.9216 25.8006 83.6472 0.0000 7.2333 0.0000
# 4 0.0000 0.0000 0.0000 51.2716 0.0000 14.3393
# 5 12.3765 5.7259 7.2333 0.0000 32.1235 0.0000
# 6 0.0000 0.0000 0.0000 14.3393 0.0000 39.6738
#
#
#
# Elastic Compliance Matrix: (Units=1/GPa)
#
#
# Indices 1 2 3 4 5 6 
#
# 1 0.015454 -0.008621 -0.001594 0.000000 -0.004058 0.000000
# 2 -0.008621 0.025073 -0.005166 0.000000 0.000016 0.000000
# 3 -0.001594 -0.005166 0.014167 0.000000 -0.001655 0.000000
# 4 0.000000 0.000000 0.000000 0.021697 0.000000 -0.007842
# 5 -0.004058 0.000016 -0.001655 0.000000 0.033063 0.000000
# 6 0.000000 0.000000 0.000000 -0.007842 0.000000 0.028040
#
#
# Mechanical properties :
#
#
# Convention : Reuss Voigt Hill
#
# Bulk Modulus (GPa) = 41.78893 45.14461 43.46677
# Shear Modulus (GPa) = 28.37135 34.28567 31.32851
#
# Velocity S-wave (km/s) = 3.74252 4.11416 3.93273
# Velocity P-wave (km/s) = 6.26944 6.69743 6.48696
#
# Compressibility (1/GPa) = 0.02392978
#
# Stress axis : x y z
#
# Youngs Moduli (GPa) = 64.70906 39.88336 70.58864
#
# Poissons Ratio (x) = 0.34385 0.11253
# Poissons Ratio (y) = 0.55788 0.36469
# Poissons Ratio (z) = 0.10315 0.20605
#
# Static dielectric constant tensor:
#      x y z
#    x 1.717710 0.000000 -0.021060 
#    y 0.000000 1.695870 0.000000 
#    z -0.021060 0.000000 1.838430 
# 
# From -- ./inp_files/42881.got.cif
#   From: 2010.05.17/outbox.cif.g08.bks.cpg/sg10_22_cif.got.tgz:42881.got - 2010.06.03 11:33:40.
