data_PCOD9152875
_publ_section_title
;
Structure prediction by ZEFSAII (Michael W. Deem and Ramdas Pophale) SiO2 
 PCOD9152875
Probable space group: P 2/M
;
_chemical_formula_sum "Si O2"
_cell_formula_units_Z 32
_cell_length_a 22.722103
_cell_length_b 7.792473
_cell_length_c 15.132671
_cell_angle_alpha 90.000000
_cell_angle_beta 147.638391
_cell_angle_gamma 90.000000
_cell_volume 1434.184312
_symmetry_space_group_name_H-M "P 2/M"
_symmetry_group_IT_number 10
_symmetry_cell_setting 'monoclinic'
loop_
_space_group_symop_operation_xyz
x,y,z
-x,y,-z
-x,-y,-z
x,-y,z
loop_
_atom_site_type_symbol
_atom_site_label
_atom_site_fract_x
_atom_site_fract_y
_atom_site_fract_z
Si Si1 0.864060 0.798570 0.481910
Si Si2 0.553776 0.709506 0.659038
Si Si3 0.095769 0.195901 0.739006
Si Si4 0.292620 0.699427 0.866830
Si Si5 0.872910 0.207547 0.851291
Si Si6 0.805166 0.701783 0.961987
Si Si7 0.237099 0.205907 0.468587
Si Si8 0.516070 0.707256 0.238648
O O1 0.759936 0.782695 0.286152
O O2 0.834704 0.725371 0.540698
O O3 0.973694 0.727222 0.573943
O O4 0.888757 0.000000 0.524820
O O5 0.500000 0.770220 0.500000
O O6 0.550848 0.500000 0.654025
O O7 0.680833 0.759898 0.822610
O O8 0.494283 0.767024 0.672744
O O9 0.198795 0.285582 0.823206
O O10 0.098585 0.000000 0.708891
O O11 0.116326 0.201672 0.870410
O O12 0.309052 0.500000 0.867108
O O13 0.408762 0.769747 0.049358
O O14 0.830944 0.272164 0.892123
O O15 0.803257 0.269489 0.678330
O O16 0.867478 0.000000 0.846833
O O17 0.000000 0.256722 0.000000
O O18 0.813482 0.500000 0.993083
O O19 0.365134 0.243195 0.646253
O O20 0.223551 0.000000 0.450390
O O21 0.509454 0.500000 0.231306
#
# Coordination Sequence:
#
# PCOD9152875 Si02
#       8
#     4   4   4   4   4   4   4   4
#     4  10  23  42  62  86 117 158 202 247 303 360
#     4   9  17  32  54  79 111 151 188 229 286 347
#     4  11  22  39  63  89 122 160 197 243 303 364
#     4  11  23  40  62  90 122 155 195 250 306 356
#     4  10  21  39  60  84 120 163 202 245 300 355
#     4  11  21  35  58  88 120 154 196 243 294 351
#     4  10  22  40  61  86 118 157 205 252 293 349
#     4  10  21  39  59  83 121 159 194 241 303 360
#
# _framework density 22.312332999999999
#
# number of rings (size 3 to 8) (size 9 to 14) (size 15 to 20)
#    0.000    1.750    1.250    3.000    0.000    8.250 
#    0.000    3.750    0.000    2.625    0.000    0.000 
#    0.000    0.000    0.000    0.000    0.000    0.000 
#
# Total GULP energy -178881.171671 kJ/mol
# GULP energy per Si atom -5590.036615 kJ/mol
# Density = 2.226155 g / cm^3
# Si number density = 22.312333 Si / 1000 Ang^3
#
#
#
# Elastic Constant Matrix: (Units=GPa)
#
#
# Indices 1 2 3 4 5 6 
#
# 1 73.0999 -5.2603 0.8003 0.0000 3.3241 0.0000
# 2 -5.2603 34.1365 0.8764 0.0000 2.4724 0.0000
# 3 0.8003 0.8764 100.3484 0.0000 2.4836 0.0000
# 4 0.0000 0.0000 0.0000 21.0188 0.0000 -2.0617
# 5 3.3241 2.4724 2.4836 0.0000 40.0424 0.0000
# 6 0.0000 0.0000 0.0000 -2.0617 0.0000 16.7423
#
#
#
# Elastic Compliance Matrix: (Units=1/GPa)
#
#
# Indices 1 2 3 4 5 6 
#
# 1 0.013900 0.002238 -0.000099 0.000000 -0.001286 0.000000
# 2 0.002238 0.029790 -0.000228 0.000000 -0.002011 0.000000
# 3 -0.000099 -0.000228 0.009983 0.000000 -0.000597 0.000000
# 4 0.000000 0.000000 0.000000 0.048158 0.000000 0.005930
# 5 -0.001286 -0.002011 -0.000597 0.000000 0.025241 0.000000
# 6 0.000000 0.000000 0.000000 0.005930 0.000000 0.060459
#
#
# Mechanical properties :
#
#
# Convention : Reuss Voigt Hill
#
# Bulk Modulus (GPa) = 17.39267 22.26862 19.83065
# Shear Modulus (GPa) = 24.64561 29.63861 27.14211
#
# Velocity S-wave (km/s) = 3.32712 3.64861 3.49157
# Velocity P-wave (km/s) = 4.75096 5.26800 5.01615
#
# Compressibility (1/GPa) = 0.05749547
#
# Stress axis : x y z
#
# Youngs Moduli (GPa) = 71.93990 33.56781 100.17196
#
# Poissons Ratio (x) = -0.07511 0.00987
# Poissons Ratio (y) = -0.16098 0.02287
# Poissons Ratio (z) = 0.00709 0.00766
#
# Static dielectric constant tensor:
#      x y z
#    x 1.813410 0.000000 -0.003840 
#    y 0.000000 1.811470 0.000000 
#    z -0.003840 0.000000 1.827310 
# 
# From -- ./inp_files/71711.got.cif
#   From: 2010.05.17/outbox.cif.g08.bks.cpg/sg10_36_cif.got.tgz:71711.got - 2010.06.03 11:33:40.
