data_PCOD9152988
_publ_section_title
;
Structure prediction by ZEFSAII (Michael W. Deem and Ramdas Pophale) SiO2 
 PCOD9152988
Probable space group: P 2/M
;
_chemical_formula_sum "Si O2"
_cell_formula_units_Z 20
_cell_length_a 26.271604
_cell_length_b 8.871890
_cell_length_c 9.101413
_cell_angle_alpha 90.000000
_cell_angle_beta 30.018645
_cell_angle_gamma 90.000000
_cell_volume 1061.270903
_symmetry_space_group_name_H-M "P 2/M"
_symmetry_group_IT_number 10
_symmetry_cell_setting 'monoclinic'
loop_
_space_group_symop_operation_xyz
x,y,z
-x,y,-z
-x,-y,-z
x,-y,z
loop_
_atom_site_type_symbol
_atom_site_label
_atom_site_fract_x
_atom_site_fract_y
_atom_site_fract_z
Si Si1 0.104492 0.319622 0.822235
Si Si2 0.496786 0.680294 0.835291
Si Si3 0.307127 0.181078 0.810437
Si Si4 0.099724 0.181407 0.157561
Si Si5 0.299356 0.180738 0.174472
O O1 0.114981 0.500000 0.796246
O O2 0.199878 0.247652 0.500199
O O3 0.100574 0.259325 0.997764
O O4 0.000000 0.279738 0.000000
O O5 0.489419 0.500000 0.840508
O O6 0.598627 0.738421 0.502525
O O7 0.500000 0.719086 0.000000
O O8 0.399435 0.755375 0.002699
O O9 0.321441 0.000000 0.764192
O O10 0.201751 0.219054 0.992584
O O11 0.301240 0.220302 0.997116
O O12 0.000000 0.223766 0.500000
O O13 0.097483 0.000000 0.142724
O O14 0.297870 0.000000 0.190487
#
# Coordination Sequence:
#
# PCOD9152988 Si02
#       5
#     4   4   4   4   4
#     4  11  24  40  59  87 122 157 194 238 290 347
#     4  11  24  40  59  86 120 156 194 238 291 350
#     4  10  22  39  60  88 118 151 195 244 292 343
#     4  10  21  39  63  89 118 154 197 243 290 343
#     4  11  23  40  63  88 116 152 196 244 291 344
#
# _framework density 18.845327999999999
#
# number of rings (size 3 to 8) (size 9 to 14) (size 15 to 20)
#    0.000    1.400    0.000    4.800    0.000   13.200 
#    0.000    0.000    0.000    0.000    0.000    0.000 
#    0.000    0.000    0.000    0.000    0.000    0.000 
#
# Total GULP energy -111886.417600 kJ/mol
# GULP energy per Si atom -5594.320880 kJ/mol
# Density = 1.880244 g / cm^3
# Si number density = 18.845328 Si / 1000 Ang^3
#
#
#
# Elastic Constant Matrix: (Units=GPa)
#
#
# Indices 1 2 3 4 5 6 
#
# 1 223.5930 86.0468 135.2352 0.0000 1.7791 0.0000
# 2 86.0468 51.9346 81.1141 0.0000 0.9608 0.0000
# 3 135.2352 81.1141 227.6425 0.0000 1.5596 0.0000
# 4 0.0000 0.0000 0.0000 173.3715 0.0000 69.6705
# 5 1.7791 0.9608 1.5596 0.0000 40.5659 0.0000
# 6 0.0000 0.0000 0.0000 69.6705 0.0000 66.8940
#
#
#
# Elastic Compliance Matrix: (Units=1/GPa)
#
#
# Indices 1 2 3 4 5 6 
#
# 1 0.012343 -0.020288 -0.000103 0.000000 -0.000057 0.000000
# 2 -0.020288 0.076773 -0.015301 0.000000 -0.000340 0.000000
# 3 -0.000103 -0.015301 0.009906 0.000000 -0.000014 0.000000
# 4 0.000000 0.000000 0.000000 0.009920 0.000000 -0.010331
# 5 -0.000057 -0.000340 -0.000014 0.000000 0.024662 0.000000
# 6 0.000000 0.000000 0.000000 -0.010331 0.000000 0.025709
#
#
# Mechanical properties :
#
#
# Convention : Reuss Voigt Hill
#
# Bulk Modulus (GPa) = 36.18233 123.10693 79.64463
# Shear Modulus (GPa) = 20.84121 69.55120 45.19621
#
# Velocity S-wave (km/s) = 3.32913 6.08165 4.90253
# Velocity P-wave (km/s) = 5.83256 10.71364 8.62557
#
# Compressibility (1/GPa) = 0.02763780
#
# Stress axis : x y z
#
# Youngs Moduli (GPa) = 81.02029 13.02548 100.94552
#
# Poissons Ratio (x) = 0.26426 0.01040
# Poissons Ratio (y) = 1.64371 1.54459
# Poissons Ratio (z) = 0.00835 0.19931
#
# Static dielectric constant tensor:
#      x y z
#    x 1.622170 0.000000 -0.002690 
#    y 0.000000 1.631990 0.000000 
#    z -0.002690 0.000000 1.607380 
# 
# From -- ./inp_files/22094.got.cif
#   From: 2010.05.17/outbox.cif.g08.bks.cpg/sg10_12_cif.got.tgz:22094.got - 2010.06.03 11:33:40.
