data_PCOD9152741
_publ_section_title
;
Structure prediction by ZEFSAII (Michael W. Deem and Ramdas Pophale) SiO2 
 PCOD9152741
Probable space group: P 2/M
;
_chemical_formula_sum "Si O2"
_cell_formula_units_Z 32
_cell_length_a 13.172192
_cell_length_b 14.461932
_cell_length_c 18.992070
_cell_angle_alpha 90.000000
_cell_angle_beta 21.875047
_cell_angle_gamma 90.000000
_cell_volume 1347.970781
_symmetry_space_group_name_H-M "P 2/M"
_symmetry_group_IT_number 10
_symmetry_cell_setting 'monoclinic'
loop_
_space_group_symop_operation_xyz
x,y,z
-x,y,-z
-x,-y,-z
x,-y,z
loop_
_atom_site_type_symbol
_atom_site_label
_atom_site_fract_x
_atom_site_fract_y
_atom_site_fract_z
Si Si1 0.031224 0.602144 0.763656
Si Si2 0.178937 0.100239 0.711850
Si Si3 0.589385 0.400650 0.861243
Si Si4 0.389208 0.607906 0.402037
Si Si5 0.236453 0.201939 0.290761
Si Si6 0.527633 0.765138 0.232043
Si Si7 0.145334 0.274920 0.816386
Si Si8 0.128239 0.889379 0.583393
O O1 0.131924 0.500000 0.720615
O O2 0.126291 0.613137 0.621996
O O3 0.150860 0.680018 0.735354
O O4 0.708135 0.603493 0.983304
O O5 0.500000 0.087956 0.500000
O O6 0.171152 0.166950 0.783570
O O7 0.094858 0.134739 0.687547
O O8 0.045615 0.000000 0.809627
O O9 0.723029 0.500000 0.758670
O O10 0.744390 0.307225 0.746249
O O11 0.500000 0.401843 0.000000
O O12 0.454244 0.500000 0.348542
O O13 0.361345 0.668834 0.349720
O O14 0.625984 0.663027 0.292590
O O15 0.499831 0.190191 0.172070
O O16 0.000000 0.187422 0.500000
O O17 0.144051 0.139764 0.284699
O O18 0.378492 0.833686 0.384169
O O19 0.835512 0.729244 0.043822
O O20 0.172662 0.000000 0.550329
#
# Coordination Sequence:
#
# PCOD9152741 Si02
#       8
#     4   4   4   4   4   4   4   4
#     4  10  21  38  61  89 124 170 220 271 326 391
#     4  10  22  41  67  97 127 164 211 264 327 394
#     4  10  22  38  59  89 124 169 218 267 326 389
#     4  11  25  42  64  96 134 180 226 267 323 393
#     4  10  23  40  63  91 126 171 220 267 330 387
#     4  11  24  39  61  95 127 174 214 269 331 387
#     4  12  22  38  64  96 131 166 216 275 332 391
#     4  10  23  45  71  96 129 173 219 271 334 400
#
# _framework density 23.739387000000001
#
# number of rings (size 3 to 8) (size 9 to 14) (size 15 to 20)
#    0.000    1.500    1.250    3.375    5.250    6.000 
#    0.000    0.000    0.000    5.625    0.000    0.000 
#    0.000    0.000    0.000    0.000    0.000    0.000 
#
# Total GULP energy -178416.997008 kJ/mol
# GULP energy per Si atom -5575.531157 kJ/mol
# Density = 2.368535 g / cm^3
# Si number density = 23.739387 Si / 1000 Ang^3
#
#
#
# Elastic Constant Matrix: (Units=GPa)
#
#
# Indices 1 2 3 4 5 6 
#
# 1 103.2164 22.8655 -4.2602 0.0000 -15.3645 0.0000
# 2 22.8655 115.8068 21.0235 0.0000 9.6525 0.0000
# 3 -4.2602 21.0235 63.4261 0.0000 -5.8860 0.0000
# 4 0.0000 0.0000 0.0000 31.1757 0.0000 6.7166
# 5 -15.3645 9.6525 -5.8860 0.0000 24.8347 0.0000
# 6 0.0000 0.0000 0.0000 6.7166 0.0000 25.8371
#
#
#
# Elastic Compliance Matrix: (Units=1/GPa)
#
#
# Indices 1 2 3 4 5 6 
#
# 1 0.012061 -0.003714 0.002932 0.000000 0.009600 0.000000
# 2 -0.003714 0.010825 -0.004541 0.000000 -0.007581 0.000000
# 3 0.002932 -0.004541 0.018201 0.000000 0.007893 0.000000
# 4 0.000000 0.000000 0.000000 0.033979 0.000000 -0.008833
# 5 0.009600 -0.007581 0.007893 0.000000 0.051023 0.000000
# 6 0.000000 0.000000 0.000000 -0.008833 0.000000 0.041000
#
#
# Mechanical properties :
#
#
# Convention : Reuss Voigt Hill
#
# Bulk Modulus (GPa) = 32.85025 40.18968 36.51996
# Shear Modulus (GPa) = 26.61247 32.55754 29.58500
#
# Velocity S-wave (km/s) = 3.35180 3.70734 3.53404
# Velocity P-wave (km/s) = 5.37097 5.94071 5.66301
#
# Compressibility (1/GPa) = 0.03044117
#
# Stress axis : x y z
#
# Youngs Moduli (GPa) = 82.91038 92.38199 54.94217
#
# Poissons Ratio (x) = 0.34310 -0.16109
# Poissons Ratio (y) = 0.30792 0.24949
# Poissons Ratio (z) = -0.24310 0.41950
#
# Static dielectric constant tensor:
#      x y z
#    x 2.106550 0.000000 -0.043680 
#    y 0.000000 1.952260 0.000000 
#    z -0.043680 0.000000 1.989640 
# 
# From -- ./inp_files/85401.got.cif
#   From: 2010.05.17/outbox.cif.g08.bks.cpg/sg10_43_cif.got.tgz:85401.got - 2010.06.03 11:33:40.
