data_PCOD9152790
_publ_section_title
;
Structure prediction by ZEFSAII (Michael W. Deem and Ramdas Pophale) SiO2 
 PCOD9152790
Probable space group: P 2/M
;
_chemical_formula_sum "Si O2"
_cell_formula_units_Z 30
_cell_length_a 14.459696
_cell_length_b 8.637103
_cell_length_c 12.221958
_cell_angle_alpha 90.000000
_cell_angle_beta 117.152088
_cell_angle_gamma 90.000000
_cell_volume 1358.187155
_symmetry_space_group_name_H-M "P 2/M"
_symmetry_group_IT_number 10
_symmetry_cell_setting 'monoclinic'
loop_
_space_group_symop_operation_xyz
x,y,z
-x,y,-z
-x,-y,-z
x,-y,z
loop_
_atom_site_type_symbol
_atom_site_label
_atom_site_fract_x
_atom_site_fract_y
_atom_site_fract_z
Si Si1 0.613748 0.682623 0.706543
Si Si2 0.592470 0.683225 0.279181
Si Si3 0.297736 0.821738 0.461170
Si Si4 0.797599 0.317079 0.979500
Si Si5 0.904417 0.667919 0.721943
Si Si6 0.280266 0.819740 0.838571
Si Si7 0.000000 0.742132 0.000000
Si Si8 0.078748 0.319926 0.637880
O O1 0.599058 0.500000 0.674304
O O2 0.515835 0.736227 0.725134
O O3 0.631079 0.769882 0.602385
O O4 0.715726 0.697837 0.836945
O O5 0.587113 0.500000 0.257558
O O6 0.676602 0.721431 0.418482
O O7 0.623696 0.763759 0.183079
O O8 0.180177 0.793088 0.356999
O O9 0.314879 0.000000 0.497515
O O10 0.831449 0.500000 0.003910
O O11 0.740554 0.274647 0.061499
O O12 0.896717 0.204337 0.011062
O O13 0.856387 0.500000 0.670258
O O14 0.008704 0.683617 0.708584
O O15 0.937302 0.668492 0.865475
O O16 0.178720 0.783942 0.709465
O O17 0.288279 0.000000 0.867888
O O18 0.110017 0.500000 0.634919
O O19 0.000000 0.272256 0.500000
#
# Coordination Sequence:
#
# PCOD9152790 Si02
#       8
#     4   4   4   4   4   4   2   4
#     4  10  23  43  70  98 125 165 221 272 313 370
#     4  11  24  45  70  93 122 168 222 273 317 372
#     4  12  25  40  63  99 138 172 205 259 328 388
#     4  11  22  42  69  97 128 167 217 265 313 376
#     4  11  21  37  63  94 126 168 216 260 308 371
#     4  12  26  42  62  93 131 169 209 263 329 389
#     4  12  21  38  71  98 125 166 215 266 309 366
#     4  10  21  38  62  90 121 165 215 260 310 374
#
# _framework density 22.088267999999999
#
# number of rings (size 3 to 8) (size 9 to 14) (size 15 to 20)
#    0.000    0.933    2.667    5.200    0.000    5.600 
#    0.000    3.333    0.000    0.000    0.000    0.000 
#    0.000    0.000    0.000    0.000    0.000    0.000 
#
# Total GULP energy -167625.277186 kJ/mol
# GULP energy per Si atom -5587.509240 kJ/mol
# Density = 2.203799 g / cm^3
# Si number density = 22.088268 Si / 1000 Ang^3
#
#
#
# Elastic Constant Matrix: (Units=GPa)
#
#
# Indices 1 2 3 4 5 6 
#
# 1 90.6089 10.3123 8.4546 0.0000 -22.8424 0.0000
# 2 10.3123 42.0792 -4.4441 0.0000 -5.4057 0.0000
# 3 8.4546 -4.4441 60.9439 0.0000 -15.6766 0.0000
# 4 0.0000 0.0000 0.0000 -10.7516 0.0000 2.4827
# 5 -22.8424 -5.4057 -15.6766 0.0000 38.1639 0.0000
# 6 0.0000 0.0000 0.0000 2.4827 0.0000 0.8413
#
#
#
# Elastic Compliance Matrix: (Units=1/GPa)
#
#
# Indices 1 2 3 4 5 6 
#
# 1 0.013206 -0.002271 -0.000053 0.000000 0.007561 0.000000
# 2 -0.002271 0.025083 0.003028 0.000000 0.003438 0.000000
# 3 -0.000053 0.003028 0.018717 0.000000 0.008086 0.000000
# 4 0.000000 0.000000 0.000000 -0.055315 0.000000 0.163236
# 5 0.007561 0.003438 0.008086 0.000000 0.034537 0.000000
# 6 0.000000 0.000000 0.000000 0.163236 0.000000 0.706906
#
#
# Mechanical properties :
#
#
# Convention : Reuss Voigt Hill
#
# Bulk Modulus (GPa) = 17.11881 24.69749 20.90815
# Shear Modulus (GPa) = 6.56863 17.60467 12.08665
#
# Velocity S-wave (km/s) = 1.72634 2.82621 2.34176
# Velocity P-wave (km/s) = 3.42647 4.67498 4.09855
#
# Compressibility (1/GPa) = 0.05841526
#
# Stress axis : x y z
#
# Youngs Moduli (GPa) = 75.72386 39.86818 53.42865
#
# Poissons Ratio (x) = 0.09052 0.00282
# Poissons Ratio (y) = 0.17194 -0.16180
# Poissons Ratio (z) = 0.00399 -0.12074
#
# Static dielectric constant tensor:
#      x y z
#    x 1.852220 0.000000 -0.009640 
#    y 0.000000 1.765350 0.000000 
#    z -0.009640 0.000000 1.791350 
# 
# From -- ./inp_files/49996.got.cif
#   From: 2010.05.17/outbox.cif.g08.bks.cpg/sg10_25_cif.got.tgz:49996.got - 2010.06.03 11:33:40.
