data_PCOD9152253
_publ_section_title
;
Structure prediction by ZEFSAII (Michael W. Deem and Ramdas Pophale) SiO2 
 PCOD9152253
Probable space group: P 2/M
;
_chemical_formula_sum "Si O2"
_cell_formula_units_Z 32
_cell_length_a 8.709352
_cell_length_b 29.164236
_cell_length_c 14.954188
_cell_angle_alpha 90.000000
_cell_angle_beta 29.119841
_cell_angle_gamma 90.000000
_cell_volume 1848.439498
_symmetry_space_group_name_H-M "P 2/M"
_symmetry_group_IT_number 10
_symmetry_cell_setting 'monoclinic'
loop_
_space_group_symop_operation_xyz
x,y,z
-x,y,-z
-x,-y,-z
x,-y,z
loop_
_atom_site_type_symbol
_atom_site_label
_atom_site_fract_x
_atom_site_fract_y
_atom_site_fract_z
Si Si1 0.184339 0.802363 0.499999
Si Si2 0.687115 0.447752 0.500000
Si Si3 0.372133 0.877841 0.795524
Si Si4 0.258703 0.122160 0.204476
Si Si5 0.130168 0.626410 0.203385
Si Si6 0.759677 0.626410 0.203385
Si Si7 0.315020 0.700825 0.500000
Si Si8 0.684259 0.053607 0.499999
O O1 0.496063 0.832591 0.322021
O O2 0.252541 0.751911 0.499999
O O3 0.000000 0.799093 0.500000
O O4 0.962128 0.832591 0.677978
O O5 0.500000 0.448582 0.500000
O O6 0.741748 0.500000 0.499999
O O7 0.466134 0.418143 0.678085
O O8 0.000388 0.418143 0.321915
O O9 0.550490 0.880260 0.799673
O O10 0.485302 0.920383 0.677481
O O11 0.000000 0.876914 0.000000
O O12 0.017745 0.079617 0.322518
O O13 0.500000 0.123087 0.000000
O O14 0.955572 0.626313 0.196285
O O15 0.999033 0.670920 0.322354
O O16 0.500000 0.626532 0.000000
O O17 0.533903 0.670919 0.322355
O O18 0.000000 0.626532 0.000000
O O19 0.500000 0.702299 0.500000
O O20 0.500000 0.058001 0.500000
O O21 0.724112 0.000000 0.499999
#
# Coordination Sequence:
#
# PCOD9152253 Si02
#       8
#     4   4   4   4   4   4   4   4
#     4   9  20  36  53  76 103 131 168 213 255 297
#     4   8  15  30  50  69  94 129 163 196 240 296
#     4  10  21  37  56  79 107 138 173 213 257 305
#     4  10  21  37  56  79 107 138 173 213 257 305
#     4   9  18  32  49  71  97 126 163 202 243 293
#     4   9  18  32  49  71  97 126 163 202 243 293
#     4   9  19  34  50  69  97 133 166 198 244 303
#     4  10  21  37  57  81 108 139 175 214 257 304
#
# _framework density 17.311899
#
# number of rings (size 3 to 8) (size 9 to 14) (size 15 to 20)
#    0.000    2.750    0.000    3.375    0.000    7.000 
#    0.000    6.875    0.000    0.750    0.000    0.000 
#    0.000    0.000    0.000    0.000    0.000    0.000 
#
# Total GULP energy -178454.407748 kJ/mol
# GULP energy per Si atom -5576.700242 kJ/mol
# Density = 1.727250 g / cm^3
# Si number density = 17.311899 Si / 1000 Ang^3
#
#
#
# Elastic Constant Matrix: (Units=GPa)
#
#
# Indices 1 2 3 4 5 6 
#
# 1 30.6448 47.6282 45.7118 0.0000 -2.7579 0.0000
# 2 47.6282 199.3538 113.0414 0.0000 -2.2215 0.0000
# 3 45.7118 113.0414 203.1652 0.0000 -3.1012 0.0000
# 4 0.0000 0.0000 0.0000 5.9463 0.0000 0.6105
# 5 -2.7579 -2.2215 -3.1012 0.0000 33.0801 0.0000
# 6 0.0000 0.0000 0.0000 0.6105 0.0000 23.9198
#
#
#
# Elastic Compliance Matrix: (Units=1/GPa)
#
#
# Indices 1 2 3 4 5 6 
#
# 1 0.060127 -0.009766 -0.008040 0.000000 0.003603 0.000000
# 2 -0.009766 0.008915 -0.002770 0.000000 -0.000475 0.000000
# 3 -0.008040 -0.002770 0.008271 0.000000 -0.000081 0.000000
# 4 0.000000 0.000000 0.000000 0.168614 0.000000 -0.004304
# 5 0.003603 -0.000475 -0.000081 0.000000 0.030491 0.000000
# 6 0.000000 0.000000 0.000000 -0.004304 0.000000 0.041916
#
#
# Mechanical properties :
#
#
# Convention : Reuss Voigt Hill
#
# Bulk Modulus (GPa) = 27.65380 93.99184 60.82282
# Shear Modulus (GPa) = 13.45749 27.70807 20.58278
#
# Velocity S-wave (km/s) = 2.79113 4.00499 3.45184
# Velocity P-wave (km/s) = 5.13768 8.70619 7.14820
#
# Compressibility (1/GPa) = 0.03616140
#
# Stress axis : x y z
#
# Youngs Moduli (GPa) = 16.63135 112.17047 120.90306
#
# Poissons Ratio (x) = 1.09549 0.97201
# Poissons Ratio (y) = 0.16243 0.33492
# Poissons Ratio (z) = 0.13371 0.31073
#
# Static dielectric constant tensor:
#      x y z
#    x 1.586780 0.000000 0.000810 
#    y 0.000000 1.576380 0.000000 
#    z 0.000810 0.000000 1.562830 
# 
# From -- ./inp_files/62739.got.cif
#   From: 2010.05.17/outbox.cif.g08.bks.cpg/sg10_32_cif.got.tgz:62739.got - 2010.06.03 11:33:40.
