data_PCOD9152930
_publ_section_title
;
Structure prediction by ZEFSAII (Michael W. Deem and Ramdas Pophale) SiO2 
 PCOD9152930
Probable space group: P 2/M
;
_chemical_formula_sum "Si O2"
_cell_formula_units_Z 28
_cell_length_a 27.589070
_cell_length_b 8.806948
_cell_length_c 9.460175
_cell_angle_alpha 90.000000
_cell_angle_beta 37.961295
_cell_angle_gamma 90.000000
_cell_volume 1413.929882
_symmetry_space_group_name_H-M "P 2/M"
_symmetry_group_IT_number 10
_symmetry_cell_setting 'monoclinic'
loop_
_space_group_symop_operation_xyz
x,y,z
-x,y,-z
-x,-y,-z
x,-y,z
loop_
_atom_site_type_symbol
_atom_site_label
_atom_site_fract_x
_atom_site_fract_y
_atom_site_fract_z
Si Si1 0.430749 0.673114 0.774347
Si Si2 0.529606 0.818560 0.782953
Si Si3 0.867337 0.819587 0.457862
Si Si4 0.709089 0.817314 0.329608
Si Si5 0.976378 0.180461 0.714627
Si Si6 0.738114 0.317777 0.964108
Si Si7 0.840031 0.319259 0.212997
O O1 0.500000 0.672224 0.500000
O O2 0.420203 0.500000 0.850000
O O3 0.463872 0.776518 0.821161
O O4 0.348870 0.722421 0.893946
O O5 0.617711 0.764965 0.542617
O O6 0.535548 0.000000 0.778306
O O7 0.500000 0.756738 0.000000
O O8 0.949958 0.798039 0.349246
O O9 0.801411 0.743249 0.707772
O O10 0.865087 0.748670 0.306858
O O11 0.853317 0.000000 0.479237
O O12 0.757504 0.750490 0.349540
O O13 0.712410 0.000000 0.325235
O O14 0.746908 0.757508 0.097215
O O15 0.000000 0.224485 0.500000
O O16 0.956902 0.000000 0.756231
O O17 0.903856 0.270311 0.948395
O O18 0.743139 0.500000 0.965653
O O19 0.834760 0.500000 0.234721
#
# Coordination Sequence:
#
# PCOD9152930 Si02
#       7
#     4   4   4   4   4   4   4
#     4  10  21  39  61  88 123 164 205 253 314 375
#     4  10  23  40  60  89 121 159 211 265 311 365
#     4  11  24  42  66  95 129 168 207 254 309 370
#     4  11  23  41  63  89 124 167 212 260 315 374
#     4  10  22  43  70  97 126 163 208 253 306 372
#     4  11  23  40  63  93 127 163 210 261 312 373
#     4  12  26  42  64  94 130 167 207 259 312 367
#
# _framework density 19.802962000000001
#
# number of rings (size 3 to 8) (size 9 to 14) (size 15 to 20)
#    0.000    1.286    1.429    3.857    2.000    6.571 
#    0.000    0.000    0.000    0.000    0.000    0.000 
#    0.000    0.000    0.000    0.000    0.000    0.000 
#
# Total GULP energy -156541.806729 kJ/mol
# GULP energy per Si atom -5590.778812 kJ/mol
# Density = 1.975789 g / cm^3
# Si number density = 19.802962 Si / 1000 Ang^3
#
#
#
# Elastic Constant Matrix: (Units=GPa)
#
#
# Indices 1 2 3 4 5 6 
#
# 1 111.5160 48.7346 22.4240 0.0000 13.8156 0.0000
# 2 48.7346 68.1200 26.9793 0.0000 1.7909 0.0000
# 3 22.4240 26.9793 61.7609 0.0000 14.7877 0.0000
# 4 0.0000 0.0000 0.0000 19.2977 0.0000 -9.8645
# 5 13.8156 1.7909 14.7877 0.0000 36.3027 0.0000
# 6 0.0000 0.0000 0.0000 -9.8645 0.0000 17.1831
#
#
#
# Elastic Compliance Matrix: (Units=1/GPa)
#
#
# Indices 1 2 3 4 5 6 
#
# 1 0.013841 -0.009981 0.000530 0.000000 -0.004991 0.000000
# 2 -0.009981 0.025160 -0.008842 0.000000 0.006159 0.000000
# 3 0.000530 -0.008842 0.021946 0.000000 -0.008705 0.000000
# 4 0.000000 0.000000 0.000000 0.073343 0.000000 0.042105
# 5 -0.004991 0.006159 -0.008705 0.000000 0.032687 0.000000
# 6 0.000000 0.000000 0.000000 0.042105 0.000000 0.082369
#
#
# Mechanical properties :
#
#
# Convention : Reuss Voigt Hill
#
# Bulk Modulus (GPa) = 41.04873 48.63032 44.83952
# Shear Modulus (GPa) = 17.00380 24.10729 20.55555
#
# Velocity S-wave (km/s) = 2.93345 3.49285 3.22530
# Velocity P-wave (km/s) = 5.67865 6.39352 6.04666
#
# Compressibility (1/GPa) = 0.02436129
#
# Stress axis : x y z
#
# Youngs Moduli (GPa) = 72.24994 39.74526 45.56667
#
# Poissons Ratio (x) = 0.39668 -0.02413
# Poissons Ratio (y) = 0.72110 0.40289
# Poissons Ratio (z) = -0.03826 0.35142
#
# Static dielectric constant tensor:
#      x y z
#    x 1.729720 0.000000 0.003600 
#    y 0.000000 1.672890 0.000000 
#    z 0.003600 0.000000 1.688100 
# 
# From -- ./inp_files/37106.got.cif
#   From: 2010.05.17/outbox.cif.g08.bks.cpg/sg10_19_cif.got.tgz:37106.got - 2010.06.03 11:33:40.
