data_PCOD9152073
_publ_section_title
;
Structure prediction by ZEFSAII (Michael W. Deem and Ramdas Pophale) SiO2 
 PCOD9152073
Probable space group: P 2/M
;
_chemical_formula_sum "Si O2"
_cell_formula_units_Z 28
_cell_length_a 16.842991
_cell_length_b 10.790645
_cell_length_c 8.756189
_cell_angle_alpha 90.000000
_cell_angle_beta 62.738192
_cell_angle_gamma 90.000000
_cell_volume 1414.639482
_symmetry_space_group_name_H-M "P 2/M"
_symmetry_group_IT_number 10
_symmetry_cell_setting 'monoclinic'
loop_
_space_group_symop_operation_xyz
x,y,z
-x,y,-z
-x,-y,-z
x,-y,z
loop_
_atom_site_type_symbol
_atom_site_label
_atom_site_fract_x
_atom_site_fract_y
_atom_site_fract_z
Si Si1 0.464239 0.000000 0.858646
Si Si2 0.377299 0.265241 0.835346
Si Si3 0.310838 0.256881 0.565933
Si Si4 0.035464 0.349901 0.132597
Si Si5 0.144068 0.351304 0.549503
Si Si6 0.402428 0.000000 0.502535
Si Si7 0.208660 0.648973 0.152015
Si Si8 0.549816 0.641367 0.802408
O O1 0.411307 0.876793 0.843249
O O2 0.561529 0.000000 0.698260
O O3 0.500000 0.000000 0.000000
O O4 0.333301 0.308889 0.713780
O O5 0.466565 0.346181 0.762855
O O6 0.304583 0.295849 0.028361
O O7 0.209889 0.283121 0.608300
O O8 0.341904 0.118295 0.574702
O O9 0.369400 0.300915 0.366942
O O10 0.041585 0.500000 0.118941
O O11 0.958617 0.321909 0.323799
O O12 0.132468 0.306539 0.101008
O O13 0.000000 0.305949 0.000000
O O14 0.155313 0.500000 0.561046
O O15 0.173886 0.321155 0.351867
O O16 0.500000 0.000000 0.500000
O O17 0.215628 0.500000 0.136227
O O18 0.575273 0.500000 0.816644
O O19 0.500000 0.693898 0.000000
#
# Coordination Sequence:
#
# PCOD9152073 Si02
#       8
#     2   4   4   4   4   2   4   4
#     4  12  26  42  64  83 108 151 200 244 291 343
#     4  12  23  38  57  83 112 148 192 241 285 341
#     4  12  23  37  59  81 113 148 192 241 287 340
#     4   9  17  33  57  84 115 151 190 231 280 343
#     4  10  21  36  56  86 120 154 190 231 286 344
#     4  12  22  44  60  81 110 149 196 246 291 337
#     4  10  21  36  56  85 121 154 189 233 285 344
#     4  11  23  37  53  78 114 150 185 232 288 343
#
# _framework density 19.793030000000002
#
# number of rings (size 3 to 8) (size 9 to 14) (size 15 to 20)
#    0.000    1.143    2.857    3.857    2.000    8.000 
#    0.000    0.000    0.000    0.857    0.000    5.000 
#    0.000    0.000    0.000    0.000    0.000    0.000 
#
# Total GULP energy -155977.084245 kJ/mol
# GULP energy per Si atom -5570.610152 kJ/mol
# Density = 1.974798 g / cm^3
# Si number density = 19.793030 Si / 1000 Ang^3
#
#
#
# Elastic Constant Matrix: (Units=GPa)
#
#
# Indices 1 2 3 4 5 6 
#
# 1 79.6956 4.6650 -10.3593 0.0000 -1.8076 0.0000
# 2 4.6650 35.6915 -0.5089 0.0000 -0.5360 0.0000
# 3 -10.3593 -0.5089 60.3055 0.0000 -0.9523 0.0000
# 4 0.0000 0.0000 0.0000 55.8913 0.0000 24.2965
# 5 -1.8076 -0.5360 -0.9523 0.0000 39.8042 0.0000
# 6 0.0000 0.0000 0.0000 24.2965 0.0000 16.3418
#
#
#
# Elastic Compliance Matrix: (Units=1/GPa)
#
#
# Indices 1 2 3 4 5 6 
#
# 1 0.012947 -0.001651 0.002220 0.000000 0.000619 0.000000
# 2 -0.001651 0.028238 -0.000041 0.000000 0.000304 0.000000
# 3 0.002220 -0.000041 0.016971 0.000000 0.000506 0.000000
# 4 0.000000 0.000000 0.000000 0.050586 0.000000 -0.075210
# 5 0.000619 0.000304 0.000506 0.000000 0.025167 0.000000
# 6 0.000000 0.000000 0.000000 -0.075210 0.000000 0.173012
#
#
# Mechanical properties :
#
#
# Convention : Reuss Voigt Hill
#
# Bulk Modulus (GPa) = 16.88849 18.14292 17.51571
# Shear Modulus (GPa) = 15.35616 34.53386 24.94501
#
# Velocity S-wave (km/s) = 2.78841 4.18155 3.55391
# Velocity P-wave (km/s) = 4.34948 5.70088 5.07041
#
# Compressibility (1/GPa) = 0.05921193
#
# Stress axis : x y z
#
# Youngs Moduli (GPa) = 77.23803 35.41371 58.92333
#
# Poissons Ratio (x) = 0.05848 -0.13080
# Poissons Ratio (y) = 0.12754 0.00239
# Poissons Ratio (z) = -0.17146 0.00144
#
# Static dielectric constant tensor:
#      x y z
#    x 1.712930 0.000000 0.080250 
#    y 0.000000 1.850390 0.000000 
#    z 0.080250 0.000000 1.773700 
# 
# From -- ./inp_files/28235.got.cif
#   From: 2010.05.17/outbox.cif.g08.bks.cpg/sg10_15_cif.got.tgz:28235.got - 2010.06.03 11:33:40.
