data_PCOD9152208
_publ_section_title
;
Structure prediction by ZEFSAII (Michael W. Deem and Ramdas Pophale) SiO2 
 PCOD9152208
Probable space group: P 2/M
;
_chemical_formula_sum "Si O2"
_cell_formula_units_Z 32
_cell_length_a 10.047709
_cell_length_b 7.936877
_cell_length_c 28.013728
_cell_angle_alpha 90.000000
_cell_angle_beta 49.076587
_cell_angle_gamma 90.000000
_cell_volume 1687.996051
_symmetry_space_group_name_H-M "P 2/M"
_symmetry_group_IT_number 10
_symmetry_cell_setting 'monoclinic'
loop_
_space_group_symop_operation_xyz
x,y,z
-x,y,-z
-x,-y,-z
x,-y,z
loop_
_atom_site_type_symbol
_atom_site_label
_atom_site_fract_x
_atom_site_fract_y
_atom_site_fract_z
Si Si1 0.932363 0.203412 0.664149
Si Si2 0.140527 0.206793 0.706139
Si Si3 0.527170 0.205553 0.774874
Si Si4 0.828445 0.798934 0.848425
Si Si5 0.452367 0.796963 0.895668
Si Si6 0.478189 0.201018 0.680800
Si Si7 0.123079 0.300416 0.428906
Si Si8 0.312315 0.700144 0.023874
O O1 0.926602 0.261636 0.330026
O O2 0.734711 0.251417 0.727456
O O3 0.956176 0.265241 0.604779
O O4 0.934488 0.000000 0.662343
O O5 0.994613 0.261265 0.779234
O O6 0.330764 0.265680 0.679217
O O7 0.140717 0.000000 0.705088
O O8 0.433634 0.261898 0.845514
O O9 0.456877 0.266253 0.740206
O O10 0.520772 0.000000 0.775874
O O11 0.643537 0.733780 0.869888
O O12 0.824061 0.000000 0.843650
O O13 0.829848 0.761671 0.904463
O O14 0.309724 0.748023 0.969015
O O15 0.458621 0.000000 0.893483
O O16 0.678437 0.231111 0.618088
O O17 0.453811 0.000000 0.689332
O O18 0.138059 0.500000 0.431652
O O19 0.000000 0.231614 0.500000
O O20 0.316859 0.500000 0.025913
O O21 0.500000 0.769949 0.000000
#
# Coordination Sequence:
#
# PCOD9152208 Si02
#       8
#     4   4   4   4   4   4   4   4
#     4   9  16  30  53  78 101 125 159 201 242 285
#     4   9  16  29  51  79 104 125 155 201 249 293
#     4   8  13  24  44  69  93 120 155 197 239 283
#     4   9  15  25  43  64  90 123 156 190 239 294
#     4   9  14  23  41  62  85 118 159 197 239 287
#     4   9  18  32  53  78 103 128 157 196 245 293
#     4  10  21  37  54  73 100 133 167 199 231 275
#     4   9  17  26  35  56  90 120 154 203 248 281
#
# _framework density 18.95739
#
# number of rings (size 3 to 8) (size 9 to 14) (size 15 to 20)
#    0.000    3.000    1.250    1.500    0.000    2.500 
#    0.000    5.000    0.000    4.500    0.000    5.250 
#    0.000    0.000    0.000    0.000    0.000    0.000 
#
# Total GULP energy -178251.068247 kJ/mol
# GULP energy per Si atom -5570.345883 kJ/mol
# Density = 1.891424 g / cm^3
# Si number density = 18.957390 Si / 1000 Ang^3
#
#
#
# Elastic Constant Matrix: (Units=GPa)
#
#
# Indices 1 2 3 4 5 6 
#
# 1 115.8110 0.3048 49.1757 0.0000 9.9993 0.0000
# 2 0.3048 8.4416 -8.6335 0.0000 -2.0407 0.0000
# 3 49.1757 -8.6335 101.8862 0.0000 27.3849 0.0000
# 4 0.0000 0.0000 0.0000 45.1307 0.0000 17.1548
# 5 9.9993 -2.0407 27.3849 0.0000 20.9200 0.0000
# 6 0.0000 0.0000 0.0000 17.1548 0.0000 8.2861
#
#
#
# Elastic Compliance Matrix: (Units=1/GPa)
#
#
# Indices 1 2 3 4 5 6 
#
# 1 0.011282 -0.006645 -0.006765 0.000000 0.002815 0.000000
# 2 -0.006645 0.133714 0.015703 0.000000 -0.004336 0.000000
# 3 -0.006765 0.015703 0.020257 0.000000 -0.021752 0.000000
# 4 0.000000 0.000000 0.000000 0.104005 0.000000 -0.215321
# 5 0.002815 -0.004336 -0.021752 0.000000 0.074506 0.000000
# 6 0.000000 0.000000 0.000000 -0.215321 0.000000 0.566463
#
#
# Mechanical properties :
#
#
# Convention : Reuss Voigt Hill
#
# Bulk Modulus (GPa) = 5.88795 34.20366 20.04581
# Shear Modulus (GPa) = 5.19614 27.22015 16.20815
#
# Velocity S-wave (km/s) = 1.65738 3.79338 2.92717
# Velocity P-wave (km/s) = 2.60292 6.10475 4.69271
#
# Compressibility (1/GPa) = 0.16983830
#
# Stress axis : x y z
#
# Youngs Moduli (GPa) = 88.63928 7.47867 49.36590
#
# Poissons Ratio (x) = 0.04970 0.33395
# Poissons Ratio (y) = 0.58905 -0.77521
# Poissons Ratio (z) = 0.59962 -0.11744
#
# Static dielectric constant tensor:
#      x y z
#    x 1.674230 0.000000 0.021510 
#    y 0.000000 1.674200 0.000000 
#    z 0.021510 0.000000 1.666240 
# 
# From -- ./inp_files/94966.got.cif
#   From: 2010.05.17/outbox.cif.g08.bks.cpg/sg10_48_cif.got.tgz:94966.got - 2010.06.03 11:33:40.
