data_PCOD9152388
_publ_section_title
;
Structure prediction by ZEFSAII (Michael W. Deem and Ramdas Pophale) SiO2 
 PCOD9152388
Probable space group: P 2/M
;
_chemical_formula_sum "Si O2"
_cell_formula_units_Z 22
_cell_length_a 14.367026
_cell_length_b 11.773701
_cell_length_c 16.542639
_cell_angle_alpha 90.000000
_cell_angle_beta 25.743696
_cell_angle_gamma 90.000000
_cell_volume 1215.403979
_symmetry_space_group_name_H-M "P 2/M"
_symmetry_group_IT_number 10
_symmetry_cell_setting 'monoclinic'
loop_
_space_group_symop_operation_xyz
x,y,z
-x,y,-z
-x,-y,-z
x,-y,z
loop_
_atom_site_type_symbol
_atom_site_label
_atom_site_fract_x
_atom_site_fract_y
_atom_site_fract_z
Si Si1 0.309429 0.309298 0.091411
Si Si2 0.025148 0.869142 0.218183
Si Si3 0.199889 0.870713 0.900427
Si Si4 0.999820 0.500000 0.386845
Si Si5 0.420893 0.747150 0.471521
Si Si6 0.644628 0.500000 0.538239
Si Si7 0.472499 0.500000 0.190462
O O1 0.171779 0.209119 0.160080
O O2 0.149924 0.389835 0.268032
O O3 0.500000 0.267936 0.000000
O O4 0.420366 0.391528 0.937126
O O5 0.793662 0.812364 0.386206
O O6 0.006730 0.000000 0.260376
O O7 0.129690 0.869988 0.047630
O O8 0.392946 0.787112 0.733567
O O9 0.262952 0.000000 0.828226
O O10 0.000000 0.839382 0.000000
O O11 0.209338 0.500000 0.391179
O O12 0.882938 0.500000 0.390027
O O13 0.500000 0.775654 0.500000
O O14 0.387714 0.613248 0.487083
O O15 0.499358 0.500000 0.734065
#
# Coordination Sequence:
#
# PCOD9152388 Si02
#       7
#     4   4   4   2   4   2   2
#     4  11  22  37  61  89 114 149 195 239 285 340
#     4  11  23  39  59  83 117 155 191 239 285 334
#     4  10  21  37  59  86 110 148 201 236 273 336
#     4   9  19  38  59  84 113 145 193 232 282 347
#     4  12  22  38  59  84 119 154 188 235 286 338
#     4  10  21  38  57  85 117 152 183 227 291 346
#     4   9  19  38  62  83 115 151 185 240 288 331
#
# _framework density 18.100977
#
# number of rings (size 3 to 8) (size 9 to 14) (size 15 to 20)
#    0.545    0.909    3.636    3.000    0.000    2.545 
#    0.000    0.455    0.000    0.000    0.000    7.636 
#    0.000    0.000    0.000    0.000    0.000    0.000 
#
# Total GULP energy -122761.668972 kJ/mol
# GULP energy per Si atom -5580.075862 kJ/mol
# Density = 1.805978 g / cm^3
# Si number density = 18.100977 Si / 1000 Ang^3
#
#
#
# Elastic Constant Matrix: (Units=GPa)
#
#
# Indices 1 2 3 4 5 6 
#
# 1 97.5927 55.8566 24.0781 0.0000 -27.9579 0.0000
# 2 55.8566 144.6031 65.2907 0.0000 -27.6119 0.0000
# 3 24.0781 65.2907 82.3139 0.0000 -19.9741 0.0000
# 4 0.0000 0.0000 0.0000 14.1808 0.0000 -0.5185
# 5 -27.9579 -27.6119 -19.9741 0.0000 34.4387 0.0000
# 6 0.0000 0.0000 0.0000 -0.5185 0.0000 19.6701
#
#
#
# Elastic Compliance Matrix: (Units=1/GPa)
#
#
# Indices 1 2 3 4 5 6 
#
# 1 0.015349 -0.004870 0.001686 0.000000 0.009534 0.000000
# 2 -0.004870 0.012891 -0.008440 0.000000 0.001487 0.000000
# 3 0.001686 -0.008440 0.019831 0.000000 0.006104 0.000000
# 4 0.000000 0.000000 0.000000 0.070586 0.000000 0.001861
# 5 0.009534 0.001487 0.006104 0.000000 0.041510 0.000000
# 6 0.000000 0.000000 0.000000 0.001861 0.000000 0.050888
#
#
# Mechanical properties :
#
#
# Convention : Reuss Voigt Hill
#
# Bulk Modulus (GPa) = 40.28215 68.32894 54.30554
# Shear Modulus (GPa) = 20.61204 25.61020 23.11112
#
# Velocity S-wave (km/s) = 3.37816 3.76553 3.57709
# Velocity P-wave (km/s) = 6.12523 7.53235 6.86494
#
# Compressibility (1/GPa) = 0.02482489
#
# Stress axis : x y z
#
# Youngs Moduli (GPa) = 65.14992 77.57128 50.42627
#
# Poissons Ratio (x) = 0.37777 -0.08504
# Poissons Ratio (y) = 0.31727 0.42559
# Poissons Ratio (z) = -0.10987 0.65469
#
# Static dielectric constant tensor:
#      x y z
#    x 1.642240 0.000000 -0.009380 
#    y 0.000000 1.615660 0.000000 
#    z -0.009380 0.000000 1.609010 
# 
# From -- ./inp_files/64637.got.cif
#   From: 2010.05.17/outbox.cif.g08.bks.cpg/sg10_33_cif.got.tgz:64637.got - 2010.06.03 11:33:40.
