data_PCOD9152507
_publ_section_title
;
Structure prediction by ZEFSAII (Michael W. Deem and Ramdas Pophale) SiO2 
 PCOD9152507
Probable space group: P 2/M
;
_chemical_formula_sum "Si O2"
_cell_formula_units_Z 28
_cell_length_a 14.845105
_cell_length_b 7.664522
_cell_length_c 13.022877
_cell_angle_alpha 90.000000
_cell_angle_beta 123.421450
_cell_angle_gamma 90.000000
_cell_volume 1236.731369
_symmetry_space_group_name_H-M "P 2/M"
_symmetry_group_IT_number 10
_symmetry_cell_setting 'monoclinic'
loop_
_space_group_symop_operation_xyz
x,y,z
-x,y,-z
-x,-y,-z
x,-y,z
loop_
_atom_site_type_symbol
_atom_site_label
_atom_site_fract_x
_atom_site_fract_y
_atom_site_fract_z
Si Si1 0.749914 0.700020 0.036064
Si Si2 0.879192 0.206538 0.914836
Si Si3 0.907740 0.204489 0.513948
Si Si4 0.565402 0.212932 0.441088
Si Si5 0.511096 0.792272 0.829356
Si Si6 0.804031 0.785668 0.647875
Si Si7 0.275906 0.290299 0.757138
O O1 0.784247 0.500000 0.061727
O O2 0.810304 0.775044 0.975123
O O3 0.620934 0.709889 0.938775
O O4 0.768964 0.776801 0.161555
O O5 0.823656 0.274764 0.776109
O O6 0.890160 0.000000 0.904073
O O7 0.000000 0.279710 0.000000
O O8 0.891251 0.274161 0.618462
O O9 0.795759 0.219099 0.381040
O O10 0.000000 0.284674 0.500000
O O11 0.933606 0.000000 0.542963
O O12 0.500000 0.267668 0.500000
O O13 0.513748 0.270644 0.301928
O O14 0.687880 0.269933 0.533171
O O15 0.564534 0.000000 0.437632
O O16 0.401498 0.758067 0.823111
O O17 0.529718 0.000000 0.839315
O O18 0.803110 0.000000 0.646676
O O19 0.268888 0.500000 0.751122
#
# Coordination Sequence:
#
# PCOD9152507 Si02
#       7
#     4   4   4   4   4   4   4
#     4  11  25  42  59  84 124 168 202 242 302 362
#     4  10  22  39  64  93 119 154 203 254 299 352
#     4  10  21  37  63  92 118 153 199 251 301 352
#     4   9  16  28  53  84 115 148 182 229 292 350
#     4  11  21  37  63  92 118 153 203 252 300 357
#     4   9  17  34  56  87 123 148 185 246 307 347
#     4  11  24  41  60  86 125 165 199 243 302 364
#
# _framework density 22.640324
#
# number of rings (size 3 to 8) (size 9 to 14) (size 15 to 20)
#    0.000    1.857    1.429    2.571    2.000    6.857 
#    0.000    0.714    0.000    1.714    0.000    0.000 
#    0.000    0.000    0.000    0.000    0.000    0.000 
#
# Total GULP energy -156472.517703 kJ/mol
# GULP energy per Si atom -5588.304204 kJ/mol
# Density = 2.258879 g / cm^3
# Si number density = 22.640324 Si / 1000 Ang^3
#
#
#
# Elastic Constant Matrix: (Units=GPa)
#
#
# Indices 1 2 3 4 5 6 
#
# 1 111.4842 -14.9725 15.1262 0.0000 -29.2103 0.0000
# 2 -14.9725 42.2994 -11.5426 0.0000 -4.5437 0.0000
# 3 15.1262 -11.5426 78.3915 0.0000 -38.2476 0.0000
# 4 0.0000 0.0000 0.0000 22.2008 0.0000 -2.5949
# 5 -29.2103 -4.5437 -38.2476 0.0000 42.9588 0.0000
# 6 0.0000 0.0000 0.0000 -2.5949 0.0000 60.9155
#
#
#
# Elastic Compliance Matrix: (Units=1/GPa)
#
#
# Indices 1 2 3 4 5 6 
#
# 1 0.013198 0.007949 0.006034 0.000000 0.015187 0.000000
# 2 0.007949 0.032307 0.013309 0.000000 0.020672 0.000000
# 3 0.006034 0.013309 0.028713 0.000000 0.031075 0.000000
# 4 0.000000 0.000000 0.000000 0.045269 0.000000 0.001928
# 5 0.015187 0.020672 0.031075 0.000000 0.063458 0.000000
# 6 0.000000 0.000000 0.000000 0.001928 0.000000 0.016498
#
#
# Mechanical properties :
#
#
# Convention : Reuss Voigt Hill
#
# Bulk Modulus (GPa) = 7.76387 23.26636 15.51512
# Shear Modulus (GPa) = 26.62498 41.45262 34.03880
#
# Velocity S-wave (km/s) = 3.43300 4.28357 3.88165
# Velocity P-wave (km/s) = 4.37615 5.89611 5.19205
#
# Compressibility (1/GPa) = 0.12880172
#
# Stress axis : x y z
#
# Youngs Moduli (GPa) = 75.76918 30.95309 34.82699
#
# Poissons Ratio (x) = -0.24606 -0.21013
# Poissons Ratio (y) = -0.60232 -0.46351
# Poissons Ratio (z) = -0.45715 -0.41195
#
# Static dielectric constant tensor:
#      x y z
#    x 1.828940 0.000000 -0.019630 
#    y 0.000000 1.852940 0.000000 
#    z -0.019630 0.000000 1.829360 
# 
# From -- ./inp_files/50030.got.cif
#   From: 2010.05.17/outbox.cif.g08.bks.cpg/sg10_26_cif.got.tgz:50030.got - 2010.06.03 11:33:40.
