data_PCOD9152802
_publ_section_title
;
Structure prediction by ZEFSAII (Michael W. Deem and Ramdas Pophale) SiO2 
 PCOD9152802
Probable space group: P 2/M
;
_chemical_formula_sum "Si O2"
_cell_formula_units_Z 32
_cell_length_a 15.083668
_cell_length_b 24.467752
_cell_length_c 8.556250
_cell_angle_alpha 90.000000
_cell_angle_beta 31.692562
_cell_angle_gamma 90.000000
_cell_volume 1658.985127
_symmetry_space_group_name_H-M "P 2/M"
_symmetry_group_IT_number 10
_symmetry_cell_setting 'monoclinic'
loop_
_space_group_symop_operation_xyz
x,y,z
-x,y,-z
-x,-y,-z
x,-y,z
loop_
_atom_site_type_symbol
_atom_site_label
_atom_site_fract_x
_atom_site_fract_y
_atom_site_fract_z
Si Si1 0.000000 0.630883 0.312844
Si Si2 0.198819 0.059774 0.891500
Si Si3 0.198821 0.940226 0.512040
Si Si4 0.321141 0.823361 0.705978
Si Si5 0.321142 0.823361 0.330597
Si Si6 0.316257 0.563536 0.338383
Si Si7 0.683744 0.436464 0.287154
Si Si8 1.000000 0.242273 0.312304
O O1 0.834179 0.600342 0.499628
O O2 0.000000 0.628671 0.500000
O O3 0.999999 0.694280 0.264480
O O4 0.165823 0.600343 0.002162
O O5 0.207363 0.059390 0.688956
O O6 0.293346 0.113899 0.804233
O O7 0.258740 0.000000 0.857227
O O8 0.999999 0.064867 0.229349
O O9 0.293350 0.886101 0.315724
O O10 0.258744 0.000000 0.366549
O O11 0.500000 0.803012 0.500000
O O12 0.320231 0.823134 0.519654
O O13 0.165190 0.787964 0.000121
O O14 0.165190 0.787965 0.504309
O O15 0.500000 0.803011 0.000000
O O16 0.289492 0.500000 0.331045
O O17 0.317171 0.565710 0.524243
O O18 0.500000 0.580381 0.000000
O O19 0.500000 0.419620 0.500000
O O20 0.710512 0.500000 0.199515
O O21 0.000000 0.239268 0.500000
#
# Coordination Sequence:
#
# PCOD9152802 Si02
#       8
#     4   4   4   4   4   4   4   4
#     4  11  24  40  61  87 117 156 200 245 294 343
#     4   8  14  28  53  83 113 145 183 230 286 348
#     4   8  14  28  53  83 113 145 183 230 286 348
#     4  11  22  38  61  87 114 152 194 238 294 352
#     4  11  22  38  61  87 114 152 194 238 294 352
#     4  10  21  38  62  93 127 160 194 235 285 341
#     4  10  21  38  62  93 127 160 194 235 285 341
#     4  11  25  44  61  82 114 153 200 251 294 341
#
# _framework density 19.288900999999999
#
# number of rings (size 3 to 8) (size 9 to 14) (size 15 to 20)
#    0.000    2.000    1.250    3.375    0.000    6.500 
#    0.000    0.000    0.000    3.000    0.000    0.000 
#    0.000    0.000    0.000    0.000    0.000    0.000 
#
# Total GULP energy -178739.133356 kJ/mol
# GULP energy per Si atom -5585.597917 kJ/mol
# Density = 1.924500 g / cm^3
# Si number density = 19.288901 Si / 1000 Ang^3
#
#
#
# Elastic Constant Matrix: (Units=GPa)
#
#
# Indices 1 2 3 4 5 6 
#
# 1 71.2714 56.7218 43.9126 0.0000 -27.3356 0.0000
# 2 56.7218 136.3631 92.9569 0.0000 -27.1802 0.0000
# 3 43.9126 92.9569 147.8150 0.0000 -30.0819 0.0000
# 4 0.0000 0.0000 0.0000 -4.0430 0.0000 14.3729
# 5 -27.3356 -27.1802 -30.0819 0.0000 33.9604 0.0000
# 6 0.0000 0.0000 0.0000 14.3729 0.0000 15.1173
#
#
#
# Elastic Compliance Matrix: (Units=1/GPa)
#
#
# Indices 1 2 3 4 5 6 
#
# 1 0.025869 -0.008107 0.000403 0.000000 0.014691 0.000000
# 2 -0.008107 0.015794 -0.007660 0.000000 -0.000670 0.000000
# 3 0.000403 -0.007660 0.012542 0.000000 0.005303 0.000000
# 4 0.000000 0.000000 0.000000 -0.056472 0.000000 0.053691
# 5 0.014691 -0.000670 0.005303 0.000000 0.045432 0.000000
# 6 0.000000 0.000000 0.000000 0.053691 0.000000 0.015103
#
#
# Mechanical properties :
#
#
# Convention : Reuss Voigt Hill
#
# Bulk Modulus (GPa) = 42.59580 82.51467 62.55523
# Shear Modulus (GPa) = 51.64033 19.79750 35.71891
#
# Velocity S-wave (km/s) = 5.17978 3.20717 4.30791
# Velocity P-wave (km/s) = 7.60950 7.52235 7.56605
#
# Compressibility (1/GPa) = 0.02347650
#
# Stress axis : x y z
#
# Youngs Moduli (GPa) = 38.65565 63.31543 79.73109
#
# Poissons Ratio (x) = 0.51330 -0.03212
# Poissons Ratio (y) = 0.31338 0.61077
# Poissons Ratio (z) = -0.01557 0.48502
#
# Static dielectric constant tensor:
#      x y z
#    x 1.648560 0.000000 -0.000510 
#    y 0.000000 1.682940 0.000000 
#    z -0.000510 0.000000 1.649240 
# 
# From -- ./inp_files/30598.got.cif
#   From: 2010.05.17/outbox.cif.g08.bks.cpg/sg10_16_cif.got.tgz:30598.got - 2010.06.03 11:33:40.
