data_PCOD9152948
_publ_section_title
;
Structure prediction by ZEFSAII (Michael W. Deem and Ramdas Pophale) SiO2 
 PCOD9152948
Probable space group: P 2/M
;
_chemical_formula_sum "Si O2"
_cell_formula_units_Z 28
_cell_length_a 5.092645
_cell_length_b 32.988975
_cell_length_c 9.335281
_cell_angle_alpha 90.000000
_cell_angle_beta 116.698725
_cell_angle_gamma 90.000000
_cell_volume 1401.123832
_symmetry_space_group_name_H-M "P 2/M"
_symmetry_group_IT_number 10
_symmetry_cell_setting 'monoclinic'
loop_
_space_group_symop_operation_xyz
x,y,z
-x,y,-z
-x,-y,-z
x,-y,z
loop_
_atom_site_type_symbol
_atom_site_label
_atom_site_fract_x
_atom_site_fract_y
_atom_site_fract_z
Si Si1 0.614534 0.171535 0.684286
Si Si2 0.168876 0.258752 0.187663
Si Si3 0.224976 0.130436 0.822912
Si Si4 0.154948 0.044684 0.884973
Si Si5 0.672634 0.607913 0.395567
Si Si6 0.667264 0.452597 0.890484
Si Si7 0.334255 0.684283 0.812730
O O1 0.500000 0.159944 0.500000
O O2 0.701892 0.218826 0.708029
O O3 0.355934 0.157449 0.727049
O O4 0.920450 0.149794 0.800034
O O5 0.439424 0.286144 0.208428
O O6 0.947323 0.288186 0.218479
O O7 0.000000 0.245918 0.000000
O O8 0.137744 0.083292 0.776339
O O9 0.500000 0.130102 0.000000
O O10 0.046753 0.000000 0.810674
O O11 0.500000 0.040867 0.000000
O O12 0.000000 0.054162 0.000000
O O13 0.500000 0.618321 0.500000
O O14 0.481107 0.575153 0.264087
O O15 0.719386 0.646644 0.303906
O O16 0.000000 0.591167 0.500000
O O17 0.667983 0.500000 0.847699
O O18 0.500000 0.449141 0.000000
O O19 0.000000 0.439416 0.000000
O O20 0.500000 0.670716 0.000000
#
# Coordination Sequence:
#
# PCOD9152948 Si02
#       7
#     4   4   4   4   4   4   4
#     4  12  25  39  58  87 122 156 192 245 305 358
#     4  10  21  39  62  86 111 151 204 250 294 352
#     4  11  21  38  62  86 115 155 200 244 291 355
#     4   9  17  31  55  88 117 145 193 253 300 340
#     4  12  25  39  61  95 130 162 198 252 314 366
#     4  10  22  42  67  92 123 169 218 258 301 361
#     4  10  22  40  62  85 115 155 200 247 296 360
#
# _framework density 19.983958999999999
#
# number of rings (size 3 to 8) (size 9 to 14) (size 15 to 20)
#    0.000    1.429    0.000    6.429    0.000    5.143 
#    0.000    0.000    0.000    2.571    0.000    0.000 
#    0.000    0.000    0.000    0.000    0.000    0.000 
#
# Total GULP energy -156314.946667 kJ/mol
# GULP energy per Si atom -5582.676667 kJ/mol
# Density = 1.993847 g / cm^3
# Si number density = 19.983959 Si / 1000 Ang^3
#
#
#
# Elastic Constant Matrix: (Units=GPa)
#
#
# Indices 1 2 3 4 5 6 
#
# 1 145.5602 28.1786 21.7948 0.0000 8.2059 0.0000
# 2 28.1786 89.5648 48.3132 0.0000 6.3444 0.0000
# 3 21.7948 48.3132 59.1180 0.0000 0.9417 0.0000
# 4 0.0000 0.0000 0.0000 -17.4745 0.0000 -26.8987
# 5 8.2059 6.3444 0.9417 0.0000 28.4343 0.0000
# 6 0.0000 0.0000 0.0000 -26.8987 0.0000 124.4306
#
#
#
# Elastic Compliance Matrix: (Units=1/GPa)
#
#
# Indices 1 2 3 4 5 6 
#
# 1 0.007476 -0.001347 -0.001627 0.000000 -0.001803 0.000000
# 2 -0.001347 0.020656 -0.016325 0.000000 -0.003679 0.000000
# 3 -0.001627 -0.016325 0.030807 0.000000 0.003092 0.000000
# 4 0.000000 0.000000 0.000000 -0.042938 0.000000 -0.009282
# 5 -0.001803 -0.003679 0.003092 0.000000 0.036408 0.000000
# 6 0.000000 0.000000 0.000000 -0.009282 0.000000 0.006030
#
#
# Mechanical properties :
#
#
# Convention : Reuss Voigt Hill
#
# Bulk Modulus (GPa) = 49.16130 54.53512 51.84821
# Shear Modulus (GPa) = 48.16160 40.14184 44.15172
#
# Velocity S-wave (km/s) = 4.91451 4.48672 4.70548
# Velocity P-wave (km/s) = 7.54036 7.36135 7.45140
#
# Compressibility (1/GPa) = 0.02034121
#
# Stress axis : x y z
#
# Youngs Moduli (GPa) = 133.76202 48.41263 32.45966
#
# Poissons Ratio (x) = 0.06520 0.05280
# Poissons Ratio (y) = 0.18016 0.52992
# Poissons Ratio (z) = 0.21759 0.79036
#
# Static dielectric constant tensor:
#      x y z
#    x 1.675200 0.000000 -0.010820 
#    y 0.000000 1.696580 0.000000 
#    z -0.010820 0.000000 1.529470 
# 
# From -- ./inp_files/15911.got.cif
#   From: 2010.05.17/outbox.cif.g08.bks.cpg/sg10_8_cif.got.tgz:15911.got - 2010.06.03 11:33:40.
