data_PCOD9152379
_publ_section_title
;
Structure prediction by ZEFSAII (Michael W. Deem and Ramdas Pophale) SiO2 
 PCOD9152379
Probable space group: P 2/M
;
_chemical_formula_sum "Si O2"
_cell_formula_units_Z 30
_cell_length_a 17.087422
_cell_length_b 16.245393
_cell_length_c 10.914119
_cell_angle_alpha 90.000000
_cell_angle_beta 27.737959
_cell_angle_gamma 90.000000
_cell_volume 1410.095248
_symmetry_space_group_name_H-M "P 2/M"
_symmetry_group_IT_number 10
_symmetry_cell_setting 'monoclinic'
loop_
_space_group_symop_operation_xyz
x,y,z
-x,y,-z
-x,-y,-z
x,-y,z
loop_
_atom_site_type_symbol
_atom_site_label
_atom_site_fract_x
_atom_site_fract_y
_atom_site_fract_z
Si Si1 0.813245 0.595709 0.909281
Si Si2 0.739000 0.147415 0.379186
Si Si3 0.890964 0.000000 0.318407
Si Si4 0.139470 0.122611 0.410376
Si Si5 0.217802 0.406998 0.327501
Si Si6 0.299641 0.760764 0.805413
Si Si7 0.317986 0.749035 0.301524
Si Si8 0.639534 0.909426 0.109383
O O1 0.764771 0.500000 0.006969
O O2 0.746246 0.614949 0.864611
O O3 0.015776 0.595966 0.621829
O O4 0.758383 0.670534 0.072764
O O5 0.850010 0.073270 0.275165
O O6 0.789608 0.199016 0.189345
O O7 0.708738 0.213041 0.529025
O O8 0.558657 0.104452 0.601772
O O9 0.901083 0.069974 0.414752
O O10 0.177922 0.213639 0.404330
O O11 0.000000 0.115202 0.500000
O O12 0.306662 0.092274 0.107171
O O13 0.272645 0.500000 0.269940
O O14 0.301134 0.347550 0.309959
O O15 0.500000 0.755900 0.500000
O O16 0.277624 0.830708 0.940238
O O17 0.500000 0.774975 0.000000
O O18 0.686365 0.000000 0.095474
#
# Coordination Sequence:
#
# PCOD9152379 Si02
#       8
#     4   4   2   4   4   4   4   4
#     4   9  19  40  67  95 124 160 209 264 316 373
#     4  10  22  38  56  85 123 166 210 250 310 374
#     4  10  21  37  59  79 125 162 203 265 313 364
#     4  11  23  36  59  91 118 156 213 265 313 365
#     4   9  20  38  66  97 123 155 202 260 327 379
#     4  10  23  37  59  92 126 168 221 256 303 380
#     4  11  22  36  62  91 127 162 200 259 317 374
#     4  11  21  35  61  85 119 165 217 260 305 366
#
# _framework density 21.275158999999999
#
# number of rings (size 3 to 8) (size 9 to 14) (size 15 to 20)
#    0.000    1.867    2.667    1.800    6.533    1.867 
#    0.000    1.333    0.000    2.400    0.000    0.000 
#    0.000    0.000    0.000    0.000    0.000    0.000 
#
# Total GULP energy -167041.214204 kJ/mol
# GULP energy per Si atom -5568.040473 kJ/mol
# Density = 2.122674 g / cm^3
# Si number density = 21.275159 Si / 1000 Ang^3
#
#
#
# Elastic Constant Matrix: (Units=GPa)
#
#
# Indices 1 2 3 4 5 6 
#
# 1 98.7271 75.2057 24.1686 0.0000 17.0970 0.0000
# 2 75.2057 167.0609 35.5043 0.0000 22.1874 0.0000
# 3 24.1686 35.5043 47.2189 0.0000 8.5565 0.0000
# 4 0.0000 0.0000 0.0000 -7.5980 0.0000 -8.7096
# 5 17.0970 22.1874 8.5565 0.0000 12.7755 0.0000
# 6 0.0000 0.0000 0.0000 -8.7096 0.0000 31.7014
#
#
#
# Elastic Compliance Matrix: (Units=1/GPa)
#
#
# Indices 1 2 3 4 5 6 
#
# 1 0.016959 -0.005620 -0.002402 0.000000 -0.011327 0.000000
# 2 -0.005620 0.010318 -0.003412 0.000000 -0.008115 0.000000
# 3 -0.002402 -0.003412 0.026537 0.000000 -0.008634 0.000000
# 4 0.000000 0.000000 0.000000 -0.100091 0.000000 -0.027499
# 5 -0.011327 -0.008115 -0.008634 0.000000 0.113309 0.000000
# 6 0.000000 0.000000 0.000000 -0.027499 0.000000 0.023989
#
#
# Mechanical properties :
#
#
# Convention : Reuss Voigt Hill
#
# Bulk Modulus (GPa) = 32.31263 64.75158 48.53210
# Shear Modulus (GPa) = 40.25576 19.25099 29.75337
#
# Velocity S-wave (km/s) = 4.35460 3.01135 3.74371
# Velocity P-wave (km/s) = 6.36430 6.52628 6.44580
#
# Compressibility (1/GPa) = 0.03094765
#
# Stress axis : x y z
#
# Youngs Moduli (GPa) = 58.96410 96.91430 37.68269
#
# Poissons Ratio (x) = 0.54463 0.09053
# Poissons Ratio (y) = 0.33136 0.12856
# Poissons Ratio (z) = 0.14166 0.33064
#
# Static dielectric constant tensor:
#      x y z
#    x 1.765270 0.000000 -0.029910 
#    y 0.000000 1.762940 0.000000 
#    z -0.029910 0.000000 1.850530 
# 
# From -- ./inp_files/53895.got.cif
#   From: 2010.05.17/outbox.cif.g08.bks.cpg/sg10_27_cif.got.tgz:53895.got - 2010.06.03 11:33:40.
