data_PCOD9152893
_publ_section_title
;
Structure prediction by ZEFSAII (Michael W. Deem and Ramdas Pophale) SiO2 
 PCOD9152893
Probable space group: P 2/M
;
_chemical_formula_sum "Si O2"
_cell_formula_units_Z 28
_cell_length_a 24.324006
_cell_length_b 8.261950
_cell_length_c 8.073246
_cell_angle_alpha 90.000000
_cell_angle_beta 42.961610
_cell_angle_gamma 90.000000
_cell_volume 1105.699011
_symmetry_space_group_name_H-M "P 2/M"
_symmetry_group_IT_number 10
_symmetry_cell_setting 'monoclinic'
loop_
_space_group_symop_operation_xyz
x,y,z
-x,y,-z
-x,-y,-z
x,-y,z
loop_
_atom_site_type_symbol
_atom_site_label
_atom_site_fract_x
_atom_site_fract_y
_atom_site_fract_z
Si Si1 0.979270 0.185320 0.303774
Si Si2 0.555270 0.311039 0.026344
Si Si3 0.165785 0.313124 0.181974
Si Si4 0.114127 0.316716 0.790445
Si Si5 0.696468 0.812673 0.915602
Si Si6 0.410044 0.192610 0.519874
Si Si7 0.256762 0.811376 0.666241
O O1 0.922534 0.254299 0.572303
O O2 0.921250 0.197636 0.269323
O O3 0.002198 0.000000 0.282905
O O4 0.056645 0.288140 0.077217
O O5 0.569795 0.500000 0.964461
O O6 0.639483 0.228670 0.886580
O O7 0.492538 0.287050 0.316058
O O8 0.500000 0.240841 0.000000
O O9 0.165963 0.500000 0.131098
O O10 0.225514 0.291713 0.208825
O O11 0.205585 0.207341 0.949672
O O12 0.103960 0.500000 0.753347
O O13 0.204667 0.281286 0.645705
O O14 0.636694 0.789346 0.204756
O O15 0.721351 0.000000 0.853894
O O16 0.345233 0.247869 0.523534
O O17 0.426010 0.000000 0.465265
O O18 0.261039 0.000000 0.613996
#
# Coordination Sequence:
#
# PCOD9152893 Si02
#       7
#     4   4   4   4   4   4   4
#     4  11  22  39  60  83 114 155 195 233 284 344
#     4  11  24  38  54  82 117 149 186 232 280 331
#     4  11  22  38  60  88 117 147 188 238 288 337
#     4  11  22  38  59  86 117 151 192 239 287 336
#     4  10  21  39  61  84 111 146 188 231 281 342
#     4   9  20  38  60  83 109 144 187 231 277 335
#     4  10  21  39  60  86 117 150 190 235 285 343
#
# _framework density 25.323346000000001
#
# number of rings (size 3 to 8) (size 9 to 14) (size 15 to 20)
#    0.000    1.571    0.000    7.286    0.000    8.000 
#    0.000    5.714    0.000    0.000    0.000    0.000 
#    0.000    0.000    0.000    0.000    0.000    0.000 
#
# Total GULP energy -156896.698457 kJ/mol
# GULP energy per Si atom -5603.453516 kJ/mol
# Density = 2.526571 g / cm^3
# Si number density = 25.323346 Si / 1000 Ang^3
#
#
#
# Elastic Constant Matrix: (Units=GPa)
#
#
# Indices 1 2 3 4 5 6 
#
# 1 129.9753 8.3960 1.6866 0.0000 -16.6023 0.0000
# 2 8.3960 84.7291 3.7928 0.0000 -15.4190 0.0000
# 3 1.6866 3.7928 90.0533 0.0000 -15.0383 0.0000
# 4 0.0000 0.0000 0.0000 31.6237 0.0000 4.5532
# 5 -16.6023 -15.4190 -15.0383 0.0000 45.8658 0.0000
# 6 0.0000 0.0000 0.0000 4.5532 0.0000 43.9093
#
#
#
# Elastic Compliance Matrix: (Units=1/GPa)
#
#
# Indices 1 2 3 4 5 6 
#
# 1 0.008084 -0.000280 0.000353 0.000000 0.002947 0.000000
# 2 -0.000280 0.012584 0.000174 0.000000 0.004186 0.000000
# 3 0.000353 0.000174 0.011766 0.000000 0.004044 0.000000
# 4 0.000000 0.000000 0.000000 0.032101 0.000000 -0.003329
# 5 0.002947 0.004186 0.004044 0.000000 0.025603 0.000000
# 6 0.000000 0.000000 0.000000 -0.003329 0.000000 0.023119
#
#
# Mechanical properties :
#
#
# Convention : Reuss Voigt Hill
#
# Bulk Modulus (GPa) = 30.37045 36.94540 33.65793
# Shear Modulus (GPa) = 40.40738 43.67192 42.03965
#
# Velocity S-wave (km/s) = 3.99890 4.15730 4.07887
# Velocity P-wave (km/s) = 5.77414 6.13721 5.95844
#
# Compressibility (1/GPa) = 0.03292674
#
# Stress axis : x y z
#
# Youngs Moduli (GPa) = 123.70416 79.46538 84.99129
#
# Poissons Ratio (x) = 0.02229 -0.02997
# Poissons Ratio (y) = 0.03469 -0.01481
# Poissons Ratio (z) = -0.04362 -0.01385
#
# Static dielectric constant tensor:
#      x y z
#    x 2.071230 0.000000 0.089250 
#    y 0.000000 1.849480 0.000000 
#    z 0.089250 0.000000 2.059150 
# 
# From -- ./inp_files/37052.got.cif
#   From: 2010.05.17/outbox.cif.g08.bks.cpg/sg10_19_cif.got.tgz:37052.got - 2010.06.03 11:33:40.
