data_PCOD9152112
_publ_section_title
;
Structure prediction by ZEFSAII (Michael W. Deem and Ramdas Pophale) SiO2 
 PCOD9152112
Probable space group: P 2/M
;
_chemical_formula_sum "Si O2"
_cell_formula_units_Z 28
_cell_length_a 8.777280
_cell_length_b 14.178488
_cell_length_c 10.885272
_cell_angle_alpha 90.000000
_cell_angle_beta 70.407697
_cell_angle_gamma 90.000000
_cell_volume 1276.225208
_symmetry_space_group_name_H-M "P 2/M"
_symmetry_group_IT_number 10
_symmetry_cell_setting 'monoclinic'
loop_
_space_group_symop_operation_xyz
x,y,z
-x,y,-z
-x,-y,-z
x,-y,z
loop_
_atom_site_type_symbol
_atom_site_label
_atom_site_fract_x
_atom_site_fract_y
_atom_site_fract_z
Si Si1 0.742692 0.892328 0.302070
Si Si2 0.755862 0.338569 0.845195
Si Si3 0.882563 0.500000 0.651930
Si Si4 0.324254 0.692456 0.609731
Si Si5 0.399143 0.613411 0.853892
Si Si6 0.927010 0.835608 0.895828
Si Si7 0.597016 0.895518 0.084637
Si Si8 0.686869 0.500000 0.491404
O O1 0.738229 0.799214 0.387980
O O2 0.925623 0.891497 0.202418
O O3 0.704841 0.000000 0.354269
O O4 0.622347 0.866976 0.219586
O O5 0.873790 0.410582 0.743435
O O6 0.579180 0.345547 0.829863
O O7 0.847688 0.239660 0.826287
O O8 0.712102 0.364815 0.997831
O O9 0.708833 0.500000 0.629731
O O10 0.000000 0.500000 0.500000
O O11 0.500000 0.694932 0.500000
O O12 0.333407 0.662495 0.749621
O O13 0.241549 0.599684 0.573266
O O14 0.401972 0.500000 0.841362
O O15 0.778688 0.897165 0.984142
O O16 0.000000 0.788022 0.000000
O O17 0.524460 0.000000 0.114091
O O18 0.500000 0.844293 0.000000
O O19 0.500000 0.500000 0.500000
#
# Coordination Sequence:
#
# PCOD9152112 Si02
#       8
#     4   4   2   4   4   4   4   2
#     4  10  22  40  61  89 126 174 222 267 330 389
#     4  11  22  38  61  92 128 171 216 264 321 384
#     4  12  26  42  61  92 131 172 209 264 324 389
#     4  11  23  39  67  97 127 171 219 271 324 398
#     4  11  20  39  65  94 132 170 218 270 328 388
#     4  10  21  36  57  87 128 169 213 259 329 387
#     4   9  18  34  58  89 122 157 206 271 330 384
#     4  10  22  43  66  89 123 170 219 251 315 400
#
# _framework density 21.939699999999998
#
# number of rings (size 3 to 8) (size 9 to 14) (size 15 to 20)
#    0.000    1.571    2.143    4.286    6.000    2.000 
#    0.000    0.357    0.000    0.000    0.000    4.000 
#    0.000    0.000    0.000    0.000    0.000    0.000 
#
# Total GULP energy -156001.727561 kJ/mol
# GULP energy per Si atom -5571.490270 kJ/mol
# Density = 2.188976 g / cm^3
# Si number density = 21.939700 Si / 1000 Ang^3
#
#
#
# Elastic Constant Matrix: (Units=GPa)
#
#
# Indices 1 2 3 4 5 6 
#
# 1 53.4416 13.2078 4.7229 0.0000 -7.0124 0.0000
# 2 13.2078 170.1030 19.6465 0.0000 10.1586 0.0000
# 3 4.7229 19.6465 79.6221 0.0000 -11.8470 0.0000
# 4 0.0000 0.0000 0.0000 -1.2994 0.0000 -5.9467
# 5 -7.0124 10.1586 -11.8470 0.0000 28.3204 0.0000
# 6 0.0000 0.0000 0.0000 -5.9467 0.0000 17.6911
#
#
#
# Elastic Compliance Matrix: (Units=1/GPa)
#
#
# Indices 1 2 3 4 5 6 
#
# 1 0.019914 -0.001900 0.000131 0.000000 0.005667 0.000000
# 2 -0.001900 0.006478 -0.002028 0.000000 -0.003642 0.000000
# 3 0.000131 -0.002028 0.014039 0.000000 0.006632 0.000000
# 4 0.000000 0.000000 0.000000 -0.303185 0.000000 -0.101913
# 5 0.005667 -0.003642 0.006632 0.000000 0.040794 0.000000
# 6 0.000000 0.000000 0.000000 -0.101913 0.000000 0.022269
#
#
# Mechanical properties :
#
#
# Convention : Reuss Voigt Hill
#
# Bulk Modulus (GPa) = 30.45350 42.03567 36.24459
# Shear Modulus (GPa) = -27.60098 26.64838 -0.47630
#
# Velocity S-wave (km/s) = -3.55073 3.48892 -0.46644
# Velocity P-wave (km/s) = 1.70281 5.95242 4.03310
#
# Compressibility (1/GPa) = 0.03283694
#
# Stress axis : x y z
#
# Youngs Moduli (GPa) = 50.21705 154.36838 71.23149
#
# Poissons Ratio (x) = 0.29326 -0.00931
# Poissons Ratio (y) = 0.09540 0.14443
# Poissons Ratio (z) = -0.00657 0.31301
#
# Static dielectric constant tensor:
#      x y z
#    x 1.881800 0.000000 -0.014100 
#    y 0.000000 1.872210 0.000000 
#    z -0.014100 0.000000 1.816690 
# 
# From -- ./inp_files/42685.got.cif
#   From: 2010.05.17/outbox.cif.g08.bks.cpg/sg10_22_cif.got.tgz:42685.got - 2010.06.03 11:33:40.
