data_PCOD9152896
_publ_section_title
;
Structure prediction by ZEFSAII (Michael W. Deem and Ramdas Pophale) SiO2 
 PCOD9152896
Probable space group: P 2/M
;
_chemical_formula_sum "Si O2"
_cell_formula_units_Z 18
_cell_length_a 5.450403
_cell_length_b 25.689222
_cell_length_c 5.414623
_cell_angle_alpha 90.000000
_cell_angle_beta 98.913595
_cell_angle_gamma 90.000000
_cell_volume 748.981246
_symmetry_space_group_name_H-M "P 2/M"
_symmetry_group_IT_number 10
_symmetry_cell_setting 'monoclinic'
loop_
_space_group_symop_operation_xyz
x,y,z
-x,y,-z
-x,-y,-z
x,-y,z
loop_
_atom_site_type_symbol
_atom_site_label
_atom_site_fract_x
_atom_site_fract_y
_atom_site_fract_z
Si Si1 0.721291 0.777439 0.341144
Si Si2 0.162820 0.111804 0.777151
Si Si3 0.159655 0.666709 0.779071
Si Si4 0.832826 0.000000 0.225555
Si Si5 0.276570 0.555927 0.662338
O O1 0.500000 0.777948 0.500000
O O2 0.704486 0.832574 0.200792
O O3 0.702597 0.721968 0.204154
O O4 0.000000 0.777318 0.500000
O O5 0.000000 0.112256 0.500000
O O6 0.302479 0.056017 0.786735
O O7 0.000000 0.110770 0.000000
O O8 0.297601 0.611409 0.797326
O O9 0.000000 0.666632 0.500000
O O10 0.000000 0.666836 0.000000
O O11 0.000000 0.000000 0.500000
O O12 0.000000 0.000000 0.000000
O O13 0.500000 0.555236 0.500000
O O14 0.285671 0.500000 0.801497
O O15 0.000000 0.556340 0.500000
#
# Coordination Sequence:
#
# PCOD9152896 Si02
#       5
#     4   4   4   2   4
#     4  10  21  39  60  86 117 153 194 240 291 346
#     4   9  17  32  53  81 112 148 189 234 285 340
#     4  10  21  39  61  87 118 154 195 241 291 346
#     4   8  14  26  49  76 108 144 184 230 280 336
#     4   9  18  35  58  85 117 153 193 238 288 343
#
# _framework density 24.032646
#
# number of rings (size 3 to 8) (size 9 to 14) (size 15 to 20)
#    0.000    2.667    0.000    1.333    0.000    0.444 
#    0.000   31.667    0.000   12.000    0.000   23.333 
#    0.000    0.000    0.000    0.000    0.000    0.000 
#
# Total GULP energy -100348.492439 kJ/mol
# GULP energy per Si atom -5574.916247 kJ/mol
# Density = 2.397795 g / cm^3
# Si number density = 24.032646 Si / 1000 Ang^3
#
#
#
# Elastic Constant Matrix: (Units=GPa)
#
#
# Indices 1 2 3 4 5 6 
#
# 1 133.0134 39.7992 59.0953 0.0000 13.8665 0.0000
# 2 39.7992 387.9739 45.0655 0.0000 -25.1849 0.0000
# 3 59.0953 45.0655 148.1190 0.0000 5.1169 0.0000
# 4 0.0000 0.0000 0.0000 -208.6458 0.0000 72.6722
# 5 13.8665 -25.1849 5.1169 0.0000 62.6573 0.0000
# 6 0.0000 0.0000 0.0000 72.6722 0.0000 -104.0068
#
#
#
# Elastic Compliance Matrix: (Units=1/GPa)
#
#
# Indices 1 2 3 4 5 6 
#
# 1 0.009505 -0.000704 -0.003505 0.000000 -0.002100 0.000000
# 2 -0.000704 0.002808 -0.000620 0.000000 0.001335 0.000000
# 3 -0.003505 -0.000620 0.008344 0.000000 -0.000155 0.000000
# 4 0.000000 0.000000 0.000000 -0.006334 0.000000 -0.004426
# 5 -0.002100 0.001335 -0.000155 0.000000 0.016974 0.000000
# 6 0.000000 0.000000 0.000000 -0.004426 0.000000 -0.012707
#
#
# Mechanical properties :
#
#
# Convention : Reuss Voigt Hill
#
# Bulk Modulus (GPa) = 90.91999 106.33626 98.62812
# Shear Modulus (GPa) = 156.66949 -14.98930 70.84009
#
# Velocity S-wave (km/s) = 8.08281 -2.50012 5.43513
# Velocity P-wave (km/s) = 11.18137 6.00071 8.97306
#
# Compressibility (1/GPa) = 0.01099868
#
# Stress axis : x y z
#
# Youngs Moduli (GPa) = 105.20654 356.07682 119.84994
#
# Poissons Ratio (x) = 0.25075 0.42013
# Poissons Ratio (y) = 0.07409 0.07426
# Poissons Ratio (z) = 0.36880 0.22063
#
# Static dielectric constant tensor:
#      x y z
#    x 1.904370 0.000000 0.100960 
#    y 0.000000 2.119490 0.000000 
#    z 0.100960 0.000000 1.819360 
# 
# From -- ./inp_files/2027.got.cif
#   From: 2010.05.17/outbox.cif.g08.bks.cpg/sg10_2_cif.got.tgz:2027.got - 2010.06.03 11:33:40.
