data_PCOD9152834
_publ_section_title
;
Structure prediction by ZEFSAII (Michael W. Deem and Ramdas Pophale) SiO2 
 PCOD9152834
Probable space group: P 2/M
;
_chemical_formula_sum "Si O2"
_cell_formula_units_Z 16
_cell_length_a 8.584660
_cell_length_b 19.577467
_cell_length_c 7.432586
_cell_angle_alpha 90.000000
_cell_angle_beta 35.580848
_cell_angle_gamma 90.000000
_cell_volume 726.827644
_symmetry_space_group_name_H-M "P 2/M"
_symmetry_group_IT_number 10
_symmetry_cell_setting 'monoclinic'
loop_
_space_group_symop_operation_xyz
x,y,z
-x,y,-z
-x,-y,-z
x,-y,z
loop_
_atom_site_type_symbol
_atom_site_label
_atom_site_fract_x
_atom_site_fract_y
_atom_site_fract_z
Si Si1 0.734249 0.738843 0.644593
Si Si2 0.234671 0.134146 0.637604
Si Si3 0.103655 0.500000 0.190501
Si Si4 0.267909 0.000000 0.363843
Si Si5 0.419554 0.595647 0.365881
O O1 0.819490 0.801014 0.437425
O O2 0.615008 0.674453 0.649693
O O3 0.000000 0.716319 0.500000
O O4 0.500000 0.762425 0.000000
O O5 0.500000 0.149393 0.500000
O O6 0.277807 0.067011 0.477765
O O7 0.000000 0.122304 0.000000
O O8 0.337972 0.559236 0.966399
O O9 0.861839 0.557961 0.406982
O O10 0.000000 0.000000 0.500000
O O11 0.500000 0.000000 0.000000
O O12 0.500000 0.586019 0.500000
#
# Coordination Sequence:
#
# PCOD9152834 Si02
#       5
#     4   4   2   2   4
#     4  12  26  44  63  94 134 174 215 271 336 390
#     4  12  25  45  71 101 133 177 228 270 311 382
#     4  10  21  38  64  92 120 160 216 272 324 388
#     4  12  24  44  72 106 144 178 210 266 332 384
#     4  11  21  39  64  90 121 165 217 268 323 393
#
# _framework density 22.013470000000002
#
# number of rings (size 3 to 8) (size 9 to 14) (size 15 to 20)
#    0.000    0.500    0.000   10.500    0.000    2.000 
#    0.000   12.500    0.000    0.000    0.000    0.000 
#    0.000    0.000    0.000    0.000    0.000    0.000 
#
# Total GULP energy -89146.352068 kJ/mol
# GULP energy per Si atom -5571.647004 kJ/mol
# Density = 2.196337 g / cm^3
# Si number density = 22.013470 Si / 1000 Ang^3
#
#
#
# Elastic Constant Matrix: (Units=GPa)
#
#
# Indices 1 2 3 4 5 6 
#
# 1 66.4682 26.7396 53.4713 0.0000 -1.2388 0.0000
# 2 26.7396 171.8965 38.4500 0.0000 23.5224 0.0000
# 3 53.4713 38.4500 194.7843 0.0000 -12.4830 0.0000
# 4 0.0000 0.0000 0.0000 26.9294 0.0000 -0.4904
# 5 -1.2388 23.5224 -12.4830 0.0000 47.8627 0.0000
# 6 0.0000 0.0000 0.0000 -0.4904 0.0000 46.3064
#
#
#
# Elastic Compliance Matrix: (Units=1/GPa)
#
#
# Indices 1 2 3 4 5 6 
#
# 1 0.019923 -0.001990 -0.005065 0.000000 0.000172 0.000000
# 2 -0.001990 0.006867 -0.001046 0.000000 -0.003699 0.000000
# 3 -0.005065 -0.001046 0.006870 0.000000 0.002175 0.000000
# 4 0.000000 0.000000 0.000000 0.037141 0.000000 0.000393
# 5 0.000172 -0.003699 0.002175 0.000000 0.023283 0.000000
# 6 0.000000 0.000000 0.000000 0.000393 0.000000 0.021599
#
#
# Mechanical properties :
#
#
# Convention : Reuss Voigt Hill
#
# Bulk Modulus (GPa) = 57.28116 74.49678 65.88897
# Shear Modulus (GPa) = 36.30888 45.18558 40.74723
#
# Velocity S-wave (km/s) = 4.06568 4.53551 4.30701
# Velocity P-wave (km/s) = 6.93665 7.83216 7.39797
#
# Compressibility (1/GPa) = 0.01745775
#
# Stress axis : x y z
#
# Youngs Moduli (GPa) = 50.19211 145.61818 145.55216
#
# Poissons Ratio (x) = 0.28975 0.73729
# Poissons Ratio (y) = 0.09987 0.15231
# Poissons Ratio (z) = 0.25425 0.15238
#
# Static dielectric constant tensor:
#      x y z
#    x 1.849350 0.000000 0.056780 
#    y 0.000000 1.700030 0.000000 
#    z 0.056780 0.000000 1.770600 
# 
# From -- ./inp_files/19496.got.cif
#   From: 2010.05.17/outbox.cif.g08.bks.cpg/sg10_10_cif.got.tgz:19496.got - 2010.06.03 11:33:40.
