data_PCOD9152481
_publ_section_title
;
Structure prediction by ZEFSAII (Michael W. Deem and Ramdas Pophale) SiO2 
 PCOD9152481
Probable space group: P 2/M
;
_chemical_formula_sum "Si O2"
_cell_formula_units_Z 24
_cell_length_a 14.834009
_cell_length_b 14.658605
_cell_length_c 8.748005
_cell_angle_alpha 90.000000
_cell_angle_beta 139.155019
_cell_angle_gamma 90.000000
_cell_volume 1244.078283
_symmetry_space_group_name_H-M "P 2/M"
_symmetry_group_IT_number 10
_symmetry_cell_setting 'monoclinic'
loop_
_space_group_symop_operation_xyz
x,y,z
-x,y,-z
-x,-y,-z
x,-y,z
loop_
_atom_site_type_symbol
_atom_site_label
_atom_site_fract_x
_atom_site_fract_y
_atom_site_fract_z
Si Si1 0.371361 0.259846 0.452207
Si Si2 0.803790 0.101712 0.183326
Si Si3 0.485498 0.104386 0.804154
Si Si4 0.363691 0.391863 0.724268
Si Si5 0.890645 0.719277 0.481442
Si Si6 0.918879 0.192404 0.041152
O O1 0.500000 0.264729 0.500000
O O2 0.393789 0.171947 0.589791
O O3 0.374216 0.344927 0.571684
O O4 0.223719 0.243609 0.183466
O O5 0.841705 0.183424 0.347114
O O6 0.831635 0.000000 0.279871
O O7 0.641030 0.106947 0.940915
O O8 0.882276 0.120273 0.126170
O O9 0.434881 0.000000 0.735124
O O10 0.500000 0.131671 0.000000
O O11 0.344280 0.500000 0.685702
O O12 0.237633 0.344342 0.650343
O O13 0.500000 0.374759 0.000000
O O14 0.000000 0.680906 0.500000
O O15 0.973743 0.738404 0.742529
O O16 0.000000 0.153671 0.000000
#
# Coordination Sequence:
#
# PCOD9152481 Si02
#       6
#     4   4   4   4   4   4
#     4  12  23  40  68  91 129 168 203 263 319 369
#     4  10  21  39  62  91 127 171 215 257 300 363
#     4  10  21  37  61  91 123 169 220 257 302 368
#     4  11  25  45  70  96 121 157 214 266 312 377
#     4  10  22  41  66  90 129 168 206 252 312 377
#     4  11  23  39  59  93 126 172 205 247 309 376
#
# _framework density 19.29139
#
# number of rings (size 3 to 8) (size 9 to 14) (size 15 to 20)
#    0.000    1.333    3.333    2.500    2.333    5.000 
#    0.000    1.667    0.000    0.000    0.000    0.000 
#    0.000    0.000    0.000    0.000    0.000    0.000 
#
# Total GULP energy -134092.931945 kJ/mol
# GULP energy per Si atom -5587.205498 kJ/mol
# Density = 1.924748 g / cm^3
# Si number density = 19.291390 Si / 1000 Ang^3
#
#
#
# Elastic Constant Matrix: (Units=GPa)
#
#
# Indices 1 2 3 4 5 6 
#
# 1 108.6624 53.3727 27.2032 0.0000 3.1713 0.0000
# 2 53.3727 116.6770 71.4032 0.0000 2.0183 0.0000
# 3 27.2032 71.4032 119.3187 0.0000 9.8056 0.0000
# 4 0.0000 0.0000 0.0000 -32.5156 0.0000 27.9278
# 5 3.1713 2.0183 9.8056 0.0000 29.0094 0.0000
# 6 0.0000 0.0000 0.0000 27.9278 0.0000 -3.8834
#
#
#
# Elastic Compliance Matrix: (Units=1/GPa)
#
#
# Indices 1 2 3 4 5 6 
#
# 1 0.011967 -0.006067 0.001003 0.000000 -0.001225 0.000000
# 2 -0.006067 0.016695 -0.008812 0.000000 0.002480 0.000000
# 3 0.001003 -0.008812 0.013766 0.000000 -0.004150 0.000000
# 4 0.000000 0.000000 0.000000 0.005941 0.000000 0.042723
# 5 -0.001225 0.002480 -0.004150 0.000000 0.035836 0.000000
# 6 0.000000 0.000000 0.000000 0.042723 0.000000 0.049742
#
#
# Mechanical properties :
#
#
# Convention : Reuss Voigt Hill
#
# Bulk Modulus (GPa) = 68.12937 72.06848 70.09893
# Shear Modulus (GPa) = 30.01359 11.36735 20.69047
#
# Velocity S-wave (km/s) = 3.94865 2.43007 3.27849
# Velocity P-wave (km/s) = 7.49544 6.73146 7.12370
#
# Compressibility (1/GPa) = 0.01467796
#
# Stress axis : x y z
#
# Youngs Moduli (GPa) = 83.56003 59.89649 72.64063
#
# Poissons Ratio (x) = 0.36339 -0.07285
# Poissons Ratio (y) = 0.50695 0.64008
# Poissons Ratio (z) = -0.08380 0.52778
#
# Static dielectric constant tensor:
#      x y z
#    x 1.709080 0.000000 0.005230 
#    y 0.000000 1.648030 0.000000 
#    z 0.005230 0.000000 1.678440 
# 
# From -- ./inp_files/29283.got.cif
#   From: 2010.05.17/outbox.cif.g08.bks.cpg/sg10_15_cif.got.tgz:29283.got - 2010.06.03 11:33:40.
