data_PCOD9152804
_publ_section_title
;
Structure prediction by ZEFSAII (Michael W. Deem and Ramdas Pophale) SiO2 
 PCOD9152804
Probable space group: P 2/M
;
_chemical_formula_sum "Si O2"
_cell_formula_units_Z 28
_cell_length_a 5.291465
_cell_length_b 32.004586
_cell_length_c 9.396729
_cell_angle_alpha 90.000000
_cell_angle_beta 49.822568
_cell_angle_gamma 90.000000
_cell_volume 1215.868874
_symmetry_space_group_name_H-M "P 2/M"
_symmetry_group_IT_number 10
_symmetry_cell_setting 'monoclinic'
loop_
_space_group_symop_operation_xyz
x,y,z
-x,y,-z
-x,-y,-z
x,-y,z
loop_
_atom_site_type_symbol
_atom_site_label
_atom_site_fract_x
_atom_site_fract_y
_atom_site_fract_z
Si Si1 0.772712 0.403966 0.272541
Si Si2 0.405166 0.741931 0.192778
Si Si3 0.897297 0.046448 0.872147
Si Si4 0.271977 0.547875 0.272614
Si Si5 0.801647 0.691394 0.279820
Si Si6 0.537202 0.169159 0.705083
Si Si7 0.023582 0.865795 0.714787
O O1 0.500000 0.403744 0.500000
O O2 0.573181 0.423266 0.213717
O O3 0.887820 0.356389 0.212778
O O4 0.072975 0.432927 0.213534
O O5 0.668341 0.714435 0.186081
O O6 0.368291 0.783036 0.302122
O O7 0.088969 0.714175 0.265327
O O8 0.500000 0.757093 0.000000
O O9 0.058378 0.085479 0.733624
O O10 0.996888 0.000000 0.785047
O O11 0.500000 0.049246 0.000000
O O12 0.000000 0.049659 0.000000
O O13 0.374053 0.500000 0.214098
O O14 0.000000 0.547850 0.500000
O O15 0.500000 0.690846 0.500000
O O16 0.751670 0.149807 0.498379
O O17 0.162248 0.161610 0.794293
O O18 0.653376 0.143798 0.799955
#
# Coordination Sequence:
#
# PCOD9152804 Si02
#       7
#     4   4   4   4   4   4   4
#     4   9  17  30  46  76 111 149 204 243 300 373
#     4  12  26  43  63  91 124 161 211 269 325 380
#     4  10  21  38  62  93 130 169 208 256 311 363
#     4   9  15  24  43  71 114 157 189 239 305 371
#     4  11  24  40  66  88 121 170 209 264 316 385
#     4  10  23  39  61  86 120 158 202 261 309 371
#     4  10  21  39  62  88 121 164 207 250 299 378
#
# _framework density 23.028797000000001
#
# number of rings (size 3 to 8) (size 9 to 14) (size 15 to 20)
#    0.000    1.857    0.000    3.857    6.000    5.714 
#    0.000    2.857    0.000    0.000    0.000    0.000 
#    0.000   40.000    0.000    0.000    0.000    0.000 
#
# Total GULP energy -156501.020228 kJ/mol
# GULP energy per Si atom -5589.322151 kJ/mol
# Density = 2.297638 g / cm^3
# Si number density = 23.028797 Si / 1000 Ang^3
#
#
#
# Elastic Constant Matrix: (Units=GPa)
#
#
# Indices 1 2 3 4 5 6 
#
# 1 197.4055 74.2356 16.7980 0.0000 29.5558 0.0000
# 2 74.2356 216.0807 27.5497 0.0000 10.3120 0.0000
# 3 16.7980 27.5497 79.2443 0.0000 14.4762 0.0000
# 4 0.0000 0.0000 0.0000 19.7478 0.0000 -0.1010
# 5 29.5558 10.3120 14.4762 0.0000 17.8126 0.0000
# 6 0.0000 0.0000 0.0000 -0.1010 0.0000 46.3186
#
#
#
# Elastic Compliance Matrix: (Units=1/GPa)
#
#
# Indices 1 2 3 4 5 6 
#
# 1 0.007664 -0.002216 0.001450 0.000000 -0.012612 0.000000
# 2 -0.002216 0.005527 -0.001807 0.000000 0.001946 0.000000
# 3 0.001450 -0.001807 0.015488 0.000000 -0.013946 0.000000
# 4 0.000000 0.000000 0.000000 0.050639 0.000000 0.000110
# 5 -0.012612 0.001946 -0.013946 0.000000 0.087273 0.000000
# 6 0.000000 0.000000 0.000000 0.000110 0.000000 0.021590
#
#
# Mechanical properties :
#
#
# Convention : Reuss Voigt Hill
#
# Bulk Modulus (GPa) = 42.49598 81.09969 61.79783
# Shear Modulus (GPa) = 24.85442 41.71896 33.28669
#
# Velocity S-wave (km/s) = 3.28880 4.26091 3.80602
# Velocity P-wave (km/s) = 5.73716 7.71364 6.79762
#
# Compressibility (1/GPa) = 0.02353164
#
# Stress axis : x y z
#
# Youngs Moduli (GPa) = 130.48158 180.93852 64.56697
#
# Poissons Ratio (x) = 0.40095 -0.09360
# Poissons Ratio (y) = 0.28914 0.11668
# Poissons Ratio (z) = -0.18916 0.32698
#
# Static dielectric constant tensor:
#      x y z
#    x 1.918080 0.000000 0.035290 
#    y 0.000000 1.827110 0.000000 
#    z 0.035290 0.000000 1.941330 
# 
# From -- ./inp_files/15868.got.cif
#   From: 2010.05.17/outbox.cif.g08.bks.cpg/sg10_8_cif.got.tgz:15868.got - 2010.06.03 11:33:40.
