data_PCOD9152416
_publ_section_title
;
Structure prediction by ZEFSAII (Michael W. Deem and Ramdas Pophale) SiO2 
 PCOD9152416
Probable space group: P 2/M
;
_chemical_formula_sum "Si O2"
_cell_formula_units_Z 32
_cell_length_a 13.319910
_cell_length_b 8.293679
_cell_length_c 30.997841
_cell_angle_alpha 90.000000
_cell_angle_beta 27.746679
_cell_angle_gamma 90.000000
_cell_volume 1594.258076
_symmetry_space_group_name_H-M "P 2/M"
_symmetry_group_IT_number 10
_symmetry_cell_setting 'monoclinic'
loop_
_space_group_symop_operation_xyz
x,y,z
-x,y,-z
-x,-y,-z
x,-y,z
loop_
_atom_site_type_symbol
_atom_site_label
_atom_site_fract_x
_atom_site_fract_y
_atom_site_fract_z
Si Si1 0.636799 0.311224 0.223993
Si Si2 0.062481 0.804603 0.110696
Si Si3 0.070885 0.196694 0.206611
Si Si4 0.401148 0.809320 0.233671
Si Si5 0.069090 0.312286 0.577729
Si Si6 0.511535 0.196742 0.897493
Si Si7 0.252614 0.195129 0.597441
Si Si8 0.230302 0.810632 0.430848
O O1 0.649532 0.500000 0.210783
O O2 0.586008 0.223683 0.198151
O O3 0.434058 0.275023 0.332366
O O4 0.853706 0.252320 0.164308
O O5 0.058938 0.749087 0.161825
O O6 0.061789 0.000000 0.111283
O O7 0.283915 0.751136 0.003749
O O8 0.288277 0.248168 0.148747
O O9 0.867603 0.245791 0.313121
O O10 0.074200 0.000000 0.204618
O O11 0.456706 0.753076 0.164211
O O12 0.183082 0.725136 0.332806
O O13 0.356173 0.000000 0.248952
O O14 0.110669 0.500000 0.555340
O O15 0.125527 0.260571 0.604619
O O16 0.210555 0.214343 0.489507
O O17 0.512539 0.000000 0.897180
O O18 0.500000 0.247303 0.500000
O O19 0.246288 0.000000 0.598111
O O20 0.000000 0.751006 0.500000
O O21 0.248223 0.000000 0.413431
#
# Coordination Sequence:
#
# PCOD9152416 Si02
#       8
#     4   4   4   4   4   4   4   4
#     4  12  26  42  59  88 129 164 200 251 309 368
#     4  10  21  38  63  92 121 159 207 257 313 366
#     4   9  17  34  61  93 121 153 204 261 306 355
#     4  11  21  39  65  90 120 160 210 259 303 361
#     4  12  24  38  59  90 125 161 198 248 309 368
#     4   9  18  35  64  95 118 149 205 270 311 351
#     4  10  21  37  59  89 123 162 207 252 301 361
#     4  11  23  40  65  89 114 156 204 245 288 353
#
# _framework density 20.072032
#
# number of rings (size 3 to 8) (size 9 to 14) (size 15 to 20)
#    0.000    1.500    2.500    3.375    1.750    2.750 
#    0.000    4.375    0.000    0.750    0.000    0.000 
#    0.000    0.000    0.000    0.000    0.000    0.000 
#
# Total GULP energy -178875.782265 kJ/mol
# GULP energy per Si atom -5589.868196 kJ/mol
# Density = 2.002635 g / cm^3
# Si number density = 20.072032 Si / 1000 Ang^3
#
#
#
# Elastic Constant Matrix: (Units=GPa)
#
#
# Indices 1 2 3 4 5 6 
#
# 1 118.5260 -7.0195 46.7119 0.0000 -3.8260 0.0000
# 2 -7.0195 15.0165 5.1823 0.0000 -1.6960 0.0000
# 3 46.7119 5.1823 110.2700 0.0000 -17.5080 0.0000
# 4 0.0000 0.0000 0.0000 -0.4385 0.0000 -0.6742
# 5 -3.8260 -1.6960 -17.5080 0.0000 28.9870 0.0000
# 6 0.0000 0.0000 0.0000 -0.6742 0.0000 -7.7991
#
#
#
# Elastic Compliance Matrix: (Units=1/GPa)
#
#
# Indices 1 2 3 4 5 6 
#
# 1 0.010795 0.006659 -0.005085 0.000000 -0.001257 0.000000
# 2 0.006659 0.071933 -0.005966 0.000000 0.001484 0.000000
# 3 -0.005085 -0.005966 0.012544 0.000000 0.006556 0.000000
# 4 0.000000 0.000000 0.000000 -2.630307 0.000000 0.227392
# 5 -0.001257 0.001484 0.006556 0.000000 0.038379 0.000000
# 6 0.000000 0.000000 0.000000 0.227392 0.000000 -0.147878
#
#
# Mechanical properties :
#
#
# Convention : Reuss Voigt Hill
#
# Bulk Modulus (GPa) = 11.56236 37.06245 24.31241
# Shear Modulus (GPa) = -1.91797 17.41241 7.74722
#
# Velocity S-wave (km/s) = -0.97858 2.94852 1.96675
# Velocity P-wave (km/s) = 2.12040 5.48603 4.15888
#
# Compressibility (1/GPa) = 0.08648752
#
# Stress axis : x y z
#
# Youngs Moduli (GPa) = 92.63564 13.90192 79.71763
#
# Poissons Ratio (x) = -0.09258 0.40540
# Poissons Ratio (y) = -0.61688 0.47558
# Poissons Ratio (z) = 0.47109 0.08294
#
# Static dielectric constant tensor:
#      x y z
#    x 1.701590 0.000000 0.003220 
#    y 0.000000 1.684250 0.000000 
#    z 0.003220 0.000000 1.686980 
# 
# From -- ./inp_files/94972.got.cif
#   From: 2010.05.17/outbox.cif.g08.bks.cpg/sg10_48_cif.got.tgz:94972.got - 2010.06.03 11:33:40.
