data_PCOD9152857
_publ_section_title
;
Structure prediction by ZEFSAII (Michael W. Deem and Ramdas Pophale) SiO2 
 PCOD9152857
Probable space group: P 2/M
;
_chemical_formula_sum "Si O2"
_cell_formula_units_Z 30
_cell_length_a 9.322428
_cell_length_b 23.257266
_cell_length_c 11.916150
_cell_angle_alpha 90.000000
_cell_angle_beta 35.970985
_cell_angle_gamma 90.000000
_cell_volume 1517.537654
_symmetry_space_group_name_H-M "P 2/M"
_symmetry_group_IT_number 10
_symmetry_cell_setting 'monoclinic'
loop_
_space_group_symop_operation_xyz
x,y,z
-x,y,-z
-x,-y,-z
x,-y,z
loop_
_atom_site_type_symbol
_atom_site_label
_atom_site_fract_x
_atom_site_fract_y
_atom_site_fract_z
Si Si1 0.239532 0.065197 0.727456
Si Si2 0.000000 0.105490 0.500000
Si Si3 0.908791 0.433585 0.725391
Si Si4 0.525903 0.566186 0.169785
Si Si5 0.613163 0.357095 0.552233
Si Si6 0.679012 0.774893 0.492366
Si Si7 0.105019 0.151379 0.190899
Si Si8 0.503337 0.877776 0.233598
O O1 0.500000 0.064876 0.500000
O O2 0.298965 0.091739 0.811378
O O3 0.066779 0.104716 0.762032
O O4 0.148965 0.000000 0.791198
O O5 0.901553 0.138521 0.672490
O O6 0.735443 0.080667 0.629774
O O7 0.993243 0.500000 0.664761
O O8 0.731893 0.423260 0.730949
O O9 0.131701 0.390778 0.599086
O O10 0.732941 0.428951 0.944565
O O11 0.526951 0.500000 0.209302
O O12 0.555835 0.611275 0.249946
O O13 0.500000 0.362143 0.500000
O O14 0.651770 0.289821 0.551977
O O15 0.500000 0.782666 0.500000
O O16 0.598456 0.822001 0.635382
O O17 0.954133 0.789259 0.277178
O O18 0.359095 0.143723 0.965388
#
# Coordination Sequence:
#
# PCOD9152857 Si02
#       8
#     4   2   4   4   4   4   4   4
#     4  11  21  39  69  98 121 151 204 261 294 336
#     4  10  22  40  55  88 122 154 191 230 302 360
#     4   9  19  38  61  83 111 151 198 243 291 348
#     4   9  19  38  61  83 111 151 198 243 291 348
#     4  11  23  35  55  83 122 152 188 239 293 351
#     4  10  21  39  55  85 119 157 202 244 291 351
#     4  11  21  40  65  86 118 159 199 246 296 351
#     4  11  21  40  65  86 118 159 199 246 296 351
#
# _framework density 19.768867
#
# number of rings (size 3 to 8) (size 9 to 14) (size 15 to 20)
#    0.000    1.733    4.000    2.400    0.000    4.800 
#    9.600    5.333    0.000    1.600    0.000    0.000 
#    0.000    0.000    0.000    0.000    0.000    0.000 
#
# Total GULP energy -167300.736614 kJ/mol
# GULP energy per Si atom -5576.691220 kJ/mol
# Density = 1.972387 g / cm^3
# Si number density = 19.768867 Si / 1000 Ang^3
#
#
#
# Elastic Constant Matrix: (Units=GPa)
#
#
# Indices 1 2 3 4 5 6 
#
# 1 68.7422 32.4086 19.2752 0.0000 6.7777 0.0000
# 2 32.4086 98.6579 16.3028 0.0000 11.0687 0.0000
# 3 19.2752 16.3028 99.4241 0.0000 10.8270 0.0000
# 4 0.0000 0.0000 0.0000 28.4649 0.0000 7.2747
# 5 6.7777 11.0687 10.8270 0.0000 37.0920 0.0000
# 6 0.0000 0.0000 0.0000 7.2747 0.0000 -20.0381
#
#
#
# Elastic Compliance Matrix: (Units=1/GPa)
#
#
# Indices 1 2 3 4 5 6 
#
# 1 0.017859 -0.005351 -0.002482 0.000000 -0.000942 0.000000
# 2 -0.005351 0.012289 -0.000707 0.000000 -0.002483 0.000000
# 3 -0.002482 -0.000707 0.010930 0.000000 -0.002526 0.000000
# 4 0.000000 0.000000 0.000000 0.032148 0.000000 0.011671
# 5 -0.000942 -0.002483 -0.002526 0.000000 0.028610 0.000000
# 6 0.000000 0.000000 0.000000 0.011671 0.000000 -0.045668
#
#
# Mechanical properties :
#
#
# Convention : Reuss Voigt Hill
#
# Bulk Modulus (GPa) = 41.67114 44.75527 43.21321
# Shear Modulus (GPa) = 61.53969 22.35959 41.94964
#
# Velocity S-wave (km/s) = 5.58544 3.36676 4.61152
# Velocity P-wave (km/s) = 7.91967 6.14832 7.08953
#
# Compressibility (1/GPa) = 0.02399742
#
# Stress axis : x y z
#
# Youngs Moduli (GPa) = 55.99559 81.37261 91.48956
#
# Poissons Ratio (x) = 0.43539 0.22710
# Poissons Ratio (y) = 0.29961 0.06472
# Poissons Ratio (z) = 0.13900 0.05756
#
# Static dielectric constant tensor:
#      x y z
#    x 1.728550 0.000000 -0.014370 
#    y 0.000000 1.662930 0.000000 
#    z -0.014370 0.000000 1.746310 
# 
# From -- ./inp_files/43706.got.cif
#   From: 2010.05.17/outbox.cif.g08.bks.cpg/sg10_22_cif.got.tgz:43706.got - 2010.06.03 11:33:40.
