data_PCOD9152278
_publ_section_title
;
Structure prediction by ZEFSAII (Michael W. Deem and Ramdas Pophale) SiO2 
 PCOD9152278
Probable space group: P 2/M
;
_chemical_formula_sum "Si O2"
_cell_formula_units_Z 21
_cell_length_a 7.649797
_cell_length_b 7.560485
_cell_length_c 17.617810
_cell_angle_alpha 90.000000
_cell_angle_beta 124.448107
_cell_angle_gamma 90.000000
_cell_volume 840.263073
_symmetry_space_group_name_H-M "P 2/M"
_symmetry_group_IT_number 10
_symmetry_cell_setting 'monoclinic'
loop_
_space_group_symop_operation_xyz
x,y,z
-x,y,-z
-x,-y,-z
x,-y,z
loop_
_atom_site_type_symbol
_atom_site_label
_atom_site_fract_x
_atom_site_fract_y
_atom_site_fract_z
Si Si1 0.431223 0.198392 0.786779
Si Si2 0.091761 0.297777 0.820365
Si Si3 0.716448 0.794957 0.638888
Si Si4 0.500000 0.500000 0.500000
Si Si5 0.924154 0.785398 0.400366
Si Si6 0.228380 0.202633 0.018538
O O1 0.241649 0.187693 0.801887
O O2 0.305062 0.279106 0.685068
O O3 0.503891 0.000000 0.783388
O O4 0.615616 0.286840 0.881049
O O5 0.096352 0.500000 0.795821
O O6 0.192213 0.287282 0.928126
O O7 0.850093 0.232814 0.749508
O O8 0.537588 0.656382 0.574290
O O9 0.893503 0.750140 0.617038
O O10 0.652223 0.000000 0.617447
O O11 0.000000 0.718714 0.500000
O O12 0.905857 0.000000 0.399699
O O13 0.302446 0.000000 0.023405
O O14 0.000000 0.196784 0.000000
#
# Coordination Sequence:
#
# PCOD9152278 Si02
#       6
#     4   4   4   1   4   4
#     4   9  18  34  58  84 112 154 203 247 299 360
#     4  11  21  37  60  84 115 152 202 252 296 359
#     4  10  21  39  62  87 120 160 199 248 301 354
#     4  12  22  40  58  90 124 156 208 248 286 366
#     4   8  15  32  58  86 114 152 202 250 298 350
#     4  10  21  37  56  84 120 157 198 248 310 371
#
# _framework density 24.992173999999999
#
# number of rings (size 3 to 8) (size 9 to 14) (size 15 to 20)
#    0.000    2.286    0.952    3.714    0.000    3.429 
#    3.429    0.476    0.000    0.000    0.000    0.000 
#    0.000    0.000    0.000    0.000    0.000    0.000 
#
# Total GULP energy -117065.353947 kJ/mol
# GULP energy per Si atom -5574.540664 kJ/mol
# Density = 2.493529 g / cm^3
# Si number density = 24.992174 Si / 1000 Ang^3
#
#
#
# Elastic Constant Matrix: (Units=GPa)
#
#
# Indices 1 2 3 4 5 6 
#
# 1 23.5754 4.7220 28.0196 0.0000 1.5833 0.0000
# 2 4.7220 140.8398 29.4214 0.0000 5.7673 0.0000
# 3 28.0196 29.4214 245.2622 0.0000 13.6613 0.0000
# 4 0.0000 0.0000 0.0000 20.4027 0.0000 10.9501
# 5 1.5833 5.7673 13.6613 0.0000 35.2155 0.0000
# 6 0.0000 0.0000 0.0000 10.9501 0.0000 55.9198
#
#
#
# Elastic Compliance Matrix: (Units=1/GPa)
#
#
# Indices 1 2 3 4 5 6 
#
# 1 0.049114 -0.000488 -0.005554 0.000000 0.000026 0.000000
# 2 -0.000488 0.007314 -0.000773 0.000000 -0.000876 0.000000
# 3 -0.005554 -0.000773 0.004889 0.000000 -0.001520 0.000000
# 4 0.000000 0.000000 0.000000 0.054769 0.000000 -0.010725
# 5 0.000026 -0.000876 -0.001520 0.000000 0.029129 0.000000
# 6 0.000000 0.000000 0.000000 -0.010725 0.000000 0.019983
#
#
# Mechanical properties :
#
#
# Convention : Reuss Voigt Hill
#
# Bulk Modulus (GPa) = 20.96947 59.33370 40.15159
# Shear Modulus (GPa) = 25.67757 45.47521 35.57639
#
# Velocity S-wave (km/s) = 3.20882 4.27028 3.77702
# Velocity P-wave (km/s) = 4.70504 6.93586 5.92636
#
# Compressibility (1/GPa) = 0.04768837
#
# Stress axis : x y z
#
# Youngs Moduli (GPa) = 20.36084 136.72523 204.53370
#
# Poissons Ratio (x) = 0.06665 1.13596
# Poissons Ratio (y) = 0.00993 0.15808
# Poissons Ratio (z) = 0.11308 0.10567
#
# Static dielectric constant tensor:
#      x y z
#    x 1.990490 0.000000 0.025960 
#    y 0.000000 1.916590 0.000000 
#    z 0.025960 0.000000 2.084100 
# 
# From -- ./inp_files/74481.got.cif
#   From: 2010.05.17/outbox.cif.g08.bks.cpg/sg10_38_cif.got.tgz:74481.got - 2010.06.03 11:33:40.
