data_PCOD9152763
_publ_section_title
;
Structure prediction by ZEFSAII (Michael W. Deem and Ramdas Pophale) SiO2 
 PCOD9152763
Probable space group: P 2/M
;
_chemical_formula_sum "Si O2"
_cell_formula_units_Z 24
_cell_length_a 8.264562
_cell_length_b 18.676590
_cell_length_c 8.701077
_cell_angle_alpha 90.000000
_cell_angle_beta 120.721460
_cell_angle_gamma 90.000000
_cell_volume 1154.563059
_symmetry_space_group_name_H-M "P 2/M"
_symmetry_group_IT_number 10
_symmetry_cell_setting 'monoclinic'
loop_
_space_group_symop_operation_xyz
x,y,z
-x,y,-z
-x,-y,-z
x,-y,z
loop_
_atom_site_type_symbol
_atom_site_label
_atom_site_fract_x
_atom_site_fract_y
_atom_site_fract_z
Si Si1 0.191312 0.688186 0.681477
Si Si2 0.790748 0.345259 0.950422
Si Si3 0.310432 0.793683 0.306760
Si Si4 0.932011 0.159548 0.312380
Si Si5 0.216468 0.919339 0.044333
Si Si6 0.536634 0.421882 0.337044
O O1 0.344660 0.645254 0.661843
O O2 0.000000 0.669127 0.500000
O O3 0.192605 0.773980 0.688231
O O4 0.208639 0.667288 0.867648
O O5 0.725911 0.274855 0.821248
O O6 0.659227 0.411051 0.843770
O O7 0.000000 0.360036 0.000000
O O8 0.500000 0.785149 0.500000
O O9 0.116698 0.807626 0.312139
O O10 0.325184 0.863514 0.204924
O O11 0.000000 0.120605 0.500000
O O12 0.810533 0.112323 0.138494
O O13 0.291350 0.000000 0.084032
O O14 0.000000 0.921288 0.000000
O O15 0.500000 0.417437 0.500000
O O16 0.621483 0.500000 0.343623
#
# Coordination Sequence:
#
# PCOD9152763 Si02
#       6
#     4   4   4   4   4   4
#     4  11  23  41  67  96 130 169 213 266 317 383
#     4  12  22  41  68  95 130 169 215 267 321 381
#     4  11  22  38  63  96 129 169 220 267 319 381
#     4  10  21  38  61  96 129 168 218 263 316 381
#     4   9  18  38  64  91 129 173 212 259 324 384
#     4  11  27  47  67  97 131 167 213 265 326 388
#
# _framework density 20.787085000000001
#
# number of rings (size 3 to 8) (size 9 to 14) (size 15 to 20)
#    0.000    1.333    3.333    2.500    7.000    2.667 
#    0.000    0.833    0.000    1.000    0.000    0.000 
#    0.000    0.667    0.000    0.000    0.000    0.000 
#
# Total GULP energy -134051.068221 kJ/mol
# GULP energy per Si atom -5585.461176 kJ/mol
# Density = 2.073977 g / cm^3
# Si number density = 20.787085 Si / 1000 Ang^3
#
#
#
# Elastic Constant Matrix: (Units=GPa)
#
#
# Indices 1 2 3 4 5 6 
#
# 1 40.8973 39.2032 14.9459 0.0000 -2.7899 0.0000
# 2 39.2032 76.8441 19.9252 0.0000 -4.4575 0.0000
# 3 14.9459 19.9252 121.8305 0.0000 -17.0586 0.0000
# 4 0.0000 0.0000 0.0000 31.5398 0.0000 1.1238
# 5 -2.7899 -4.4575 -17.0586 0.0000 38.0494 0.0000
# 6 0.0000 0.0000 0.0000 1.1238 0.0000 23.7644
#
#
#
# Elastic Compliance Matrix: (Units=1/GPa)
#
#
# Indices 1 2 3 4 5 6 
#
# 1 0.048307 -0.024136 -0.002005 0.000000 -0.000184 0.000000
# 2 -0.024136 0.025663 -0.001134 0.000000 0.000728 0.000000
# 3 -0.002005 -0.001134 0.009176 0.000000 0.003834 0.000000
# 4 0.000000 0.000000 0.000000 0.031759 0.000000 -0.001502
# 5 -0.000184 0.000728 0.003834 0.000000 0.028072 0.000000
# 6 0.000000 0.000000 0.000000 -0.001502 0.000000 0.042151
#
#
# Mechanical properties :
#
#
# Convention : Reuss Voigt Hill
#
# Bulk Modulus (GPa) = 34.96807 43.08005 39.02406
# Shear Modulus (GPa) = 20.06333 29.70389 24.88361
#
# Velocity S-wave (km/s) = 3.11011 3.78426 3.46362
# Velocity P-wave (km/s) = 5.45487 6.31376 5.89996
#
# Compressibility (1/GPa) = 0.02859751
#
# Stress axis : x y z
#
# Youngs Moduli (GPa) = 20.70080 38.96680 108.97500
#
# Poissons Ratio (x) = 0.94049 0.21846
# Poissons Ratio (y) = 0.49963 0.12361
# Poissons Ratio (z) = 0.04150 0.04420
#
# Static dielectric constant tensor:
#      x y z
#    x 1.768140 0.000000 -0.012610 
#    y 0.000000 1.728530 0.000000 
#    z -0.012610 0.000000 1.757600 
# 
# From -- ./inp_files/20263.got.cif
#   From: 2010.05.17/outbox.cif.g08.bks.cpg/sg10_11_cif.got.tgz:20263.got - 2010.06.03 11:33:40.
