data_PCOD9152950
_publ_section_title
;
Structure prediction by ZEFSAII (Michael W. Deem and Ramdas Pophale) SiO2 
 PCOD9152950
Probable space group: P 2/M
;
_chemical_formula_sum "Si O2"
_cell_formula_units_Z 32
_cell_length_a 25.287107
_cell_length_b 8.795644
_cell_length_c 13.587667
_cell_angle_alpha 90.000000
_cell_angle_beta 31.001769
_cell_angle_gamma 90.000000
_cell_volume 1556.586772
_symmetry_space_group_name_H-M "P 2/M"
_symmetry_group_IT_number 10
_symmetry_cell_setting 'monoclinic'
loop_
_space_group_symop_operation_xyz
x,y,z
-x,y,-z
-x,-y,-z
x,-y,z
loop_
_atom_site_type_symbol
_atom_site_label
_atom_site_fract_x
_atom_site_fract_y
_atom_site_fract_z
Si Si1 0.922605 0.676565 0.538902
Si Si2 0.536980 0.317217 0.139604
Si Si3 0.676523 0.818008 0.490375
Si Si4 0.161773 0.682774 0.627764
Si Si5 0.737365 0.181124 0.729768
Si Si6 0.259424 0.820998 0.825477
Si Si7 0.956378 0.675113 0.861602
Si Si8 0.414393 0.682377 0.714299
O O1 0.896157 0.500000 0.603729
O O2 0.818340 0.768050 0.685358
O O3 0.000000 0.732619 0.500000
O O4 0.984685 0.677749 0.337141
O O5 0.538571 0.500000 0.130237
O O6 0.423095 0.255727 0.300741
O O7 0.563572 0.269544 0.209670
O O8 0.625364 0.246012 0.931916
O O9 0.780068 0.754365 0.373324
O O10 0.678450 0.775781 0.372044
O O11 0.673276 0.000000 0.504287
O O12 0.168192 0.500000 0.619578
O O13 0.220227 0.745088 0.438127
O O14 0.041971 0.722375 0.804501
O O15 0.735806 0.000000 0.723811
O O16 0.305847 0.736227 0.845048
O O17 0.270267 0.000000 0.822457
O O18 0.142646 0.777857 0.990021
O O19 0.925423 0.500000 0.930726
O O20 0.500000 0.739388 0.500000
O O21 0.417484 0.500000 0.708424
#
# Coordination Sequence:
#
# PCOD9152950 Si02
#       8
#     4   4   4   4   4   4   4   4
#     4   9  19  37  59  84 116 157 204 247 290 346
#     4  11  23  40  63  89 119 159 205 248 291 352
#     4  11  24  41  61  89 122 157 196 247 305 356
#     4  10  22  43  67  89 115 155 203 251 297 348
#     4  11  23  39  60  89 124 156 192 244 304 361
#     4  11  24  38  58  89 126 161 194 240 301 363
#     4   9  20  38  60  86 117 155 201 248 291 344
#     4  10  21  39  62  86 116 158 204 248 292 343
#
# _framework density 20.557801000000001
#
# number of rings (size 3 to 8) (size 9 to 14) (size 15 to 20)
#    0.000    1.750    1.250    3.375    1.750    6.500 
#    0.000    5.000    0.000    0.000    0.000    0.000 
#    0.000    0.000    0.000    0.000    0.000    0.000 
#
# Total GULP energy -178863.508083 kJ/mol
# GULP energy per Si atom -5589.484628 kJ/mol
# Density = 2.051101 g / cm^3
# Si number density = 20.557801 Si / 1000 Ang^3
#
#
#
# Elastic Constant Matrix: (Units=GPa)
#
#
# Indices 1 2 3 4 5 6 
#
# 1 68.1439 0.9410 -15.9996 0.0000 -20.5173 0.0000
# 2 0.9410 20.3980 4.0719 0.0000 -1.0980 0.0000
# 3 -15.9996 4.0719 44.3555 0.0000 -14.0516 0.0000
# 4 0.0000 0.0000 0.0000 -31.1187 0.0000 83.6776
# 5 -20.5173 -1.0980 -14.0516 0.0000 25.9602 0.0000
# 6 0.0000 0.0000 0.0000 83.6776 0.0000 -110.5161
#
#
#
# Elastic Compliance Matrix: (Units=1/GPa)
#
#
# Indices 1 2 3 4 5 6 
#
# 1 0.031657 -0.004171 0.023743 0.000000 0.037695 0.000000
# 2 -0.004171 0.050494 -0.007855 0.000000 -0.005413 0.000000
# 3 0.023743 -0.007855 0.045467 0.000000 0.043043 0.000000
# 4 0.000000 0.000000 0.000000 0.031019 0.000000 0.023486
# 5 0.037695 -0.005413 0.043043 0.000000 0.091381 0.000000
# 6 0.000000 0.000000 0.000000 0.023486 0.000000 0.008734
#
#
# Mechanical properties :
#
#
# Convention : Reuss Voigt Hill
#
# Bulk Modulus (GPa) = 6.62024 12.32489 9.47257
# Shear Modulus (GPa) = 17.50287 -13.54265 1.98011
#
# Velocity S-wave (km/s) = 2.92104 -2.56942 0.98249
# Velocity P-wave (km/s) = 3.82151 1.67161 2.42998
#
# Compressibility (1/GPa) = 0.15105185
#
# Stress axis : x y z
#
# Youngs Moduli (GPa) = 31.58894 19.80449 21.99415
#
# Poissons Ratio (x) = 0.08261 -0.52222
# Poissons Ratio (y) = 0.13176 0.17276
# Poissons Ratio (z) = -0.75003 0.15556
#
# Static dielectric constant tensor:
#      x y z
#    x 1.746930 0.000000 0.006880 
#    y 0.000000 1.685020 0.000000 
#    z 0.006880 0.000000 1.730000 
# 
# From -- ./inp_files/71475.got.cif
#   From: 2010.05.17/outbox.cif.g08.bks.cpg/sg10_36_cif.got.tgz:71475.got - 2010.06.03 11:33:40.
