data_PCOD9152819
_publ_section_title
;
Structure prediction by ZEFSAII (Michael W. Deem and Ramdas Pophale) SiO2 
 PCOD9152819
Probable space group: P 2/M
;
_chemical_formula_sum "Si O2"
_cell_formula_units_Z 32
_cell_length_a 14.360621
_cell_length_b 28.087741
_cell_length_c 10.052472
_cell_angle_alpha 90.000000
_cell_angle_beta 25.370469
_cell_angle_gamma 90.000000
_cell_volume 1737.331934
_symmetry_space_group_name_H-M "P 2/M"
_symmetry_group_IT_number 10
_symmetry_cell_setting 'monoclinic'
loop_
_space_group_symop_operation_xyz
x,y,z
-x,y,-z
-x,-y,-z
x,-y,z
loop_
_atom_site_type_symbol
_atom_site_label
_atom_site_fract_x
_atom_site_fract_y
_atom_site_fract_z
Si Si1 0.796893 0.122299 0.860370
Si Si2 0.436239 0.444444 0.737873
Si Si3 0.526754 0.294365 0.312296
Si Si4 0.203105 0.622298 0.639634
Si Si5 0.917498 0.864590 0.256452
Si Si6 0.526762 0.794365 0.812284
Si Si7 0.917496 0.635411 0.756453
Si Si8 0.436239 0.055554 0.237873
O O1 0.000000 0.114417 0.500000
O O2 0.889122 0.133403 0.886641
O O3 0.655099 0.166151 0.987971
O O4 0.637216 0.077118 0.061211
O O5 0.500000 0.438254 0.500000
O O6 0.400355 0.500000 0.809580
O O7 0.637213 0.422882 0.561220
O O8 0.227756 0.412041 0.036545
O O9 0.500000 0.280030 0.500000
O O10 0.344893 0.333849 0.512044
O O11 0.499994 0.250001 0.250006
O O12 0.757145 0.320687 0.995355
O O13 0.110873 0.633404 0.613366
O O14 0.000000 0.614414 0.000000
O O15 0.757154 0.820686 0.495342
O O16 0.772237 0.912040 0.463473
O O17 0.000000 0.861272 0.000000
O O18 0.500000 0.780032 0.000000
O O19 0.000000 0.638731 0.500000
O O20 0.400343 0.000000 0.309614
O O21 0.500000 0.061737 0.000000
#
# Coordination Sequence:
#
# PCOD9152819 Si02
#       8
#     4   4   4   4   4   4   4   4
#     4  11  20  41  64  85 121 162 197 242 296 353
#     4  10  21  38  63  93 120 154 203 246 289 356
#     4  11  25  41  61  91 121 154 202 248 293 356
#     4  11  20  41  64  85 121 162 197 242 296 353
#     4  11  24  41  61  89 124 158 196 247 300 350
#     4  11  25  41  61  91 121 154 202 248 293 356
#     4  11  24  41  61  89 124 158 196 247 300 350
#     4  10  21  38  63  93 120 154 203 246 289 356
#
# _framework density 18.419049000000001
#
# number of rings (size 3 to 8) (size 9 to 14) (size 15 to 20)
#    0.000    1.250    5.000    1.500    3.500    7.000 
#    0.000    1.250    0.000    0.000    0.000    0.000 
#    0.000    0.000    0.000    0.000    0.000    0.000 
#
# Total GULP energy -178866.292139 kJ/mol
# GULP energy per Si atom -5589.571629 kJ/mol
# Density = 1.837713 g / cm^3
# Si number density = 18.419049 Si / 1000 Ang^3
#
#
#
# Elastic Constant Matrix: (Units=GPa)
#
#
# Indices 1 2 3 4 5 6 
#
# 1 164.9135 41.0006 41.2491 0.0000 8.7642 0.0000
# 2 41.0006 113.4301 24.8748 0.0000 8.4158 0.0000
# 3 41.2491 24.8748 56.9305 0.0000 12.2762 0.0000
# 4 0.0000 0.0000 0.0000 4.7565 0.0000 5.0386
# 5 8.7642 8.4158 12.2762 0.0000 41.5107 0.0000
# 6 0.0000 0.0000 0.0000 5.0386 0.0000 20.4786
#
#
#
# Elastic Compliance Matrix: (Units=1/GPa)
#
#
# Indices 1 2 3 4 5 6 
#
# 1 0.007701 -0.001730 -0.004858 0.000000 0.000162 0.000000
# 2 -0.001730 0.010162 -0.003013 0.000000 -0.000804 0.000000
# 3 -0.004858 -0.003013 0.023551 0.000000 -0.005328 0.000000
# 4 0.000000 0.000000 0.000000 0.284351 0.000000 -0.069962
# 5 0.000162 -0.000804 -0.005328 0.000000 0.025795 0.000000
# 6 0.000000 0.000000 0.000000 -0.069962 0.000000 0.066045
#
#
# Mechanical properties :
#
#
# Convention : Reuss Voigt Hill
#
# Bulk Modulus (GPa) = 45.02473 61.05814 53.04143
# Shear Modulus (GPa) = 11.25594 28.55914 19.90754
#
# Velocity S-wave (km/s) = 2.47473 3.94194 3.29114
# Velocity P-wave (km/s) = 5.71520 7.34438 6.58040
#
# Compressibility (1/GPa) = 0.02221002
#
# Stress axis : x y z
#
# Youngs Moduli (GPa) = 129.86146 98.40822 42.46113
#
# Poissons Ratio (x) = 0.17025 0.20629
# Poissons Ratio (y) = 0.22466 0.12794
# Poissons Ratio (z) = 0.63092 0.29652
#
# Static dielectric constant tensor:
#      x y z
#    x 1.622060 0.000000 -0.007390 
#    y 0.000000 1.614640 0.000000 
#    z -0.007390 0.000000 1.617230 
# 
# From -- ./inp_files/26213.got.cif
#   From: 2010.05.17/outbox.cif.g08.bks.cpg/sg10_14_cif.got.tgz:26213.got - 2010.06.03 11:33:40.
