data_PCOD9152903
_publ_section_title
;
Structure prediction by ZEFSAII (Michael W. Deem and Ramdas Pophale) SiO2 
 PCOD9152903
Probable space group: P 2/M
;
_chemical_formula_sum "Si O2"
_cell_formula_units_Z 17
_cell_length_a 5.581330
_cell_length_b 13.184812
_cell_length_c 11.566495
_cell_angle_alpha 90.000000
_cell_angle_beta 97.988054
_cell_angle_gamma 90.000000
_cell_volume 842.905541
_symmetry_space_group_name_H-M "P 2/M"
_symmetry_group_IT_number 10
_symmetry_cell_setting 'monoclinic'
loop_
_space_group_symop_operation_xyz
x,y,z
-x,y,-z
-x,-y,-z
x,-y,z
loop_
_atom_site_type_symbol
_atom_site_label
_atom_site_fract_x
_atom_site_fract_y
_atom_site_fract_z
Si Si1 0.322291 0.285743 0.699759
Si Si2 0.000000 0.166009 0.500000
Si Si3 0.876276 0.171813 0.110184
Si Si4 0.277762 0.500000 0.577120
Si Si5 0.296091 0.109549 0.311665
Si Si6 0.500000 0.000000 0.000000
O O1 0.128652 0.235513 0.601622
O O2 0.324942 0.400923 0.659102
O O3 0.552008 0.212282 0.693806
O O4 0.237777 0.263209 0.823976
O O5 0.192804 0.107441 0.434884
O O6 0.078739 0.119381 0.205214
O O7 0.322784 0.088742 0.934321
O O8 0.000000 0.205541 0.000000
O O9 0.500000 0.500000 0.500000
O O10 0.000000 0.500000 0.500000
O O11 0.421617 0.000000 0.296907
#
# Coordination Sequence:
#
# PCOD9152903 Si02
#       6
#     4   2   4   2   4   1
#     4  11  25  42  70 103 139 185 242 298 359 433
#     4  10  21  39  60  96 140 181 227 284 362 432
#     4  11  25  41  67  99 143 186 243 289 357 434
#     4  12  26  50  83 107 145 196 253 309 370 443
#     4  11  23  39  62 100 144 184 224 292 360 442
#     4  12  22  44  68  98 140 200 236 286 358 442
#
# _framework density 20.168331999999999
#
# number of rings (size 3 to 8) (size 9 to 14) (size 15 to 20)
#    0.000    0.941    2.353    4.235    8.235    2.824 
#    0.000    0.588    0.000    4.941    0.000    0.000 
#    0.000    0.000    0.000    0.000    0.000    0.000 
#
# Total GULP energy -94639.884698 kJ/mol
# GULP energy per Si atom -5567.052041 kJ/mol
# Density = 2.012243 g / cm^3
# Si number density = 20.168332 Si / 1000 Ang^3
#
#
#
# Elastic Constant Matrix: (Units=GPa)
#
#
# Indices 1 2 3 4 5 6 
#
# 1 91.1237 73.0281 47.6458 0.0000 4.6160 0.0000
# 2 73.0281 209.3546 74.8207 0.0000 -10.7239 0.0000
# 3 47.6458 74.8207 153.9241 0.0000 -36.9417 0.0000
# 4 0.0000 0.0000 0.0000 26.0776 0.0000 9.4692
# 5 4.6160 -10.7239 -36.9417 0.0000 39.2305 0.0000
# 6 0.0000 0.0000 0.0000 9.4692 0.0000 21.5377
#
#
#
# Elastic Compliance Matrix: (Units=1/GPa)
#
#
# Indices 1 2 3 4 5 6 
#
# 1 0.018014 -0.004843 -0.005230 0.000000 -0.008369 0.000000
# 2 -0.004843 0.007141 -0.001766 0.000000 0.000859 0.000000
# 3 -0.005230 -0.001766 0.011636 0.000000 0.011089 0.000000
# 4 0.000000 0.000000 0.000000 0.045632 0.000000 -0.020063
# 5 -0.008369 0.000859 0.011089 0.000000 0.037152 0.000000
# 6 0.000000 0.000000 0.000000 -0.020063 0.000000 0.055251
#
#
# Mechanical properties :
#
#
# Convention : Reuss Voigt Hill
#
# Bulk Modulus (GPa) = 76.26633 93.93240 85.09936
# Shear Modulus (GPa) = 24.64557 34.62968 29.63763
#
# Velocity S-wave (km/s) = 3.49949 4.14820 3.83758
# Velocity P-wave (km/s) = 7.36380 8.34379 7.86907
#
# Compressibility (1/GPa) = 0.01311195
#
# Stress axis : x y z
#
# Youngs Moduli (GPa) = 55.51144 140.03410 85.94333
#
# Poissons Ratio (x) = 0.67822 0.44952
# Poissons Ratio (y) = 0.26885 0.15176
# Poissons Ratio (z) = 0.29035 0.24728
#
# Static dielectric constant tensor:
#      x y z
#    x 1.819980 0.000000 -0.053540 
#    y 0.000000 1.724400 0.000000 
#    z -0.053540 0.000000 1.770190 
# 
# From -- ./inp_files/38719.got.cif
#   From: 2010.05.17/outbox.cif.g08.bks.cpg/sg10_20_cif.got.tgz:38719.got - 2010.06.03 11:33:40.
