data_PCOD9152053
_publ_section_title
;
Structure prediction by ZEFSAII (Michael W. Deem and Ramdas Pophale) SiO2 
 PCOD9152053
Probable space group: P 2/M
;
_chemical_formula_sum "Si O2"
_cell_formula_units_Z 26
_cell_length_a 5.321372
_cell_length_b 15.516955
_cell_length_c 18.383773
_cell_angle_alpha 90.000000
_cell_angle_beta 49.051197
_cell_angle_gamma 90.000000
_cell_volume 1146.520091
_symmetry_space_group_name_H-M "P 2/M"
_symmetry_group_IT_number 10
_symmetry_cell_setting 'monoclinic'
loop_
_space_group_symop_operation_xyz
x,y,z
-x,y,-z
-x,-y,-z
x,-y,z
loop_
_atom_site_type_symbol
_atom_site_label
_atom_site_fract_x
_atom_site_fract_y
_atom_site_fract_z
Si Si1 0.637480 0.905372 0.683192
Si Si2 0.874531 0.735878 0.882862
Si Si3 0.410084 0.720435 0.307961
Si Si4 0.336445 0.598508 0.194049
Si Si5 0.397649 0.401836 0.436351
Si Si6 0.843846 0.092496 0.812247
Si Si7 0.000000 0.651665 0.000000
O O1 0.772731 0.809779 0.636523
O O2 0.695443 0.905057 0.759342
O O3 0.248969 0.905700 0.732730
O O4 0.773458 0.000000 0.632635
O O5 0.811544 0.654147 0.843300
O O6 0.733820 0.824210 0.877549
O O7 0.274301 0.748796 0.800278
O O8 0.808615 0.710709 0.978185
O O9 0.252656 0.648445 0.284758
O O10 0.527466 0.670788 0.357378
O O11 0.229448 0.500000 0.217171
O O12 0.731724 0.599896 0.098440
O O13 0.500000 0.386829 0.500000
O O14 0.497111 0.500000 0.398165
O O15 0.000000 0.397334 0.500000
O O16 0.751132 0.000000 0.863076
#
# Coordination Sequence:
#
# PCOD9152053 Si02
#       7
#     4   4   4   4   4   4   2
#     4   9  17  31  56  86 114 144 184 234 286 342
#     4  10  21  36  56  82 110 150 193 242 285 344
#     4  10  21  37  59  86 114 146 197 238 287 337
#     4  11  22  36  56  80 109 148 195 242 287 342
#     4  10  23  40  59  85 120 159 193 234 290 345
#     4   9  17  32  54  82 113 145 187 236 287 338
#     4  10  23  38  51  74 116 154 187 236 299 344
#
# _framework density 22.677316999999999
#
# number of rings (size 3 to 8) (size 9 to 14) (size 15 to 20)
#    0.000    2.154    1.538    1.154    2.154    4.308 
#    0.000    0.385    0.000    3.692    0.000    0.000 
#    0.000    0.000    0.000    0.000    0.000    0.000 
#
# Total GULP energy -144970.343659 kJ/mol
# GULP energy per Si atom -5575.782448 kJ/mol
# Density = 2.262570 g / cm^3
# Si number density = 22.677317 Si / 1000 Ang^3
#
#
#
# Elastic Constant Matrix: (Units=GPa)
#
#
# Indices 1 2 3 4 5 6 
#
# 1 104.9832 31.6520 19.5099 0.0000 24.3454 0.0000
# 2 31.6520 223.2966 38.5335 0.0000 40.4505 0.0000
# 3 19.5099 38.5335 53.8222 0.0000 9.4759 0.0000
# 4 0.0000 0.0000 0.0000 13.5215 0.0000 6.7889
# 5 24.3454 40.4505 9.4759 0.0000 39.5837 0.0000
# 6 0.0000 0.0000 0.0000 6.7889 0.0000 18.4068
#
#
#
# Elastic Compliance Matrix: (Units=1/GPa)
#
#
# Indices 1 2 3 4 5 6 
#
# 1 0.011578 0.000062 -0.003107 0.000000 -0.006440 0.000000
# 2 0.000062 0.006031 -0.003391 0.000000 -0.005389 0.000000
# 3 -0.003107 -0.003391 0.022120 0.000000 0.000081 0.000000
# 4 0.000000 0.000000 0.000000 0.090764 0.000000 -0.033476
# 5 -0.006440 -0.005389 0.000081 0.000000 0.034711 0.000000
# 6 0.000000 0.000000 0.000000 -0.033476 0.000000 0.066675
#
#
# Mechanical properties :
#
#
# Convention : Reuss Voigt Hill
#
# Bulk Modulus (GPa) = 37.23753 62.38810 49.81281
# Shear Modulus (GPa) = 19.70801 33.79616 26.75209
#
# Velocity S-wave (km/s) = 2.95118 3.86464 3.43838
# Velocity P-wave (km/s) = 5.29801 6.89093 6.14629
#
# Compressibility (1/GPa) = 0.02685463
#
# Stress axis : x y z
#
# Youngs Moduli (GPa) = 86.37412 165.80641 45.20854
#
# Poissons Ratio (x) = -0.01022 0.14047
# Poissons Ratio (y) = -0.00533 0.15332
# Poissons Ratio (z) = 0.26837 0.56233
#
# Static dielectric constant tensor:
#      x y z
#    x 1.915690 0.000000 -0.093010 
#    y 0.000000 1.904940 0.000000 
#    z -0.093010 0.000000 1.849710 
# 
# From -- ./inp_files/11144.got.cif
#   From: 2010.05.17/outbox.cif.g08.bks.cpg/sg10_6_cif.got.tgz:11144.got - 2010.06.03 11:33:40.
