data_PCOD9152794
_publ_section_title
;
Structure prediction by ZEFSAII (Michael W. Deem and Ramdas Pophale) SiO2 
 PCOD9152794
Probable space group: P 2/M
;
_chemical_formula_sum "Si O2"
_cell_formula_units_Z 32
_cell_length_a 23.855452
_cell_length_b 8.837118
_cell_length_c 13.813652
_cell_angle_alpha 90.000000
_cell_angle_beta 33.817249
_cell_angle_gamma 90.000000
_cell_volume 1620.718886
_symmetry_space_group_name_H-M "P 2/M"
_symmetry_group_IT_number 10
_symmetry_cell_setting 'monoclinic'
loop_
_space_group_symop_operation_xyz
x,y,z
-x,y,-z
-x,-y,-z
x,-y,z
loop_
_atom_site_type_symbol
_atom_site_label
_atom_site_fract_x
_atom_site_fract_y
_atom_site_fract_z
Si Si1 0.058184 0.680607 0.121282
Si Si2 0.230312 0.178559 0.743114
Si Si3 0.359688 0.679626 0.243851
Si Si4 0.695229 0.180929 0.031191
Si Si5 0.908179 0.681100 0.700542
Si Si6 0.837398 0.680306 0.360661
Si Si7 0.539401 0.180531 0.088512
Si Si8 0.616748 0.680803 0.341053
O O1 0.074701 0.500000 0.082761
O O2 0.063286 0.708955 0.228450
O O3 0.948887 0.720059 0.235748
O O4 0.143417 0.770495 0.942266
O O5 0.196144 0.234722 0.687375
O O6 0.331856 0.255705 0.636299
O O7 0.243023 0.000000 0.725788
O O8 0.373087 0.500000 0.208833
O O9 0.245446 0.709229 0.437998
O O10 0.434145 0.733909 0.222868
O O11 0.394146 0.769475 0.099507
O O12 0.602607 0.220607 0.093063
O O13 0.675408 0.254496 0.163897
O O14 0.699144 0.000000 0.034929
O O15 0.800915 0.240245 0.837163
O O16 0.895399 0.500000 0.705933
O O17 0.000000 0.730262 0.500000
O O18 0.836022 0.500000 0.342649
O O19 0.522956 0.000000 0.110327
O O20 0.500000 0.724807 0.500000
O O21 0.624488 0.500000 0.329210
#
# Coordination Sequence:
#
# PCOD9152794 Si02
#       8
#     4   4   4   4   4   4   4   4
#     4  10  21  41  64  88 122 162 202 252 305 355
#     4  12  25  41  63  91 124 159 200 249 308 373
#     4  10  21  38  62  91 117 154 206 254 296 349
#     4  11  24  41  63  94 128 166 204 248 312 374
#     4  10  22  39  65  95 124 164 210 254 305 365
#     4  10  23  40  62  90 121 157 206 257 302 356
#     4  10  22  39  59  85 125 164 195 239 304 365
#     4  11  25  44  67  93 122 161 209 258 310 368
#
# _framework density 19.744325
#
# number of rings (size 3 to 8) (size 9 to 14) (size 15 to 20)
#    0.000    1.500    1.250    3.750    3.500    6.250 
#    0.000    0.000    0.000    0.000    0.000    0.000 
#    0.000    0.000    0.000    0.000    0.000    0.000 
#
# Total GULP energy -178942.024886 kJ/mol
# GULP energy per Si atom -5591.938278 kJ/mol
# Density = 1.969939 g / cm^3
# Si number density = 19.744325 Si / 1000 Ang^3
#
#
#
# Elastic Constant Matrix: (Units=GPa)
#
#
# Indices 1 2 3 4 5 6 
#
# 1 59.4007 9.4724 -12.9563 0.0000 -20.6020 0.0000
# 2 9.4724 24.2875 7.2457 0.0000 -9.4513 0.0000
# 3 -12.9563 7.2457 59.4964 0.0000 -16.7128 0.0000
# 4 0.0000 0.0000 0.0000 82.7158 0.0000 22.2305
# 5 -20.6020 -9.4513 -16.7128 0.0000 32.8371 0.0000
# 6 0.0000 0.0000 0.0000 22.2305 0.0000 35.2009
#
#
#
# Elastic Compliance Matrix: (Units=1/GPa)
#
#
# Indices 1 2 3 4 5 6 
#
# 1 0.028831 -0.006266 0.013554 0.000000 0.023184 0.000000
# 2 -0.006266 0.047980 -0.005173 0.000000 0.007246 0.000000
# 3 0.013554 -0.005173 0.026090 0.000000 0.020294 0.000000
# 4 0.000000 0.000000 0.000000 0.014561 0.000000 -0.009196
# 5 0.023184 0.007246 0.020294 0.000000 0.057413 0.000000
# 6 0.000000 0.000000 0.000000 -0.009196 0.000000 0.034216
#
#
# Mechanical properties :
#
#
# Convention : Reuss Voigt Hill
#
# Bulk Modulus (GPa) = 9.33432 16.74535 13.03984
# Shear Modulus (GPa) = 20.78387 39.44562 30.11474
#
# Velocity S-wave (km/s) = 3.24798 4.47455 3.90966
# Velocity P-wave (km/s) = 4.33632 5.93253 5.19609
#
# Compressibility (1/GPa) = 0.10713149
#
# Stress axis : x y z
#
# Youngs Moduli (GPa) = 34.68462 20.84193 38.32906
#
# Poissons Ratio (x) = 0.13060 -0.51951
# Poissons Ratio (y) = 0.21735 0.19826
# Poissons Ratio (z) = -0.47011 0.10780
#
# Static dielectric constant tensor:
#      x y z
#    x 1.683460 0.000000 -0.006550 
#    y 0.000000 1.659370 0.000000 
#    z -0.006550 0.000000 1.683590 
# 
# From -- ./inp_files/71550.got.cif
#   From: 2010.05.17/outbox.cif.g08.bks.cpg/sg10_36_cif.got.tgz:71550.got - 2010.06.03 11:33:40.
