data_PCOD9152185
_publ_section_title
;
Structure prediction by ZEFSAII (Michael W. Deem and Ramdas Pophale) SiO2 
 PCOD9152185
Probable space group: P 2/M
;
_chemical_formula_sum "Si O2"
_cell_formula_units_Z 26
_cell_length_a 23.453466
_cell_length_b 11.845965
_cell_length_c 5.442463
_cell_angle_alpha 90.000000
_cell_angle_beta 123.776093
_cell_angle_gamma 90.000000
_cell_volume 1256.860641
_symmetry_space_group_name_H-M "P 2/M"
_symmetry_group_IT_number 10
_symmetry_cell_setting 'monoclinic'
loop_
_space_group_symop_operation_xyz
x,y,z
-x,y,-z
-x,-y,-z
x,-y,z
loop_
_atom_site_type_symbol
_atom_site_label
_atom_site_fract_x
_atom_site_fract_y
_atom_site_fract_z
Si Si1 0.582173 0.133625 0.716820
Si Si2 0.680683 0.500000 0.451715
Si Si3 0.133560 0.285640 0.552762
Si Si4 0.228870 0.500000 0.832134
Si Si5 0.778334 0.874035 0.536192
Si Si6 0.000000 0.222341 0.000000
Si Si7 0.641526 0.755496 0.359079
Si Si8 0.913950 0.121189 0.189113
O O1 0.500000 0.140690 0.500000
O O2 0.613375 0.192830 0.547467
O O3 0.600829 0.000000 0.764772
O O4 0.605388 0.193243 0.027387
O O5 0.724015 0.500000 0.300419
O O6 0.639700 0.618967 0.357379
O O7 0.727511 0.500000 0.811122
O O8 0.178510 0.393995 0.700212
O O9 0.188725 0.188621 0.616584
O O10 0.094274 0.237352 0.689624
O O11 0.069661 0.293085 0.210997
O O12 0.720051 0.796708 0.515125
O O13 0.751864 0.000000 0.419905
O O14 0.843968 0.883875 0.866491
O O15 0.978614 0.139018 0.168267
O O16 0.916532 0.000000 0.327365
#
# Coordination Sequence:
#
# PCOD9152185 Si02
#       8
#     4   2   4   2   4   2   4   4
#     4  11  25  46  73 109 151 191 230 280 344 411
#     4  12  26  48  69 108 137 190 233 292 350 413
#     4  11  23  40  61  89 123 173 220 284 346 418
#     4  12  26  45  71  91 141 178 231 292 358 409
#     4  10  21  36  61  96 128 163 222 287 346 412
#     4  10  23  39  58  88 124 167 223 276 348 430
#     4  12  24  44  72 104 143 190 239 287 344 410
#     4  10  21  38  60  89 128 167 214 280 356 422
#
# _framework density 20.686461999999999
#
# number of rings (size 3 to 8) (size 9 to 14) (size 15 to 20)
#    0.000    1.077    1.538    4.846    4.308    4.000 
#    0.000    3.846    0.000    0.000    0.000    0.000 
#    0.000    0.000    0.000    0.000    0.000    0.000 
#
# Total GULP energy -145073.410727 kJ/mol
# GULP energy per Si atom -5579.746566 kJ/mol
# Density = 2.063938 g / cm^3
# Si number density = 20.686462 Si / 1000 Ang^3
#
#
#
# Elastic Constant Matrix: (Units=GPa)
#
#
# Indices 1 2 3 4 5 6 
#
# 1 98.6295 33.4857 31.5009 0.0000 -10.6342 0.0000
# 2 33.4857 165.5169 61.8921 0.0000 -7.7143 0.0000
# 3 31.5009 61.8921 111.9104 0.0000 -9.8536 0.0000
# 4 0.0000 0.0000 0.0000 31.0649 0.0000 2.9492
# 5 -10.6342 -7.7143 -9.8536 0.0000 35.7453 0.0000
# 6 0.0000 0.0000 0.0000 2.9492 0.0000 25.6261
#
#
#
# Elastic Compliance Matrix: (Units=1/GPa)
#
#
# Indices 1 2 3 4 5 6 
#
# 1 0.011608 -0.001377 -0.002284 0.000000 0.002527 0.000000
# 2 -0.001377 0.007789 -0.003903 0.000000 0.000195 0.000000
# 3 -0.002284 -0.003903 0.011892 0.000000 0.001756 0.000000
# 4 0.000000 0.000000 0.000000 0.032546 0.000000 -0.003746
# 5 0.002527 0.000195 0.001756 0.000000 0.029254 0.000000
# 6 0.000000 0.000000 0.000000 -0.003746 0.000000 0.039454
#
#
# Mechanical properties :
#
#
# Convention : Reuss Voigt Hill
#
# Bulk Modulus (GPa) = 61.87297 69.97934 65.92616
# Shear Modulus (GPa) = 32.66779 35.09915 33.88347
#
# Velocity S-wave (km/s) = 3.97821 4.12360 4.05155
# Velocity P-wave (km/s) = 7.14677 7.52157 7.33657
#
# Compressibility (1/GPa) = 0.01616215
#
# Stress axis : x y z
#
# Youngs Moduli (GPa) = 86.14622 128.39107 84.09293
#
# Poissons Ratio (x) = 0.17676 0.19204
# Poissons Ratio (y) = 0.11860 0.32820
# Poissons Ratio (z) = 0.19672 0.50108
#
# Static dielectric constant tensor:
#      x y z
#    x 1.721250 0.000000 -0.032910 
#    y 0.000000 1.752930 0.000000 
#    z -0.032910 0.000000 1.848740 
# 
# From -- ./inp_files/12513.got.cif
#   From: 2010.05.17/outbox.cif.g08.bks.cpg/sg10_7_cif.got.tgz:12513.got - 2010.06.03 11:33:40.
