data_PCOD9152969
_publ_section_title
;
Structure prediction by ZEFSAII (Michael W. Deem and Ramdas Pophale) SiO2 
 PCOD9152969
Probable space group: P 2/M
;
_chemical_formula_sum "Si O2"
_cell_formula_units_Z 28
_cell_length_a 15.240360
_cell_length_b 19.054293
_cell_length_c 9.173349
_cell_angle_alpha 90.000000
_cell_angle_beta 30.034177
_cell_angle_gamma 90.000000
_cell_volume 1333.319949
_symmetry_space_group_name_H-M "P 2/M"
_symmetry_group_IT_number 10
_symmetry_cell_setting 'monoclinic'
loop_
_space_group_symop_operation_xyz
x,y,z
-x,y,-z
-x,-y,-z
x,-y,z
loop_
_atom_site_type_symbol
_atom_site_label
_atom_site_fract_x
_atom_site_fract_y
_atom_site_fract_z
Si Si1 0.189732 0.834546 0.288306
Si Si2 0.350750 0.420539 0.833138
Si Si3 0.551050 0.301910 0.092504
Si Si4 0.037296 0.420888 0.619041
Si Si5 0.502774 0.080686 0.817792
Si Si6 0.859486 0.851727 0.318223
Si Si7 0.844177 0.688823 0.328556
O O1 0.142644 0.873030 0.509644
O O2 0.000000 0.814593 0.500000
O O3 0.322100 0.766740 0.099453
O O4 0.317525 0.890578 0.026246
O O5 0.500000 0.407786 0.500000
O O6 0.374112 0.500000 0.857386
O O7 0.358533 0.363644 0.948769
O O8 0.160316 0.417982 0.033952
O O9 0.353704 0.301102 0.446826
O O10 0.500000 0.316326 0.000000
O O11 0.107999 0.500000 0.538321
O O12 0.000000 0.411685 0.500000
O O13 0.146098 0.361966 0.545546
O O14 0.666410 0.129053 0.537787
O O15 0.533024 0.000000 0.736188
O O16 0.500000 0.086031 0.000000
O O17 0.893633 0.768968 0.291424
O O18 0.000000 0.878996 0.000000
O O19 0.000000 0.662850 0.000000
#
# Coordination Sequence:
#
# PCOD9152969 Si02
#       7
#     4   4   4   4   4   4   4
#     4  11  23  40  61  92 123 158 205 249 297 352
#     4  10  23  41  58  83 118 156 199 249 309 366
#     4  12  22  38  60  85 118 155 203 252 299 357
#     4  10  22  39  58  83 116 154 198 247 303 359
#     4   9  18  39  67  93 127 165 199 239 293 355
#     4  10  21  39  62  91 126 159 200 246 296 356
#     4  11  22  36  59  85 118 153 199 251 299 355
#
# _framework density 21.000211
#
# number of rings (size 3 to 8) (size 9 to 14) (size 15 to 20)
#    0.000    1.571    2.857    2.143    2.000    1.714 
#    0.000    0.714    0.000    0.857    0.000    0.000 
#    0.000    0.000    0.000    0.000    0.000    0.000 
#
# Total GULP energy -155889.597661 kJ/mol
# GULP energy per Si atom -5567.485631 kJ/mol
# Density = 2.095241 g / cm^3
# Si number density = 21.000211 Si / 1000 Ang^3
#
#
#
# Elastic Constant Matrix: (Units=GPa)
#
#
# Indices 1 2 3 4 5 6 
#
# 1 41.3012 31.6110 39.8547 0.0000 -17.3741 0.0000
# 2 31.6110 88.7935 33.4351 0.0000 1.7347 0.0000
# 3 39.8547 33.4351 152.3235 0.0000 -21.7044 0.0000
# 4 0.0000 0.0000 0.0000 11.0569 0.0000 0.1254
# 5 -17.3741 1.7347 -21.7044 0.0000 25.4013 0.0000
# 6 0.0000 0.0000 0.0000 0.1254 0.0000 17.6837
#
#
#
# Elastic Compliance Matrix: (Units=1/GPa)
#
#
# Indices 1 2 3 4 5 6 
#
# 1 0.062234 -0.020549 -0.006271 0.000000 0.038612 0.000000
# 2 -0.020549 0.019354 -0.001210 0.000000 -0.016411 0.000000
# 3 -0.006271 -0.001210 0.008963 0.000000 0.003452 0.000000
# 4 0.000000 0.000000 0.000000 0.090449 0.000000 -0.000641
# 5 0.038612 -0.016411 0.003452 0.000000 0.069848 0.000000
# 6 0.000000 0.000000 0.000000 -0.000641 0.000000 0.056554
#
#
# Mechanical properties :
#
#
# Convention : Reuss Voigt Hill
#
# Bulk Modulus (GPa) = 28.99257 54.69106 41.84181
# Shear Modulus (GPa) = 13.33483 22.66288 17.99885
#
# Velocity S-wave (km/s) = 2.52263 3.28864 2.93077
# Velocity P-wave (km/s) = 4.72448 6.36552 5.60538
#
# Compressibility (1/GPa) = 0.03449160
#
# Stress axis : x y z
#
# Youngs Moduli (GPa) = 16.06845 51.66963 111.56685
#
# Poissons Ratio (x) = 1.06174 0.69963
# Poissons Ratio (y) = 0.33018 0.13500
# Poissons Ratio (z) = 0.10076 0.06252
#
# Static dielectric constant tensor:
#      x y z
#    x 1.758220 0.000000 0.019920 
#    y 0.000000 1.768010 0.000000 
#    z 0.019920 0.000000 1.904140 
# 
# From -- ./inp_files/30381.got.cif
#   From: 2010.05.17/outbox.cif.g08.bks.cpg/sg10_16_cif.got.tgz:30381.got - 2010.06.03 11:33:40.
