data_PCOD9152946
_publ_section_title
;
Structure prediction by ZEFSAII (Michael W. Deem and Ramdas Pophale) SiO2 
 PCOD9152946
Probable space group: P 2/M
;
_chemical_formula_sum "Si O2"
_cell_formula_units_Z 24
_cell_length_a 16.383539
_cell_length_b 8.876511
_cell_length_c 9.306600
_cell_angle_alpha 90.000000
_cell_angle_beta 106.346894
_cell_angle_gamma 90.000000
_cell_volume 1298.733683
_symmetry_space_group_name_H-M "P 2/M"
_symmetry_group_IT_number 10
_symmetry_cell_setting 'monoclinic'
loop_
_space_group_symop_operation_xyz
x,y,z
-x,y,-z
-x,-y,-z
x,-y,z
loop_
_atom_site_type_symbol
_atom_site_label
_atom_site_fract_x
_atom_site_fract_y
_atom_site_fract_z
Si Si1 0.098961 0.818448 0.882507
Si Si2 0.582385 0.681826 0.635739
Si Si3 0.585039 0.819716 0.953335
Si Si4 0.743135 0.680761 0.202259
Si Si5 0.096037 0.180896 0.217011
Si Si6 0.748296 0.681394 0.537178
O O1 0.168514 0.738128 0.820364
O O2 0.001579 0.776862 0.797493
O O3 0.106675 0.000000 0.872891
O O4 0.112443 0.780626 0.057642
O O5 0.500000 0.720918 0.500000
O O6 0.583536 0.500000 0.652636
O O7 0.578981 0.755873 0.789823
O O8 0.667541 0.728186 0.593068
O O9 0.593181 0.000000 0.952917
O O10 0.500000 0.780813 0.000000
O O11 0.666279 0.750490 0.073466
O O12 0.738794 0.500000 0.192123
O O13 0.736850 0.727233 0.365974
O O14 0.165669 0.254653 0.352571
O O15 0.101478 0.000000 0.230899
O O16 0.751861 0.500000 0.542134
#
# Coordination Sequence:
#
# PCOD9152946 Si02
#       6
#     4   4   4   4   4   4
#     4   9  19  37  58  82 111 144 186 231 277 331
#     4  10  21  39  62  85 112 148 187 227 274 328
#     4  11  24  40  59  85 115 146 183 228 276 327
#     4  11  23  38  57  82 113 149 186 227 277 329
#     4   9  19  36  58  81 109 147 186 228 279 332
#     4  10  22  37  54  81 114 146 185 231 276 326
#
# _framework density 18.479538999999999
#
# number of rings (size 3 to 8) (size 9 to 14) (size 15 to 20)
#    0.000    2.000    0.000    4.000    0.000    9.667 
#    0.000    5.000    0.000    0.000    0.000    0.000 
#    0.000    0.000    0.000    0.000    0.000    0.000 
#
# Total GULP energy -134099.148466 kJ/mol
# GULP energy per Si atom -5587.464519 kJ/mol
# Density = 1.843748 g / cm^3
# Si number density = 18.479539 Si / 1000 Ang^3
#
#
#
# Elastic Constant Matrix: (Units=GPa)
#
#
# Indices 1 2 3 4 5 6 
#
# 1 160.7722 52.2251 119.9875 0.0000 -9.2413 0.0000
# 2 52.2251 28.2902 55.2358 0.0000 -4.3532 0.0000
# 3 119.9875 55.2358 186.3186 0.0000 2.5824 0.0000
# 4 0.0000 0.0000 0.0000 52.2297 0.0000 0.3526
# 5 -9.2413 -4.3532 2.5824 0.0000 36.4433 0.0000
# 6 0.0000 0.0000 0.0000 0.3526 0.0000 30.8117
#
#
#
# Elastic Compliance Matrix: (Units=1/GPa)
#
#
# Indices 1 2 3 4 5 6 
#
# 1 0.016719 -0.022580 -0.004098 0.000000 0.001833 0.000000
# 2 -0.022580 0.119820 -0.021120 0.000000 0.010083 0.000000
# 3 -0.004098 -0.021120 0.014331 0.000000 -0.004577 0.000000
# 4 0.000000 0.000000 0.000000 0.019148 0.000000 -0.000219
# 5 0.001833 0.010083 -0.004577 0.000000 0.029433 0.000000
# 6 0.000000 0.000000 0.000000 -0.000219 0.000000 0.032458
#
#
# Mechanical properties :
#
#
# Convention : Reuss Voigt Hill
#
# Bulk Modulus (GPa) = 18.09205 92.25311 55.17258
# Shear Modulus (GPa) = 14.45385 33.75912 24.10649
#
# Velocity S-wave (km/s) = 2.79974 4.27879 3.61570
# Velocity P-wave (km/s) = 4.50144 8.62791 6.88127
#
# Compressibility (1/GPa) = 0.05527291
#
# Stress axis : x y z
#
# Youngs Moduli (GPa) = 59.81338 8.34587 69.77990
#
# Poissons Ratio (x) = 0.18845 0.28595
# Poissons Ratio (y) = 1.35061 1.47374
# Poissons Ratio (z) = 0.24511 0.17626
#
# Static dielectric constant tensor:
#      x y z
#    x 1.617380 0.000000 -0.007330 
#    y 0.000000 1.620180 0.000000 
#    z -0.007330 0.000000 1.605460 
# 
# From -- ./inp_files/27067.got.cif
#   From: 2010.05.17/outbox.cif.g08.bks.cpg/sg10_14_cif.got.tgz:27067.got - 2010.06.03 11:33:40.
