data_PCOD9152501
_publ_section_title
;
Structure prediction by ZEFSAII (Michael W. Deem and Ramdas Pophale) SiO2 
 PCOD9152501
Probable space group: P 2/M
;
_chemical_formula_sum "Si O2"
_cell_formula_units_Z 24
_cell_length_a 20.719311
_cell_length_b 10.513305
_cell_length_c 15.257772
_cell_angle_alpha 90.000000
_cell_angle_beta 158.621058
_cell_angle_gamma 90.000000
_cell_volume 1211.558562
_symmetry_space_group_name_H-M "P 2/M"
_symmetry_group_IT_number 10
_symmetry_cell_setting 'monoclinic'
loop_
_space_group_symop_operation_xyz
x,y,z
-x,y,-z
-x,-y,-z
x,-y,z
loop_
_atom_site_type_symbol
_atom_site_label
_atom_site_fract_x
_atom_site_fract_y
_atom_site_fract_z
Si Si1 0.587641 0.256213 0.020795
Si Si2 0.661246 0.153472 0.763175
Si Si3 0.246250 0.639681 0.500515
Si Si4 0.034750 0.853671 0.147342
Si Si5 0.233298 0.145264 0.911897
Si Si6 0.060231 0.359222 0.451405
O O1 0.440591 0.340296 0.786249
O O2 0.500000 0.205260 0.000000
O O3 0.650957 0.155167 0.029238
O O4 0.759109 0.335657 0.266991
O O5 0.500000 0.204230 0.500000
O O6 0.651357 0.000000 0.745658
O O7 0.660353 0.183970 0.865348
O O8 0.852688 0.186447 0.965238
O O9 0.231401 0.500000 0.440367
O O10 0.188070 0.756050 0.366464
O O11 0.117309 0.644186 0.421911
O O12 0.076632 0.000000 0.226221
O O13 0.000000 0.852582 0.000000
O O14 0.073895 0.244863 0.701169
O O15 0.170106 0.000000 0.844158
O O16 0.987453 0.500000 0.378536
#
# Coordination Sequence:
#
# PCOD9152501 Si02
#       6
#     4   4   4   4   4   4
#     4  10  23  39  58  88 122 161 205 246 293 358
#     4   9  19  37  60  86 117 153 195 242 292 355
#     4  10  21  39  62  88 121 158 201 250 298 350
#     4  10  21  37  62  91 120 156 197 242 300 365
#     4  11  23  39  63  91 120 157 201 251 305 354
#     4  10  21  40  64  86 117 160 204 246 297 361
#
# _framework density 19.809194999999999
#
# number of rings (size 3 to 8) (size 9 to 14) (size 15 to 20)
#    0.000    2.000    1.667    1.000    2.333    6.667 
#    0.000    3.333    0.000    1.000    0.000    0.000 
#    0.000    0.000    0.000    0.000    0.000    0.000 
#
# Total GULP energy -133924.317853 kJ/mol
# GULP energy per Si atom -5580.179911 kJ/mol
# Density = 1.976411 g / cm^3
# Si number density = 19.809195 Si / 1000 Ang^3
#
#
#
# Elastic Constant Matrix: (Units=GPa)
#
#
# Indices 1 2 3 4 5 6 
#
# 1 71.1690 35.4025 29.8312 0.0000 -8.1791 0.0000
# 2 35.4025 119.3538 67.6871 0.0000 -3.6703 0.0000
# 3 29.8312 67.6871 119.4506 0.0000 -12.1731 0.0000
# 4 0.0000 0.0000 0.0000 17.3926 0.0000 17.2977
# 5 -8.1791 -3.6703 -12.1731 0.0000 22.0247 0.0000
# 6 0.0000 0.0000 0.0000 17.2977 0.0000 54.3303
#
#
#
# Elastic Compliance Matrix: (Units=1/GPa)
#
#
# Indices 1 2 3 4 5 6 
#
# 1 0.017294 -0.004146 -0.001468 0.000000 0.004920 0.000000
# 2 -0.004146 0.013417 -0.006884 0.000000 -0.003109 0.000000
# 3 -0.001468 -0.006884 0.013211 0.000000 0.005609 0.000000
# 4 0.000000 0.000000 0.000000 0.084137 0.000000 -0.026788
# 5 0.004920 -0.003109 0.005609 0.000000 0.049813 0.000000
# 6 0.000000 0.000000 0.000000 -0.026788 0.000000 0.026935
#
#
# Mechanical properties :
#
#
# Convention : Reuss Voigt Hill
#
# Bulk Modulus (GPa) = 52.83916 63.97944 58.40930
# Shear Modulus (GPa) = 21.17647 30.55302 25.86475
#
# Velocity S-wave (km/s) = 3.27314 3.93156 3.61736
# Velocity P-wave (km/s) = 6.40442 7.27856 6.85544
#
# Compressibility (1/GPa) = 0.01892536
#
# Stress axis : x y z
#
# Youngs Moduli (GPa) = 57.82268 74.53484 75.69546
#
# Poissons Ratio (x) = 0.30900 0.11115
# Poissons Ratio (y) = 0.23972 0.52109
# Poissons Ratio (z) = 0.08491 0.51310
#
# Static dielectric constant tensor:
#      x y z
#    x 1.729110 0.000000 0.003860 
#    y 0.000000 1.682400 0.000000 
#    z 0.003860 0.000000 1.690890 
# 
# From -- ./inp_files/70581.got.cif
#   From: 2010.05.17/outbox.cif.g08.bks.cpg/sg10_36_cif.got.tgz:70581.got - 2010.06.03 11:33:40.
