data_PCOD9152879
_publ_section_title
;
Structure prediction by ZEFSAII (Michael W. Deem and Ramdas Pophale) SiO2 
 PCOD9152879
Probable space group: P 2/M
;
_chemical_formula_sum "Si O2"
_cell_formula_units_Z 25
_cell_length_a 15.518124
_cell_length_b 9.923489
_cell_length_c 16.297052
_cell_angle_alpha 90.000000
_cell_angle_beta 146.571992
_cell_angle_gamma 90.000000
_cell_volume 1382.536432
_symmetry_space_group_name_H-M "P 2/M"
_symmetry_group_IT_number 10
_symmetry_cell_setting 'monoclinic'
loop_
_space_group_symop_operation_xyz
x,y,z
-x,y,-z
-x,-y,-z
x,-y,z
loop_
_atom_site_type_symbol
_atom_site_label
_atom_site_fract_x
_atom_site_fract_y
_atom_site_fract_z
Si Si1 0.464908 0.345293 0.233638
Si Si2 0.822351 0.657527 0.119736
Si Si3 0.785460 0.258023 0.400977
Si Si4 0.688071 0.151341 0.151129
Si Si5 0.546273 0.158534 0.444554
Si Si6 0.000000 0.500000 0.500000
Si Si7 0.103787 0.153543 0.339533
O O1 0.477334 0.500000 0.270955
O O2 0.618619 0.309984 0.302622
O O3 0.461536 0.246750 0.308387
O O4 0.314008 0.332403 0.055904
O O5 0.852423 0.500000 0.161764
O O6 0.762201 0.734574 0.152844
O O7 0.976159 0.736349 0.213628
O O8 0.750283 0.170875 0.292391
O O9 0.894003 0.381782 0.461037
O O10 0.862238 0.176082 0.536707
O O11 0.725156 0.000000 0.150811
O O12 0.500000 0.166341 0.000000
O O13 0.500000 0.196217 0.500000
O O14 0.731703 0.174731 0.575771
O O15 0.510337 0.000000 0.404356
O O16 0.051778 0.000000 0.283848
#
# Coordination Sequence:
#
# PCOD9152879 Si02
#       7
#     4   4   4   4   4   1   4
#     4  10  21  39  59  84 119 153 193 236 289 353
#     4  11  24  38  56  83 117 160 197 242 289 345
#     4  11  22  37  55  83 113 155 200 246 289 344
#     4  11  23  37  57  82 113 154 207 252 291 339
#     4   9  20  40  67  94 116 146 188 236 293 359
#     4  12  24  32  56  84 110 152 200 248 284 328
#     4  10  22  39  60  84 118 151 191 244 296 349
#
# _framework density 18.082706000000002
#
# number of rings (size 3 to 8) (size 9 to 14) (size 15 to 20)
#    0.000    1.600    2.400    1.920    4.480    3.200 
#    0.000    3.200    0.000    4.800    0.000    0.000 
#    0.000    0.000    0.000    0.000    0.000    0.000 
#
# Total GULP energy -139420.599794 kJ/mol
# GULP energy per Si atom -5576.823992 kJ/mol
# Density = 1.804155 g / cm^3
# Si number density = 18.082706 Si / 1000 Ang^3
#
#
#
# Elastic Constant Matrix: (Units=GPa)
#
#
# Indices 1 2 3 4 5 6 
#
# 1 95.1098 57.7996 35.0007 0.0000 -14.3186 0.0000
# 2 57.7996 132.7671 50.9748 0.0000 -0.9435 0.0000
# 3 35.0007 50.9748 63.3600 0.0000 -0.1891 0.0000
# 4 0.0000 0.0000 0.0000 26.7649 0.0000 -0.6248
# 5 -14.3186 -0.9435 -0.1891 0.0000 18.2990 0.0000
# 6 0.0000 0.0000 0.0000 -0.6248 0.0000 22.8740
#
#
#
# Elastic Compliance Matrix: (Units=1/GPa)
#
#
# Indices 1 2 3 4 5 6 
#
# 1 0.018002 -0.005697 -0.005320 0.000000 0.013738 0.000000
# 2 -0.005697 0.012705 -0.007086 0.000000 -0.003876 0.000000
# 3 -0.005320 -0.007086 0.024410 0.000000 -0.004276 0.000000
# 4 0.000000 0.000000 0.000000 0.037386 0.000000 0.001021
# 5 0.013738 -0.003876 -0.004276 0.000000 0.065153 0.000000
# 6 0.000000 0.000000 0.000000 0.001021 0.000000 0.043746
#
#
# Mechanical properties :
#
#
# Convention : Reuss Voigt Hill
#
# Bulk Modulus (GPa) = 52.88004 64.30967 58.59486
# Shear Modulus (GPa) = 20.49908 23.41838 21.95873
#
# Velocity S-wave (km/s) = 3.37059 3.60261 3.48853
# Velocity P-wave (km/s) = 6.66744 7.27643 6.97858
#
# Compressibility (1/GPa) = 0.01891073
#
# Stress axis : x y z
#
# Youngs Moduli (GPa) = 55.54831 78.70740 40.96647
#
# Poissons Ratio (x) = 0.44839 0.21796
# Poissons Ratio (y) = 0.31645 0.29030
# Poissons Ratio (z) = 0.29554 0.55774
#
# Static dielectric constant tensor:
#      x y z
#    x 1.600880 0.000000 0.015870 
#    y 0.000000 1.613260 0.000000 
#    z 0.015870 0.000000 1.621400 
# 
# From -- ./inp_files/34021.got.cif
#   From: 2010.05.17/outbox.cif.g08.bks.cpg/sg10_18_cif.got.tgz:34021.got - 2010.06.03 11:33:40.
