data_PCOD9152200
_publ_section_title
;
Structure prediction by ZEFSAII (Michael W. Deem and Ramdas Pophale) SiO2 
 PCOD9152200
Probable space group: P 2/M
;
_chemical_formula_sum "Si O2"
_cell_formula_units_Z 32
_cell_length_a 16.202081
_cell_length_b 8.819000
_cell_length_c 16.083614
_cell_angle_alpha 90.000000
_cell_angle_beta 54.695566
_cell_angle_gamma 90.000000
_cell_volume 1875.484011
_symmetry_space_group_name_H-M "P 2/M"
_symmetry_group_IT_number 10
_symmetry_cell_setting 'monoclinic'
loop_
_space_group_symop_operation_xyz
x,y,z
-x,y,-z
-x,-y,-z
x,-y,z
loop_
_atom_site_type_symbol
_atom_site_label
_atom_site_fract_x
_atom_site_fract_y
_atom_site_fract_z
Si Si1 0.136253 0.681035 0.091508
Si Si2 0.922775 0.818819 0.227562
Si Si3 0.725222 0.680109 0.422459
Si Si4 0.620217 0.820032 0.325918
Si Si5 0.449108 0.683511 0.159527
Si Si6 0.173994 0.820863 0.891841
Si Si7 0.346163 0.684042 0.047909
Si Si8 0.409351 0.181623 0.361670
O O1 0.128341 0.500000 0.103893
O O2 0.236532 0.735056 0.081742
O O3 0.033428 0.757308 0.182481
O O4 0.151015 0.726010 0.986663
O O5 0.834498 0.745896 0.333978
O O6 0.895790 0.782049 0.146768
O O7 0.917666 0.000000 0.238055
O O8 0.729036 0.500000 0.424385
O O9 0.650486 0.732082 0.391385
O O10 0.681733 0.748884 0.532419
O O11 0.711371 0.797847 0.207204
O O12 0.513906 0.776051 0.347970
O O13 0.617923 0.000000 0.347463
O O14 0.447273 0.500000 0.167534
O O15 0.379009 0.727640 0.121859
O O16 0.415744 0.756299 0.264814
O O17 0.563288 0.730010 0.066979
O O18 0.159912 0.000000 0.918448
O O19 0.345868 0.500000 0.046796
O O20 0.402844 0.000000 0.365144
#
# Coordination Sequence:
#
# PCOD9152200 Si02
#       8
#     4   4   4   4   4   4   4   4
#     4  11  20  30  49  77 103 130 169 212 251 295
#     4  10  21  37  52  68  98 138 172 207 254 301
#     4  11  22  35  52  74  99 131 173 215 250 291
#     4   9  19  34  50  71 105 142 169 201 249 299
#     4   9  17  34  56  76 102 137 171 202 245 299
#     4   9  18  32  48  69 100 137 171 202 244 297
#     4   8  17  33  53  77 106 135 163 204 255 299
#     4  11  21  33  51  76 105 136 169 206 251 299
#
# _framework density 17.062262
#
# number of rings (size 3 to 8) (size 9 to 14) (size 15 to 20)
#    0.000    2.250    0.000    5.250    0.000    6.500 
#    0.000    3.125    0.000    0.750    0.000    5.250 
#    0.000    0.000    0.000    0.000    0.000    0.000 
#
# Total GULP energy -178664.829212 kJ/mol
# GULP energy per Si atom -5583.275913 kJ/mol
# Density = 1.702343 g / cm^3
# Si number density = 17.062262 Si / 1000 Ang^3
#
#
#
# Elastic Constant Matrix: (Units=GPa)
#
#
# Indices 1 2 3 4 5 6 
#
# 1 121.3868 41.5104 80.8118 0.0000 -16.2405 0.0000
# 2 41.5104 50.3165 52.6213 0.0000 -0.7969 0.0000
# 3 80.8118 52.6213 132.0019 0.0000 6.0313 0.0000
# 4 0.0000 0.0000 0.0000 42.6999 0.0000 5.5054
# 5 -16.2405 -0.7969 6.0313 0.0000 13.7985 0.0000
# 6 0.0000 0.0000 0.0000 5.5054 0.0000 24.9528
#
#
#
# Elastic Compliance Matrix: (Units=1/GPa)
#
#
# Indices 1 2 3 4 5 6 
#
# 1 0.023924 -0.003831 -0.014689 0.000000 0.034357 0.000000
# 2 -0.003831 0.035601 -0.011974 0.000000 0.002781 0.000000
# 3 -0.014689 -0.011974 0.022615 0.000000 -0.027865 0.000000
# 4 0.000000 0.000000 0.000000 0.024105 0.000000 -0.005318
# 5 0.034357 0.002781 -0.027865 0.000000 0.125250 0.000000
# 6 0.000000 0.000000 0.000000 -0.005318 0.000000 0.041249
#
#
# Mechanical properties :
#
#
# Convention : Reuss Voigt Hill
#
# Bulk Modulus (GPa) = 47.27625 72.62134 59.94880
# Shear Modulus (GPa) = 14.67220 24.87433 19.77326
#
# Velocity S-wave (km/s) = 2.93562 3.82233 3.40794
# Velocity P-wave (km/s) = 6.26568 7.88259 7.12018
#
# Compressibility (1/GPa) = 0.02115227
#
# Stress axis : x y z
#
# Youngs Moduli (GPa) = 41.79948 28.08914 44.21939
#
# Poissons Ratio (x) = 0.10761 0.64953
# Poissons Ratio (y) = 0.16013 0.52947
# Poissons Ratio (z) = 0.61398 0.33633
#
# Static dielectric constant tensor:
#      x y z
#    x 1.576950 0.000000 -0.013370 
#    y 0.000000 1.569210 0.000000 
#    z -0.013370 0.000000 1.560720 
# 
# From -- ./inp_files/66523.got.cif
#   From: 2010.05.17/outbox.cif.g08.bks.cpg/sg10_34_cif.got.tgz:66523.got - 2010.06.03 11:33:40.
