data_PCOD9152715
_publ_section_title
;
Structure prediction by ZEFSAII (Michael W. Deem and Ramdas Pophale) SiO2 
 PCOD9152715
Probable space group: P 2/M
;
_chemical_formula_sum "Si O2"
_cell_formula_units_Z 28
_cell_length_a 22.880623
_cell_length_b 9.012337
_cell_length_c 9.098748
_cell_angle_alpha 90.000000
_cell_angle_beta 126.661052
_cell_angle_gamma 90.000000
_cell_volume 1505.080259
_symmetry_space_group_name_H-M "P 2/M"
_symmetry_group_IT_number 10
_symmetry_cell_setting 'monoclinic'
loop_
_space_group_symop_operation_xyz
x,y,z
-x,y,-z
-x,-y,-z
x,-y,z
loop_
_atom_site_type_symbol
_atom_site_label
_atom_site_fract_x
_atom_site_fract_y
_atom_site_fract_z
Si Si1 0.857547 0.822564 0.133883
Si Si2 0.142645 0.676798 0.547012
Si Si3 0.279755 0.822026 0.592143
Si Si4 0.289770 0.178134 0.263733
Si Si5 0.574156 0.677564 0.696778
Si Si6 0.994187 0.177589 0.819124
Si Si7 0.429090 0.821973 0.988019
O O1 0.858118 0.737805 0.288216
O O2 0.929947 0.790205 0.148925
O O3 0.856580 0.000000 0.161452
O O4 0.785521 0.786335 0.932241
O O5 0.143196 0.500000 0.547471
O O6 0.213796 0.739855 0.572299
O O7 0.071667 0.738058 0.356941
O O8 0.284579 0.782296 0.427629
O O9 0.355780 0.788983 0.787251
O O10 0.267377 0.000000 0.582876
O O11 0.356907 0.257054 0.285946
O O12 0.300345 0.000000 0.270775
O O13 0.500000 0.718258 0.500000
O O14 0.579231 0.500000 0.710131
O O15 0.572089 0.742814 0.857304
O O16 0.980913 0.000000 0.788187
O O17 0.000000 0.214616 0.000000
O O18 0.431881 0.000000 0.015437
O O19 0.500000 0.779623 0.000000
#
# Coordination Sequence:
#
# PCOD9152715 Si02
#       7
#     4   4   4   4   4   4   4
#     4  10  21  38  61  87 114 148 191 237 285 338
#     4  12  25  38  56  85 121 157 191 231 281 339
#     4  10  21  39  62  87 115 148 191 240 289 341
#     4  10  21  39  64  89 112 145 192 243 288 334
#     4  11  24  39  56  83 120 158 192 230 283 347
#     4  10  21  40  65  88 112 147 192 240 289 340
#     4  10  21  38  62  89 114 146 193 246 291 334
#
# _framework density 18.603660000000001
#
# number of rings (size 3 to 8) (size 9 to 14) (size 15 to 20)
#    0.000    1.571    0.000    4.714    0.000   12.571 
#    0.000    1.429    0.000    0.000    0.000    0.000 
#    0.000    0.000    0.000    0.000    0.000    0.000 
#
# Total GULP energy -156589.453904 kJ/mol
# GULP energy per Si atom -5592.480497 kJ/mol
# Density = 1.856132 g / cm^3
# Si number density = 18.603660 Si / 1000 Ang^3
#
#
#
# Elastic Constant Matrix: (Units=GPa)
#
#
# Indices 1 2 3 4 5 6 
#
# 1 220.4561 95.0568 140.6343 0.0000 -1.7858 0.0000
# 2 95.0568 57.8852 95.3780 0.0000 0.7912 0.0000
# 3 140.6343 95.3780 214.3744 0.0000 -6.1715 0.0000
# 4 0.0000 0.0000 0.0000 13.0380 0.0000 15.9611
# 5 -1.7858 0.7912 -6.1715 0.0000 41.8605 0.0000
# 6 0.0000 0.0000 0.0000 15.9611 0.0000 -15.9236
#
#
#
# Elastic Compliance Matrix: (Units=1/GPa)
#
#
# Indices 1 2 3 4 5 6 
#
# 1 0.016882 -0.035987 0.004997 0.000000 0.002137 0.000000
# 2 -0.035987 0.142717 -0.040181 0.000000 -0.010157 0.000000
# 3 0.004997 -0.040181 0.019374 0.000000 0.003829 0.000000
# 4 0.000000 0.000000 0.000000 0.034439 0.000000 0.034520
# 5 0.002137 -0.010157 0.003829 0.000000 0.024736 0.000000
# 6 0.000000 0.000000 0.000000 0.034520 0.000000 -0.028198
#
#
# Mechanical properties :
#
#
# Convention : Reuss Voigt Hill
#
# Bulk Modulus (GPa) = 27.29840 128.31709 77.80774
# Shear Modulus (GPa) = 13.71732 18.57143 16.14438
#
# Velocity S-wave (km/s) = 2.71836 3.16297 2.94905
# Velocity P-wave (km/s) = 4.95562 9.08091 7.31509
#
# Compressibility (1/GPa) = 0.03663219
#
# Stress axis : x y z
#
# Youngs Moduli (GPa) = 59.23336 7.00685 51.61682
#
# Poissons Ratio (x) = 0.25216 -0.25795
# Poissons Ratio (y) = 2.13164 2.07401
# Poissons Ratio (z) = -0.29602 0.28154
#
# Static dielectric constant tensor:
#      x y z
#    x 1.603430 0.000000 0.004060 
#    y 0.000000 1.616420 0.000000 
#    z 0.004060 0.000000 1.612860 
# 
# From -- ./inp_files/34286.got.cif
#   From: 2010.05.17/outbox.cif.g08.bks.cpg/sg10_18_cif.got.tgz:34286.got - 2010.06.03 11:33:40.
