data_PCOD9152574
_publ_section_title
;
Structure prediction by ZEFSAII (Michael W. Deem and Ramdas Pophale) SiO2 
 PCOD9152574
Probable space group: P 2/M
;
_chemical_formula_sum "Si O2"
_cell_formula_units_Z 20
_cell_length_a 4.869681
_cell_length_b 28.654336
_cell_length_c 5.271049
_cell_angle_alpha 90.000000
_cell_angle_beta 87.915717
_cell_angle_gamma 90.000000
_cell_volume 735.022264
_symmetry_space_group_name_H-M "P 2/M"
_symmetry_group_IT_number 10
_symmetry_cell_setting 'monoclinic'
loop_
_space_group_symop_operation_xyz
x,y,z
-x,y,-z
-x,-y,-z
x,-y,z
loop_
_atom_site_type_symbol
_atom_site_label
_atom_site_fract_x
_atom_site_fract_y
_atom_site_fract_z
Si Si1 0.808289 0.400467 0.255618
Si Si2 0.808224 0.300935 0.255663
Si Si3 0.180723 0.103038 0.738069
Si Si4 0.807444 0.798536 0.255636
Si Si5 0.808290 0.500000 0.255611
Si Si6 0.737084 0.000000 0.186914
O O1 0.653471 0.350701 0.256691
O O2 0.000000 0.400543 0.500000
O O3 0.653536 0.450233 0.256922
O O4 0.000000 0.400401 0.000000
O O5 0.000000 0.301317 0.500000
O O6 0.652533 0.251192 0.255703
O O7 0.000000 0.300655 0.000000
O O8 0.284546 0.050529 0.685593
O O9 0.000000 0.111222 0.500000
O O10 0.350622 0.151558 0.749585
O O11 0.000000 0.100255 0.000000
O O12 0.000000 0.796656 0.500000
O O13 0.000000 0.799438 0.000000
O O14 0.000000 0.500000 0.500000
O O15 0.000000 0.500000 0.000000
O O16 0.500000 0.000000 0.000000
O O17 0.000000 0.000000 0.000000
#
# Coordination Sequence:
#
# PCOD9152574 Si02
#       6
#     4   4   4   4   2   2
#     4   8  12  16  21  29  44  66  98 138 185 236
#     4   8  12  17  25  39  57  80 110 150 197 248
#     4   9  17  31  49  71  97 127 161 200 245 296
#     4   8  13  21  35  53  75 101 132 170 217 268
#     4   8  12  16  20  26  38  62  94 134 181 232
#     4  10  21  38  58  82 110 142 178 218 262 312
#
# _framework density 27.210059000000001
#
# number of rings (size 3 to 8) (size 9 to 14) (size 15 to 20)
#    0.000    3.600    0.000    0.300    0.000    0.000 
#    0.000    8.000    0.000    0.000    0.000    0.000 
#    0.000    0.000    0.000    0.000    0.000    0.000 
#
# Total GULP energy -111558.709436 kJ/mol
# GULP energy per Si atom -5577.935472 kJ/mol
# Density = 2.714813 g / cm^3
# Si number density = 27.210059 Si / 1000 Ang^3
#
#
#
# Elastic Constant Matrix: (Units=GPa)
#
#
# Indices 1 2 3 4 5 6 
#
# 1 53.4523 7.0377 48.8643 0.0000 -11.4461 0.0000
# 2 7.0377 439.0496 -24.2008 0.0000 -0.3925 0.0000
# 3 48.8643 -24.2008 244.3981 0.0000 -14.1528 0.0000
# 4 0.0000 0.0000 0.0000 37.9095 0.0000 5.8024
# 5 -11.4461 -0.3925 -14.1528 0.0000 71.8801 0.0000
# 6 0.0000 0.0000 0.0000 5.8024 0.0000 -47.9257
#
#
#
# Elastic Compliance Matrix: (Units=1/GPa)
#
#
# Indices 1 2 3 4 5 6 
#
# 1 0.023626 -0.000631 -0.004621 0.000000 0.002849 0.000000
# 2 -0.000631 0.002307 0.000354 0.000000 -0.000018 0.000000
# 3 -0.004621 0.000354 0.005066 0.000000 0.000264 0.000000
# 4 0.000000 0.000000 0.000000 0.025899 0.000000 0.003136
# 5 0.002849 -0.000018 0.000264 0.000000 0.014417 0.000000
# 6 0.000000 0.000000 0.000000 0.003136 0.000000 -0.020486
#
#
# Mechanical properties :
#
#
# Convention : Reuss Voigt Hill
#
# Bulk Modulus (GPa) = 47.16547 88.92250 68.04398
# Shear Modulus (GPa) = 73.86221 59.38602 66.62412
#
# Velocity S-wave (km/s) = 5.21576 4.67679 4.95361
# Velocity P-wave (km/s) = 7.32418 7.86856 7.60124
#
# Compressibility (1/GPa) = 0.02120195
#
# Stress axis : x y z
#
# Youngs Moduli (GPa) = 42.32643 433.41988 197.39809
#
# Poissons Ratio (x) = 0.27344 0.91222
# Poissons Ratio (y) = 0.02670 -0.06979
# Poissons Ratio (z) = 0.19560 -0.15323
#
# Static dielectric constant tensor:
#      x y z
#    x 1.936870 0.000000 -0.028670 
#    y 0.000000 2.126290 0.000000 
#    z -0.028670 0.000000 2.009540 
# 
# From -- ./inp_files/2308.got.cif
#   From: 2010.05.17/outbox.cif.g08.bks.cpg/sg10_2_cif.got.tgz:2308.got - 2010.06.03 11:33:40.
