data_PCOD9152976
_publ_section_title
;
Structure prediction by ZEFSAII (Michael W. Deem and Ramdas Pophale) SiO2 
 PCOD9152976
Probable space group: P 2/M
;
_chemical_formula_sum "Si O2"
_cell_formula_units_Z 28
_cell_length_a 7.398193
_cell_length_b 9.263517
_cell_length_c 23.229050
_cell_angle_alpha 90.000000
_cell_angle_beta 51.494569
_cell_angle_gamma 90.000000
_cell_volume 1245.789397
_symmetry_space_group_name_H-M "P 2/M"
_symmetry_group_IT_number 10
_symmetry_cell_setting 'monoclinic'
loop_
_space_group_symop_operation_xyz
x,y,z
-x,y,-z
-x,-y,-z
x,-y,z
loop_
_atom_site_type_symbol
_atom_site_label
_atom_site_fract_x
_atom_site_fract_y
_atom_site_fract_z
Si Si1 0.428229 0.243626 0.314997
Si Si2 0.639040 0.340740 0.093077
Si Si3 0.204897 0.500000 0.413291
Si Si4 0.894489 0.655618 0.164420
Si Si5 0.257588 0.843759 0.224972
Si Si6 0.268530 0.167058 0.641564
Si Si7 0.629583 0.500000 0.414107
Si Si8 0.230727 0.842890 0.038847
O O1 0.227013 0.357670 0.370324
O O2 0.668579 0.317198 0.247212
O O3 0.337740 0.161789 0.276399
O O4 0.517008 0.167339 0.355734
O O5 0.605931 0.500000 0.075739
O O6 0.793223 0.347310 0.119745
O O7 0.399126 0.276181 0.163395
O O8 0.761883 0.248154 0.020506
O O9 0.443963 0.500000 0.400289
O O10 0.000000 0.500000 0.500000
O O11 0.993585 0.500000 0.160119
O O12 0.090691 0.774092 0.119398
O O13 0.982266 0.830347 0.278384
O O14 0.326958 0.000000 0.187300
O O15 0.270942 0.330743 0.611028
O O16 0.275375 0.000000 0.612535
O O17 0.500000 0.500000 0.500000
O O18 0.130118 0.000000 0.048131
O O19 0.500000 0.851756 0.000000
#
# Coordination Sequence:
#
# PCOD9152976 Si02
#       8
#     4   4   2   4   4   4   2   4
#     4  10  21  40  65  95 131 168 213 266 322 389
#     4  10  22  39  60  89 118 158 209 264 317 376
#     4  10  22  40  68 100 133 171 210 268 322 385
#     4  10  21  39  63  86 119 159 205 262 319 376
#     4  10  22  38  64  94 126 171 214 265 327 382
#     4  10  23  41  64  96 133 169 218 275 317 387
#     4  10  24  42  66 100 127 176 215 257 329 401
#     4  11  25  40  55  84 123 163 210 261 317 376
#
# _framework density 22.475711
#
# number of rings (size 3 to 8) (size 9 to 14) (size 15 to 20)
#    0.000    1.857    0.714    1.714    6.000    6.571 
#    0.000    0.000    0.000    2.143    0.000    0.000 
#    0.000    0.000    0.000    0.000    0.000    0.000 
#
# Total GULP energy -156019.884329 kJ/mol
# GULP energy per Si atom -5572.138726 kJ/mol
# Density = 2.242455 g / cm^3
# Si number density = 22.475711 Si / 1000 Ang^3
#
#
#
# Elastic Constant Matrix: (Units=GPa)
#
#
# Indices 1 2 3 4 5 6 
#
# 1 63.1417 3.0390 -5.6597 0.0000 -4.4175 0.0000
# 2 3.0390 176.5011 61.5971 0.0000 -6.1391 0.0000
# 3 -5.6597 61.5971 111.4705 0.0000 -6.5565 0.0000
# 4 0.0000 0.0000 0.0000 -205.7803 0.0000 -92.3830
# 5 -4.4175 -6.1391 -6.5565 0.0000 29.1723 0.0000
# 6 0.0000 0.0000 0.0000 -92.3830 0.0000 -17.9427
#
#
#
# Elastic Compliance Matrix: (Units=1/GPa)
#
#
# Indices 1 2 3 4 5 6 
#
# 1 0.016171 -0.000654 0.001336 0.000000 0.002611 0.000000
# 2 -0.000654 0.007057 -0.003903 0.000000 0.000509 0.000000
# 3 0.001336 -0.003903 0.011308 0.000000 0.001923 0.000000
# 4 0.000000 0.000000 0.000000 0.003705 0.000000 -0.019078
# 5 0.002611 0.000509 0.001923 0.000000 0.035214 0.000000
# 6 0.000000 0.000000 0.000000 -0.019078 0.000000 0.042496
#
#
# Mechanical properties :
#
#
# Convention : Reuss Voigt Hill
#
# Bulk Modulus (GPa) = 35.59313 52.11847 43.85580
# Shear Modulus (GPa) = 37.94850 -19.43433 9.25708
#
# Velocity S-wave (km/s) = 4.11350 -2.94374 2.03166
# Velocity P-wave (km/s) = 6.19934 3.41834 5.00584
#
# Compressibility (1/GPa) = 0.02809531
#
# Stress axis : x y z
#
# Youngs Moduli (GPa) = 61.83791 141.71053 88.42935
#
# Poissons Ratio (x) = 0.09266 -0.11814
# Poissons Ratio (y) = 0.04043 0.34511
# Poissons Ratio (z) = -0.08261 0.55305
#
# Static dielectric constant tensor:
#      x y z
#    x 1.416980 0.000000 -0.208960 
#    y 0.000000 1.952600 0.000000 
#    z -0.208960 0.000000 1.670190 
# 
# From -- ./inp_files/92042.got.cif
#   From: 2010.05.17/outbox.cif.g08.bks.cpg/sg10_47_cif.got.tgz:92042.got - 2010.06.03 11:33:40.
