data_PCOD9152917
_publ_section_title
;
Structure prediction by ZEFSAII (Michael W. Deem and Ramdas Pophale) SiO2 
 PCOD9152917
Probable space group: P 2/M
;
_chemical_formula_sum "Si O2"
_cell_formula_units_Z 28
_cell_length_a 16.440054
_cell_length_b 8.656172
_cell_length_c 20.745602
_cell_angle_alpha 90.000000
_cell_angle_beta 29.963846
_cell_angle_gamma 90.000000
_cell_volume 1474.518282
_symmetry_space_group_name_H-M "P 2/M"
_symmetry_group_IT_number 10
_symmetry_cell_setting 'monoclinic'
loop_
_space_group_symop_operation_xyz
x,y,z
-x,y,-z
-x,-y,-z
x,-y,z
loop_
_atom_site_type_symbol
_atom_site_label
_atom_site_fract_x
_atom_site_fract_y
_atom_site_fract_z
Si Si1 0.363817 0.186257 0.645926
Si Si2 0.879197 0.314285 0.402506
Si Si3 0.095135 0.185189 0.369891
Si Si4 0.547083 0.313338 0.895299
Si Si5 0.040088 0.185278 0.794054
Si Si6 0.313060 0.686772 0.939679
Si Si7 0.493963 0.686158 0.320575
O O1 0.500000 0.233667 0.500000
O O2 0.410430 0.254115 0.682787
O O3 0.187628 0.233060 0.739881
O O4 0.368026 0.000000 0.647319
O O5 0.885572 0.500000 0.398056
O O6 0.694421 0.263617 0.545696
O O7 0.001631 0.251462 0.372187
O O8 0.926031 0.253553 0.299897
O O9 0.279255 0.245555 0.243669
O O10 0.000000 0.233680 0.500000
O O11 0.094838 0.000000 0.367044
O O12 0.559193 0.500000 0.886197
O O13 0.409099 0.268351 0.938684
O O14 0.500000 0.265234 0.000000
O O15 0.041636 0.000000 0.788712
O O16 0.866036 0.242831 0.937835
O O17 0.300181 0.500000 0.948026
O O18 0.418686 0.735437 0.805256
O O19 0.493850 0.500000 0.321677
#
# Coordination Sequence:
#
# PCOD9152917 Si02
#       7
#     4   4   4   4   4   4   4
#     4  10  21  39  61  86 119 156 195 243 296 351
#     4  11  22  38  62  89 116 153 199 245 294 350
#     4  11  24  39  58  88 122 155 195 244 296 350
#     4  10  21  39  63  87 116 158 203 246 295 350
#     4  11  23  39  61  89 119 154 196 242 294 352
#     4  10  22  40  59  87 124 157 196 246 299 351
#     4  10  22  38  60  88 119 157 199 246 296 350
#
# _framework density 18.989253999999999
#
# number of rings (size 3 to 8) (size 9 to 14) (size 15 to 20)
#    0.000    1.571    1.429    3.000    0.000    7.429 
#    0.000    2.857    0.000    0.000    0.000    0.000 
#    0.000    0.000    0.000    0.000    0.000    0.000 
#
# Total GULP energy -156540.886536 kJ/mol
# GULP energy per Si atom -5590.745948 kJ/mol
# Density = 1.894603 g / cm^3
# Si number density = 18.989254 Si / 1000 Ang^3
#
#
#
# Elastic Constant Matrix: (Units=GPa)
#
#
# Indices 1 2 3 4 5 6 
#
# 1 79.7875 7.2742 12.0169 0.0000 -12.1933 0.0000
# 2 7.2742 12.6768 13.1903 0.0000 -3.0492 0.0000
# 3 12.0169 13.1903 104.2334 0.0000 -8.0157 0.0000
# 4 0.0000 0.0000 0.0000 30.2960 0.0000 -10.3503
# 5 -12.1933 -3.0492 -8.0157 0.0000 40.1087 0.0000
# 6 0.0000 0.0000 0.0000 -10.3503 0.0000 276.0055
#
#
#
# Elastic Compliance Matrix: (Units=1/GPa)
#
#
# Indices 1 2 3 4 5 6 
#
# 1 0.013749 -0.006523 -0.000484 0.000000 0.003587 0.000000
# 2 -0.006523 0.094815 -0.011014 0.000000 0.003024 0.000000
# 3 -0.000484 -0.011014 0.011139 0.000000 0.001242 0.000000
# 4 0.000000 0.000000 0.000000 0.033436 0.000000 0.001254
# 5 0.003587 0.003024 0.001242 0.000000 0.026501 0.000000
# 6 0.000000 0.000000 0.000000 0.001254 0.000000 0.003670
#
#
# Mechanical properties :
#
#
# Convention : Reuss Voigt Hill
#
# Bulk Modulus (GPa) = 11.95298 29.07338 20.51318
# Shear Modulus (GPa) = 20.22337 80.22980 50.22658
#
# Velocity S-wave (km/s) = 3.26696 6.50706 5.14854
# Velocity P-wave (km/s) = 4.53199 8.47346 6.79479
#
# Compressibility (1/GPa) = 0.08366117
#
# Stress axis : x y z
#
# Youngs Moduli (GPa) = 72.73215 10.54685 89.77576
#
# Poissons Ratio (x) = 0.06880 0.04343
# Poissons Ratio (y) = 0.47445 0.98877
# Poissons Ratio (z) = 0.03518 0.11616
#
# Static dielectric constant tensor:
#      x y z
#    x 1.527690 0.000000 0.007870 
#    y 0.000000 1.644740 0.000000 
#    z 0.007870 0.000000 1.635550 
# 
# From -- ./inp_files/66806.got.cif
#   From: 2010.05.17/outbox.cif.g08.bks.cpg/sg10_34_cif.got.tgz:66806.got - 2010.06.03 11:33:40.
