data_PCOD9152989
_publ_section_title
;
Structure prediction by ZEFSAII (Michael W. Deem and Ramdas Pophale) SiO2 
 PCOD9152989
Probable space group: P 2/M
;
_chemical_formula_sum "Si O2"
_cell_formula_units_Z 28
_cell_length_a 9.081023
_cell_length_b 8.866636
_cell_length_c 29.221238
_cell_angle_alpha 90.000000
_cell_angle_beta 39.006110
_cell_angle_gamma 90.000000
_cell_volume 1480.884735
_symmetry_space_group_name_H-M "P 2/M"
_symmetry_group_IT_number 10
_symmetry_cell_setting 'monoclinic'
loop_
_space_group_symop_operation_xyz
x,y,z
-x,y,-z
-x,-y,-z
x,-y,z
loop_
_atom_site_type_symbol
_atom_site_label
_atom_site_fract_x
_atom_site_fract_y
_atom_site_fract_z
Si Si1 0.824446 0.819830 0.639636
Si Si2 0.229756 0.180391 0.074996
Si Si3 0.467431 0.180605 0.643525
Si Si4 0.914775 0.681470 0.071371
Si Si5 0.669350 0.680442 0.501809
Si Si6 0.627331 0.681043 0.780123
Si Si7 0.039784 0.319160 0.214690
O O1 0.645688 0.783339 0.641711
O O2 0.717689 0.762673 0.713024
O O3 0.072695 0.742038 0.570673
O O4 0.855669 0.000000 0.633248
O O5 0.070597 0.239719 0.072084
O O6 0.143746 0.254425 0.142761
O O7 0.209981 0.000000 0.083296
O O8 0.500000 0.219378 0.000000
O O9 0.568617 0.245288 0.571952
O O10 0.215610 0.251595 0.714604
O O11 0.446927 0.000000 0.645452
O O12 0.939884 0.500000 0.069797
O O13 0.642091 0.718810 0.144278
O O14 0.000000 0.723423 0.000000
O O15 0.500000 0.715599 0.500000
O O16 0.675907 0.500000 0.505692
O O17 0.642083 0.500000 0.769584
O O18 0.790020 0.719217 0.784080
O O19 0.024560 0.500000 0.215336
#
# Coordination Sequence:
#
# PCOD9152989 Si02
#       7
#     4   4   4   4   4   4   4
#     4  11  24  40  60  87 119 156 196 240 292 350
#     4  11  24  40  59  87 122 158 197 243 296 352
#     4  11  24  41  61  89 123 156 195 241 292 351
#     4  10  21  39  63  89 118 155 199 246 296 350
#     4  11  24  41  62  89 119 153 197 245 292 346
#     4  10  22  39  60  88 119 152 195 245 294 348
#     4  11  23  40  63  89 118 155 199 244 292 348
#
# _framework density 18.907616000000001
#
# number of rings (size 3 to 8) (size 9 to 14) (size 15 to 20)
#    0.000    1.286    0.000    5.143    0.000   15.143 
#    0.000    0.000    0.000    0.000    0.000    0.000 
#    0.000    0.000    0.000    0.000    0.000    0.000 
#
# Total GULP energy -156673.364193 kJ/mol
# GULP energy per Si atom -5595.477293 kJ/mol
# Density = 1.886458 g / cm^3
# Si number density = 18.907616 Si / 1000 Ang^3
#
#
#
# Elastic Constant Matrix: (Units=GPa)
#
#
# Indices 1 2 3 4 5 6 
#
# 1 213.3493 95.7457 131.1564 0.0000 -0.6941 0.0000
# 2 95.7457 63.6195 82.7630 0.0000 -0.2958 0.0000
# 3 131.1564 82.7630 215.7766 0.0000 3.3758 0.0000
# 4 0.0000 0.0000 0.0000 46.0491 0.0000 12.3098
# 5 -0.6941 -0.2958 3.3758 0.0000 43.8558 0.0000
# 6 0.0000 0.0000 0.0000 12.3098 0.0000 43.7729
#
#
#
# Elastic Compliance Matrix: (Units=1/GPa)
#
#
# Indices 1 2 3 4 5 6 
#
# 1 0.014525 -0.020698 -0.000892 0.000000 0.000159 0.000000
# 2 -0.020698 0.060925 -0.010801 0.000000 0.000915 0.000000
# 3 -0.000892 -0.010801 0.009332 0.000000 -0.000805 0.000000
# 4 0.000000 0.000000 0.000000 0.023481 0.000000 -0.006603
# 5 0.000159 0.000915 -0.000805 0.000000 0.022873 0.000000
# 6 0.000000 0.000000 0.000000 -0.006603 0.000000 0.024702
#
#
# Mechanical properties :
#
#
# Convention : Reuss Voigt Hill
#
# Bulk Modulus (GPa) = 50.00457 123.56394 86.78426
# Shear Modulus (GPa) = 21.99848 38.94091 30.46969
#
# Velocity S-wave (km/s) = 3.41467 4.54313 4.01871
# Velocity P-wave (km/s) = 6.48466 9.64434 8.21779
#
# Compressibility (1/GPa) = 0.01999817
#
# Stress axis : x y z
#
# Youngs Moduli (GPa) = 68.84637 16.41367 107.15398
#
# Poissons Ratio (x) = 0.33974 0.09561
# Poissons Ratio (y) = 1.42501 1.15741
# Poissons Ratio (z) = 0.06143 0.17729
#
# Static dielectric constant tensor:
#      x y z
#    x 1.623240 0.000000 -0.004580 
#    y 0.000000 1.633860 0.000000 
#    z -0.004580 0.000000 1.610230 
# 
# From -- ./inp_files/37077.got.cif
#   From: 2010.05.17/outbox.cif.g08.bks.cpg/sg10_19_cif.got.tgz:37077.got - 2010.06.03 11:33:40.
