data_PCOD9152801
_publ_section_title
;
Structure prediction by ZEFSAII (Michael W. Deem and Ramdas Pophale) SiO2 
 PCOD9152801
Probable space group: P 2/M
;
_chemical_formula_sum "Si O2"
_cell_formula_units_Z 28
_cell_length_a 5.325897
_cell_length_b 30.846842
_cell_length_c 9.008034
_cell_angle_alpha 90.000000
_cell_angle_beta 107.561366
_cell_angle_gamma 90.000000
_cell_volume 1410.931913
_symmetry_space_group_name_H-M "P 2/M"
_symmetry_group_IT_number 10
_symmetry_cell_setting 'monoclinic'
loop_
_space_group_symop_operation_xyz
x,y,z
-x,y,-z
-x,-y,-z
x,-y,z
loop_
_atom_site_type_symbol
_atom_site_label
_atom_site_fract_x
_atom_site_fract_y
_atom_site_fract_z
Si Si1 0.302419 0.162261 0.101975
Si Si2 0.695613 0.000000 0.393066
Si Si3 0.084219 0.314157 0.187296
Si Si4 0.716287 0.772511 0.652745
Si Si5 0.000000 0.157298 0.500000
Si Si6 0.413012 0.366966 0.812938
Si Si7 0.437532 0.093978 0.664987
Si Si8 0.697065 0.450669 0.395554
O O1 0.388835 0.202843 0.220362
O O2 0.337844 0.117952 0.202351
O O3 0.500000 0.159818 0.000000
O O4 0.000000 0.168349 0.000000
O O5 0.500000 0.000000 0.500000
O O6 0.634150 0.045267 0.300706
O O7 0.000000 0.000000 0.500000
O O8 0.106907 0.267152 0.264512
O O9 0.363968 0.338931 0.231368
O O10 0.864423 0.342020 0.232092
O O11 0.000000 0.309163 0.000000
O O12 0.500000 0.755155 0.500000
O O13 0.853567 0.811088 0.586739
O O14 0.189424 0.126071 0.627056
O O15 0.379160 0.413651 0.733475
O O16 0.500000 0.371252 0.000000
O O17 0.500000 0.093029 0.500000
O O18 0.500000 0.447082 0.500000
O O19 0.673401 0.500000 0.332638
O O20 0.000000 0.444692 0.500000
#
# Coordination Sequence:
#
# PCOD9152801 Si02
#       8
#     4   2   4   4   2   4   4   4
#     4  12  26  42  65  93 129 171 207 256 323 375
#     4  10  22  36  68  98 120 162 205 254 313 370
#     4  10  24  42  61  88 127 165 203 256 313 370
#     4  12  26  41  64  95 122 165 218 266 307 375
#     4  12  20  41  68  90 132 150 215 266 312 354
#     4  10  22  42  63  87 124 168 208 249 306 373
#     4  11  22  42  66  95 127 163 209 262 308 374
#     4  10  21  38  62  93 126 159 204 261 314 361
#
# _framework density 19.845039
#
# number of rings (size 3 to 8) (size 9 to 14) (size 15 to 20)
#    0.000    1.143    3.571    2.143    2.000    3.714 
#    0.000    0.714    0.000    5.143    0.000    0.000 
#    0.000    0.000    0.000    0.000    0.000    0.000 
#
# Total GULP energy -156473.857021 kJ/mol
# GULP energy per Si atom -5588.352036 kJ/mol
# Density = 1.979987 g / cm^3
# Si number density = 19.845039 Si / 1000 Ang^3
#
#
#
# Elastic Constant Matrix: (Units=GPa)
#
#
# Indices 1 2 3 4 5 6 
#
# 1 112.9594 33.0340 25.5524 0.0000 1.3397 0.0000
# 2 33.0340 149.7042 39.5173 0.0000 -1.7698 0.0000
# 3 25.5524 39.5173 55.4233 0.0000 -1.3903 0.0000
# 4 0.0000 0.0000 0.0000 23.1924 0.0000 57.6456
# 5 1.3397 -1.7698 -1.3903 0.0000 21.6704 0.0000
# 6 0.0000 0.0000 0.0000 57.6456 0.0000 64.3019
#
#
#
# Elastic Compliance Matrix: (Units=1/GPa)
#
#
# Indices 1 2 3 4 5 6 
#
# 1 0.010083 -0.001235 -0.003792 0.000000 -0.000968 0.000000
# 2 -0.001235 0.008382 -0.005396 0.000000 0.000415 0.000000
# 3 -0.003792 -0.005396 0.023672 0.000000 0.001312 0.000000
# 4 0.000000 0.000000 0.000000 -0.035105 0.000000 0.031471
# 5 -0.000968 0.000415 0.001312 0.000000 0.046324 0.000000
# 6 0.000000 0.000000 0.000000 0.031471 0.000000 -0.012662
#
#
# Mechanical properties :
#
#
# Convention : Reuss Voigt Hill
#
# Bulk Modulus (GPa) = 46.97244 57.14380 52.05812
# Shear Modulus (GPa) = 72.84554 36.49850 54.67202
#
# Velocity S-wave (km/s) = 6.06522 4.29321 5.25445
# Velocity P-wave (km/s) = 8.53054 7.30979 7.94365
#
# Compressibility (1/GPa) = 0.02128908
#
# Stress axis : x y z
#
# Youngs Moduli (GPa) = 99.17357 119.30595 42.24420
#
# Poissons Ratio (x) = 0.14739 0.16020
# Poissons Ratio (y) = 0.12252 0.22796
# Poissons Ratio (z) = 0.37609 0.64381
#
# Static dielectric constant tensor:
#      x y z
#    x 1.725060 0.000000 0.011110 
#    y 0.000000 1.679150 0.000000 
#    z 0.011110 0.000000 1.717150 
# 
# From -- ./inp_files/15925.got.cif
#   From: 2010.05.17/outbox.cif.g08.bks.cpg/sg10_8_cif.got.tgz:15925.got - 2010.06.03 11:33:40.
