data_PCOD9152543
_publ_section_title
;
Structure prediction by ZEFSAII (Michael W. Deem and Ramdas Pophale) SiO2 
 PCOD9152543
Probable space group: P 2/M
;
_chemical_formula_sum "Si O2"
_cell_formula_units_Z 26
_cell_length_a 23.118521
_cell_length_b 7.995475
_cell_length_c 8.663242
_cell_angle_alpha 90.000000
_cell_angle_beta 42.078831
_cell_angle_gamma 90.000000
_cell_volume 1073.144894
_symmetry_space_group_name_H-M "P 2/M"
_symmetry_group_IT_number 10
_symmetry_cell_setting 'monoclinic'
loop_
_space_group_symop_operation_xyz
x,y,z
-x,y,-z
-x,-y,-z
x,-y,z
loop_
_atom_site_type_symbol
_atom_site_label
_atom_site_fract_x
_atom_site_fract_y
_atom_site_fract_z
Si Si1 0.119745 0.701110 0.409077
Si Si2 0.529653 0.316980 0.118669
Si Si3 0.038712 0.296364 0.086232
Si Si4 0.655786 0.000000 0.337236
Si Si5 0.442403 0.000000 0.795709
Si Si6 0.792185 0.702551 0.087659
Si Si7 0.730103 0.314908 0.650967
Si Si8 0.340887 0.000000 0.331629
O O1 0.112793 0.500000 0.426113
O O2 0.150835 0.740253 0.177913
O O3 0.197617 0.740893 0.371940
O O4 0.028567 0.765829 0.651002
O O5 0.491534 0.500000 0.225988
O O6 0.634074 0.332134 0.913948
O O7 0.510130 0.178226 0.284327
O O8 0.500000 0.275829 0.000000
O O9 0.036602 0.500000 0.092814
O O10 0.137964 0.255731 0.918201
O O11 0.000000 0.241550 0.000000
O O12 0.713081 0.170243 0.229694
O O13 0.609876 0.000000 0.260231
O O14 0.613423 0.000000 0.594646
O O15 0.393087 0.000000 0.063760
O O16 0.771558 0.500000 0.130173
O O17 0.752813 0.500000 0.545426
O O18 0.714649 0.167471 0.563393
#
# Coordination Sequence:
#
# PCOD9152543 Si02
#       8
#     4   4   4   2   2   4   4   2
#     4   9  17  32  57  81 107 149 193 235 289 349
#     4   9  17  32  60  95 124 155 196 234 281 349
#     4   9  18  32  53  80 109 146 192 237 290 351
#     4  12  26  39  58  92 116 149 207 244 282 360
#     4  10  21  40  60  85 123 160 192 240 291 337
#     4  10  21  38  56  78 111 148 191 246 296 341
#     4   9  18  33  56  84 113 150 191 233 289 344
#     4  10  22  37  56  82 116 149 190 242 286 335
#
# _framework density 24.227857
#
# number of rings (size 3 to 8) (size 9 to 14) (size 15 to 20)
#    0.000    2.462    0.000    2.538    2.154    4.308 
#    0.000    2.692    0.000    7.385    0.000    9.692 
#    0.000    0.000    0.000    0.000    0.000    0.000 
#
# Total GULP energy -145033.886137 kJ/mol
# GULP energy per Si atom -5578.226390 kJ/mol
# Density = 2.417271 g / cm^3
# Si number density = 24.227857 Si / 1000 Ang^3
#
#
#
# Elastic Constant Matrix: (Units=GPa)
#
#
# Indices 1 2 3 4 5 6 
#
# 1 134.8748 84.6672 43.2017 0.0000 18.4437 0.0000
# 2 84.6672 115.3823 -0.9376 0.0000 2.5707 0.0000
# 3 43.2017 -0.9376 85.0244 0.0000 5.1649 0.0000
# 4 0.0000 0.0000 0.0000 20.8674 0.0000 2.5875
# 5 18.4437 2.5707 5.1649 0.0000 25.0361 0.0000
# 6 0.0000 0.0000 0.0000 2.5875 0.0000 25.8716
#
#
#
# Elastic Compliance Matrix: (Units=1/GPa)
#
#
# Indices 1 2 3 4 5 6 
#
# 1 0.023654 -0.017153 -0.011399 0.000000 -0.013312 0.000000
# 2 -0.017153 0.021128 0.008418 0.000000 0.008730 0.000000
# 3 -0.011399 0.008418 0.017407 0.000000 0.003942 0.000000
# 4 0.000000 0.000000 0.000000 0.048523 0.000000 -0.004853
# 5 -0.013312 0.008730 0.003942 0.000000 0.048040 0.000000
# 6 0.000000 0.000000 0.000000 -0.004853 0.000000 0.039138
#
#
# Mechanical properties :
#
#
# Convention : Reuss Voigt Hill
#
# Bulk Modulus (GPa) = 45.62009 65.46046 55.54027
# Shear Modulus (GPa) = 20.36959 28.24503 24.30731
#
# Velocity S-wave (km/s) = 2.90272 3.41810 3.17089
# Velocity P-wave (km/s) = 5.48679 6.53109 6.03158
#
# Compressibility (1/GPa) = 0.02192017
#
# Stress axis : x y z
#
# Youngs Moduli (GPa) = 42.27641 47.33129 57.44897
#
# Poissons Ratio (x) = 0.81188 0.65487
# Poissons Ratio (y) = 0.72517 -0.48362
# Poissons Ratio (z) = 0.48192 -0.39845
#
# Static dielectric constant tensor:
#      x y z
#    x 1.922940 0.000000 -0.013520 
#    y 0.000000 2.020820 0.000000 
#    z -0.013520 0.000000 2.006580 
# 
# From -- ./inp_files/34249.got.cif
#   From: 2010.05.17/outbox.cif.g08.bks.cpg/sg10_18_cif.got.tgz:34249.got - 2010.06.03 11:33:40.
