data_PCOD9152474
_publ_section_title
;
Structure prediction by ZEFSAII (Michael W. Deem and Ramdas Pophale) SiO2 
 PCOD9152474
Probable space group: P 2/M
;
_chemical_formula_sum "Si O2"
_cell_formula_units_Z 30
_cell_length_a 12.012075
_cell_length_b 14.101493
_cell_length_c 12.956328
_cell_angle_alpha 90.000000
_cell_angle_beta 43.139151
_cell_angle_gamma 90.000000
_cell_volume 1500.640709
_symmetry_space_group_name_H-M "P 2/M"
_symmetry_group_IT_number 10
_symmetry_cell_setting 'monoclinic'
loop_
_space_group_symop_operation_xyz
x,y,z
-x,y,-z
-x,-y,-z
x,-y,z
loop_
_atom_site_type_symbol
_atom_site_label
_atom_site_fract_x
_atom_site_fract_y
_atom_site_fract_z
Si Si1 0.190881 0.399475 0.836947
Si Si2 0.923894 0.779146 0.166297
Si Si3 0.327916 0.774264 0.357233
Si Si4 0.326309 0.104260 0.171629
Si Si5 0.000000 0.307153 0.500000
Si Si6 0.332406 0.894301 0.550814
Si Si7 0.835451 0.290679 0.813222
Si Si8 0.572404 0.391196 0.125998
O O1 0.222711 0.500000 0.761336
O O2 0.207118 0.305436 0.760254
O O3 0.303883 0.394334 0.860387
O O4 0.000000 0.400430 0.000000
O O5 0.825623 0.868899 0.273931
O O6 0.049575 0.737041 0.166826
O O7 0.000000 0.796334 0.000000
O O8 0.367835 0.863548 0.258720
O O9 0.140931 0.751745 0.460362
O O10 0.348194 0.809896 0.458247
O O11 0.432009 0.683203 0.251392
O O12 0.222333 0.189241 0.192696
O O13 0.249238 0.000000 0.217935
O O14 0.500000 0.101416 0.000000
O O15 0.914151 0.348164 0.662525
O O16 0.500000 0.895730 0.500000
O O17 0.310488 0.000000 0.520125
O O18 0.679940 0.348147 0.960554
O O19 0.518754 0.500000 0.143027
#
# Coordination Sequence:
#
# PCOD9152474 Si02
#       8
#     4   4   4   4   2   4   4   4
#     4   9  17  32  59  94 123 158 210 262 318 380
#     4  11  21  38  65  95 129 170 212 272 328 385
#     4  11  22  45  64  92 128 173 225 273 328 387
#     4  10  21  37  61  90 119 164 221 271 314 369
#     4  10  24  42  66  88 128 172 220 266 328 376
#     4  11  25  42  63  94 135 179 214 264 340 404
#     4  11  21  41  61  97 127 167 213 274 327 381
#     4  11  22  39  69  98 127 168 220 273 331 401
#
# _framework density 19.991461000000001
#
# number of rings (size 3 to 8) (size 9 to 14) (size 15 to 20)
#    0.000    1.467    5.333    1.200    0.000    0.800 
#    0.000    9.000    0.000    2.400    0.000    0.000 
#    0.000    0.000    0.000    0.000    0.000    0.000 
#
# Total GULP energy -167098.020258 kJ/mol
# GULP energy per Si atom -5569.934009 kJ/mol
# Density = 1.994596 g / cm^3
# Si number density = 19.991461 Si / 1000 Ang^3
#
#
#
# Elastic Constant Matrix: (Units=GPa)
#
#
# Indices 1 2 3 4 5 6 
#
# 1 65.5687 19.3731 29.8455 0.0000 5.7590 0.0000
# 2 19.3731 116.9833 44.9958 0.0000 0.6693 0.0000
# 3 29.8455 44.9958 111.7358 0.0000 9.8024 0.0000
# 4 0.0000 0.0000 0.0000 -0.3106 0.0000 3.2861
# 5 5.7590 0.6693 9.8024 0.0000 29.0905 0.0000
# 6 0.0000 0.0000 0.0000 3.2861 0.0000 25.5938
#
#
#
# Elastic Compliance Matrix: (Units=1/GPa)
#
#
# Indices 1 2 3 4 5 6 
#
# 1 0.017655 -0.001384 -0.003972 0.000000 -0.002125 0.000000
# 2 -0.001384 0.010263 -0.003881 0.000000 0.001346 0.000000
# 3 -0.003972 -0.003881 0.011847 0.000000 -0.003116 0.000000
# 4 0.000000 0.000000 0.000000 -1.365135 0.000000 0.175277
# 5 -0.002125 0.001346 -0.003116 0.000000 0.035815 0.000000
# 6 0.000000 0.000000 0.000000 0.175277 0.000000 0.016567
#
#
# Mechanical properties :
#
#
# Convention : Reuss Voigt Hill
#
# Bulk Modulus (GPa) = 46.96989 53.63518 50.30254
# Shear Modulus (GPa) = -4.00828 24.21297 10.10234
#
# Velocity S-wave (km/s) = -1.41752 3.48396 2.25040
# Velocity P-wave (km/s) = 4.56802 6.56287 5.65412
#
# Compressibility (1/GPa) = 0.02129024
#
# Stress axis : x y z
#
# Youngs Moduli (GPa) = 56.64227 97.44213 84.40979
#
# Poissons Ratio (x) = 0.13484 0.33528
# Poissons Ratio (y) = 0.07838 0.32761
# Poissons Ratio (z) = 0.22499 0.37819
#
# Static dielectric constant tensor:
#      x y z
#    x 1.714350 0.000000 0.035110 
#    y 0.000000 1.733940 0.000000 
#    z 0.035110 0.000000 1.792420 
# 
# From -- ./inp_files/47609.got.cif
#   From: 2010.05.17/outbox.cif.g08.bks.cpg/sg10_24_cif.got.tgz:47609.got - 2010.06.03 11:33:40.
