data_PCOD9152602
_publ_section_title
;
Structure prediction by ZEFSAII (Michael W. Deem and Ramdas Pophale) SiO2 
 PCOD9152602
Probable space group: P 2/M
;
_chemical_formula_sum "Si O2"
_cell_formula_units_Z 32
_cell_length_a 14.369155
_cell_length_b 8.991899
_cell_length_c 17.279938
_cell_angle_alpha 90.000000
_cell_angle_beta 125.953893
_cell_angle_gamma 90.000000
_cell_volume 1807.324663
_symmetry_space_group_name_H-M "P 2/M"
_symmetry_group_IT_number 10
_symmetry_cell_setting 'monoclinic'
loop_
_space_group_symop_operation_xyz
x,y,z
-x,y,-z
-x,-y,-z
x,-y,z
loop_
_atom_site_type_symbol
_atom_site_label
_atom_site_fract_x
_atom_site_fract_y
_atom_site_fract_z
Si Si1 0.008430 0.671220 0.797766
Si Si2 0.103096 0.178839 0.992336
Si Si3 0.424039 0.322761 0.684979
Si Si4 0.389722 0.827773 0.502619
Si Si5 0.811629 0.822188 0.403893
Si Si6 0.258665 0.328065 0.308510
Si Si7 0.340955 0.178189 0.192655
Si Si8 0.986105 0.177365 0.620733
O O1 0.043958 0.500000 0.808773
O O2 0.878126 0.675964 0.766259
O O3 0.003279 0.743395 0.710542
O O4 0.083996 0.755103 0.898195
O O5 0.095984 0.000000 0.984688
O O6 0.227862 0.217163 0.087859
O O7 0.000000 0.228333 0.000000
O O8 0.429639 0.500000 0.688044
O O9 0.415586 0.259778 0.593323
O O10 0.306755 0.263608 0.665931
O O11 0.540667 0.253166 0.776459
O O12 0.500000 0.824918 0.500000
O O13 0.291393 0.748872 0.404977
O O14 0.362409 0.000000 0.506620
O O15 0.874611 0.777555 0.515267
O O16 0.904486 0.796145 0.381715
O O17 0.790866 0.000000 0.397179
O O18 0.297531 0.500000 0.326653
O O19 0.315174 0.238049 0.266197
O O20 0.353772 0.000000 0.200913
O O21 0.977001 0.000000 0.628663
#
# Coordination Sequence:
#
# PCOD9152602 Si02
#       8
#     4   4   4   4   4   4   4   4
#     4  11  23  35  54  84 117 148 180 227 288 341
#     4  10  21  38  59  81 106 144 195 240 279 329
#     4  12  24  36  54  80 113 150 184 226 281 338
#     4  11  22  34  50  72 103 146 189 225 263 315
#     4   9  19  38  62  87 114 148 189 231 275 328
#     4  11  22  34  50  77 111 146 182 223 274 330
#     4  11  22  37  56  77 105 145 190 232 273 324
#     4   9  19  37  62  88 114 146 188 234 276 326
#
# _framework density 17.705729000000002
#
# number of rings (size 3 to 8) (size 9 to 14) (size 15 to 20)
#    0.000    1.500    2.500    4.125    0.000    6.250 
#    0.000    1.250    0.000    0.750    0.000    5.250 
#    0.000    0.000    0.000    0.000    0.000    0.000 
#
# Total GULP energy -178768.884723 kJ/mol
# GULP energy per Si atom -5586.527648 kJ/mol
# Density = 1.766543 g / cm^3
# Si number density = 17.705729 Si / 1000 Ang^3
#
#
#
# Elastic Constant Matrix: (Units=GPa)
#
#
# Indices 1 2 3 4 5 6 
#
# 1 77.0177 41.8896 36.8890 0.0000 18.5583 0.0000
# 2 41.8896 78.9874 46.3230 0.0000 19.4951 0.0000
# 3 36.8890 46.3230 105.5772 0.0000 18.1141 0.0000
# 4 0.0000 0.0000 0.0000 55.8833 0.0000 -40.2914
# 5 18.5583 19.4951 18.1141 0.0000 30.5893 0.0000
# 6 0.0000 0.0000 0.0000 -40.2914 0.0000 69.1658
#
#
#
# Elastic Compliance Matrix: (Units=1/GPa)
#
#
# Indices 1 2 3 4 5 6 
#
# 1 0.019675 -0.007519 -0.002615 0.000000 -0.005596 0.000000
# 2 -0.007519 0.021457 -0.005815 0.000000 -0.005670 0.000000
# 3 -0.002615 -0.005815 0.013389 0.000000 -0.002636 0.000000
# 4 0.000000 0.000000 0.000000 0.030853 0.000000 0.017973
# 5 -0.005596 -0.005670 -0.002636 0.000000 0.041261 0.000000
# 6 0.000000 0.000000 0.000000 0.017973 0.000000 0.024928
#
#
# Mechanical properties :
#
#
# Convention : Reuss Voigt Hill
#
# Bulk Modulus (GPa) = 44.20281 56.86505 50.53393
# Shear Modulus (GPa) = 26.17784 40.22640 33.20212
#
# Velocity S-wave (km/s) = 3.84929 4.77166 4.33508
# Velocity P-wave (km/s) = 6.69145 7.90853 7.32531
#
# Compressibility (1/GPa) = 0.02262300
#
# Stress axis : x y z
#
# Youngs Moduli (GPa) = 50.82675 46.60387 74.68834
#
# Poissons Ratio (x) = 0.35043 0.19532
# Poissons Ratio (y) = 0.38218 0.43428
# Poissons Ratio (z) = 0.13292 0.27098
#
# Static dielectric constant tensor:
#      x y z
#    x 1.625630 0.000000 0.021430 
#    y 0.000000 1.593090 0.000000 
#    z 0.021430 0.000000 1.588220 
# 
# From -- ./inp_files/66584.got.cif
#   From: 2010.05.17/outbox.cif.g08.bks.cpg/sg10_34_cif.got.tgz:66584.got - 2010.06.03 11:33:40.
