data_PCOD9152276
_publ_section_title
;
Structure prediction by ZEFSAII (Michael W. Deem and Ramdas Pophale) SiO2 
 PCOD9152276
Probable space group: P 2/M
;
_chemical_formula_sum "Si O2"
_cell_formula_units_Z 30
_cell_length_a 12.639991
_cell_length_b 7.610247
_cell_length_c 30.524066
_cell_angle_alpha 90.000000
_cell_angle_beta 29.891924
_cell_angle_gamma 90.000000
_cell_volume 1463.308546
_symmetry_space_group_name_H-M "P 2/M"
_symmetry_group_IT_number 10
_symmetry_cell_setting 'monoclinic'
loop_
_space_group_symop_operation_xyz
x,y,z
-x,y,-z
-x,-y,-z
x,-y,z
loop_
_atom_site_type_symbol
_atom_site_label
_atom_site_fract_x
_atom_site_fract_y
_atom_site_fract_z
Si Si1 0.471846 0.500000 0.110354
Si Si2 0.694957 0.298302 0.401323
Si Si3 0.020391 0.294311 0.400680
Si Si4 0.730312 0.211831 0.138792
Si Si5 0.383199 0.212892 0.332630
Si Si6 0.548880 0.796003 0.593723
Si Si7 0.221317 0.212296 0.978386
Si Si8 0.838091 0.807180 0.743442
O O1 0.649606 0.342334 0.037239
O O2 0.298016 0.653880 0.186478
O O3 0.500000 0.223126 0.500000
O O4 0.725151 0.500000 0.405000
O O5 0.614098 0.293760 0.380629
O O6 0.917974 0.205632 0.328376
O O7 0.999182 0.500000 0.399867
O O8 0.785857 0.217450 0.489094
O O9 0.153982 0.264894 0.396715
O O10 0.148081 0.213538 0.314149
O O11 0.555398 0.277155 0.235397
O O12 0.699983 0.266144 0.099210
O O13 0.717204 0.000000 0.142503
O O14 0.969624 0.252210 0.067823
O O15 0.435583 0.275637 0.362558
O O16 0.388484 0.000000 0.331804
O O17 0.487488 0.000000 0.617950
O O18 0.243197 0.000000 0.976338
O O19 0.750410 0.000000 0.785181
#
# Coordination Sequence:
#
# PCOD9152276 Si02
#       8
#     2   4   4   4   4   4   4   4
#     4  12  22  35  53  90 116 146 188 242 293 360
#     4  11  22  40  62  83 111 149 201 253 296 343
#     4  12  23  37  54  81 119 160 206 245 289 344
#     4   8  16  33  55  81 115 159 199 236 286 346
#     4  10  21  37  56  83 122 161 200 243 286 350
#     4  11  23  37  58  84 113 162 208 240 294 348
#     4   9  18  34  58  83 117 158 192 236 295 351
#     4  12  24  39  59  87 120 157 196 245 301 349
#
# _framework density 20.501486
#
# number of rings (size 3 to 8) (size 9 to 14) (size 15 to 20)
#    0.000    1.467    2.667    4.400    0.000    5.333 
#    1.200    0.000    0.000    0.000    0.000    1.867 
#    0.000    5.333    0.000    0.000    0.000    0.000 
#
# Total GULP energy -167160.872046 kJ/mol
# GULP energy per Si atom -5572.029068 kJ/mol
# Density = 2.045482 g / cm^3
# Si number density = 20.501486 Si / 1000 Ang^3
#
#
#
# Elastic Constant Matrix: (Units=GPa)
#
#
# Indices 1 2 3 4 5 6 
#
# 1 93.0376 5.5750 8.9202 0.0000 -10.2652 0.0000
# 2 5.5750 109.2494 4.3637 0.0000 -5.3017 0.0000
# 3 8.9202 4.3637 44.6299 0.0000 -16.6241 0.0000
# 4 0.0000 0.0000 0.0000 29.9950 0.0000 -15.6203
# 5 -10.2652 -5.3017 -16.6241 0.0000 17.8356 0.0000
# 6 0.0000 0.0000 0.0000 -15.6203 0.0000 23.1140
#
#
#
# Elastic Compliance Matrix: (Units=1/GPa)
#
#
# Indices 1 2 3 4 5 6 
#
# 1 0.011487 -0.000268 0.000250 0.000000 0.006765 0.000000
# 2 -0.000268 0.009295 0.000178 0.000000 0.002775 0.000000
# 3 0.000250 0.000178 0.034332 0.000000 0.032197 0.000000
# 4 0.000000 0.000000 0.000000 0.051443 0.000000 0.034765
# 5 0.006765 0.002775 0.032197 0.000000 0.090796 0.000000
# 6 0.000000 0.000000 0.000000 0.034765 0.000000 0.066758
#
#
# Mechanical properties :
#
#
# Convention : Reuss Voigt Hill
#
# Bulk Modulus (GPa) = 18.03922 31.62607 24.83264
# Shear Modulus (GPa) = 17.71366 29.39278 23.55322
#
# Velocity S-wave (km/s) = 2.94261 3.79052 3.39315
# Velocity P-wave (km/s) = 4.51258 5.88363 5.24311
#
# Compressibility (1/GPa) = 0.05543476
#
# Stress axis : x y z
#
# Youngs Moduli (GPa) = 87.05651 107.58966 29.12716
#
# Poissons Ratio (x) = 0.02882 -0.00728
# Poissons Ratio (y) = 0.02332 -0.00520
# Poissons Ratio (z) = -0.02177 -0.01919
#
# Static dielectric constant tensor:
#      x y z
#    x 1.738770 0.000000 0.005650 
#    y 0.000000 1.743320 0.000000 
#    z 0.005650 0.000000 1.722770 
# 
# From -- ./inp_files/94862.got.cif
#   From: 2010.05.17/outbox.cif.g08.bks.cpg/sg10_48_cif.got.tgz:94862.got - 2010.06.03 11:33:40.
