data_PCOD9152449
_publ_section_title
;
Structure prediction by ZEFSAII (Michael W. Deem and Ramdas Pophale) SiO2 
 PCOD9152449
Probable space group: P 2/M
;
_chemical_formula_sum "Si O2"
_cell_formula_units_Z 28
_cell_length_a 19.834497
_cell_length_b 9.019347
_cell_length_c 22.844018
_cell_angle_alpha 90.000000
_cell_angle_beta 20.385003
_cell_angle_gamma 90.000000
_cell_volume 1423.493708
_symmetry_space_group_name_H-M "P 2/M"
_symmetry_group_IT_number 10
_symmetry_cell_setting 'monoclinic'
loop_
_space_group_symop_operation_xyz
x,y,z
-x,y,-z
-x,-y,-z
x,-y,z
loop_
_atom_site_type_symbol
_atom_site_label
_atom_site_fract_x
_atom_site_fract_y
_atom_site_fract_z
Si Si1 0.825248 0.324116 0.598890
Si Si2 0.417462 0.677651 0.736983
Si Si3 0.116079 0.828790 0.164797
Si Si4 0.517631 0.824904 0.054430
Si Si5 0.623639 0.172627 0.458632
Si Si6 0.959214 0.323846 0.891018
Si Si7 0.739726 0.173134 0.548100
O O1 0.832640 0.500000 0.582576
O O2 0.630061 0.275875 0.790037
O O3 0.827605 0.238445 0.535869
O O4 0.000000 0.282839 0.500000
O O5 0.430169 0.500000 0.723953
O O6 0.505975 0.746839 0.606106
O O7 0.552611 0.737913 0.679300
O O8 0.195337 0.718035 0.932894
O O9 0.135688 0.722163 0.093717
O O10 0.902793 0.813293 0.365420
O O11 0.141641 0.000000 0.124686
O O12 0.270913 0.801492 0.090042
O O13 0.469627 0.000000 0.101599
O O14 0.500000 0.793174 0.000000
O O15 0.500000 0.181929 0.500000
O O16 0.833986 0.243496 0.276175
O O17 0.648720 0.000000 0.454500
O O18 0.988885 0.500000 0.869179
O O19 0.692810 0.000000 0.594146
#
# Coordination Sequence:
#
# PCOD9152449 Si02
#       7
#     4   4   4   4   4   4   4
#     4  11  24  39  55  81 118 160 206 260 320 381
#     4  11  24  42  66  99 134 170 214 262 322 387
#     4  10  21  37  60  90 122 159 207 262 318 378
#     4  10  21  38  59  84 115 155 206 262 318 381
#     4  11  25  45  69  98 132 171 217 268 320 379
#     4  11  24  41  65  96 131 171 213 263 321 387
#     4  11  22  38  63  91 121 163 210 261 318 377
#
# _framework density 19.669913000000001
#
# number of rings (size 3 to 8) (size 9 to 14) (size 15 to 20)
#    0.000    1.286    1.429    3.857    0.000   10.000 
#    0.000    2.857    0.000    0.000    0.000    0.000 
#    0.000    0.000    0.000    0.000    0.000    0.000 
#
# Total GULP energy -156551.559254 kJ/mol
# GULP energy per Si atom -5591.127116 kJ/mol
# Density = 1.962514 g / cm^3
# Si number density = 19.669913 Si / 1000 Ang^3
#
#
#
# Elastic Constant Matrix: (Units=GPa)
#
#
# Indices 1 2 3 4 5 6 
#
# 1 84.0234 42.5221 45.7924 0.0000 -0.3310 0.0000
# 2 42.5221 83.7447 67.7052 0.0000 6.4942 0.0000
# 3 45.7924 67.7052 132.9651 0.0000 2.1352 0.0000
# 4 0.0000 0.0000 0.0000 59.3134 0.0000 -30.1661
# 5 -0.3310 6.4942 2.1352 0.0000 23.7805 0.0000
# 6 0.0000 0.0000 0.0000 -30.1661 0.0000 38.2636
#
#
#
# Elastic Compliance Matrix: (Units=1/GPa)
#
#
# Indices 1 2 3 4 5 6 
#
# 1 0.016575 -0.006710 -0.002328 0.000000 0.002272 0.000000
# 2 -0.006710 0.023533 -0.009581 0.000000 -0.005660 0.000000
# 3 -0.002328 -0.009581 0.013179 0.000000 0.001401 0.000000
# 4 0.000000 0.000000 0.000000 0.028144 0.000000 0.022188
# 5 0.002272 -0.005660 0.001401 0.000000 0.043503 0.000000
# 6 0.000000 0.000000 0.000000 0.022188 0.000000 0.043627
#
#
# Mechanical properties :
#
#
# Convention : Reuss Voigt Hill
#
# Bulk Modulus (GPa) = 62.31228 68.08584 65.19906
# Shear Modulus (GPa) = 23.67989 33.91906 28.79947
#
# Velocity S-wave (km/s) = 3.47344 4.15711 3.83056
# Velocity P-wave (km/s) = 6.91622 7.59812 7.26518
#
# Compressibility (1/GPa) = 0.01604820
#
# Stress axis : x y z
#
# Youngs Moduli (GPa) = 60.33183 42.49311 75.87977
#
# Poissons Ratio (x) = 0.28514 0.17665
# Poissons Ratio (y) = 0.40484 0.72702
# Poissons Ratio (z) = 0.14045 0.40713
#
# Static dielectric constant tensor:
#      x y z
#    x 1.699820 0.000000 -0.009110 
#    y 0.000000 1.661840 0.000000 
#    z -0.009110 0.000000 1.684760 
# 
# From -- ./inp_files/90361.got.cif
#   From: 2010.05.17/outbox.cif.g08.bks.cpg/sg10_46_cif.got.tgz:90361.got - 2010.06.03 11:33:40.
