data_PCOD9152338
_publ_section_title
;
Structure prediction by ZEFSAII (Michael W. Deem and Ramdas Pophale) SiO2 
 PCOD9152338
Probable space group: P 2/M
;
_chemical_formula_sum "Si O2"
_cell_formula_units_Z 24
_cell_length_a 11.800820
_cell_length_b 7.554503
_cell_length_c 20.394791
_cell_angle_alpha 90.000000
_cell_angle_beta 30.534852
_cell_angle_gamma 90.000000
_cell_volume 923.749856
_symmetry_space_group_name_H-M "P 2/M"
_symmetry_group_IT_number 10
_symmetry_cell_setting 'monoclinic'
loop_
_space_group_symop_operation_xyz
x,y,z
-x,y,-z
-x,-y,-z
x,-y,z
loop_
_atom_site_type_symbol
_atom_site_label
_atom_site_fract_x
_atom_site_fract_y
_atom_site_fract_z
Si Si1 0.780293 0.204229 0.732647
Si Si2 0.977346 0.705278 0.257291
Si Si3 0.726885 0.215988 0.014592
Si Si4 0.781296 0.794134 0.543133
Si Si5 0.675579 0.214334 0.182492
Si Si6 0.409469 0.706353 0.634852
O O1 0.895002 0.205027 0.746907
O O2 0.531448 0.275158 0.863162
O O3 0.974680 0.284188 0.589283
O O4 0.749346 0.000000 0.727268
O O5 0.945418 0.500000 0.291865
O O6 0.739813 0.778561 0.349556
O O7 0.133478 0.712751 0.115283
O O8 0.789577 0.267505 0.058221
O O9 0.740177 0.000000 0.004434
O O10 0.587789 0.727524 0.688214
O O11 0.643436 0.783951 0.542868
O O12 0.811145 0.000000 0.542954
O O13 0.736139 0.276039 0.225120
O O14 0.683192 0.000000 0.181113
O O15 0.445332 0.500000 0.604907
#
# Coordination Sequence:
#
# PCOD9152338 Si02
#       6
#     4   4   4   4   4   4
#     4  10  21  37  58  82 108 141 180 221 265 318
#     4  11  24  38  53  77 111 148 182 221 266 313
#     4  10  21  37  58  82 108 141 180 221 265 318
#     4   8  17  35  57  83 109 136 173 221 272 318
#     4   8  17  35  57  83 109 136 173 221 272 318
#     4   9  19  36  55  78 108 143 180 219 266 319
#
# _framework density 25.981061
#
# number of rings (size 3 to 8) (size 9 to 14) (size 15 to 20)
#    1.000    1.667    0.000    1.000    0.000    8.667 
#    0.000   10.000    0.000    1.000    0.000    0.000 
#    0.000    0.000    0.000    0.000    0.000    0.000 
#
# Total GULP energy -133976.750665 kJ/mol
# GULP energy per Si atom -5582.364611 kJ/mol
# Density = 2.592193 g / cm^3
# Si number density = 25.981061 Si / 1000 Ang^3
#
#
#
# Elastic Constant Matrix: (Units=GPa)
#
#
# Indices 1 2 3 4 5 6 
#
# 1 131.0701 6.6302 13.5180 0.0000 -1.6873 0.0000
# 2 6.6302 72.0540 -8.0238 0.0000 0.6967 0.0000
# 3 13.5180 -8.0238 120.6555 0.0000 7.5051 0.0000
# 4 0.0000 0.0000 0.0000 42.5571 0.0000 17.6629
# 5 -1.6873 0.6967 7.5051 0.0000 48.2450 0.0000
# 6 0.0000 0.0000 0.0000 17.6629 0.0000 20.6705
#
#
#
# Elastic Compliance Matrix: (Units=1/GPa)
#
#
# Indices 1 2 3 4 5 6 
#
# 1 0.007775 -0.000826 -0.000953 0.000000 0.000432 0.000000
# 2 -0.000826 0.014076 0.001053 0.000000 -0.000396 0.000000
# 3 -0.000953 0.001053 0.008551 0.000000 -0.001379 0.000000
# 4 0.000000 0.000000 0.000000 0.036411 0.000000 -0.031113
# 5 0.000432 -0.000396 -0.001379 0.000000 0.020963 0.000000
# 6 0.000000 0.000000 0.000000 -0.031113 0.000000 0.074965
#
#
# Mechanical properties :
#
#
# Convention : Reuss Voigt Hill
#
# Bulk Modulus (GPa) = 34.54177 38.66980 36.60579
# Shear Modulus (GPa) = 28.76192 43.07151 35.91672
#
# Velocity S-wave (km/s) = 3.33082 4.07603 3.72212
# Velocity P-wave (km/s) = 5.30248 6.08837 5.70896
#
# Compressibility (1/GPa) = 0.02895045
#
# Stress axis : x y z
#
# Youngs Moduli (GPa) = 128.61550 71.04506 116.95055
#
# Poissons Ratio (x) = 0.05866 0.11144
# Poissons Ratio (y) = 0.10620 -0.12317
# Poissons Ratio (z) = 0.12256 -0.07482
#
# Static dielectric constant tensor:
#      x y z
#    x 2.094970 0.000000 -0.012830 
#    y 0.000000 1.981950 0.000000 
#    z -0.012830 0.000000 2.116430 
# 
# From -- ./inp_files/83731.got.cif
#   From: 2010.05.17/outbox.cif.g08.bks.cpg/sg10_42_cif.got.tgz:83731.got - 2010.06.03 11:33:40.
