data_PCOD9152829
_publ_section_title
;
Structure prediction by ZEFSAII (Michael W. Deem and Ramdas Pophale) SiO2 
 PCOD9152829
Probable space group: P 2/M
;
_chemical_formula_sum "Si O2"
_cell_formula_units_Z 28
_cell_length_a 5.237161
_cell_length_b 22.258635
_cell_length_c 12.387644
_cell_angle_alpha 90.000000
_cell_angle_beta 67.462547
_cell_angle_gamma 90.000000
_cell_volume 1333.769603
_symmetry_space_group_name_H-M "P 2/M"
_symmetry_group_IT_number 10
_symmetry_cell_setting 'monoclinic'
loop_
_space_group_symop_operation_xyz
x,y,z
-x,y,-z
-x,-y,-z
x,-y,z
loop_
_atom_site_type_symbol
_atom_site_label
_atom_site_fract_x
_atom_site_fract_y
_atom_site_fract_z
Si Si1 0.678707 0.432682 0.580081
Si Si2 0.996262 0.746618 0.377205
Si Si3 0.458346 0.000000 0.136691
Si Si4 0.316666 0.746910 0.932485
Si Si5 0.064568 0.000000 0.618025
Si Si6 0.438955 0.313418 0.714642
Si Si7 0.262682 0.872390 0.876096
Si Si8 0.247177 0.134200 0.621743
O O1 0.500000 0.433951 0.500000
O O2 0.668187 0.500000 0.630226
O O3 0.542457 0.379338 0.669715
O O4 0.000000 0.420200 0.500000
O O5 0.290246 0.723519 0.291515
O O6 0.000000 0.725504 0.500000
O O7 0.738976 0.717987 0.352575
O O8 0.984959 0.818545 0.377430
O O9 0.592635 0.937002 0.148354
O O10 0.171563 0.000000 0.250453
O O11 0.500000 0.000000 0.000000
O O12 0.269581 0.695931 0.849859
O O13 0.434572 0.814381 0.888657
O O14 0.500000 0.723137 0.000000
O O15 0.000000 0.764785 0.000000
O O16 0.000000 0.000000 0.500000
O O17 0.212946 0.063445 0.610948
O O18 0.234626 0.856809 0.753213
O O19 0.000000 0.882120 0.000000
O O20 0.500000 0.152092 0.500000
#
# Coordination Sequence:
#
# PCOD9152829 Si02
#       8
#     4   4   2   4   2   4   4   4
#     4  10  21  38  63  99 140 178 216 265 330 402
#     4  12  25  39  65  98 134 172 222 276 332 399
#     4  12  24  40  66  94 118 168 231 288 341 419
#     4  11  25  43  65  94 131 176 224 283 338 399
#     4  12  26  40  62  86 126 176 217 272 349 421
#     4  12  23  41  67  96 135 176 227 266 339 394
#     4  11  24  43  65  90 127 173 221 286 346 415
#     4  12  25  44  62  92 128 174 223 280 344 416
#
# _framework density 20.993130000000001
#
# number of rings (size 3 to 8) (size 9 to 14) (size 15 to 20)
#    0.000    0.571    1.429    7.714    4.000    0.000 
#    0.000    0.000    0.000    0.857    0.000    0.000 
#    0.000    0.000    0.000    0.000    0.000    0.000 
#
# Total GULP energy -156017.281026 kJ/mol
# GULP energy per Si atom -5572.045751 kJ/mol
# Density = 2.094535 g / cm^3
# Si number density = 20.993130 Si / 1000 Ang^3
#
#
#
# Elastic Constant Matrix: (Units=GPa)
#
#
# Indices 1 2 3 4 5 6 
#
# 1 78.8685 32.1670 23.8685 0.0000 7.3107 0.0000
# 2 32.1670 132.6551 11.3776 0.0000 9.3731 0.0000
# 3 23.8685 11.3776 97.5554 0.0000 21.9580 0.0000
# 4 0.0000 0.0000 0.0000 54.9403 0.0000 7.0969
# 5 7.3107 9.3731 21.9580 0.0000 37.9542 0.0000
# 6 0.0000 0.0000 0.0000 7.0969 0.0000 35.6044
#
#
#
# Elastic Compliance Matrix: (Units=1/GPa)
#
#
# Indices 1 2 3 4 5 6 
#
# 1 0.015049 -0.003357 -0.003248 0.000000 -0.000191 0.000000
# 2 -0.003357 0.008446 0.000184 0.000000 -0.001546 0.000000
# 3 -0.003248 0.000184 0.012524 0.000000 -0.006666 0.000000
# 4 0.000000 0.000000 0.000000 0.018683 0.000000 -0.003724
# 5 -0.000191 -0.001546 -0.006666 0.000000 0.030622 0.000000
# 6 0.000000 0.000000 0.000000 -0.003724 0.000000 0.028829
#
#
# Mechanical properties :
#
#
# Convention : Reuss Voigt Hill
#
# Bulk Modulus (GPa) = 43.14418 49.32280 46.23349
# Shear Modulus (GPa) = 37.11418 41.81083 39.46251
#
# Velocity S-wave (km/s) = 4.20923 4.46763 4.34035
# Velocity P-wave (km/s) = 6.64978 7.08228 6.86943
#
# Compressibility (1/GPa) = 0.02317810
#
# Stress axis : x y z
#
# Youngs Moduli (GPa) = 66.44918 118.40167 79.84690
#
# Poissons Ratio (x) = 0.39750 0.25930
# Poissons Ratio (y) = 0.22308 -0.01472
# Poissons Ratio (z) = 0.21579 -0.02182
#
# Static dielectric constant tensor:
#      x y z
#    x 1.869510 0.000000 -0.226600 
#    y 0.000000 1.886460 0.000000 
#    z -0.226600 0.000000 -0.600360 
# 
# From -- ./inp_files/39728.got.cif
#   From: 2010.05.17/outbox.cif.g08.bks.cpg/sg10_20_cif.got.tgz:39728.got - 2010.06.03 11:33:40.
