data_PCOD9152271
_publ_section_title
;
Structure prediction by ZEFSAII (Michael W. Deem and Ramdas Pophale) SiO2 
 PCOD9152271
Probable space group: P 2/M
;
_chemical_formula_sum "Si O2"
_cell_formula_units_Z 32
_cell_length_a 11.298126
_cell_length_b 7.537893
_cell_length_c 29.394063
_cell_angle_alpha 90.000000
_cell_angle_beta 149.483342
_cell_angle_gamma 90.000000
_cell_volume 1271.156909
_symmetry_space_group_name_H-M "P 2/M"
_symmetry_group_IT_number 10
_symmetry_cell_setting 'monoclinic'
loop_
_space_group_symop_operation_xyz
x,y,z
-x,y,-z
-x,-y,-z
x,-y,z
loop_
_atom_site_type_symbol
_atom_site_label
_atom_site_fract_x
_atom_site_fract_y
_atom_site_fract_z
Si Si1 0.696605 0.201735 0.596016
Si Si2 0.977753 0.288093 0.606721
Si Si3 0.272863 0.703733 0.233044
Si Si4 0.498749 0.284775 0.218705
Si Si5 0.791642 0.793887 0.961289
Si Si6 0.757067 0.790172 0.440825
Si Si7 0.494692 0.217758 0.050966
Si Si8 0.002919 0.205908 0.228255
O O1 0.500000 0.291098 0.500000
O O2 0.912031 0.201507 0.632589
O O3 0.791431 0.286996 0.673272
O O4 0.614927 0.000000 0.578989
O O5 0.976669 0.500000 0.611455
O O6 0.793724 0.238703 0.506676
O O7 0.239817 0.232161 0.680796
O O8 0.204918 0.500000 0.205944
O O9 0.320351 0.778677 0.198619
O O10 0.523956 0.712345 0.341817
O O11 0.081099 0.789730 0.201835
O O12 0.491307 0.500000 0.215881
O O13 0.426742 0.217650 0.145521
O O14 0.708822 0.720251 0.982514
O O15 0.851884 0.000000 0.988886
O O16 0.000000 0.711841 0.000000
O O17 0.000000 0.719854 0.500000
O O18 0.743994 0.000000 0.427856
O O19 0.747764 0.279027 0.152440
O O20 0.489919 0.000000 0.050050
O O21 0.500000 0.270658 0.000000
O O22 0.993894 0.000000 0.238909
#
# Coordination Sequence:
#
# PCOD9152271 Si02
#       8
#     4   4   4   4   4   4   4   4
#     4  10  21  37  56  82 118 155 198 253 306 361
#     4  11  22  37  59  84 116 157 202 246 298 362
#     4  11  23  39  59  85 123 163 203 250 303 362
#     4  10  23  40  58  85 122 162 195 241 308 364
#     4  10  22  39  65  98 122 151 203 255 299 362
#     4  11  22  36  56  85 118 157 204 252 303 359
#     4   9  19  37  61  90 126 160 193 248 314 364
#     4  10  21  37  60  86 117 160 205 250 307 366
#
# _framework density 25.173916999999999
#
# number of rings (size 3 to 8) (size 9 to 14) (size 15 to 20)
#    0.000    1.750    1.250    2.625    1.750    5.500 
#    0.000    0.625    0.000    0.750    0.000    0.000 
#    0.000    0.000    0.000    0.000    0.000    0.000 
#
# Total GULP energy -178966.593089 kJ/mol
# GULP energy per Si atom -5592.706034 kJ/mol
# Density = 2.511662 g / cm^3
# Si number density = 25.173917 Si / 1000 Ang^3
#
#
#
# Elastic Constant Matrix: (Units=GPa)
#
#
# Indices 1 2 3 4 5 6 
#
# 1 176.5244 2.1394 28.7422 0.0000 -2.0628 0.0000
# 2 2.1394 79.5389 1.2449 0.0000 2.9582 0.0000
# 3 28.7422 1.2449 81.2748 0.0000 -3.0890 0.0000
# 4 0.0000 0.0000 0.0000 20.5472 0.0000 -30.2450
# 5 -2.0628 2.9582 -3.0890 0.0000 43.5826 0.0000
# 6 0.0000 0.0000 0.0000 -30.2450 0.0000 25.2789
#
#
#
# Elastic Compliance Matrix: (Units=1/GPa)
#
#
# Indices 1 2 3 4 5 6 
#
# 1 0.006013 -0.000134 -0.002119 0.000000 0.000144 0.000000
# 2 -0.000134 0.012611 -0.000179 0.000000 -0.000875 0.000000
# 3 -0.002119 -0.000179 0.013088 0.000000 0.000839 0.000000
# 4 0.000000 0.000000 0.000000 -0.063941 0.000000 -0.076502
# 5 0.000144 -0.000875 0.000839 0.000000 0.023071 0.000000
# 6 0.000000 0.000000 0.000000 -0.076502 0.000000 -0.051973
#
#
# Mechanical properties :
#
#
# Convention : Reuss Voigt Hill
#
# Bulk Modulus (GPa) = 37.24591 44.62124 40.93358
# Shear Modulus (GPa) = -105.67064 38.22918 -33.72073
#
# Velocity S-wave (km/s) = -6.48594 3.90115 -3.66390
# Velocity P-wave (km/s) = 6.42357 6.16893 1.26622
#
# Compressibility (1/GPa) = 0.02684858
#
# Stress axis : x y z
#
# Youngs Moduli (GPa) = 166.29896 79.29330 76.40606
#
# Poissons Ratio (x) = 0.01062 0.16191
# Poissons Ratio (y) = 0.02227 0.01368
# Poissons Ratio (z) = 0.35239 0.01420
#
# Static dielectric constant tensor:
#      x y z
#    x 2.016530 0.000000 0.015630 
#    y 0.000000 1.917220 0.000000 
#    z 0.015630 0.000000 2.007160 
# 
# From -- ./inp_files/95022.got.cif
#   From: 2010.05.17/outbox.cif.g08.bks.cpg/sg10_48_cif.got.tgz:95022.got - 2010.06.03 11:33:40.
