data_PCOD9152738
_publ_section_title
;
Structure prediction by ZEFSAII (Michael W. Deem and Ramdas Pophale) SiO2 
 PCOD9152738
Probable space group: P 2/M
;
_chemical_formula_sum "Si O2"
_cell_formula_units_Z 32
_cell_length_a 15.701622
_cell_length_b 8.727635
_cell_length_c 12.148838
_cell_angle_alpha 90.000000
_cell_angle_beta 90.888940
_cell_angle_gamma 90.000000
_cell_volume 1664.652402
_symmetry_space_group_name_H-M "P 2/M"
_symmetry_group_IT_number 10
_symmetry_cell_setting 'monoclinic'
loop_
_space_group_symop_operation_xyz
x,y,z
-x,y,-z
-x,-y,-z
x,-y,z
loop_
_atom_site_type_symbol
_atom_site_label
_atom_site_fract_x
_atom_site_fract_y
_atom_site_fract_z
Si Si1 0.392344 0.815688 0.263516
Si Si2 0.089936 0.683053 0.706684
Si Si3 0.846421 0.182517 0.510803
Si Si4 0.899923 0.683206 0.747532
Si Si5 0.758786 0.815085 0.902432
Si Si6 0.660554 0.681974 0.502877
Si Si7 0.750863 0.814767 0.156584
Si Si8 0.416340 0.816050 0.710745
O O1 0.324961 0.769945 0.168881
O O2 0.368770 0.736400 0.377764
O O3 0.490665 0.781460 0.238945
O O4 0.384782 0.000000 0.278523
O O5 0.096138 0.500000 0.697249
O O6 0.094026 0.754117 0.584794
O O7 0.169425 0.746136 0.776715
O O8 0.999707 0.721738 0.760593
O O9 0.869251 0.249646 0.630180
O O10 0.750876 0.237307 0.480812
O O11 0.849927 0.000000 0.514045
O O12 0.891309 0.500000 0.743872
O O13 0.840698 0.748951 0.841955
O O14 0.763537 0.000000 0.899851
O O15 0.752965 0.767388 0.029142
O O16 0.671254 0.500000 0.500591
O O17 0.596129 0.735795 0.406968
O O18 0.662179 0.770377 0.213003
O O19 0.756437 0.000000 0.161672
O O20 0.411597 0.000000 0.694194
#
# Coordination Sequence:
#
# PCOD9152738 Si02
#       8
#     4   4   4   4   4   4   4   4
#     4  10  21  38  61  89 122 160 201 246 298 356
#     4  11  24  41  62  90 123 159 198 243 300 361
#     4  12  23  38  63  92 122 156 195 243 302 361
#     4  11  24  41  62  90 123 159 198 243 300 361
#     4  10  22  40  62  88 119 160 208 253 296 347
#     4  12  23  36  59  90 124 160 197 241 298 361
#     4  10  22  40  62  88 119 160 208 253 296 347
#     4  10  21  38  61  89 122 160 201 246 298 356
#
# _framework density 19.223230999999998
#
# number of rings (size 3 to 8) (size 9 to 14) (size 15 to 20)
#    0.000    1.250    2.500    3.750    0.000    7.000 
#    0.000    5.000    0.000    0.000    0.000    3.500 
#    0.000    0.000    0.000    0.000    0.000    0.000 
#
# Total GULP energy -178939.110045 kJ/mol
# GULP energy per Si atom -5591.847189 kJ/mol
# Density = 1.917948 g / cm^3
# Si number density = 19.223231 Si / 1000 Ang^3
#
#
#
# Elastic Constant Matrix: (Units=GPa)
#
#
# Indices 1 2 3 4 5 6 
#
# 1 100.9374 29.6240 36.3256 0.0000 -5.1467 0.0000
# 2 29.6240 29.8074 30.8606 0.0000 -2.8567 0.0000
# 3 36.3256 30.8606 122.1722 0.0000 -8.9863 0.0000
# 4 0.0000 0.0000 0.0000 -14.3238 0.0000 -18.3473
# 5 -5.1467 -2.8567 -8.9863 0.0000 8.1389 0.0000
# 6 0.0000 0.0000 0.0000 -18.3473 0.0000 57.0483
#
#
#
# Elastic Compliance Matrix: (Units=1/GPa)
#
#
# Indices 1 2 3 4 5 6 
#
# 1 0.014156 -0.013052 -0.000643 0.000000 0.003661 0.000000
# 2 -0.013052 0.057560 -0.010644 0.000000 0.000197 0.000000
# 3 -0.000643 -0.010644 0.011711 0.000000 0.008788 0.000000
# 4 0.000000 0.000000 0.000000 -0.049445 0.000000 -0.015902
# 5 0.003661 0.000197 0.008788 0.000000 0.134954 0.000000
# 6 0.000000 0.000000 0.000000 -0.015902 0.000000 0.012415
#
#
# Mechanical properties :
#
#
# Convention : Reuss Voigt Hill
#
# Bulk Modulus (GPa) = 28.77826 49.61525 39.19675
# Shear Modulus (GPa) = 20.69431 20.57980 20.63706
#
# Velocity S-wave (km/s) = 3.28461 3.27550 3.28006
# Velocity P-wave (km/s) = 5.42106 6.33808 5.89742
#
# Compressibility (1/GPa) = 0.03474845
#
# Stress axis : x y z
#
# Youngs Moduli (GPa) = 70.64239 17.37320 85.38693
#
# Poissons Ratio (x) = 0.22676 0.05487
# Poissons Ratio (y) = 0.92206 0.90888
# Poissons Ratio (z) = 0.04540 0.18492
#
# Static dielectric constant tensor:
#      x y z
#    x 1.679970 0.000000 -0.003880 
#    y 0.000000 1.643600 0.000000 
#    z -0.003880 0.000000 1.633150 
# 
# From -- ./inp_files/49908.got.cif
#   From: 2010.05.17/outbox.cif.g08.bks.cpg/sg10_25_cif.got.tgz:49908.got - 2010.06.03 11:33:40.
