data_PCOD9152059
_publ_section_title
;
Structure prediction by ZEFSAII (Michael W. Deem and Ramdas Pophale) SiO2 
 PCOD9152059
Probable space group: P 2/M
;
_chemical_formula_sum "Si O2"
_cell_formula_units_Z 32
_cell_length_a 10.884516
_cell_length_b 7.991118
_cell_length_c 20.192996
_cell_angle_alpha 90.000000
_cell_angle_beta 54.534310
_cell_angle_gamma 90.000000
_cell_volume 1430.503233
_symmetry_space_group_name_H-M "P 2/M"
_symmetry_group_IT_number 10
_symmetry_cell_setting 'monoclinic'
loop_
_space_group_symop_operation_xyz
x,y,z
-x,y,-z
-x,-y,-z
x,-y,z
loop_
_atom_site_type_symbol
_atom_site_label
_atom_site_fract_x
_atom_site_fract_y
_atom_site_fract_z
Si Si1 0.297870 0.693230 0.522472
Si Si2 0.082029 0.801722 0.227097
Si Si3 0.832825 0.695063 0.035401
Si Si4 0.329641 0.198946 0.047393
Si Si5 0.376378 0.805531 0.782266
Si Si6 0.258485 0.303745 0.680285
Si Si7 0.959837 0.197539 0.610284
Si Si8 0.672619 0.199320 0.629234
O O1 0.340554 0.500000 0.510625
O O2 0.320701 0.761307 0.589750
O O3 0.367483 0.769893 0.434588
O O4 0.118158 0.710942 0.566799
O O5 0.214088 0.735544 0.139054
O O6 0.118551 0.790614 0.293374
O O7 0.922774 0.711962 0.266163
O O8 0.057134 0.000000 0.220605
O O9 0.852699 0.500000 0.012572
O O10 0.728192 0.713999 0.132552
O O11 0.747497 0.775199 0.999764
O O12 0.000000 0.764743 0.000000
O O13 0.340740 0.000000 0.056123
O O14 0.500000 0.267541 0.000000
O O15 0.309073 0.792459 0.729564
O O16 0.544733 0.735238 0.718727
O O17 0.383708 0.000000 0.800332
O O18 0.298777 0.500000 0.674186
O O19 0.839344 0.261629 0.595101
O O20 0.994920 0.000000 0.586803
O O21 0.678142 0.000000 0.637470
#
# Coordination Sequence:
#
# PCOD9152059 Si02
#       8
#     4   4   4   4   4   4   4   4
#     4  10  21  36  56  83 115 153 194 236 285 345
#     4   9  18  34  59  86 112 149 193 237 290 347
#     4  11  25  44  65  90 124 164 205 251 305 370
#     4  10  22  38  62  93 125 159 200 254 307 361
#     4  11  24  40  62  88 115 149 195 246 295 350
#     4  10  21  38  58  82 115 152 193 240 290 346
#     4   9  18  34  57  82 113 151 192 236 286 343
#     4  10  22  37  56  83 116 151 189 240 293 343
#
# _framework density 22.36975
#
# number of rings (size 3 to 8) (size 9 to 14) (size 15 to 20)
#    0.000    2.000    0.000    2.625    1.750    8.750 
#    0.000    2.500    0.000    0.000    0.000    0.000 
#    0.000    0.000    0.000    0.000    0.000    0.000 
#
# Total GULP energy -178790.228960 kJ/mol
# GULP energy per Si atom -5587.194655 kJ/mol
# Density = 2.231884 g / cm^3
# Si number density = 22.369750 Si / 1000 Ang^3
#
#
#
# Elastic Constant Matrix: (Units=GPa)
#
#
# Indices 1 2 3 4 5 6 
#
# 1 99.1177 -5.2126 24.3578 0.0000 -5.9773 0.0000
# 2 -5.2126 21.9521 -6.5530 0.0000 -4.8365 0.0000
# 3 24.3578 -6.5530 120.3639 0.0000 -4.9912 0.0000
# 4 0.0000 0.0000 0.0000 -6.9091 0.0000 -19.4028
# 5 -5.9773 -4.8365 -4.9912 0.0000 30.5139 0.0000
# 6 0.0000 0.0000 0.0000 -19.4028 0.0000 27.9606
#
#
#
# Elastic Compliance Matrix: (Units=1/GPa)
#
#
# Indices 1 2 3 4 5 6 
#
# 1 0.010834 0.002468 -0.001967 0.000000 0.002192 0.000000
# 2 0.002468 0.048792 0.002515 0.000000 0.008628 0.000000
# 3 -0.001967 0.002515 0.008904 0.000000 0.001470 0.000000
# 4 0.000000 0.000000 0.000000 -0.049084 0.000000 -0.034061
# 5 0.002192 0.008628 0.001470 0.000000 0.034809 0.000000
# 6 0.000000 0.000000 0.000000 -0.034061 0.000000 0.012129
#
#
# Mechanical properties :
#
#
# Convention : Reuss Voigt Hill
#
# Bulk Modulus (GPa) = 13.41175 29.62421 21.51798
# Shear Modulus (GPa) = 58.68084 25.56918 42.12501
#
# Velocity S-wave (km/s) = 5.12730 3.38453 4.34421
# Velocity P-wave (km/s) = 6.40787 5.34277 5.89940
#
# Compressibility (1/GPa) = 0.07456151
#
# Stress axis : x y z
#
# Youngs Moduli (GPa) = 92.29819 20.49537 112.30781
#
# Poissons Ratio (x) = -0.05059 0.22094
# Poissons Ratio (y) = -0.22782 -0.28242
# Poissons Ratio (z) = 0.18158 -0.05154
#
# Static dielectric constant tensor:
#      x y z
#    x 1.845100 0.000000 -0.027690 
#    y 0.000000 1.799030 0.000000 
#    z -0.027690 0.000000 1.825260 
# 
# From -- ./inp_files/83521.got.cif
#   From: 2010.05.17/outbox.cif.g08.bks.cpg/sg10_42_cif.got.tgz:83521.got - 2010.06.03 11:33:40.
