data_PCOD9152314
_publ_section_title
;
Structure prediction by ZEFSAII (Michael W. Deem and Ramdas Pophale) SiO2 
 PCOD9152314
Probable space group: P 2/M
;
_chemical_formula_sum "Si O2"
_cell_formula_units_Z 28
_cell_length_a 5.042837
_cell_length_b 31.621488
_cell_length_c 9.866213
_cell_angle_alpha 90.000000
_cell_angle_beta 64.928715
_cell_angle_gamma 90.000000
_cell_volume 1425.053148
_symmetry_space_group_name_H-M "P 2/M"
_symmetry_group_IT_number 10
_symmetry_cell_setting 'monoclinic'
loop_
_space_group_symop_operation_xyz
x,y,z
-x,y,-z
-x,-y,-z
x,-y,z
loop_
_atom_site_type_symbol
_atom_site_label
_atom_site_fract_x
_atom_site_fract_y
_atom_site_fract_z
Si Si1 0.270505 0.696388 0.665401
Si Si2 0.824882 0.549766 0.897765
Si Si3 0.176896 0.823630 0.324072
Si Si4 0.639701 0.265254 0.822841
Si Si5 0.817807 0.601683 0.400216
Si Si6 0.658299 0.047504 0.104516
Si Si7 0.669688 0.880663 0.326331
O O1 0.500000 0.710759 0.500000
O O2 0.394407 0.718714 0.771809
O O3 0.264580 0.645584 0.657479
O O4 0.933518 0.709065 0.723988
O O5 0.803652 0.500000 0.866536
O O6 0.985800 0.574161 0.742877
O O7 0.500000 0.566139 0.000000
O O8 0.000000 0.553445 0.000000
O O9 0.251978 0.782989 0.219440
O O10 0.484089 0.842629 0.303564
O O11 0.000000 0.811516 0.500000
O O12 0.985112 0.860702 0.294615
O O13 0.500000 0.271586 0.000000
O O14 0.500000 0.581255 0.500000
O O15 0.000000 0.609633 0.500000
O O16 0.644720 0.080649 0.228776
O O17 0.544797 0.000000 0.162172
O O18 0.500000 0.061569 0.000000
O O19 0.000000 0.043992 0.000000
O O20 0.500000 0.892927 0.500000
#
# Coordination Sequence:
#
# PCOD9152314 Si02
#       7
#     4   4   4   4   4   4   4
#     4  11  23  42  62  84 119 161 198 242 305 366
#     4  10  22  40  62  91 128 168 205 248 310 371
#     4  10  21  38  59  84 115 153 192 237 297 356
#     4  12  25  40  61  91 119 151 201 251 297 355
#     4  11  23  40  63  92 120 157 209 256 301 358
#     4  10  21  37  57  83 116 154 191 233 294 356
#     4  10  21  37  59  85 112 148 196 240 284 345
#
# _framework density 19.648392000000001
#
# number of rings (size 3 to 8) (size 9 to 14) (size 15 to 20)
#    0.000    1.429    0.000    6.000    0.000    5.429 
#    0.000    0.000    0.000    5.143    0.000    0.000 
#    0.000    0.000    0.000    0.000    0.000    0.000 
#
# Total GULP energy -156322.533410 kJ/mol
# GULP energy per Si atom -5582.947622 kJ/mol
# Density = 1.960367 g / cm^3
# Si number density = 19.648392 Si / 1000 Ang^3
#
#
#
# Elastic Constant Matrix: (Units=GPa)
#
#
# Indices 1 2 3 4 5 6 
#
# 1 66.4839 -10.0813 -6.7858 0.0000 -1.1795 0.0000
# 2 -10.0813 54.7958 43.6314 0.0000 2.2946 0.0000
# 3 -6.7858 43.6314 77.1579 0.0000 0.1621 0.0000
# 4 0.0000 0.0000 0.0000 30.7380 0.0000 26.6890
# 5 -1.1795 2.2946 0.1621 0.0000 35.3337 0.0000
# 6 0.0000 0.0000 0.0000 26.6890 0.0000 20.2931
#
#
#
# Elastic Compliance Matrix: (Units=1/GPa)
#
#
# Indices 1 2 3 4 5 6 
#
# 1 0.015485 0.003187 -0.000441 0.000000 0.000312 0.000000
# 2 0.003187 0.034005 -0.018945 0.000000 -0.002015 0.000000
# 3 -0.000441 -0.018945 0.023632 0.000000 0.001107 0.000000
# 4 0.000000 0.000000 0.000000 -0.229217 0.000000 0.301460
# 5 0.000312 -0.002015 0.001107 0.000000 0.028438 0.000000
# 6 0.000000 0.000000 0.000000 0.301460 0.000000 -0.347195
#
#
# Mechanical properties :
#
#
# Convention : Reuss Voigt Hill
#
# Bulk Modulus (GPa) = 24.55498 27.99623 26.27561
# Shear Modulus (GPa) = -11.65830 28.71784 8.52977
#
# Velocity S-wave (km/s) = -2.43851 3.82722 2.08582
# Velocity P-wave (km/s) = 2.14380 5.81461 4.38210
#
# Compressibility (1/GPa) = 0.04072493
#
# Stress axis : x y z
#
# Youngs Moduli (GPa) = 64.57851 29.40729 42.31501
#
# Poissons Ratio (x) = -0.09372 0.01866
# Poissons Ratio (y) = -0.20581 0.80165
# Poissons Ratio (z) = 0.02848 0.55712
#
# Static dielectric constant tensor:
#      x y z
#    x 1.668150 0.000000 0.007450 
#    y 0.000000 1.699970 0.000000 
#    z 0.007450 0.000000 1.633370 
# 
# From -- ./inp_files/15870.got.cif
#   From: 2010.05.17/outbox.cif.g08.bks.cpg/sg10_8_cif.got.tgz:15870.got - 2010.06.03 11:33:40.
