data_PCOD9152680
_publ_section_title
;
Structure prediction by ZEFSAII (Michael W. Deem and Ramdas Pophale) SiO2 
 PCOD9152680
Probable space group: P 2/M
;
_chemical_formula_sum "Si O2"
_cell_formula_units_Z 28
_cell_length_a 15.254421
_cell_length_b 21.727615
_cell_length_c 8.700468
_cell_angle_alpha 90.000000
_cell_angle_beta 148.818958
_cell_angle_gamma 90.000000
_cell_volume 1493.019360
_symmetry_space_group_name_H-M "P 2/M"
_symmetry_group_IT_number 10
_symmetry_cell_setting 'monoclinic'
loop_
_space_group_symop_operation_xyz
x,y,z
-x,y,-z
-x,-y,-z
x,-y,z
loop_
_atom_site_type_symbol
_atom_site_label
_atom_site_fract_x
_atom_site_fract_y
_atom_site_fract_z
Si Si1 0.316268 0.427735 0.158405
Si Si2 0.680282 0.129790 0.704943
Si Si3 0.202393 0.000000 0.620865
Si Si4 1.000000 0.646795 0.815202
Si Si5 0.319718 0.129790 0.664097
Si Si6 1.000000 0.788745 0.186910
Si Si7 0.202390 0.000000 0.986311
Si Si8 0.683733 0.572265 0.209603
O O1 0.500000 0.410165 0.500000
O O2 0.288526 0.500000 0.155142
O O3 0.317349 0.422065 0.976023
O O4 0.166070 0.387605 0.002666
O O5 0.500000 0.150048 0.500000
O O6 0.675020 0.129101 0.512530
O O7 0.720240 0.061304 0.824586
O O8 0.832838 0.174257 0.985168
O O9 0.279762 0.938696 0.663872
O O10 0.232859 0.000000 0.849289
O O11 0.000001 0.000000 0.290416
O O12 0.000000 0.717999 0.764062
O O13 0.833929 0.612396 0.504454
O O14 0.000000 0.645016 0.000000
O O15 0.167161 0.174257 0.486653
O O16 0.500000 0.150049 0.000000
O O17 0.000000 0.789175 0.000000
O O18 0.711476 0.500000 0.289568
O O19 0.500000 0.589834 0.000000
#
# Coordination Sequence:
#
# PCOD9152680 Si02
#       8
#     4   4   2   4   4   4   2   4
#     4  10  21  38  60  88 120 154 195 242 292 346
#     4  11  22  40  62  85 114 151 192 234 288 343
#     4  11  22  37  60  90 118 144 186 239 289 341
#     4  11  22  38  60  87 120 156 197 240 291 348
#     4  11  22  40  62  85 114 151 192 234 288 343
#     4   9  22  41  59  81 115 156 195 236 283 341
#     4  11  22  37  60  90 118 144 186 239 289 341
#     4  10  21  38  60  88 120 154 195 242 292 346
#
# _framework density 18.753943
#
# number of rings (size 3 to 8) (size 9 to 14) (size 15 to 20)
#    0.000    1.571    1.429    3.429    0.000    5.143 
#    0.000    8.571    0.000    0.000    0.000    0.000 
#    0.000    0.000    0.000    0.000    0.000    0.000 
#
# Total GULP energy -156537.776983 kJ/mol
# GULP energy per Si atom -5590.634892 kJ/mol
# Density = 1.871126 g / cm^3
# Si number density = 18.753943 Si / 1000 Ang^3
#
#
#
# Elastic Constant Matrix: (Units=GPa)
#
#
# Indices 1 2 3 4 5 6 
#
# 1 93.5397 58.5134 60.2853 0.0000 31.7955 0.0000
# 2 58.5134 140.5819 100.7495 0.0000 31.6349 0.0000
# 3 60.2853 100.7495 176.4969 0.0000 30.3387 0.0000
# 4 0.0000 0.0000 0.0000 -9.3669 0.0000 -13.1023
# 5 31.7955 31.6349 30.3387 0.0000 36.7612 0.0000
# 6 0.0000 0.0000 0.0000 -13.1023 0.0000 8.1265
#
#
#
# Elastic Compliance Matrix: (Units=1/GPa)
#
#
# Indices 1 2 3 4 5 6 
#
# 1 0.017957 -0.003371 -0.002375 0.000000 -0.010670 0.000000
# 2 -0.003371 0.013692 -0.005990 0.000000 -0.003924 0.000000
# 3 -0.002375 -0.005990 0.010088 0.000000 -0.001117 0.000000
# 4 0.000000 0.000000 0.000000 -0.032796 0.000000 -0.052877
# 5 -0.010670 -0.003924 -0.001117 0.000000 0.040730 0.000000
# 6 0.000000 0.000000 0.000000 -0.052877 0.000000 0.037802
#
#
# Mechanical properties :
#
#
# Convention : Reuss Voigt Hill
#
# Bulk Modulus (GPa) = 54.74799 94.41276 74.58038
# Shear Modulus (GPa) = 42.72275 19.84218 31.28246
#
# Velocity S-wave (km/s) = 4.77809 3.25626 4.08860
# Velocity P-wave (km/s) = 7.72634 8.03678 7.88309
#
# Compressibility (1/GPa) = 0.01826551
#
# Stress axis : x y z
#
# Youngs Moduli (GPa) = 55.68844 73.03512 99.12441
#
# Poissons Ratio (x) = 0.24618 0.23544
# Poissons Ratio (y) = 0.18771 0.59376
# Poissons Ratio (z) = 0.13227 0.43748
#
# Static dielectric constant tensor:
#      x y z
#    x 1.631140 0.000000 0.000200 
#    y 0.000000 1.621120 0.000000 
#    z 0.000200 0.000000 1.631410 
# 
# From -- ./inp_files/30450.got.cif
#   From: 2010.05.17/outbox.cif.g08.bks.cpg/sg10_16_cif.got.tgz:30450.got - 2010.06.03 11:33:40.
