data_PCOD9152115
_publ_section_title
;
Structure prediction by ZEFSAII (Michael W. Deem and Ramdas Pophale) SiO2 
 PCOD9152115
Probable space group: P 2/M
;
_chemical_formula_sum "Si O2"
_cell_formula_units_Z 22
_cell_length_a 15.498670
_cell_length_b 12.480997
_cell_length_c 6.146474
_cell_angle_alpha 90.000000
_cell_angle_beta 58.708112
_cell_angle_gamma 90.000000
_cell_volume 1016.010697
_symmetry_space_group_name_H-M "P 2/M"
_symmetry_group_IT_number 10
_symmetry_cell_setting 'monoclinic'
loop_
_space_group_symop_operation_xyz
x,y,z
-x,y,-z
-x,-y,-z
x,-y,z
loop_
_atom_site_type_symbol
_atom_site_label
_atom_site_fract_x
_atom_site_fract_y
_atom_site_fract_z
Si Si1 0.075494 0.383837 0.104668
Si Si2 0.373708 0.874962 0.895579
Si Si3 0.807549 0.114749 0.529853
Si Si4 0.000000 0.193564 0.500000
Si Si5 0.474798 0.321072 0.278180
Si Si6 0.260448 0.725006 0.700909
O O1 0.068000 0.500000 0.226286
O O2 0.042838 0.276957 0.269154
O O3 0.193608 0.365262 0.898534
O O4 0.000000 0.389563 0.000000
O O5 0.469911 0.796340 0.798364
O O6 0.308920 0.814019 0.796134
O O7 0.398865 0.000000 0.815922
O O8 0.297371 0.875986 0.200560
O O9 0.905016 0.123634 0.552762
O O10 0.814287 0.212382 0.358522
O O11 0.807035 0.000000 0.415911
O O12 0.500000 0.361330 0.500000
O O13 0.354542 0.318662 0.443465
O O14 0.500000 0.367091 0.000000
#
# Coordination Sequence:
#
# PCOD9152115 Si02
#       6
#     4   4   4   2   4   4
#     4  11  24  42  65  89 112 154 214 272 322 374
#     4  10  21  36  57  89 126 168 211 248 301 379
#     4  11  22  35  58  90 126 164 203 245 309 387
#     4  12  22  42  62  88 122 158 204 266 322 382
#     4  10  21  36  60  89 126 172 212 259 311 374
#     4  11  21  39  60  86 125 161 208 259 318 370
#
# _framework density 21.653316
#
# number of rings (size 3 to 8) (size 9 to 14) (size 15 to 20)
#    0.000    1.273    5.455    1.091    0.000    4.364 
#    0.000    0.909    0.000    5.455    0.000    0.000 
#    0.000    0.000    0.000    0.000    0.000    0.000 
#
# Total GULP energy -122505.901691 kJ/mol
# GULP energy per Si atom -5568.450077 kJ/mol
# Density = 2.160403 g / cm^3
# Si number density = 21.653316 Si / 1000 Ang^3
#
#
#
# Elastic Constant Matrix: (Units=GPa)
#
#
# Indices 1 2 3 4 5 6 
#
# 1 79.5157 11.2461 25.3125 0.0000 -16.5645 0.0000
# 2 11.2461 68.6081 31.1101 0.0000 -10.3456 0.0000
# 3 25.3125 31.1101 94.5042 0.0000 -10.2639 0.0000
# 4 0.0000 0.0000 0.0000 164.3797 0.0000 54.4921
# 5 -16.5645 -10.3456 -10.2639 0.0000 42.9941 0.0000
# 6 0.0000 0.0000 0.0000 54.4921 0.0000 77.0462
#
#
#
# Elastic Compliance Matrix: (Units=1/GPa)
#
#
# Indices 1 2 3 4 5 6 
#
# 1 0.014669 -0.000158 -0.003354 0.000000 0.004813 0.000000
# 2 -0.000158 0.017482 -0.005402 0.000000 0.002856 0.000000
# 3 -0.003354 -0.005402 0.013322 0.000000 0.000588 0.000000
# 4 0.000000 0.000000 0.000000 0.007947 0.000000 -0.005620
# 5 0.004813 0.002856 0.000588 0.000000 0.025941 0.000000
# 6 0.000000 0.000000 0.000000 -0.005620 0.000000 0.016954
#
#
# Mechanical properties :
#
#
# Convention : Reuss Voigt Hill
#
# Bulk Modulus (GPa) = 36.17432 41.99616 39.08524
# Shear Modulus (GPa) = 40.53224 68.54793 54.54009
#
# Velocity S-wave (km/s) = 4.33121 5.63256 5.02420
# Velocity P-wave (km/s) = 6.46180 7.85735 7.19350
#
# Compressibility (1/GPa) = 0.02764392
#
# Stress axis : x y z
#
# Youngs Moduli (GPa) = 68.17171 57.20230 75.06206
#
# Poissons Ratio (x) = 0.00902 0.25178
# Poissons Ratio (y) = 0.01075 0.40552
# Poissons Ratio (z) = 0.22867 0.30903
#
# Static dielectric constant tensor:
#      x y z
#    x 1.776690 0.000000 0.043710 
#    y 0.000000 1.767170 0.000000 
#    z 0.043710 0.000000 1.874700 
# 
# From -- ./inp_files/9166.got.cif
#   From: 2010.05.17/outbox.cif.g08.bks.cpg/sg10_5_cif.got.tgz:9166.got - 2010.06.03 11:33:40.
