data_PCOD9152186
_publ_section_title
;
Structure prediction by ZEFSAII (Michael W. Deem and Ramdas Pophale) SiO2 
 PCOD9152186
Probable space group: P 2/M
;
_chemical_formula_sum "Si O2"
_cell_formula_units_Z 20
_cell_length_a 11.540305
_cell_length_b 11.128284
_cell_length_c 13.520930
_cell_angle_alpha 90.000000
_cell_angle_beta 31.461887
_cell_angle_gamma 90.000000
_cell_volume 906.286213
_symmetry_space_group_name_H-M "P 2/M"
_symmetry_group_IT_number 10
_symmetry_cell_setting 'monoclinic'
loop_
_space_group_symop_operation_xyz
x,y,z
-x,y,-z
-x,-y,-z
x,-y,z
loop_
_atom_site_type_symbol
_atom_site_label
_atom_site_fract_x
_atom_site_fract_y
_atom_site_fract_z
Si Si1 0.270303 0.865840 0.640516
Si Si2 0.373082 0.231632 0.363923
Si Si3 0.035666 0.370259 0.295795
Si Si4 0.111549 0.303278 0.017763
Si Si5 0.735034 0.136232 0.774664
O O1 0.500000 0.798834 0.500000
O O2 0.285310 0.858876 0.511918
O O3 0.050686 0.808887 0.843158
O O4 0.281098 0.000000 0.671751
O O5 0.313112 0.174014 0.302733
O O6 0.225379 0.350012 0.493125
O O7 0.633940 0.262594 0.181091
O O8 0.109484 0.500000 0.282963
O O9 0.088633 0.369667 0.140010
O O10 0.141101 0.250374 0.266770
O O11 0.000000 0.359263 0.000000
O O12 0.831665 0.000000 0.711751
O O13 0.500000 0.130513 0.000000
#
# Coordination Sequence:
#
# PCOD9152186 Si02
#       5
#     4   4   4   4   4
#     4  10  21  36  61  98 139 183 232 281 338 410
#     4  11  23  43  67 100 139 186 228 291 345 416
#     4  11  27  47  72 104 137 182 238 295 352 415
#     4  11  23  43  67  98 140 185 232 287 349 415
#     4  11  24  45  73 105 140 182 231 287 351 420
#
# _framework density 22.068083999999999
#
# number of rings (size 3 to 8) (size 9 to 14) (size 15 to 20)
#    0.000    1.200    4.000    1.200    0.000   10.000 
#    0.000    1.000    0.000    0.000    0.000    0.000 
#    0.000    0.000    0.000    0.000    0.000    0.000 
#
# Total GULP energy -111542.763228 kJ/mol
# GULP energy per Si atom -5577.138161 kJ/mol
# Density = 2.201786 g / cm^3
# Si number density = 22.068084 Si / 1000 Ang^3
#
#
#
# Elastic Constant Matrix: (Units=GPa)
#
#
# Indices 1 2 3 4 5 6 
#
# 1 133.9705 39.8236 38.9625 0.0000 10.3516 0.0000
# 2 39.8236 141.2935 52.9130 0.0000 -22.8867 0.0000
# 3 38.9625 52.9130 161.6477 0.0000 -4.9352 0.0000
# 4 0.0000 0.0000 0.0000 14.0998 0.0000 -46.8547
# 5 10.3516 -22.8867 -4.9352 0.0000 46.0943 0.0000
# 6 0.0000 0.0000 0.0000 -46.8547 0.0000 44.6629
#
#
#
# Elastic Compliance Matrix: (Units=1/GPa)
#
#
# Indices 1 2 3 4 5 6 
#
# 1 0.008891 -0.002525 -0.001420 0.000000 -0.003403 0.000000
# 2 -0.002525 0.009479 -0.002341 0.000000 0.005023 0.000000
# 3 -0.001420 -0.002341 0.007293 0.000000 -0.000063 0.000000
# 4 0.000000 0.000000 0.000000 -0.028527 0.000000 -0.029927
# 5 -0.003403 0.005023 -0.000063 0.000000 0.024946 0.000000
# 6 0.000000 0.000000 0.000000 -0.029927 0.000000 -0.009006
#
#
# Mechanical properties :
#
#
# Convention : Reuss Voigt Hill
#
# Bulk Modulus (GPa) = 76.39093 77.81219 77.10156
# Shear Modulus (GPa) = 166.59509 41.31892 103.95700
#
# Velocity S-wave (km/s) = 8.69801 4.33175 6.87093
# Velocity P-wave (km/s) = 11.64323 7.76887 9.89748
#
# Compressibility (1/GPa) = 0.01309056
#
# Stress axis : x y z
#
# Youngs Moduli (GPa) = 112.47424 105.49082 137.11757
#
# Poissons Ratio (x) = 0.26638 0.19475
# Poissons Ratio (y) = 0.28401 0.32099
# Poissons Ratio (z) = 0.15975 0.24695
#
# Static dielectric constant tensor:
#      x y z
#    x 1.894050 0.000000 -0.018010 
#    y 0.000000 1.832270 0.000000 
#    z -0.018010 0.000000 1.796240 
# 
# From -- ./inp_files/64586.got.cif
#   From: 2010.05.17/outbox.cif.g08.bks.cpg/sg10_33_cif.got.tgz:64586.got - 2010.06.03 11:33:40.
