data_PCOD9152646
_publ_section_title
;
Structure prediction by ZEFSAII (Michael W. Deem and Ramdas Pophale) SiO2 
 PCOD9152646
Probable space group: P 2/M
;
_chemical_formula_sum "Si O2"
_cell_formula_units_Z 24
_cell_length_a 11.810894
_cell_length_b 14.082483
_cell_length_c 14.057850
_cell_angle_alpha 90.000000
_cell_angle_beta 147.157345
_cell_angle_gamma 90.000000
_cell_volume 1268.082806
_symmetry_space_group_name_H-M "P 2/M"
_symmetry_group_IT_number 10
_symmetry_cell_setting 'monoclinic'
loop_
_space_group_symop_operation_xyz
x,y,z
-x,y,-z
-x,-y,-z
x,-y,z
loop_
_atom_site_type_symbol
_atom_site_label
_atom_site_fract_x
_atom_site_fract_y
_atom_site_fract_z
Si Si1 0.702362 0.615097 0.202357
Si Si2 0.179619 0.386064 0.500005
Si Si3 0.201642 0.885198 0.701642
Si Si4 0.633451 0.766956 0.499997
Si Si5 0.049076 0.887416 0.800618
Si Si6 0.552161 0.112583 0.800621
O O1 0.693172 0.500000 0.193168
O O2 0.718501 0.640181 0.325657
O O3 0.932822 0.640178 0.325654
O O4 0.500000 0.649789 0.000000
O O5 0.192232 0.500000 0.500010
O O6 0.296385 0.330429 0.500010
O O7 0.167059 0.858128 0.786149
O O8 0.405238 0.858129 0.786150
O O9 0.000000 0.853298 0.500000
O O10 0.203662 0.000000 0.703664
O O11 0.500000 0.753263 0.500000
O O12 0.507965 0.827541 0.333058
O O13 0.841847 0.827539 0.666939
O O14 0.999426 0.000000 0.756366
O O15 0.210894 0.875415 0.999999
O O16 0.513308 0.000000 0.756370
#
# Coordination Sequence:
#
# PCOD9152646 Si02
#       6
#     4   4   4   4   4   4
#     4   8  15  33  63  93 117 139 169 222 291 354
#     4   9  20  38  60  88 117 146 183 226 281 344
#     4   9  15  29  56  86 115 143 173 218 283 351
#     4  12  26  40  55  78 112 155 203 245 274 317
#     4  10  21  38  60  85 114 148 186 234 292 347
#     4  10  21  38  60  85 114 148 186 234 292 347
#
# _framework density 18.926207000000002
#
# number of rings (size 3 to 8) (size 9 to 14) (size 15 to 20)
#    0.000    2.333    1.667    2.000    0.000    8.333 
#    0.000    1.667    0.000    0.000    0.000    7.000 
#    0.000    0.000    0.000    0.000    0.000    0.000 
#
# Total GULP energy -134040.133744 kJ/mol
# GULP energy per Si atom -5585.005573 kJ/mol
# Density = 1.888313 g / cm^3
# Si number density = 18.926207 Si / 1000 Ang^3
#
#
#
# Elastic Constant Matrix: (Units=GPa)
#
#
# Indices 1 2 3 4 5 6 
#
# 1 165.0687 56.9547 73.6599 0.0000 11.9805 0.0000
# 2 56.9547 99.3851 52.6348 0.0000 0.2741 0.0000
# 3 73.6599 52.6348 130.5414 0.0000 -9.7537 0.0000
# 4 0.0000 0.0000 0.0000 8.8513 0.0000 1.4112
# 5 11.9805 0.2741 -9.7537 0.0000 -44.8182 0.0000
# 6 0.0000 0.0000 0.0000 1.4112 0.0000 30.4780
#
#
#
# Elastic Compliance Matrix: (Units=1/GPa)
#
#
# Indices 1 2 3 4 5 6 
#
# 1 0.008361 -0.003073 -0.003260 0.000000 0.002926 0.000000
# 2 -0.003073 0.013860 -0.003847 0.000000 0.000101 0.000000
# 3 -0.003260 -0.003847 0.010808 0.000000 -0.003247 0.000000
# 4 0.000000 0.000000 0.000000 0.113818 0.000000 -0.005270
# 5 0.002926 0.000101 -0.003247 0.000000 -0.020823 0.000000
# 6 0.000000 0.000000 0.000000 -0.005270 0.000000 0.033055
#
#
# Mechanical properties :
#
#
# Convention : Reuss Voigt Hill
#
# Bulk Modulus (GPa) = 78.93074 84.61043 81.77058
# Shear Modulus (GPa) = 27.22393 13.01861 20.12127
#
# Velocity S-wave (km/s) = 3.79677 2.62556 3.26413
# Velocity P-wave (km/s) = 7.81125 7.34805 7.58319
#
# Compressibility (1/GPa) = 0.01266934
#
# Stress axis : x y z
#
# Youngs Moduli (GPa) = 119.60632 72.15055 92.52002
#
# Poissons Ratio (x) = 0.22170 0.30163
# Poissons Ratio (y) = 0.36753 0.35592
# Poissons Ratio (z) = 0.38993 0.27756
#
# Static dielectric constant tensor:
#      x y z
#    x 1.625430 0.000000 -0.002060 
#    y 0.000000 1.693790 0.000000 
#    z -0.002060 0.000000 1.657050 
# 
# From -- ./inp_files/51496.got.cif
#   From: 2010.05.17/outbox.cif.g08.bks.cpg/sg10_26_cif.got.tgz:51496.got - 2010.06.03 11:33:40.
