data_PCOD9152326
_publ_section_title
;
Structure prediction by ZEFSAII (Michael W. Deem and Ramdas Pophale) SiO2 
 PCOD9152326
Probable space group: P 2/M
;
_chemical_formula_sum "Si O2"
_cell_formula_units_Z 22
_cell_length_a 7.889951
_cell_length_b 7.167451
_cell_length_c 17.865362
_cell_angle_alpha 90.000000
_cell_angle_beta 123.785513
_cell_angle_gamma 90.000000
_cell_volume 839.686667
_symmetry_space_group_name_H-M "P 2/M"
_symmetry_group_IT_number 10
_symmetry_cell_setting 'monoclinic'
loop_
_space_group_symop_operation_xyz
x,y,z
-x,y,-z
-x,-y,-z
x,-y,z
loop_
_atom_site_type_symbol
_atom_site_label
_atom_site_fract_x
_atom_site_fract_y
_atom_site_fract_z
Si Si1 0.459994 0.225672 0.274958
Si Si2 0.687335 0.226661 0.600661
Si Si3 0.907676 0.219869 0.057934
Si Si4 0.855621 0.500000 0.164815
Si Si5 0.069872 0.773876 0.600275
Si Si6 0.501574 0.222750 0.879926
O O1 0.358335 0.291200 0.326734
O O2 0.697747 0.283293 0.333787
O O3 0.393906 0.268694 0.174418
O O4 0.453063 0.000000 0.278261
O O5 0.500000 0.279480 0.500000
O O6 0.903583 0.290522 0.620080
O O7 0.690867 0.000000 0.601088
O O8 0.973491 0.338373 0.144179
O O9 0.666978 0.261967 0.984935
O O10 0.937205 0.000000 0.077758
O O11 0.000000 0.265359 0.000000
O O12 0.296864 0.337872 0.838033
O O13 0.000000 0.720958 0.500000
O O14 0.068488 0.000000 0.603017
O O15 0.460659 0.000000 0.870719
#
# Coordination Sequence:
#
# PCOD9152326 Si02
#       6
#     4   4   4   2   4   4
#     4   9  17  29  43  69 111 144 180 239 288 332
#     4   9  14  22  40  65  98 142 186 231 281 334
#     4  10  21  38  61  89 118 150 192 236 282 349
#     4  12  22  38  65  86 111 154 193 234 288 349
#     4   9  14  22  40  66  98 140 188 233 279 335
#     4  10  21  37  57  85 117 150 191 239 293 344
#
# _framework density 26.20025
#
# number of rings (size 3 to 8) (size 9 to 14) (size 15 to 20)
#    0.000    2.364    1.818    2.455    0.000    1.455 
#    3.273    0.000    0.000    0.000    0.000    1.273 
#    0.000    0.000    0.000    0.000    0.000    0.364 
#
# Total GULP energy -122727.351638 kJ/mol
# GULP energy per Si atom -5578.515984 kJ/mol
# Density = 2.614062 g / cm^3
# Si number density = 26.200250 Si / 1000 Ang^3
#
#
#
# Elastic Constant Matrix: (Units=GPa)
#
#
# Indices 1 2 3 4 5 6 
#
# 1 191.2180 15.1229 57.3976 0.0000 -40.9965 0.0000
# 2 15.1229 138.9624 4.7550 0.0000 -11.7775 0.0000
# 3 57.3976 4.7550 125.0975 0.0000 3.1913 0.0000
# 4 0.0000 0.0000 0.0000 -118.5580 0.0000 33.7469
# 5 -40.9965 -11.7775 3.1913 0.0000 43.7814 0.0000
# 6 0.0000 0.0000 0.0000 33.7469 0.0000 -2.7105
#
#
#
# Elastic Compliance Matrix: (Units=1/GPa)
#
#
# Indices 1 2 3 4 5 6 
#
# 1 0.008090 -0.000082 -0.003909 0.000000 0.007838 0.000000
# 2 -0.000082 0.007379 -0.000292 0.000000 0.001929 0.000000
# 3 -0.003909 -0.000292 0.009912 0.000000 -0.004461 0.000000
# 4 0.000000 0.000000 0.000000 0.003316 0.000000 0.041281
# 5 0.007838 0.001929 -0.004461 0.000000 0.031024 0.000000
# 6 0.000000 0.000000 0.000000 0.041281 0.000000 0.145025
#
#
# Mechanical properties :
#
#
# Convention : Reuss Voigt Hill
#
# Bulk Modulus (GPa) = 59.47153 67.75875 63.61514
# Shear Modulus (GPa) = 22.83982 9.70276 16.27129
#
# Velocity S-wave (km/s) = 2.95573 1.92649 2.49476
# Velocity P-wave (km/s) = 5.86486 5.55576 5.71240
#
# Compressibility (1/GPa) = 0.01681477
#
# Stress axis : x y z
#
# Youngs Moduli (GPa) = 123.61191 135.52647 100.88753
#
# Poissons Ratio (x) = 0.01116 0.39433
# Poissons Ratio (y) = 0.01018 0.02945
# Poissons Ratio (z) = 0.48315 0.03956
#
# Static dielectric constant tensor:
#      x y z
#    x 2.054220 0.000000 0.031130 
#    y 0.000000 2.169150 0.000000 
#    z 0.031130 0.000000 2.088140 
# 
# From -- ./inp_files/81640.got.cif
#   From: 2010.05.17/outbox.cif.g08.bks.cpg/sg10_41_cif.got.tgz:81640.got - 2010.06.03 11:33:40.
