data_PCOD9152653
_publ_section_title
;
Structure prediction by ZEFSAII (Michael W. Deem and Ramdas Pophale) SiO2 
 PCOD9152653
Probable space group: P 2/M
;
_chemical_formula_sum "Si O2"
_cell_formula_units_Z 28
_cell_length_a 10.474213
_cell_length_b 8.812540
_cell_length_c 30.781856
_cell_angle_alpha 90.000000
_cell_angle_beta 146.401775
_cell_angle_gamma 90.000000
_cell_volume 1572.278865
_symmetry_space_group_name_H-M "P 2/M"
_symmetry_group_IT_number 10
_symmetry_cell_setting 'monoclinic'
loop_
_space_group_symop_operation_xyz
x,y,z
-x,y,-z
-x,-y,-z
x,-y,z
loop_
_atom_site_type_symbol
_atom_site_label
_atom_site_fract_x
_atom_site_fract_y
_atom_site_fract_z
Si Si1 0.637002 0.317703 0.417427
Si Si2 0.873654 0.182734 0.841575
Si Si3 0.687482 0.317833 0.175437
Si Si4 0.095084 0.682311 0.595804
Si Si5 0.851633 0.181753 0.733883
Si Si6 0.357657 0.682837 0.002624
Si Si7 0.402236 0.181823 0.755943
O O1 0.607220 0.500000 0.410447
O O2 0.744864 0.280491 0.400628
O O3 0.393814 0.236870 0.353730
O O4 0.834545 0.276632 0.508217
O O5 0.863649 0.229234 0.788115
O O6 0.641585 0.230000 0.800669
O O7 0.884287 0.000000 0.845623
O O8 0.103338 0.249033 0.928007
O O9 0.695612 0.500000 0.179152
O O10 0.501219 0.272401 0.085890
O O11 0.620876 0.253029 0.203248
O O12 0.934770 0.254934 0.230593
O O13 0.103492 0.500000 0.603754
O O14 0.196263 0.763012 0.666419
O O15 0.867095 0.000000 0.736224
O O16 0.341304 0.500000 0.997194
O O17 0.500000 0.730487 0.000000
O O18 0.400167 0.000000 0.758327
#
# Coordination Sequence:
#
# PCOD9152653 Si02
#       7
#     4   4   4   4   4   4   4
#     4   9  18  33  57  88 118 150 192 239 283 334
#     4  10  22  37  58  86 117 152 190 232 285 343
#     4  11  24  41  60  84 115 153 193 239 294 344
#     4   9  18  34  57  86 118 153 192 235 285 336
#     4  11  21  36  58  88 118 151 193 236 285 343
#     4  10  21  38  60  86 113 145 193 244 286 334
#     4  11  23  40  58  85 121 156 192 233 287 348
#
# _framework density 17.808546
#
# number of rings (size 3 to 8) (size 9 to 14) (size 15 to 20)
#    0.000    1.857    2.857    2.143    0.000    4.286 
#    0.000    5.000    0.000    4.286    0.000    0.000 
#    0.000    0.000    0.000    0.000    0.000    0.000 
#
# Total GULP energy -156378.562598 kJ/mol
# GULP energy per Si atom -5584.948664 kJ/mol
# Density = 1.776801 g / cm^3
# Si number density = 17.808546 Si / 1000 Ang^3
#
#
#
# Elastic Constant Matrix: (Units=GPa)
#
#
# Indices 1 2 3 4 5 6 
#
# 1 113.9191 33.4448 65.6028 0.0000 -5.8704 0.0000
# 2 33.4448 29.3531 37.9665 0.0000 -2.3986 0.0000
# 3 65.6028 37.9665 145.6903 0.0000 0.7979 0.0000
# 4 0.0000 0.0000 0.0000 299.2749 0.0000 -31.6657
# 5 -5.8704 -2.3986 0.7979 0.0000 30.9903 0.0000
# 6 0.0000 0.0000 0.0000 -31.6657 0.0000 27.1398
#
#
#
# Elastic Compliance Matrix: (Units=1/GPa)
#
#
# Indices 1 2 3 4 5 6 
#
# 1 0.014263 -0.011732 -0.003376 0.000000 0.001881 0.000000
# 2 -0.011732 0.061625 -0.010792 0.000000 0.002825 0.000000
# 3 -0.003376 -0.010792 0.011206 0.000000 -0.001763 0.000000
# 4 0.000000 0.000000 0.000000 0.003812 0.000000 0.004448
# 5 0.001881 0.002825 -0.001763 0.000000 0.032889 0.000000
# 6 0.000000 0.000000 0.000000 0.004448 0.000000 0.042036
#
#
# Mechanical properties :
#
#
# Convention : Reuss Voigt Hill
#
# Bulk Modulus (GPa) = 28.33248 62.55452 45.44350
# Shear Modulus (GPa) = 21.79660 81.61088 51.70374
#
# Velocity S-wave (km/s) = 3.50228 6.77689 5.39408
# Velocity P-wave (km/s) = 5.68319 9.82026 8.02297
#
# Compressibility (1/GPa) = 0.03529518
#
# Stress axis : x y z
#
# Youngs Moduli (GPa) = 70.11035 16.22730 89.23832
#
# Poissons Ratio (x) = 0.19037 0.30124
# Poissons Ratio (y) = 0.82250 0.96307
# Poissons Ratio (z) = 0.23667 0.17513
#
# Static dielectric constant tensor:
#      x y z
#    x 1.584680 0.000000 -0.002770 
#    y 0.000000 1.596040 0.000000 
#    z -0.002770 0.000000 1.592120 
# 
# From -- ./inp_files/74334.got.cif
#   From: 2010.05.17/outbox.cif.g08.bks.cpg/sg10_38_cif.got.tgz:74334.got - 2010.06.03 11:33:40.
