data_PCOD9152789
_publ_section_title
;
Structure prediction by ZEFSAII (Michael W. Deem and Ramdas Pophale) SiO2 
 PCOD9152789
Probable space group: P 2/M
;
_chemical_formula_sum "Si O2"
_cell_formula_units_Z 28
_cell_length_a 13.645489
_cell_length_b 8.641476
_cell_length_c 20.196365
_cell_angle_alpha 90.000000
_cell_angle_beta 144.203978
_cell_angle_gamma 90.000000
_cell_volume 1392.941493
_symmetry_space_group_name_H-M "P 2/M"
_symmetry_group_IT_number 10
_symmetry_cell_setting 'monoclinic'
loop_
_space_group_symop_operation_xyz
x,y,z
-x,y,-z
-x,-y,-z
x,-y,z
loop_
_atom_site_type_symbol
_atom_site_label
_atom_site_fract_x
_atom_site_fract_y
_atom_site_fract_z
Si Si1 0.717281 0.681923 0.945308
Si Si2 0.914956 0.683778 0.281545
Si Si3 0.555465 0.819988 0.107055
Si Si4 0.870330 0.186806 0.486252
Si Si5 0.509788 0.186780 0.714284
Si Si6 0.390276 0.811650 0.377904
Si Si7 0.005758 0.185028 0.188355
O O1 0.746974 0.500000 0.960480
O O2 0.571188 0.723298 0.917784
O O3 0.648269 0.740975 0.837621
O O4 0.882851 0.767138 0.061952
O O5 0.899210 0.500000 0.275575
O O6 0.744966 0.761511 0.215338
O O7 0.942439 0.738148 0.221460
O O8 0.066384 0.741567 0.410459
O O9 0.545523 0.000000 0.121970
O O10 0.500000 0.809022 0.000000
O O11 0.678441 0.230196 0.366643
O O12 0.000000 0.234071 0.500000
O O13 0.876522 0.000000 0.495414
O O14 0.536962 0.235104 0.653188
O O15 0.522511 0.000000 0.724912
O O16 0.500000 0.756191 0.500000
O O17 0.196641 0.767022 0.279385
O O18 0.395047 0.000000 0.381653
O O19 0.999595 0.000000 0.193714
#
# Coordination Sequence:
#
# PCOD9152789 Si02
#       7
#     4   4   4   4   4   4   4
#     4  12  25  40  60  90 129 164 201 250 310 374
#     4  12  24  37  59  91 127 161 198 250 312 370
#     4  11  22  38  62  88 119 162 208 251 297 355
#     4  10  21  38  62  90 121 160 206 251 300 365
#     4  10  21  40  65  91 123 163 208 258 309 361
#     4   9  19  38  66  95 118 151 206 265 309 352
#     4  11  22  39  63  89 119 158 209 258 303 361
#
# _framework density 20.101348000000002
#
# number of rings (size 3 to 8) (size 9 to 14) (size 15 to 20)
#    0.000    1.286    1.429    5.143    0.000    5.429 
#    0.000    4.286    0.000    3.000    0.000    0.000 
#    0.000    0.000    0.000    0.000    0.000    0.000 
#
# Total GULP energy -156644.546948 kJ/mol
# GULP energy per Si atom -5594.448105 kJ/mol
# Density = 2.005560 g / cm^3
# Si number density = 20.101348 Si / 1000 Ang^3
#
#
#
# Elastic Constant Matrix: (Units=GPa)
#
#
# Indices 1 2 3 4 5 6 
#
# 1 79.3795 -8.0835 34.5626 0.0000 -0.8443 0.0000
# 2 -8.0835 22.4794 8.3337 0.0000 -4.8693 0.0000
# 3 34.5626 8.3337 136.0468 0.0000 -3.2102 0.0000
# 4 0.0000 0.0000 0.0000 -21.9791 0.0000 9.9336
# 5 -0.8443 -4.8693 -3.2102 0.0000 36.2814 0.0000
# 6 0.0000 0.0000 0.0000 9.9336 0.0000 -2.4420
#
#
#
# Elastic Compliance Matrix: (Units=1/GPa)
#
#
# Indices 1 2 3 4 5 6 
#
# 1 0.015215 0.007267 -0.004288 0.000000 0.000950 0.000000
# 2 0.007267 0.050274 -0.004772 0.000000 0.006494 0.000000
# 3 -0.004288 -0.004772 0.008733 0.000000 0.000032 0.000000
# 4 0.000000 0.000000 0.000000 0.054262 0.000000 0.220726
# 5 0.000950 0.006494 0.000032 0.000000 0.028459 0.000000
# 6 0.000000 0.000000 0.000000 0.220726 0.000000 0.488377
#
#
# Mechanical properties :
#
#
# Convention : Reuss Voigt Hill
#
# Bulk Modulus (GPa) = 14.15743 34.17014 24.16378
# Shear Modulus (GPa) = 7.43548 15.91160 11.67354
#
# Velocity S-wave (km/s) = 1.92536 2.81654 2.41246
# Velocity P-wave (km/s) = 3.46425 5.25481 4.45051
#
# Compressibility (1/GPa) = 0.07063431
#
# Stress axis : x y z
#
# Youngs Moduli (GPa) = 65.72521 19.89091 114.50964
#
# Poissons Ratio (x) = -0.14454 0.49102
# Poissons Ratio (y) = -0.47760 0.54649
# Poissons Ratio (z) = 0.28183 0.09493
#
# Static dielectric constant tensor:
#      x y z
#    x 1.695700 0.000000 -0.002590 
#    y 0.000000 1.669670 0.000000 
#    z -0.002590 0.000000 1.698630 
# 
# From -- ./inp_files/85000.got.cif
#   From: 2010.05.17/outbox.cif.g08.bks.cpg/sg10_43_cif.got.tgz:85000.got - 2010.06.03 11:33:40.
