data_PCOD9152217
_publ_section_title
;
Structure prediction by ZEFSAII (Michael W. Deem and Ramdas Pophale) SiO2 
 PCOD9152217
Probable space group: P 2/M
;
_chemical_formula_sum "Si O2"
_cell_formula_units_Z 28
_cell_length_a 18.449203
_cell_length_b 9.207093
_cell_length_c 19.598908
_cell_angle_alpha 90.000000
_cell_angle_beta 31.332158
_cell_angle_gamma 90.000000
_cell_volume 1731.147980
_symmetry_space_group_name_H-M "P 2/M"
_symmetry_group_IT_number 10
_symmetry_cell_setting 'monoclinic'
loop_
_space_group_symop_operation_xyz
x,y,z
-x,y,-z
-x,-y,-z
x,-y,z
loop_
_atom_site_type_symbol
_atom_site_label
_atom_site_fract_x
_atom_site_fract_y
_atom_site_fract_z
Si Si1 0.579537 0.672723 0.224484
Si Si2 0.910093 0.173217 0.139903
Si Si3 0.108177 0.671834 0.083851
Si Si4 0.382486 0.326326 0.650116
Si Si5 0.479444 0.825665 0.179088
Si Si6 0.659372 0.169063 0.842760
Si Si7 0.749861 0.326954 0.895386
O O1 0.556495 0.500000 0.233724
O O2 0.740352 0.701154 0.072562
O O3 0.567670 0.710384 0.313411
O O4 0.478027 0.760946 0.255989
O O5 0.759335 0.244033 0.252838
O O6 0.899606 0.000000 0.152988
O O7 0.000000 0.209740 0.000000
O O8 0.992378 0.236957 0.138341
O O9 0.080826 0.500000 0.097220
O O10 0.127107 0.702080 0.149349
O O11 0.500000 0.293978 0.500000
O O12 0.355695 0.500000 0.671043
O O13 0.355990 0.791345 0.224645
O O14 0.494953 0.000000 0.167415
O O15 0.616505 0.751836 0.036205
O O16 0.755494 0.265173 0.814432
O O17 0.698553 0.000000 0.817298
O O18 0.500000 0.180747 0.000000
O O19 0.726913 0.500000 0.912939
#
# Coordination Sequence:
#
# PCOD9152217 Si02
#       7
#     4   4   4   4   4   4   4
#     4   9  17  29  45  66  89 116 155 197 235 277
#     4  11  22  33  49  74  98 124 161 200 240 286
#     4   9  17  29  45  65  90 122 157 196 236 277
#     4  10  21  37  55  72  94 127 162 199 246 292
#     4   9  16  24  36  55  82 117 153 186 226 277
#     4   8  14  23  33  50  79 116 151 182 223 275
#     4   9  16  24  36  57  83 114 151 190 231 272
#
# _framework density 16.174239
#
# number of rings (size 3 to 8) (size 9 to 14) (size 15 to 20)
#    0.000    2.714    1.429    3.000    0.000    7.429 
#    0.000    0.000    0.000    0.000    0.000    0.000 
#    0.000    1.143    0.000   12.857    0.000    8.857 
#
# Total GULP energy -155895.629871 kJ/mol
# GULP energy per Si atom -5567.701067 kJ/mol
# Density = 1.613743 g / cm^3
# Si number density = 16.174239 Si / 1000 Ang^3
#
#
#
# Elastic Constant Matrix: (Units=GPa)
#
#
# Indices 1 2 3 4 5 6 
#
# 1 190.0680 80.4371 46.2600 0.0000 6.7299 0.0000
# 2 80.4371 57.3536 31.6829 0.0000 -1.4462 0.0000
# 3 46.2600 31.6829 41.0679 0.0000 1.9184 0.0000
# 4 0.0000 0.0000 0.0000 11.6526 0.0000 -5.3407
# 5 6.7299 -1.4462 1.9184 0.0000 8.8940 0.0000
# 6 0.0000 0.0000 0.0000 -5.3407 0.0000 39.1110
#
#
#
# Elastic Compliance Matrix: (Units=1/GPa)
#
#
# Indices 1 2 3 4 5 6 
#
# 1 0.014585 -0.021128 0.000553 0.000000 -0.014591 0.000000
# 2 -0.021128 0.061917 -0.025442 0.000000 0.031543 0.000000
# 3 0.000553 -0.025442 0.044011 0.000000 -0.014048 0.000000
# 4 0.000000 0.000000 0.000000 0.091547 0.000000 0.012501
# 5 -0.014591 0.031543 -0.014048 0.000000 0.131635 0.000000
# 6 0.000000 0.000000 0.000000 0.012501 0.000000 0.027275
#
#
# Mechanical properties :
#
#
# Convention : Reuss Voigt Hill
#
# Bulk Modulus (GPa) = 35.11374 67.24994 51.18184
# Shear Modulus (GPa) = 10.58205 20.60549 15.59377
#
# Velocity S-wave (km/s) = 2.56061 3.57314 3.10838
# Velocity P-wave (km/s) = 5.52260 7.66106 6.67798
#
# Compressibility (1/GPa) = 0.02847888
#
# Stress axis : x y z
#
# Youngs Moduli (GPa) = 68.56416 16.15060 22.72146
#
# Poissons Ratio (x) = 0.34123 -0.01256
# Poissons Ratio (y) = 1.44864 0.57807
# Poissons Ratio (z) = -0.03789 0.41090
#
# Static dielectric constant tensor:
#      x y z
#    x 1.598660 0.000000 0.025970 
#    y 0.000000 1.536120 0.000000 
#    z 0.025970 0.000000 1.509040 
# 
# From -- ./inp_files/79257.got.cif
#   From: 2010.05.17/outbox.cif.g08.bks.cpg/sg10_40_cif.got.tgz:79257.got - 2010.06.03 11:33:40.
