data_PCOD9152734
_publ_section_title
;
Structure prediction by ZEFSAII (Michael W. Deem and Ramdas Pophale) SiO2 
 PCOD9152734
Probable space group: P 2/M
;
_chemical_formula_sum "Si O2"
_cell_formula_units_Z 32
_cell_length_a 15.813917
_cell_length_b 8.130793
_cell_length_c 12.426355
_cell_angle_alpha 90.000000
_cell_angle_beta 90.398627
_cell_angle_gamma 90.000000
_cell_volume 1597.738150
_symmetry_space_group_name_H-M "P 2/M"
_symmetry_group_IT_number 10
_symmetry_cell_setting 'monoclinic'
loop_
_space_group_symop_operation_xyz
x,y,z
-x,y,-z
-x,-y,-z
x,-y,z
loop_
_atom_site_type_symbol
_atom_site_label
_atom_site_fract_x
_atom_site_fract_y
_atom_site_fract_z
Si Si1 0.496954 0.701202 0.125070
Si Si2 0.842272 0.305600 0.232390
Si Si3 0.662305 0.307982 0.733948
Si Si4 0.998293 0.697612 0.377313
Si Si5 0.399008 0.190107 0.492973
Si Si6 0.150323 0.806863 0.229408
Si Si7 0.654574 0.302133 0.272712
Si Si8 0.100988 0.192532 0.996346
O O1 0.496800 0.500000 0.127032
O O2 0.411437 0.754014 0.186286
O O3 0.579270 0.757448 0.193425
O O4 0.500000 0.751497 0.000000
O O5 0.837332 0.500000 0.256018
O O6 0.748218 0.236583 0.248133
O O7 0.917485 0.237722 0.308779
O O8 0.867383 0.282200 0.109142
O O9 0.676087 0.500000 0.758059
O O10 0.629974 0.287626 0.612098
O O11 0.751997 0.219606 0.743181
O O12 0.990234 0.500000 0.382226
O O13 0.084701 0.733695 0.314327
O O14 0.000000 0.760299 0.500000
O O15 0.500000 0.196061 0.500000
O O16 0.365282 0.259868 0.604484
O O17 0.372548 0.000000 0.480510
O O18 0.134653 0.738632 0.109338
O O19 0.130613 0.000000 0.224652
O O20 0.655455 0.500000 0.260576
O O21 0.125501 0.000000 0.986993
O O22 0.000000 0.200795 0.000000
#
# Coordination Sequence:
#
# PCOD9152734 Si02
#       8
#     4   4   4   4   4   4   4   4
#     4   9  19  36  58  86 119 154 195 243 295 353
#     4  10  22  37  60  91 119 151 197 253 299 347
#     4  11  23  39  64  91 119 158 202 249 301 354
#     4  10  22  40  59  86 122 157 197 247 301 356
#     4  11  23  40  62  88 123 159 200 250 297 354
#     4  11  24  41  61  88 121 159 202 247 300 360
#     4  10  21  38  61  89 120 155 200 248 297 352
#     4  10  21  40  62  84 118 160 200 244 296 361
#
# _framework density 20.028313000000001
#
# number of rings (size 3 to 8) (size 9 to 14) (size 15 to 20)
#    0.000    1.750    2.500    1.125    3.500    2.500 
#    0.000    0.000    0.000    1.875    0.000    0.000 
#    0.000    0.000    0.000    0.000    0.000    0.000 
#
# Total GULP energy -178701.687789 kJ/mol
# GULP energy per Si atom -5584.427743 kJ/mol
# Density = 1.998273 g / cm^3
# Si number density = 20.028313 Si / 1000 Ang^3
#
#
#
# Elastic Constant Matrix: (Units=GPa)
#
#
# Indices 1 2 3 4 5 6 
#
# 1 137.3537 4.1876 79.4523 0.0000 -11.6408 0.0000
# 2 4.1876 7.0474 -5.2977 0.0000 4.2913 0.0000
# 3 79.4523 -5.2977 169.7847 0.0000 -5.5884 0.0000
# 4 0.0000 0.0000 0.0000 18.1695 0.0000 -2.7867
# 5 -11.6408 4.2913 -5.5884 0.0000 24.3241 0.0000
# 6 0.0000 0.0000 0.0000 -2.7867 0.0000 1.8657
#
#
#
# Elastic Compliance Matrix: (Units=1/GPa)
#
#
# Indices 1 2 3 4 5 6 
#
# 1 0.011641 -0.015457 -0.005700 0.000000 0.006989 0.000000
# 2 -0.015457 0.182336 0.011709 0.000000 -0.036875 0.000000
# 3 -0.005700 0.011709 0.008831 0.000000 -0.002764 0.000000
# 4 0.000000 0.000000 0.000000 0.071392 0.000000 0.106634
# 5 0.006989 -0.036875 -0.002764 0.000000 0.050326 0.000000
# 6 0.000000 0.000000 0.000000 0.106634 0.000000 0.695266
#
#
# Mechanical properties :
#
#
# Convention : Reuss Voigt Hill
#
# Bulk Modulus (GPa) = 5.43737 52.31891 28.87814
# Shear Modulus (GPa) = 4.54548 24.59477 14.57013
#
# Velocity S-wave (km/s) = 1.50813 3.50809 2.70010
# Velocity P-wave (km/s) = 2.39861 6.52595 4.91637
#
# Compressibility (1/GPa) = 0.18391257
#
# Stress axis : x y z
#
# Youngs Moduli (GPa) = 85.90272 5.48437 113.23169
#
# Poissons Ratio (x) = 0.08477 0.64540
# Poissons Ratio (y) = 1.32782 -1.32582
# Poissons Ratio (z) = 0.48963 -0.06422
#
# Static dielectric constant tensor:
#      x y z
#    x 1.697260 0.000000 0.013200 
#    y 0.000000 1.714130 0.000000 
#    z 0.013200 0.000000 1.662870 
# 
# From -- ./inp_files/49867.got.cif
#   From: 2010.05.17/outbox.cif.g08.bks.cpg/sg10_25_cif.got.tgz:49867.got - 2010.06.03 11:33:40.
