data_PCOD9152075
_publ_section_title
;
Structure prediction by ZEFSAII (Michael W. Deem and Ramdas Pophale) SiO2 
 PCOD9152075
Probable space group: P 2/M
;
_chemical_formula_sum "Si O2"
_cell_formula_units_Z 24
_cell_length_a 24.855625
_cell_length_b 8.175912
_cell_length_c 10.594587
_cell_angle_alpha 90.000000
_cell_angle_beta 31.166454
_cell_angle_gamma 90.000000
_cell_volume 1114.236030
_symmetry_space_group_name_H-M "P 2/M"
_symmetry_group_IT_number 10
_symmetry_cell_setting 'monoclinic'
loop_
_space_group_symop_operation_xyz
x,y,z
-x,y,-z
-x,-y,-z
x,-y,z
loop_
_atom_site_type_symbol
_atom_site_label
_atom_site_fract_x
_atom_site_fract_y
_atom_site_fract_z
Si Si1 0.008855 0.810548 0.331803
Si Si2 0.785012 0.810470 0.727674
Si Si3 0.425915 0.189057 0.314377
Si Si4 0.282798 0.312231 0.396047
Si Si5 0.217034 0.311469 0.793542
Si Si6 0.428426 0.798899 0.760154
O O1 0.000000 0.807487 0.500000
O O2 0.899824 0.736185 0.502537
O O3 0.017235 0.000000 0.272642
O O4 0.113844 0.726390 0.075751
O O5 0.742180 0.799479 0.671650
O O6 0.798639 0.000000 0.738447
O O7 0.691208 0.742697 0.001504
O O8 0.388756 0.273869 0.259885
O O9 0.319772 0.203986 0.612249
O O10 0.517632 0.256160 0.217132
O O11 0.446286 0.000000 0.246795
O O12 0.281403 0.500000 0.357529
O O13 0.200364 0.288097 0.675877
O O14 0.248151 0.500000 0.747922
O O15 0.500000 0.747848 0.500000
O O16 0.428193 0.000000 0.762868
#
# Coordination Sequence:
#
# PCOD9152075 Si02
#       6
#     4   4   4   4   4   4
#     4  10  22  37  58  86 114 146 186 233 279 329
#     4  10  21  36  56  86 115 143 186 233 279 332
#     4   9  17  33  60  85 109 144 187 229 275 328
#     4   9  20  37  56  82 115 149 185 228 280 334
#     4   9  20  37  57  81 112 150 187 224 277 333
#     4   9  19  34  57  86 115 147 182 230 282 330
#
# _framework density 21.539424
#
# number of rings (size 3 to 8) (size 9 to 14) (size 15 to 20)
#    1.000    1.667    0.000    1.000    2.333    2.333 
#    0.000    8.333    0.000    2.500    0.000    0.000 
#    0.000    0.000    0.000    0.000    0.000    0.000 
#
# Total GULP energy -133732.592091 kJ/mol
# GULP energy per Si atom -5572.191337 kJ/mol
# Density = 2.149040 g / cm^3
# Si number density = 21.539424 Si / 1000 Ang^3
#
#
#
# Elastic Constant Matrix: (Units=GPa)
#
#
# Indices 1 2 3 4 5 6 
#
# 1 40.0759 -4.9854 1.2513 0.0000 -11.2449 0.0000
# 2 -4.9854 19.7485 2.2248 0.0000 4.0021 0.0000
# 3 1.2513 2.2248 99.6220 0.0000 -8.1559 0.0000
# 4 0.0000 0.0000 0.0000 0.5024 0.0000 10.2061
# 5 -11.2449 4.0021 -8.1559 0.0000 30.7775 0.0000
# 6 0.0000 0.0000 0.0000 10.2061 0.0000 -22.2022
#
#
#
# Elastic Compliance Matrix: (Units=1/GPa)
#
#
# Indices 1 2 3 4 5 6 
#
# 1 0.028322 0.005133 0.000329 0.000000 0.009767 0.000000
# 2 0.005133 0.053239 -0.001704 0.000000 -0.005499 0.000000
# 3 0.000329 -0.001704 0.010324 0.000000 0.003078 0.000000
# 4 0.000000 0.000000 0.000000 0.192526 0.000000 0.088502
# 5 0.009767 -0.005499 0.003078 0.000000 0.037590 0.000000
# 6 0.000000 0.000000 0.000000 0.088502 0.000000 -0.004357
#
#
# Mechanical properties :
#
#
# Convention : Reuss Voigt Hill
#
# Bulk Modulus (GPa) = 10.06016 17.38086 13.72051
# Shear Modulus (GPa) = 14.56622 12.54593 13.55608
#
# Velocity S-wave (km/s) = 2.60332 2.41605 2.51143
# Velocity P-wave (km/s) = 3.70366 3.98370 3.84623
#
# Compressibility (1/GPa) = 0.09940195
#
# Stress axis : x y z
#
# Youngs Moduli (GPa) = 35.30876 18.78327 96.86348
#
# Poissons Ratio (x) = -0.09642 -0.03190
# Poissons Ratio (y) = -0.18125 0.16502
# Poissons Ratio (z) = -0.01163 0.03200
#
# Static dielectric constant tensor:
#      x y z
#    x 1.778670 0.000000 0.007770 
#    y 0.000000 1.783210 0.000000 
#    z 0.007770 0.000000 1.848100 
# 
# From -- ./inp_files/56517.got.cif
#   From: 2010.05.17/outbox.cif.g08.bks.cpg/sg10_29_cif.got.tgz:56517.got - 2010.06.03 11:33:40.
