data_PCOD9152216
_publ_section_title
;
Structure prediction by ZEFSAII (Michael W. Deem and Ramdas Pophale) SiO2 
 PCOD9152216
Probable space group: P 2/M
;
_chemical_formula_sum "Si O2"
_cell_formula_units_Z 28
_cell_length_a 16.583211
_cell_length_b 9.146334
_cell_length_c 18.584782
_cell_angle_alpha 90.000000
_cell_angle_beta 25.103322
_cell_angle_gamma 90.000000
_cell_volume 1195.905815
_symmetry_space_group_name_H-M "P 2/M"
_symmetry_group_IT_number 10
_symmetry_cell_setting 'monoclinic'
loop_
_space_group_symop_operation_xyz
x,y,z
-x,y,-z
-x,-y,-z
x,-y,z
loop_
_atom_site_type_symbol
_atom_site_label
_atom_site_fract_x
_atom_site_fract_y
_atom_site_fract_z
Si Si1 0.799787 0.327874 0.724177
Si Si2 0.255133 0.829709 0.645519
Si Si3 0.545517 0.326644 0.645860
Si Si4 0.787899 0.826997 0.156714
Si Si5 0.446708 0.669043 0.928970
Si Si6 0.871915 0.836194 0.885107
Si Si7 0.866470 0.831076 0.471574
O O1 0.833339 0.500000 0.683370
O O2 0.651322 0.265192 0.785298
O O3 0.995788 0.246636 0.582244
O O4 0.678477 0.323064 0.896561
O O5 0.346780 0.718690 0.515473
O O6 0.305990 0.815080 0.687812
O O7 0.026784 0.809586 0.821597
O O8 0.293773 0.000000 0.591999
O O9 0.536636 0.500000 0.661342
O O10 0.340053 0.255663 0.797506
O O11 0.676772 0.255402 0.601851
O O12 0.796986 0.000000 0.132200
O O13 0.000000 0.771324 0.000000
O O14 0.480163 0.500000 0.885423
O O15 0.307699 0.734733 0.982302
O O16 0.003397 0.831075 0.706637
O O17 0.797635 0.000000 0.952469
O O18 0.826770 0.000000 0.521436
#
# Coordination Sequence:
#
# PCOD9152216 Si02
#       7
#     4   4   4   4   4   4   4
#     4   8  13  21  32  50  79 114 149 184 224 267
#     4   9  18  33  51  71  95 123 158 197 234 277
#     4  11  21  32  49  72  97 125 157 194 236 280
#     4  10  21  37  55  72  93 123 156 192 237 285
#     4   8  13  20  31  49  78 115 149 181 220 268
#     4   8  14  23  36  56  82 112 147 187 225 262
#     4   9  16  26  40  59  84 116 154 192 228 269
#
# _framework density 23.413214
#
# number of rings (size 3 to 8) (size 9 to 14) (size 15 to 20)
#    0.000    3.000    0.000    3.857    0.000    6.571 
#    0.000    2.857    0.000    0.000    0.000    0.000 
#    0.000    1.143    0.000   13.143    0.000   14.429 
#
# Total GULP energy -156524.835509 kJ/mol
# GULP energy per Si atom -5590.172697 kJ/mol
# Density = 2.335992 g / cm^3
# Si number density = 23.413214 Si / 1000 Ang^3
#
#
#
# Elastic Constant Matrix: (Units=GPa)
#
#
# Indices 1 2 3 4 5 6 
#
# 1 145.7062 50.8432 41.1824 0.0000 -40.8158 0.0000
# 2 50.8432 115.3282 62.3200 0.0000 -54.1187 0.0000
# 3 41.1824 62.3200 138.8919 0.0000 -40.7623 0.0000
# 4 0.0000 0.0000 0.0000 44.7645 0.0000 -18.7259
# 5 -40.8158 -54.1187 -40.7623 0.0000 63.9567 0.0000
# 6 0.0000 0.0000 0.0000 -18.7259 0.0000 20.1745
#
#
#
# Elastic Compliance Matrix: (Units=1/GPa)
#
#
# Indices 1 2 3 4 5 6 
#
# 1 0.008688 -0.001742 -0.000738 0.000000 0.003600 0.000000
# 2 -0.001742 0.016304 -0.003784 0.000000 0.010273 0.000000
# 3 -0.000738 -0.003784 0.009888 0.000000 0.002629 0.000000
# 4 0.000000 0.000000 0.000000 0.036519 0.000000 0.033897
# 5 0.003600 0.010273 0.002629 0.000000 0.028301 0.000000
# 6 0.000000 0.000000 0.000000 0.033897 0.000000 0.081030
#
#
# Mechanical properties :
#
#
# Convention : Reuss Voigt Hill
#
# Bulk Modulus (GPa) = 44.73815 78.73528 61.73671
# Shear Modulus (GPa) = 24.91151 42.15119 33.53135
#
# Velocity S-wave (km/s) = 3.26543 4.24762 3.78849
# Velocity P-wave (km/s) = 5.77641 7.59986 6.74999
#
# Compressibility (1/GPa) = 0.02235229
#
# Stress axis : x y z
#
# Youngs Moduli (GPa) = 115.10067 61.33311 101.13062
#
# Poissons Ratio (x) = 0.10685 0.07462
# Poissons Ratio (y) = 0.20051 0.38271
# Poissons Ratio (z) = 0.08492 0.23210
#
# Static dielectric constant tensor:
#      x y z
#    x 1.929400 0.000000 0.054000 
#    y 0.000000 1.781630 0.000000 
#    z 0.054000 0.000000 1.936760 
# 
# From -- ./inp_files/86697.got.cif
#   From: 2010.05.17/outbox.cif.g08.bks.cpg/sg10_44_cif.got.tgz:86697.got - 2010.06.03 11:33:40.
