data_PCOD9152707
_publ_section_title
;
Structure prediction by ZEFSAII (Michael W. Deem and Ramdas Pophale) SiO2 
 PCOD9152707
Probable space group: P 2/M
;
_chemical_formula_sum "Si O2"
_cell_formula_units_Z 24
_cell_length_a 14.664765
_cell_length_b 7.267097
_cell_length_c 17.276329
_cell_angle_alpha 90.000000
_cell_angle_beta 36.440481
_cell_angle_gamma 90.000000
_cell_volume 1093.615800
_symmetry_space_group_name_H-M "P 2/M"
_symmetry_group_IT_number 10
_symmetry_cell_setting 'monoclinic'
loop_
_space_group_symop_operation_xyz
x,y,z
-x,y,-z
-x,-y,-z
x,-y,z
loop_
_atom_site_type_symbol
_atom_site_label
_atom_site_fract_x
_atom_site_fract_y
_atom_site_fract_z
Si Si1 0.263819 0.276601 0.026449
Si Si2 0.645253 0.000000 0.293592
Si Si3 0.189590 0.720260 0.521154
Si Si4 0.839543 0.720181 0.068768
Si Si5 0.715483 0.000000 0.421787
Si Si6 0.388028 0.723978 0.242097
Si Si7 0.152668 0.276605 0.270698
O O1 0.264229 0.500000 0.029137
O O2 0.165837 0.226194 0.017902
O O3 0.439025 0.216974 0.892625
O O4 0.202488 0.214674 0.151169
O O5 0.703840 0.824493 0.205628
O O6 0.725317 0.000000 0.323099
O O7 0.464602 0.000000 0.432522
O O8 0.193410 0.500000 0.529098
O O9 0.321835 0.776251 0.370739
O O10 0.025183 0.770007 0.596299
O O11 0.210012 0.823625 0.587818
O O12 0.818249 0.500000 0.088265
O O13 0.000000 0.767334 0.000000
O O14 0.388509 0.500000 0.240745
O O15 0.270269 0.785330 0.256026
O O16 0.159749 0.500000 0.266771
#
# Coordination Sequence:
#
# PCOD9152707 Si02
#       7
#     4   2   4   4   2   4   4
#     4   9  17  30  53  86 120 154 194 244 300 355
#     4  11  25  44  62  87 121 158 203 254 308 359
#     4  10  21  38  61  85 118 159 200 247 301 354
#     4  10  22  40  65  93 122 156 200 251 306 366
#     4  11  26  42  61  89 119 158 208 253 299 364
#     4   9  16  30  54  84 119 159 199 239 291 357
#     4   9  17  30  53  86 121 156 197 243 293 353
#
# _framework density 21.945550000000001
#
# number of rings (size 3 to 8) (size 9 to 14) (size 15 to 20)
#    0.000    2.333    0.000    2.250    2.333    6.667 
#    0.000    3.333    0.000    0.000    0.000    4.667 
#    0.000    0.000    0.000    0.000    0.000    0.000 
#
# Total GULP energy -134218.069701 kJ/mol
# GULP energy per Si atom -5592.419571 kJ/mol
# Density = 2.189560 g / cm^3
# Si number density = 21.945550 Si / 1000 Ang^3
#
#
#
# Elastic Constant Matrix: (Units=GPa)
#
#
# Indices 1 2 3 4 5 6 
#
# 1 93.3509 9.5990 -10.0811 0.0000 12.3974 0.0000
# 2 9.5990 93.5387 1.2108 0.0000 3.5094 0.0000
# 3 -10.0811 1.2108 54.8973 0.0000 4.8425 0.0000
# 4 0.0000 0.0000 0.0000 6.1869 0.0000 -6.3835
# 5 12.3974 3.5094 4.8425 0.0000 41.1895 0.0000
# 6 0.0000 0.0000 0.0000 -6.3835 0.0000 -68.4840
#
#
#
# Elastic Compliance Matrix: (Units=1/GPa)
#
#
# Indices 1 2 3 4 5 6 
#
# 1 0.011580 -0.001082 0.002475 0.000000 -0.003684 0.000000
# 2 -0.001082 0.010828 -0.000389 0.000000 -0.000551 0.000000
# 3 0.002475 -0.000389 0.018938 0.000000 -0.002938 0.000000
# 4 0.000000 0.000000 0.000000 0.147452 0.000000 -0.013744
# 5 -0.003684 -0.000551 -0.002938 0.000000 0.025779 0.000000
# 6 0.000000 0.000000 0.000000 -0.013744 0.000000 -0.013321
#
#
# Mechanical properties :
#
#
# Convention : Reuss Voigt Hill
#
# Bulk Modulus (GPa) = 23.06571 27.02714 25.04643
# Shear Modulus (GPa) = 23.39737 11.84902 17.62319
#
# Velocity S-wave (km/s) = 3.26875 2.32616 2.83687
# Velocity P-wave (km/s) = 4.97790 4.42232 4.70831
#
# Compressibility (1/GPa) = 0.04335440
#
# Stress axis : x y z
#
# Youngs Moduli (GPa) = 86.35464 92.35716 52.80344
#
# Poissons Ratio (x) = 0.09995 -0.13071
# Poissons Ratio (y) = 0.09345 0.02054
# Poissons Ratio (z) = -0.21376 0.03592
#
# Static dielectric constant tensor:
#      x y z
#    x 1.770270 0.000000 -0.008790 
#    y 0.000000 1.832970 0.000000 
#    z -0.008790 0.000000 1.745860 
# 
# From -- ./inp_files/66384.got.cif
#   From: 2010.05.17/outbox.cif.g08.bks.cpg/sg10_34_cif.got.tgz:66384.got - 2010.06.03 11:33:40.
