data_PCOD9152264
_publ_section_title
;
Structure prediction by ZEFSAII (Michael W. Deem and Ramdas Pophale) SiO2 
 PCOD9152264
Probable space group: P 2/M
;
_chemical_formula_sum "Si O2"
_cell_formula_units_Z 28
_cell_length_a 5.126312
_cell_length_b 11.330170
_cell_length_c 23.703018
_cell_angle_alpha 90.000000
_cell_angle_beta 76.275572
_cell_angle_gamma 90.000000
_cell_volume 1337.410384
_symmetry_space_group_name_H-M "P 2/M"
_symmetry_group_IT_number 10
_symmetry_cell_setting 'monoclinic'
loop_
_space_group_symop_operation_xyz
x,y,z
-x,y,-z
-x,-y,-z
x,-y,z
loop_
_atom_site_type_symbol
_atom_site_label
_atom_site_fract_x
_atom_site_fract_y
_atom_site_fract_z
Si Si1 0.578297 0.869049 0.713183
Si Si2 0.597826 0.767755 0.166457
Si Si3 0.460228 0.275752 0.563686
Si Si4 0.294441 0.370149 0.685038
Si Si5 0.710236 0.857680 0.035985
Si Si6 0.059727 0.866943 0.405846
Si Si7 0.923531 0.368542 0.801414
O O1 0.548890 0.856534 0.781930
O O2 0.434813 0.749872 0.699069
O O3 0.860031 0.864806 0.664968
O O4 0.465731 0.000000 0.703524
O O5 0.385164 0.661648 0.175108
O O6 0.880277 0.723505 0.177492
O O7 0.642014 0.817630 0.102306
O O8 0.500000 0.328677 0.500000
O O9 0.321200 0.360133 0.616731
O O10 0.738476 0.223180 0.573488
O O11 0.245374 0.169761 0.569475
O O12 0.407690 0.500000 0.696117
O O13 0.007370 0.365573 0.730945
O O14 0.709074 0.000000 0.036287
O O15 0.500000 0.816534 0.000000
O O16 0.000000 0.817148 0.000000
O O17 0.109067 0.000000 0.423304
O O18 0.983123 0.500000 0.819144
#
# Coordination Sequence:
#
# PCOD9152264 Si02
#       7
#     4   4   4   4   4   4   4
#     4   9  19  36  60  91 119 146 188 245 299 343
#     4  11  20  36  61  87 116 152 192 238 289 343
#     4  11  22  36  55  81 111 149 197 241 282 341
#     4   9  20  39  60  85 118 156 193 236 296 355
#     4  10  21  37  57  84 119 157 194 233 284 349
#     4  10  21  37  56  81 116 151 186 236 297 353
#     4  10  21  37  60  87 115 149 193 242 291 347
#
# _framework density 20.935981999999999
#
# number of rings (size 3 to 8) (size 9 to 14) (size 15 to 20)
#    0.000    2.000    0.000    3.429    0.000    3.143 
#    0.000   15.000    0.000   12.857    0.000    0.000 
#    0.000    0.000    0.000    0.000    0.000    0.000 
#
# Total GULP energy -156139.610817 kJ/mol
# GULP energy per Si atom -5576.414672 kJ/mol
# Density = 2.088833 g / cm^3
# Si number density = 20.935982 Si / 1000 Ang^3
#
#
#
# Elastic Constant Matrix: (Units=GPa)
#
#
# Indices 1 2 3 4 5 6 
#
# 1 73.0657 12.9406 28.9397 0.0000 -2.5641 0.0000
# 2 12.9406 74.3735 23.2252 0.0000 7.2995 0.0000
# 3 28.9397 23.2252 171.0878 0.0000 -1.8890 0.0000
# 4 0.0000 0.0000 0.0000 0.1754 0.0000 3.5645
# 5 -2.5641 7.2995 -1.8890 0.0000 23.7284 0.0000
# 6 0.0000 0.0000 0.0000 3.5645 0.0000 9.5864
#
#
#
# Elastic Compliance Matrix: (Units=1/GPa)
#
#
# Indices 1 2 3 4 5 6 
#
# 1 0.015019 -0.002123 -0.002229 0.000000 0.002099 0.000000
# 2 -0.002123 0.014832 -0.001709 0.000000 -0.004928 0.000000
# 3 -0.002229 -0.001709 0.006463 0.000000 0.000799 0.000000
# 4 0.000000 0.000000 0.000000 -0.869630 0.000000 0.323350
# 5 0.002099 -0.004928 0.000799 0.000000 0.043950 0.000000
# 6 0.000000 0.000000 0.000000 0.323350 0.000000 -0.015915
#
#
# Mechanical properties :
#
#
# Convention : Reuss Voigt Hill
#
# Bulk Modulus (GPa) = 41.33578 49.85979 45.59778
# Shear Modulus (GPa) = -6.36866 23.59282 8.61208
#
# Velocity S-wave (km/s) = -1.74602 3.36058 2.03038
# Velocity P-wave (km/s) = 3.96510 6.23899 5.22719
#
# Compressibility (1/GPa) = 0.02419212
#
# Stress axis : x y z
#
# Youngs Moduli (GPa) = 66.58297 67.42015 154.73184
#
# Poissons Ratio (x) = 0.14314 0.34491
# Poissons Ratio (y) = 0.14136 0.26440
# Poissons Ratio (z) = 0.14842 0.11521
#
# Static dielectric constant tensor:
#      x y z
#    x 1.736410 0.000000 0.025140 
#    y 0.000000 1.767150 0.000000 
#    z 0.025140 0.000000 1.777990 
# 
# From -- ./inp_files/81169.got.cif
#   From: 2010.05.17/outbox.cif.g08.bks.cpg/sg10_41_cif.got.tgz:81169.got - 2010.06.03 11:33:40.
