data_PCOD9152710
_publ_section_title
;
Structure prediction by ZEFSAII (Michael W. Deem and Ramdas Pophale) SiO2 
 PCOD9152710
Probable space group: P 2/M
;
_chemical_formula_sum "Si O2"
_cell_formula_units_Z 28
_cell_length_a 27.115018
_cell_length_b 9.227669
_cell_length_c 8.305991
_cell_angle_alpha 90.000000
_cell_angle_beta 134.459191
_cell_angle_gamma 90.000000
_cell_volume 1483.334757
_symmetry_space_group_name_H-M "P 2/M"
_symmetry_group_IT_number 10
_symmetry_cell_setting 'monoclinic'
loop_
_space_group_symop_operation_xyz
x,y,z
-x,y,-z
-x,-y,-z
x,-y,z
loop_
_atom_site_type_symbol
_atom_site_label
_atom_site_fract_x
_atom_site_fract_y
_atom_site_fract_z
Si Si1 0.640473 0.669976 0.539895
Si Si2 0.230051 0.826770 0.027873
Si Si3 0.141845 0.825562 0.509183
Si Si4 0.865586 0.826199 0.878514
Si Si5 0.003050 0.326315 0.314294
Si Si6 0.494152 0.165808 0.672683
Si Si7 0.417752 0.167293 0.867489
O O1 0.649505 0.500000 0.560280
O O2 0.698113 0.747237 0.777200
O O3 0.565129 0.719998 0.426039
O O4 0.635849 0.734958 0.348722
O O5 0.183837 0.792020 0.081538
O O6 0.240433 0.000000 0.051283
O O7 0.194556 0.787713 0.775823
O O8 0.160363 0.792961 0.363696
O O9 0.070959 0.745271 0.392925
O O10 0.131928 0.000000 0.495917
O O11 0.877654 0.000000 0.911501
O O12 0.936399 0.741907 0.075661
O O13 0.004214 0.500000 0.298255
O O14 0.000000 0.294212 0.500000
O O15 0.500000 0.158143 0.500000
O O16 0.475415 0.000000 0.684023
O O17 0.568877 0.202362 0.917151
O O18 0.397487 0.000000 0.803823
O O19 0.500000 0.184843 0.000000
#
# Coordination Sequence:
#
# PCOD9152710 Si02
#       7
#     4   4   4   4   4   4   4
#     4  11  22  35  54  80 113 149 181 219 274 336
#     4  10  21  39  59  78 112 152 189 236 280 328
#     4  10  21  38  61  86 109 142 192 241 283 331
#     4  10  21  38  61  86 108 141 192 240 283 332
#     4  11  22  35  56  85 117 152 186 227 285 344
#     4   9  18  35  59  85 110 140 182 230 273 318
#     4   8  15  31  55  78 101 133 176 219 260 310
#
# _framework density 18.876387000000001
#
# number of rings (size 3 to 8) (size 9 to 14) (size 15 to 20)
#    0.000    2.143    1.429    3.000    0.000    6.857 
#    2.571    0.000    0.000    0.000    0.000    0.000 
#    0.000    0.000    0.000    0.000    0.000    0.000 
#
# Total GULP energy -155922.746380 kJ/mol
# GULP energy per Si atom -5568.669514 kJ/mol
# Density = 1.883342 g / cm^3
# Si number density = 18.876387 Si / 1000 Ang^3
#
#
#
# Elastic Constant Matrix: (Units=GPa)
#
#
# Indices 1 2 3 4 5 6 
#
# 1 34.0109 15.3538 38.5086 0.0000 -28.5865 0.0000
# 2 15.3538 36.2048 51.4391 0.0000 -2.3262 0.0000
# 3 38.5086 51.4391 149.5996 0.0000 -28.3929 0.0000
# 4 0.0000 0.0000 0.0000 -23.8364 0.0000 -10.3293
# 5 -28.5865 -2.3262 -28.3929 0.0000 33.3959 0.0000
# 6 0.0000 0.0000 0.0000 -10.3293 0.0000 9.3120
#
#
#
# Elastic Compliance Matrix: (Units=1/GPa)
#
#
# Indices 1 2 3 4 5 6 
#
# 1 0.233078 -0.109367 0.016728 0.000000 0.206116 0.000000
# 2 -0.109367 0.111766 -0.031680 0.000000 -0.112766 0.000000
# 3 0.016728 -0.031680 0.018566 0.000000 0.027897 0.000000
# 4 0.000000 0.000000 0.000000 -0.028333 0.000000 -0.031429
# 5 0.206116 -0.112766 0.027897 0.000000 0.222240 0.000000
# 6 0.000000 0.000000 0.000000 -0.031429 0.000000 0.072526
#
#
# Mechanical properties :
#
#
# Convention : Reuss Voigt Hill
#
# Bulk Modulus (GPa) = 8.71300 47.82427 28.26863
# Shear Modulus (GPa) = 5.45411 11.40855 8.43133
#
# Velocity S-wave (km/s) = 1.70166 2.46109 2.11573
# Velocity P-wave (km/s) = 2.91320 5.78502 4.58002
#
# Compressibility (1/GPa) = 0.11477108
#
# Stress axis : x y z
#
# Youngs Moduli (GPa) = 4.29041 8.94723 53.86110
#
# Poissons Ratio (x) = 0.97854 -0.90098
# Poissons Ratio (y) = 0.46923 1.70633
# Poissons Ratio (z) = -0.07177 0.28345
#
# Static dielectric constant tensor:
#      x y z
#    x 1.783150 0.000000 -0.105310 
#    y 0.000000 1.624410 0.000000 
#    z -0.105310 0.000000 1.724190 
# 
# From -- ./inp_files/37334.got.cif
#   From: 2010.05.17/outbox.cif.g08.bks.cpg/sg10_19_cif.got.tgz:37334.got - 2010.06.03 11:33:40.
