data_PCOD9152260
_publ_section_title
;
Structure prediction by ZEFSAII (Michael W. Deem and Ramdas Pophale) SiO2 
 PCOD9152260
Probable space group: P 2/M
;
_chemical_formula_sum "Si O2"
_cell_formula_units_Z 32
_cell_length_a 18.805438
_cell_length_b 14.359107
_cell_length_c 13.589754
_cell_angle_alpha 90.000000
_cell_angle_beta 157.901794
_cell_angle_gamma 90.000000
_cell_volume 1380.498027
_symmetry_space_group_name_H-M "P 2/M"
_symmetry_group_IT_number 10
_symmetry_cell_setting 'monoclinic'
loop_
_space_group_symop_operation_xyz
x,y,z
-x,y,-z
-x,-y,-z
x,-y,z
loop_
_atom_site_type_symbol
_atom_site_label
_atom_site_fract_x
_atom_site_fract_y
_atom_site_fract_z
Si Si1 0.051356 0.788675 0.922570
Si Si2 0.110899 0.391673 0.331598
Si Si3 0.732907 0.890156 0.406918
Si Si4 0.703366 0.785669 0.959341
Si Si5 0.625443 0.106258 0.560134
Si Si6 0.146572 0.387762 0.602718
Si Si7 0.554377 0.392258 0.863517
Si Si8 0.278954 0.109918 0.828779
O O1 0.013614 0.679668 0.890192
O O2 0.852476 0.836619 0.641593
O O3 0.168642 0.797432 0.971450
O O4 0.182728 0.838753 0.170452
O O5 0.053399 0.500000 0.251920
O O6 0.106944 0.357814 0.440893
O O7 0.329833 0.385342 0.580834
O O8 0.507294 0.879298 0.122706
O O9 0.774980 0.000000 0.469148
O O10 0.785590 0.861185 0.362717
O O11 0.510867 0.841830 0.689858
O O12 0.645515 0.679183 0.904442
O O13 0.791790 0.830589 0.170485
O O14 0.500000 0.103209 0.500000
O O15 0.663254 0.000000 0.578425
O O16 0.135611 0.500000 0.582256
O O17 0.000000 0.359003 0.500000
O O18 0.352771 0.366708 0.911728
O O19 0.605791 0.500000 0.908678
O O20 0.237991 0.000000 0.789554
#
# Coordination Sequence:
#
# PCOD9152260 Si02
#       8
#     4   4   4   4   4   4   4   4
#     4  11  22  36  59  86 113 148 194 244 293 343
#     4  10  21  37  56  80 115 157 195 234 286 345
#     4   9  19  36  56  80 114 152 186 227 285 350
#     4  11  22  36  59  86 113 148 194 244 293 343
#     4   9  20  40  62  85 114 148 189 241 296 347
#     4   9  17  31  53  81 112 147 190 237 279 327
#     4  10  21  37  56  80 115 157 195 234 286 345
#     4   9  19  36  56  80 114 152 186 227 285 350
#
# _framework density 23.180040999999999
#
# number of rings (size 3 to 8) (size 9 to 14) (size 15 to 20)
#    0.000    2.250    0.000    3.375    1.750    5.000 
#    0.000    4.375    0.000    8.250    0.000    0.000 
#    0.000    0.000    0.000    0.000    0.000    0.000 
#
# Total GULP energy -179085.264462 kJ/mol
# GULP energy per Si atom -5596.414514 kJ/mol
# Density = 2.312728 g / cm^3
# Si number density = 23.180041 Si / 1000 Ang^3
#
#
#
# Elastic Constant Matrix: (Units=GPa)
#
#
# Indices 1 2 3 4 5 6 
#
# 1 75.3484 8.7941 3.8258 0.0000 -2.7309 0.0000
# 2 8.7941 111.9807 52.4153 0.0000 -10.4742 0.0000
# 3 3.8258 52.4153 99.2818 0.0000 -4.5575 0.0000
# 4 0.0000 0.0000 0.0000 21.9988 0.0000 5.0921
# 5 -2.7309 -10.4742 -4.5575 0.0000 31.0055 0.0000
# 6 0.0000 0.0000 0.0000 5.0921 0.0000 9.6002
#
#
#
# Elastic Compliance Matrix: (Units=1/GPa)
#
#
# Indices 1 2 3 4 5 6 
#
# 1 0.013416 -0.000996 0.000048 0.000000 0.000852 0.000000
# 2 -0.000996 0.012240 -0.006280 0.000000 0.003124 0.000000
# 3 0.000048 -0.006280 0.013379 0.000000 -0.000151 0.000000
# 4 0.000000 0.000000 0.000000 0.051819 0.000000 -0.027486
# 5 0.000852 0.003124 -0.000151 0.000000 0.033361 0.000000
# 6 0.000000 0.000000 0.000000 -0.027486 0.000000 0.118744
#
#
# Mechanical properties :
#
#
# Convention : Reuss Voigt Hill
#
# Bulk Modulus (GPa) = 40.68572 46.29790 43.49181
# Shear Modulus (GPa) = 18.82460 27.29261 23.05861
#
# Velocity S-wave (km/s) = 2.85284 3.43508 3.15741
# Velocity P-wave (km/s) = 5.33308 5.97909 5.66530
#
# Compressibility (1/GPa) = 0.02457865
#
# Stress axis : x y z
#
# Youngs Moduli (GPa) = 74.53549 81.69770 74.74260
#
# Poissons Ratio (x) = 0.08141 -0.00360
# Poissons Ratio (y) = 0.07427 0.46941
# Poissons Ratio (z) = -0.00359 0.51309
#
# Static dielectric constant tensor:
#      x y z
#    x 1.889890 0.000000 0.035270 
#    y 0.000000 1.866260 0.000000 
#    z 0.035270 0.000000 1.849230 
# 
# From -- ./inp_files/25320.got.cif
#   From: 2010.05.17/outbox.cif.g08.bks.cpg/sg10_13_cif.got.tgz:25320.got - 2010.06.03 11:33:40.
