data_PCOD9152822
_publ_section_title
;
Structure prediction by ZEFSAII (Michael W. Deem and Ramdas Pophale) SiO2 
 PCOD9152822
Probable space group: P 2/M
;
_chemical_formula_sum "Si O2"
_cell_formula_units_Z 24
_cell_length_a 5.112203
_cell_length_b 16.994778
_cell_length_c 14.800907
_cell_angle_alpha 90.000000
_cell_angle_beta 55.346978
_cell_angle_gamma 90.000000
_cell_volume 1057.806376
_symmetry_space_group_name_H-M "P 2/M"
_symmetry_group_IT_number 10
_symmetry_cell_setting 'monoclinic'
loop_
_space_group_symop_operation_xyz
x,y,z
-x,y,-z
-x,-y,-z
x,-y,z
loop_
_atom_site_type_symbol
_atom_site_label
_atom_site_fract_x
_atom_site_fract_y
_atom_site_fract_z
Si Si1 0.666352 0.410553 0.328047
Si Si2 0.030570 0.167304 0.888951
Si Si3 0.139940 0.315706 0.336872
Si Si4 0.799436 0.336566 0.878878
Si Si5 0.343501 0.088772 0.196582
Si Si6 0.124388 0.857602 0.571479
O O1 0.561212 0.500000 0.355998
O O2 0.390553 0.349977 0.357278
O O3 0.858049 0.378752 0.376700
O O4 0.931566 0.401509 0.195222
O O5 0.390042 0.138686 0.801564
O O6 0.966844 0.259534 0.887462
O O7 0.774857 0.125632 0.874491
O O8 0.000000 0.146795 0.000000
O O9 0.295384 0.312031 0.205356
O O10 0.999392 0.231786 0.389172
O O11 0.500000 0.358116 0.000000
O O12 0.029904 0.092091 0.319093
O O13 0.460028 0.000000 0.161436
O O14 0.500000 0.858052 0.500000
O O15 0.000000 0.886002 0.500000
#
# Coordination Sequence:
#
# PCOD9152822 Si02
#       6
#     4   4   4   4   4   4
#     4  10  21  38  63  93 137 172 209 261 329 390
#     4  12  25  42  69  98 135 181 222 260 311 389
#     4  10  22  41  64  93 126 169 219 261 327 382
#     4  10  23  38  66  95 130 172 224 263 314 383
#     4  12  26  46  67  99 138 169 213 273 331 396
#     4  12  25  44  72  97 124 167 224 282 333 389
#
# _framework density 22.688462000000001
#
# number of rings (size 3 to 8) (size 9 to 14) (size 15 to 20)
#    1.000    0.000    1.667    5.500    2.333    3.000 
#    0.000    0.833    0.000   10.000    0.000    0.000 
#    0.000    0.000    0.000    0.000    0.000    0.000 
#
# Total GULP energy -134182.602768 kJ/mol
# GULP energy per Si atom -5590.941782 kJ/mol
# Density = 2.263682 g / cm^3
# Si number density = 22.688462 Si / 1000 Ang^3
#
#
#
# Elastic Constant Matrix: (Units=GPa)
#
#
# Indices 1 2 3 4 5 6 
#
# 1 117.3727 5.5134 11.1531 0.0000 -8.3806 0.0000
# 2 5.5134 65.6201 -14.7780 0.0000 -6.6241 0.0000
# 3 11.1531 -14.7780 68.8568 0.0000 7.4705 0.0000
# 4 0.0000 0.0000 0.0000 1.4286 0.0000 -3.0387
# 5 -8.3806 -6.6241 7.4705 0.0000 39.4434 0.0000
# 6 0.0000 0.0000 0.0000 -3.0387 0.0000 19.7948
#
#
#
# Elastic Compliance Matrix: (Units=1/GPa)
#
#
# Indices 1 2 3 4 5 6 
#
# 1 0.008891 -0.000958 -0.001872 0.000000 0.002083 0.000000
# 2 -0.000958 0.016286 0.003447 0.000000 0.001879 0.000000
# 3 -0.001872 0.003447 0.015872 0.000000 -0.002825 0.000000
# 4 0.000000 0.000000 0.000000 1.039388 0.000000 0.159557
# 5 0.002083 0.001879 -0.002825 0.000000 0.026646 0.000000
# 6 0.000000 0.000000 0.000000 0.159557 0.000000 0.075012
#
#
# Mechanical properties :
#
#
# Convention : Reuss Voigt Hill
#
# Bulk Modulus (GPa) = 23.65065 28.40297 26.02681
# Shear Modulus (GPa) = 4.18425 28.79741 16.49083
#
# Velocity S-wave (km/s) = 1.35949 3.56652 2.69892
# Velocity P-wave (km/s) = 3.59319 5.43194 4.60527
#
# Compressibility (1/GPa) = 0.04228214
#
# Stress axis : x y z
#
# Youngs Moduli (GPa) = 112.46734 61.40402 63.00280
#
# Poissons Ratio (x) = 0.05885 0.11793
# Poissons Ratio (y) = 0.10778 -0.21715
# Poissons Ratio (z) = 0.21052 -0.21164
#
# Static dielectric constant tensor:
#      x y z
#    x 1.818790 0.000000 -0.038650 
#    y 0.000000 1.783020 0.000000 
#    z -0.038650 0.000000 1.929540 
# 
# From -- ./inp_files/59512.got.cif
#   From: 2010.05.17/outbox.cif.g08.bks.cpg/sg10_30_cif.got.tgz:59512.got - 2010.06.03 11:33:40.
