data_PCOD9152295
_publ_section_title
;
Structure prediction by ZEFSAII (Michael W. Deem and Ramdas Pophale) SiO2 
 PCOD9152295
Probable space group: P 2/M
;
_chemical_formula_sum "Si O2"
_cell_formula_units_Z 28
_cell_length_a 9.019787
_cell_length_b 9.500153
_cell_length_c 29.171608
_cell_angle_alpha 90.000000
_cell_angle_beta 39.376738
_cell_angle_gamma 90.000000
_cell_volume 1585.849170
_symmetry_space_group_name_H-M "P 2/M"
_symmetry_group_IT_number 10
_symmetry_cell_setting 'monoclinic'
loop_
_space_group_symop_operation_xyz
x,y,z
-x,y,-z
-x,-y,-z
x,-y,z
loop_
_atom_site_type_symbol
_atom_site_label
_atom_site_fract_x
_atom_site_fract_y
_atom_site_fract_z
Si Si1 0.348977 0.333497 0.131134
Si Si2 0.177434 0.165972 0.999997
Si Si3 0.004643 0.333498 0.868870
Si Si4 0.531849 0.332944 0.716957
Si Si5 0.758990 0.165263 0.425242
Si Si6 0.116632 0.332943 0.283043
Si Si7 0.114802 0.834737 0.425241
O O1 0.410807 0.500000 0.119820
O O2 0.210602 0.294799 0.210494
O O3 0.181460 0.316453 0.127415
O O4 0.579697 0.241659 0.070054
O O5 0.070045 0.241650 0.070050
O O6 0.212701 0.000000 0.999992
O O7 0.000000 0.181750 0.000000
O O8 0.009896 0.500000 0.880188
O O9 0.263076 0.294809 0.789508
O O10 0.543492 0.500000 0.705118
O O11 0.679763 0.305478 0.728095
O O12 0.660433 0.249909 0.645758
O O13 0.500000 0.215370 0.500000
O O14 0.889219 0.249911 0.354243
O O15 0.922122 0.177725 0.431151
O O16 0.743951 0.000000 0.416573
O O17 0.069089 0.500000 0.294878
O O18 0.000000 0.784629 0.500000
O O19 0.173183 0.000000 0.416573
#
# Coordination Sequence:
#
# PCOD9152295 Si02
#       7
#     4   4   4   4   4   4   4
#     4  10  21  37  57  81 108 138 173 214 261 312
#     4  11  24  39  56  80 108 139 176 215 256 306
#     4  10  21  37  57  81 108 138 173 214 261 312
#     4   9  18  33  52  74 101 134 171 210 254 305
#     4   9  18  32  49  70  98 132 169 209 254 305
#     4   9  18  33  52  74 101 134 171 210 254 305
#     4   9  18  32  49  70  98 132 169 209 254 305
#
# _framework density 17.656157
#
# number of rings (size 3 to 8) (size 9 to 14) (size 15 to 20)
#    0.000    2.429    0.000    1.714    0.000    7.429 
#    0.000    2.857    0.000    0.000    0.000    0.000 
#    0.000    0.000    0.000    0.000    0.000    0.000 
#
# Total GULP energy -156272.443807 kJ/mol
# GULP energy per Si atom -5581.158707 kJ/mol
# Density = 1.761597 g / cm^3
# Si number density = 17.656157 Si / 1000 Ang^3
#
#
#
# Elastic Constant Matrix: (Units=GPa)
#
#
# Indices 1 2 3 4 5 6 
#
# 1 50.7167 55.8652 75.3679 0.0000 -5.1447 0.0000
# 2 55.8652 73.6851 102.9093 0.0000 -2.3923 0.0000
# 3 75.3679 102.9093 206.9027 0.0000 -2.7983 0.0000
# 4 0.0000 0.0000 0.0000 95.6985 0.0000 -3.7892
# 5 -5.1447 -2.3923 -2.7983 0.0000 38.1328 0.0000
# 6 0.0000 0.0000 0.0000 -3.7892 0.0000 21.1466
#
#
#
# Elastic Compliance Matrix: (Units=1/GPa)
#
#
# Indices 1 2 3 4 5 6 
#
# 1 0.125585 -0.102096 0.005182 0.000000 0.010919 0.000000
# 2 -0.102096 0.127496 -0.026328 0.000000 -0.007708 0.000000
# 3 0.005182 -0.026328 0.016044 0.000000 0.000225 0.000000
# 4 0.000000 0.000000 0.000000 0.010524 0.000000 0.001886
# 5 0.010919 -0.007708 0.000225 0.000000 0.027230 0.000000
# 6 0.000000 0.000000 0.000000 0.001886 0.000000 0.047627
#
#
# Mechanical properties :
#
#
# Convention : Reuss Voigt Hill
#
# Bulk Modulus (GPa) = 44.16915 88.84329 66.50622
# Shear Modulus (GPa) = 8.21642 37.47305 22.84473
#
# Velocity S-wave (km/s) = 2.15955 4.61193 3.60094
# Velocity P-wave (km/s) = 5.59364 8.87624 7.41878
#
# Compressibility (1/GPa) = 0.02264024
#
# Stress axis : x y z
#
# Youngs Moduli (GPa) = 7.96275 7.84336 62.32908
#
# Poissons Ratio (x) = 0.80077 -0.32297
# Poissons Ratio (y) = 0.81296 1.64102
# Poissons Ratio (z) = -0.04126 0.20650
#
# Static dielectric constant tensor:
#      x y z
#    x 1.590420 0.000000 0.000840 
#    y 0.000000 1.590610 0.000000 
#    z 0.000840 0.000000 1.573890 
# 
# From -- ./inp_files/36822.got.cif
#   From: 2010.05.17/outbox.cif.g08.bks.cpg/sg10_19_cif.got.tgz:36822.got - 2010.06.03 11:33:40.
