data_PCOD9152947
_publ_section_title
;
Structure prediction by ZEFSAII (Michael W. Deem and Ramdas Pophale) SiO2 
 PCOD9152947
Probable space group: P 2/M
;
_chemical_formula_sum "Si O2"
_cell_formula_units_Z 32
_cell_length_a 27.559546
_cell_length_b 8.634025
_cell_length_c 21.463071
_cell_angle_alpha 90.000000
_cell_angle_beta 19.786411
_cell_angle_gamma 90.000000
_cell_volume 1728.840118
_symmetry_space_group_name_H-M "P 2/M"
_symmetry_group_IT_number 10
_symmetry_cell_setting 'monoclinic'
loop_
_space_group_symop_operation_xyz
x,y,z
-x,y,-z
-x,-y,-z
x,-y,z
loop_
_atom_site_type_symbol
_atom_site_label
_atom_site_fract_x
_atom_site_fract_y
_atom_site_fract_z
Si Si1 0.156993 0.312824 0.787552
Si Si2 0.438259 0.813115 0.508055
Si Si3 0.533063 0.314798 0.160115
Si Si4 0.020260 0.685474 0.241153
Si Si5 0.212937 0.311252 0.577849
Si Si6 0.959600 0.186999 0.448649
Si Si7 0.231231 0.186128 0.207202
Si Si8 0.335764 0.814418 0.871467
O O1 0.159906 0.500000 0.784540
O O2 0.282875 0.252661 0.679662
O O3 0.188346 0.260738 0.678760
O O4 0.000000 0.262925 0.000000
O O5 0.500000 0.762164 0.500000
O O6 0.548519 0.766933 0.320309
O O7 0.430203 0.000000 0.518185
O O8 0.534503 0.500000 0.159289
O O9 0.368504 0.261233 0.364898
O O10 0.615904 0.253327 0.120830
O O11 0.620380 0.256669 0.994858
O O12 0.031155 0.500000 0.225862
O O13 0.914015 0.738090 0.314657
O O14 0.959252 0.736249 0.381914
O O15 0.178134 0.756437 0.044620
O O16 0.213064 0.500000 0.578138
O O17 0.829692 0.231733 0.651593
O O18 0.106115 0.227961 0.308639
O O19 0.959028 0.000000 0.442793
O O20 0.241660 0.000000 0.193729
O O21 0.333956 0.000000 0.878105
#
# Coordination Sequence:
#
# PCOD9152947 Si02
#       8
#     4   4   4   4   4   4   4   4
#     4  10  21  39  62  85 113 152 192 231 277 334
#     4  10  23  41  59  84 118 150 185 235 285 331
#     4  11  20  35  59  84 110 147 189 234 279 331
#     4  11  22  36  57  84 114 149 187 234 282 332
#     4   9  21  39  55  80 118 149 184 232 281 330
#     4   9  18  34  54  80 115 150 183 229 281 331
#     4   9  18  33  55  81 114 149 183 229 282 332
#     4  11  22  37  57  82 114 148 187 235 282 331
#
# _framework density 18.509519999999998
#
# number of rings (size 3 to 8) (size 9 to 14) (size 15 to 20)
#    0.000    2.000    2.500    1.875    1.750    1.500 
#    0.000    5.625    0.000    3.750    0.000    0.000 
#    0.000    0.000    0.000    0.000    0.000    0.000 
#
# Total GULP energy -178677.049548 kJ/mol
# GULP energy per Si atom -5583.657798 kJ/mol
# Density = 1.846739 g / cm^3
# Si number density = 18.509520 Si / 1000 Ang^3
#
#
#
# Elastic Constant Matrix: (Units=GPa)
#
#
# Indices 1 2 3 4 5 6 
#
# 1 86.1856 11.6244 56.7387 0.0000 -13.3343 0.0000
# 2 11.6244 16.3120 24.3887 0.0000 0.6427 0.0000
# 3 56.7387 24.3887 166.4999 0.0000 -6.2944 0.0000
# 4 0.0000 0.0000 0.0000 16.8861 0.0000 12.2170
# 5 -13.3343 0.6427 -6.2944 0.0000 32.3155 0.0000
# 6 0.0000 0.0000 0.0000 12.2170 0.0000 0.1703
#
#
#
# Elastic Compliance Matrix: (Units=1/GPa)
#
#
# Indices 1 2 3 4 5 6 
#
# 1 0.016189 -0.004934 -0.004571 0.000000 0.005888 0.000000
# 2 -0.004934 0.080472 -0.010320 0.000000 -0.005646 0.000000
# 3 -0.004571 -0.010320 0.009079 0.000000 0.000087 0.000000
# 4 0.000000 0.000000 0.000000 -0.001163 0.000000 0.083461
# 5 0.005888 -0.005646 0.000087 0.000000 0.033504 0.000000
# 6 0.000000 0.000000 0.000000 0.083461 0.000000 -0.115359
#
#
# Mechanical properties :
#
#
# Convention : Reuss Voigt Hill
#
# Bulk Modulus (GPa) = 15.13078 50.50012 32.81545
# Shear Modulus (GPa) = 59.24126 21.62409 40.43268
#
# Velocity S-wave (km/s) = 5.66351 3.42170 4.67885
# Velocity P-wave (km/s) = 7.13859 6.55388 6.85247
#
# Compressibility (1/GPa) = 0.06609045
#
# Stress axis : x y z
#
# Youngs Moduli (GPa) = 61.77139 12.42662 110.14718
#
# Poissons Ratio (x) = 0.06131 0.50353
# Poissons Ratio (y) = 0.30475 1.13669
# Poissons Ratio (z) = 0.28238 0.12824
#
# Static dielectric constant tensor:
#      x y z
#    x 1.614660 0.000000 0.014460 
#    y 0.000000 1.629920 0.000000 
#    z 0.014460 0.000000 1.639330 
# 
# From -- ./inp_files/86867.got.cif
#   From: 2010.05.17/outbox.cif.g08.bks.cpg/sg10_44_cif.got.tgz:86867.got - 2010.06.03 11:33:40.
