data_PCOD9152588
_publ_section_title
;
Structure prediction by ZEFSAII (Michael W. Deem and Ramdas Pophale) SiO2 
 PCOD9152588
Probable space group: P 2/M
;
_chemical_formula_sum "Si O2"
_cell_formula_units_Z 32
_cell_length_a 14.820457
_cell_length_b 8.405080
_cell_length_c 14.663907
_cell_angle_alpha 90.000000
_cell_angle_beta 54.061696
_cell_angle_gamma 90.000000
_cell_volume 1478.938690
_symmetry_space_group_name_H-M "P 2/M"
_symmetry_group_IT_number 10
_symmetry_cell_setting 'monoclinic'
loop_
_space_group_symop_operation_xyz
x,y,z
-x,y,-z
-x,-y,-z
x,-y,z
loop_
_atom_site_type_symbol
_atom_site_label
_atom_site_fract_x
_atom_site_fract_y
_atom_site_fract_z
Si Si1 0.169829 0.188724 0.133904
Si Si2 0.702932 0.310301 0.776617
Si Si3 0.551880 0.308237 0.703756
Si Si4 0.124279 0.194382 0.954501
Si Si5 0.306968 0.309002 0.557022
Si Si6 0.343576 0.810651 0.723202
Si Si7 0.930683 0.680810 0.323925
Si Si8 0.122441 0.174230 0.466093
O O1 0.268109 0.263560 0.136916
O O2 0.046337 0.227452 0.246607
O O3 0.185781 0.000000 0.126033
O O4 0.159507 0.243893 0.035518
O O5 0.715321 0.500000 0.762346
O O6 0.593614 0.267705 0.781299
O O7 0.797387 0.222899 0.662171
O O8 0.545426 0.500000 0.702227
O O9 0.638896 0.256206 0.571361
O O10 0.434925 0.235619 0.744032
O O11 0.222733 0.246684 0.829318
O O12 0.121730 0.000000 0.955725
O O13 0.000000 0.247892 0.000000
O O14 0.298173 0.500000 0.557133
O O15 0.374177 0.263104 0.607329
O O16 0.181335 0.246413 0.652961
O O17 0.340820 0.000000 0.715211
O O18 0.949950 0.500000 0.282544
O O19 0.888651 0.688885 0.452876
O O20 0.000000 0.159333 0.500000
O O21 0.154150 0.000000 0.485882
#
# Coordination Sequence:
#
# PCOD9152588 Si02
#       8
#     4   4   4   4   4   4   4   4
#     4  11  22  37  59  88 119 155 197 248 301 347
#     4  11  22  38  58  82 117 161 200 238 289 351
#     4  10  22  41  60  82 118 163 196 231 293 357
#     4   9  20  41  65  87 118 154 188 235 300 357
#     4  10  21  38  58  84 119 161 198 233 291 357
#     4  11  23  39  62  91 114 147 198 250 298 346
#     4  11  21  34  54  83 119 159 197 236 286 349
#     4  11  21  32  50  80 117 157 197 239 289 342
#
# _framework density 21.637136000000002
#
# number of rings (size 3 to 8) (size 9 to 14) (size 15 to 20)
#    0.000    1.500    2.500    3.000    0.000    5.500 
#    0.000    3.125    0.000    8.250    0.000    0.000 
#    0.000    0.000    0.000    0.000    0.000    0.000 
#
# Total GULP energy -178514.983746 kJ/mol
# GULP energy per Si atom -5578.593242 kJ/mol
# Density = 2.158789 g / cm^3
# Si number density = 21.637136 Si / 1000 Ang^3
#
#
#
# Elastic Constant Matrix: (Units=GPa)
#
#
# Indices 1 2 3 4 5 6 
#
# 1 140.9686 19.8871 44.2055 0.0000 14.0080 0.0000
# 2 19.8871 36.0280 6.7145 0.0000 2.4116 0.0000
# 3 44.2055 6.7145 66.3361 0.0000 16.1972 0.0000
# 4 0.0000 0.0000 0.0000 10.9292 0.0000 8.7217
# 5 14.0080 2.4116 16.1972 0.0000 35.0894 0.0000
# 6 0.0000 0.0000 0.0000 8.7217 0.0000 24.8049
#
#
#
# Elastic Compliance Matrix: (Units=1/GPa)
#
#
# Indices 1 2 3 4 5 6 
#
# 1 0.009567 -0.004152 -0.005739 0.000000 -0.000885 0.000000
# 2 -0.004152 0.030107 -0.000203 0.000000 -0.000318 0.000000
# 3 -0.005739 -0.000203 0.020689 0.000000 -0.007245 0.000000
# 4 0.000000 0.000000 0.000000 0.127185 0.000000 -0.044719
# 5 -0.000885 -0.000318 -0.007245 0.000000 0.032218 0.000000
# 6 0.000000 0.000000 0.000000 -0.044719 0.000000 0.056038
#
#
# Mechanical properties :
#
#
# Convention : Reuss Voigt Hill
#
# Bulk Modulus (GPa) = 24.89120 42.77185 33.83152
# Shear Modulus (GPa) = 16.16115 25.66641 20.91378
#
# Velocity S-wave (km/s) = 2.73594 3.44789 3.11234
# Velocity P-wave (km/s) = 4.63782 5.97171 5.34653
#
# Compressibility (1/GPa) = 0.04017484
#
# Stress axis : x y z
#
# Youngs Moduli (GPa) = 104.52427 33.21464 48.33554
#
# Poissons Ratio (x) = 0.13791 0.27740
# Poissons Ratio (y) = 0.43400 0.00981
# Poissons Ratio (z) = 0.59988 0.00674
#
# Static dielectric constant tensor:
#      x y z
#    x 1.883620 0.000000 0.023300 
#    y 0.000000 1.769190 0.000000 
#    z 0.023300 0.000000 1.791570 
# 
# From -- ./inp_files/66469.got.cif
#   From: 2010.05.17/outbox.cif.g08.bks.cpg/sg10_34_cif.got.tgz:66469.got - 2010.06.03 11:33:40.
