data_PCOD9152525
_publ_section_title
;
Structure prediction by ZEFSAII (Michael W. Deem and Ramdas Pophale) SiO2 
 PCOD9152525
Probable space group: P 2/M
;
_chemical_formula_sum "Si O2"
_cell_formula_units_Z 28
_cell_length_a 17.670294
_cell_length_b 14.075321
_cell_length_c 5.126807
_cell_angle_alpha 90.000000
_cell_angle_beta 75.558326
_cell_angle_gamma 90.000000
_cell_volume 1234.823082
_symmetry_space_group_name_H-M "P 2/M"
_symmetry_group_IT_number 10
_symmetry_cell_setting 'monoclinic'
loop_
_space_group_symop_operation_xyz
x,y,z
-x,y,-z
-x,-y,-z
x,-y,z
loop_
_atom_site_type_symbol
_atom_site_label
_atom_site_fract_x
_atom_site_fract_y
_atom_site_fract_z
Si Si1 0.214331 0.392158 0.994676
Si Si2 0.227603 0.106506 0.356650
Si Si3 0.549857 0.226987 0.197140
Si Si4 0.050011 0.301898 0.195647
Si Si5 0.376437 0.607524 0.164612
Si Si6 0.315345 0.747973 0.603127
Si Si7 0.124226 0.892067 0.948324
O O1 0.209477 0.500000 0.892324
O O2 0.130785 0.358687 0.171143
O O3 0.286979 0.392876 0.133429
O O4 0.241671 0.311612 0.768784
O O5 0.289141 0.183308 0.396528
O O6 0.196235 0.114477 0.091093
O O7 0.257600 0.000000 0.371202
O O8 0.155602 0.118344 0.625955
O O9 0.500000 0.217148 0.500000
O O10 0.636597 0.195840 0.216923
O O11 0.500000 0.183764 0.000000
O O12 0.570743 0.333567 0.080467
O O13 0.071355 0.194943 0.084810
O O14 0.000000 0.299937 0.500000
O O15 0.000000 0.345164 0.000000
O O16 0.401307 0.500000 0.180925
O O17 0.371926 0.668410 0.430513
O O18 0.092504 0.000000 0.005120
#
# Coordination Sequence:
#
# PCOD9152525 Si02
#       7
#     4   4   4   4   4   4   4
#     4  10  23  41  61  89 122 162 215 264 302 361
#     4  10  21  37  67  97 120 153 204 260 308 359
#     4  11  23  41  58  93 130 171 201 246 304 367
#     4  12  26  41  62  89 123 171 207 252 315 369
#     4  10  22  39  65  94 121 166 211 253 309 359
#     4  11  21  39  69  89 126 163 208 253 310 358
#     4  10  21  40  62  92 125 155 198 257 318 372
#
# _framework density 22.675312999999999
#
# number of rings (size 3 to 8) (size 9 to 14) (size 15 to 20)
#    0.000    1.429    2.857    2.143    4.000    2.286 
#    0.000    0.000    0.000    0.857    0.000    0.000 
#    0.000    0.000    0.000    0.000    0.000    0.000 
#
# Total GULP energy -156405.495297 kJ/mol
# GULP energy per Si atom -5585.910546 kJ/mol
# Density = 2.262370 g / cm^3
# Si number density = 22.675313 Si / 1000 Ang^3
#
#
#
# Elastic Constant Matrix: (Units=GPa)
#
#
# Indices 1 2 3 4 5 6 
#
# 1 90.5903 13.6226 13.5675 0.0000 2.2450 0.0000
# 2 13.6226 47.3439 -5.8959 0.0000 -4.4888 0.0000
# 3 13.5675 -5.8959 93.3019 0.0000 -13.1332 0.0000
# 4 0.0000 0.0000 0.0000 18.4475 0.0000 6.2814
# 5 2.2450 -4.4888 -13.1332 0.0000 28.9049 0.0000
# 6 0.0000 0.0000 0.0000 6.2814 0.0000 14.8837
#
#
#
# Elastic Compliance Matrix: (Units=1/GPa)
#
#
# Indices 1 2 3 4 5 6 
#
# 1 0.012065 -0.004019 -0.002380 0.000000 -0.002643 0.000000
# 2 -0.004019 0.023113 0.002771 0.000000 0.005161 0.000000
# 3 -0.002380 0.002771 0.012100 0.000000 0.006113 0.000000
# 4 0.000000 0.000000 0.000000 0.063305 0.000000 -0.026717
# 5 -0.002643 0.005161 0.006113 0.000000 0.038380 0.000000
# 6 0.000000 0.000000 0.000000 -0.026717 0.000000 0.078463
#
#
# Mechanical properties :
#
#
# Convention : Reuss Voigt Hill
#
# Bulk Modulus (GPa) = 24.98617 30.42495 27.70556
# Shear Modulus (GPa) = 20.15957 26.44336 23.30147
#
# Velocity S-wave (km/s) = 2.98494 3.41863 3.20912
# Velocity P-wave (km/s) = 4.78778 5.38791 5.09668
#
# Compressibility (1/GPa) = 0.04002213
#
# Stress axis : x y z
#
# Youngs Moduli (GPa) = 82.88446 43.26619 82.64738
#
# Poissons Ratio (x) = 0.17387 0.19673
# Poissons Ratio (y) = 0.33307 -0.22904
# Poissons Ratio (z) = 0.19729 -0.11990
#
# Static dielectric constant tensor:
#      x y z
#    x 1.911910 0.000000 -0.002530 
#    y 0.000000 1.824420 0.000000 
#    z -0.002530 0.000000 1.874970 
# 
# From -- ./inp_files/11271.got.cif
#   From: 2010.05.17/outbox.cif.g08.bks.cpg/sg10_6_cif.got.tgz:11271.got - 2010.06.03 11:33:40.
