data_PCOD9152960
_publ_section_title
;
Structure prediction by ZEFSAII (Michael W. Deem and Ramdas Pophale) SiO2 
 PCOD9152960
Probable space group: P 2/M
;
_chemical_formula_sum "Si O2"
_cell_formula_units_Z 32
_cell_length_a 27.743103
_cell_length_b 9.036659
_cell_length_c 16.784026
_cell_angle_alpha 90.000000
_cell_angle_beta 23.734582
_cell_angle_gamma 90.000000
_cell_volume 1693.656588
_symmetry_space_group_name_H-M "P 2/M"
_symmetry_group_IT_number 10
_symmetry_cell_setting 'monoclinic'
loop_
_space_group_symop_operation_xyz
x,y,z
-x,y,-z
-x,-y,-z
x,-y,z
loop_
_atom_site_type_symbol
_atom_site_label
_atom_site_fract_x
_atom_site_fract_y
_atom_site_fract_z
Si Si1 0.638056 0.322732 0.808389
Si Si2 0.973958 0.176624 0.901002
Si Si3 0.956828 0.823253 0.739178
Si Si4 0.251637 0.676592 0.046824
Si Si5 0.283265 0.823286 0.632844
Si Si6 0.784014 0.823113 0.727720
Si Si7 0.220614 0.323420 0.567350
Si Si8 0.508433 0.677279 0.580138
O O1 0.646128 0.500000 0.809381
O O2 0.690613 0.239759 0.804979
O O3 0.716559 0.286036 0.611661
O O4 0.500000 0.286373 0.000000
O O5 0.965571 0.211165 0.819675
O O6 0.085724 0.262092 0.768870
O O7 0.995205 0.000000 0.877274
O O8 0.848001 0.211871 0.132798
O O9 0.849648 0.738073 0.858956
O O10 0.082813 0.787848 0.506358
O O11 0.936757 0.000000 0.761940
O O12 0.240348 0.500000 0.071092
O O13 0.235541 0.751012 0.156961
O O14 0.382409 0.710118 0.813271
O O15 0.289453 0.750483 0.536597
O O16 0.384570 0.759319 0.537135
O O17 0.293642 0.000000 0.611553
O O18 0.773919 0.000000 0.748468
O O19 0.221375 0.500000 0.575168
O O20 0.500000 0.718677 0.500000
O O21 0.528749 0.500000 0.553564
#
# Coordination Sequence:
#
# PCOD9152960 Si02
#       8
#     4   4   4   4   4   4   4   4
#     4  10  23  42  63  88 122 162 202 248 301 355
#     4  10  21  40  62  88 123 161 201 250 304 355
#     4  10  21  39  62  88 121 158 200 249 300 355
#     4  11  24  39  61  90 122 158 200 251 301 357
#     4  11  24  39  62  91 122 160 202 251 302 358
#     4  11  23  40  63  91 122 159 201 248 300 358
#     4  11  23  39  62  91 123 160 202 250 301 357
#     4  10  23  44  65  88 121 160 202 249 301 356
#
# _framework density 18.894030000000001
#
# number of rings (size 3 to 8) (size 9 to 14) (size 15 to 20)
#    0.000    1.500    1.250    3.000    1.750    7.500 
#    0.000    0.000    0.000    0.000    0.000    0.000 
#    0.000    0.000    0.000    0.000    0.000    0.000 
#
# Total GULP energy -178970.611216 kJ/mol
# GULP energy per Si atom -5592.831601 kJ/mol
# Density = 1.885103 g / cm^3
# Si number density = 18.894030 Si / 1000 Ang^3
#
#
#
# Elastic Constant Matrix: (Units=GPa)
#
#
# Indices 1 2 3 4 5 6 
#
# 1 114.6514 40.2935 22.7693 0.0000 -10.8433 0.0000
# 2 40.2935 31.4498 28.2939 0.0000 -8.4293 0.0000
# 3 22.7693 28.2939 50.2910 0.0000 -12.4766 0.0000
# 4 0.0000 0.0000 0.0000 29.1976 0.0000 -5.8796
# 5 -10.8433 -8.4293 -12.4766 0.0000 37.4874 0.0000
# 6 0.0000 0.0000 0.0000 -5.8796 0.0000 43.2099
#
#
#
# Elastic Compliance Matrix: (Units=1/GPa)
#
#
# Indices 1 2 3 4 5 6 
#
# 1 0.018019 -0.031756 0.010060 0.000000 0.001420 0.000000
# 2 -0.031756 0.120592 -0.053431 0.000000 0.000147 0.000000
# 3 0.010060 -0.053431 0.047013 0.000000 0.006543 0.000000
# 4 0.000000 0.000000 0.000000 0.035214 0.000000 0.004792
# 5 0.001420 0.000147 0.006543 0.000000 0.029297 0.000000
# 6 0.000000 0.000000 0.000000 0.004792 0.000000 0.023795
#
#
# Mechanical properties :
#
#
# Convention : Reuss Voigt Hill
#
# Bulk Modulus (GPa) = 28.27277 42.12283 35.19780
# Shear Modulus (GPa) = 11.46856 28.98134 20.22495
#
# Velocity S-wave (km/s) = 2.46640 3.92074 3.27531
# Velocity P-wave (km/s) = 4.80699 6.54514 5.74222
#
# Compressibility (1/GPa) = 0.03536972
#
# Stress axis : x y z
#
# Youngs Moduli (GPa) = 55.49729 8.29244 21.27053
#
# Poissons Ratio (x) = 0.26334 -0.21399
# Poissons Ratio (y) = 1.76237 1.13651
# Poissons Ratio (z) = -0.55832 0.44308
#
# Static dielectric constant tensor:
#      x y z
#    x 1.616990 0.000000 0.011310 
#    y 0.000000 1.629830 0.000000 
#    z 0.011310 0.000000 1.635350 
# 
# From -- ./inp_files/71544.got.cif
#   From: 2010.05.17/outbox.cif.g08.bks.cpg/sg10_36_cif.got.tgz:71544.got - 2010.06.03 11:33:40.
