data_PCOD9152951
_publ_section_title
;
Structure prediction by ZEFSAII (Michael W. Deem and Ramdas Pophale) SiO2 
 PCOD9152951
Probable space group: P 2/M
;
_chemical_formula_sum "Si O2"
_cell_formula_units_Z 22
_cell_length_a 14.032425
_cell_length_b 10.943185
_cell_length_c 13.175330
_cell_angle_alpha 90.000000
_cell_angle_beta 34.084486
_cell_angle_gamma 90.000000
_cell_volume 1133.828939
_symmetry_space_group_name_H-M "P 2/M"
_symmetry_group_IT_number 10
_symmetry_cell_setting 'monoclinic'
loop_
_space_group_symop_operation_xyz
x,y,z
-x,y,-z
-x,-y,-z
x,-y,z
loop_
_atom_site_type_symbol
_atom_site_label
_atom_site_fract_x
_atom_site_fract_y
_atom_site_fract_z
Si Si1 0.000000 0.217123 0.500000
Si Si2 0.653583 0.641426 0.088305
Si Si3 0.875989 0.133699 0.820815
Si Si4 0.123910 0.131601 0.793503
Si Si5 0.642676 0.643854 0.790630
Si Si6 0.692608 0.367207 0.294576
O O1 0.036560 0.142997 0.365515
O O2 0.175091 0.292398 0.363603
O O3 0.697261 0.500000 0.020271
O O4 0.457089 0.658443 0.228272
O O5 0.689396 0.652946 0.176213
O O6 0.759022 0.747580 0.940286
O O7 0.014152 0.138306 0.788482
O O8 0.788276 0.000000 0.906732
O O9 0.228485 0.253939 0.716703
O O10 0.217907 0.000000 0.710335
O O11 0.000000 0.129214 0.000000
O O12 0.670106 0.500000 0.783549
O O13 0.500000 0.683976 0.000000
O O14 0.500000 0.375230 0.500000
O O15 0.776135 0.500000 0.241103
#
# Coordination Sequence:
#
# PCOD9152951 Si02
#       6
#     2   4   4   4   4   4
#     4  12  24  40  66  90 125 174 213 266 321 372
#     4  10  21  40  63  89 125 164 207 258 315 381
#     4  11  24  42  62  90 127 165 212 264 315 377
#     4  10  21  39  62  86 118 159 204 252 305 370
#     4  10  21  39  62  93 125 159 211 264 314 377
#     4  10  22  38  59  91 128 161 201 257 315 373
#
# _framework density 19.403281
#
# number of rings (size 3 to 8) (size 9 to 14) (size 15 to 20)
#    0.000    1.636    3.636    0.545    2.545    2.182 
#    0.000    2.727    0.000    0.000    0.000    0.000 
#    0.000    0.000    0.000    0.000    0.000    0.000 
#
# Total GULP energy -122643.665734 kJ/mol
# GULP energy per Si atom -5574.712079 kJ/mol
# Density = 1.935912 g / cm^3
# Si number density = 19.403281 Si / 1000 Ang^3
#
#
#
# Elastic Constant Matrix: (Units=GPa)
#
#
# Indices 1 2 3 4 5 6 
#
# 1 101.9291 65.5084 21.6203 0.0000 3.2027 0.0000
# 2 65.5084 167.9598 59.1478 0.0000 -16.4129 0.0000
# 3 21.6203 59.1478 67.9138 0.0000 -0.6603 0.0000
# 4 0.0000 0.0000 0.0000 -57.3878 0.0000 92.0899
# 5 3.2027 -16.4129 -0.6603 0.0000 33.1591 0.0000
# 6 0.0000 0.0000 0.0000 92.0899 0.0000 -60.0665
#
#
#
# Elastic Compliance Matrix: (Units=1/GPa)
#
#
# Indices 1 2 3 4 5 6 
#
# 1 0.013650 -0.006056 0.000887 0.000000 -0.004298 0.000000
# 2 -0.006056 0.011872 -0.008350 0.000000 0.006295 0.000000
# 3 0.000887 -0.008350 0.021677 0.000000 -0.003787 0.000000
# 4 0.000000 0.000000 0.000000 0.011933 0.000000 0.018296
# 5 -0.004298 0.006295 -0.003787 0.000000 0.033613 0.000000
# 6 0.000000 0.000000 0.000000 0.018296 0.000000 0.011401
#
#
# Mechanical properties :
#
#
# Convention : Reuss Voigt Hill
#
# Bulk Modulus (GPa) = 49.60070 70.03952 59.82011
# Shear Modulus (GPa) = 36.25689 -4.09063 16.08313
#
# Velocity S-wave (km/s) = 4.32742 -1.45355 2.88216
# Velocity P-wave (km/s) = 7.11247 5.77564 6.47863
#
# Compressibility (1/GPa) = 0.02016101
#
# Stress axis : x y z
#
# Youngs Moduli (GPa) = 73.26061 84.23516 46.13093
#
# Poissons Ratio (x) = 0.51016 -0.04094
# Poissons Ratio (y) = 0.44369 0.38519
# Poissons Ratio (z) = -0.06501 0.70336
#
# Static dielectric constant tensor:
#      x y z
#    x 1.642570 0.000000 0.018270 
#    y 0.000000 1.733820 0.000000 
#    z 0.018270 0.000000 1.659370 
# 
# From -- ./inp_files/67057.got.cif
#   From: 2010.05.17/outbox.cif.g08.bks.cpg/sg10_34_cif.got.tgz:67057.got - 2010.06.03 11:33:40.
