data_PCOD9152760
_publ_section_title
;
Structure prediction by ZEFSAII (Michael W. Deem and Ramdas Pophale) SiO2 
 PCOD9152760
Probable space group: P 2/M
;
_chemical_formula_sum "Si O2"
_cell_formula_units_Z 26
_cell_length_a 12.034494
_cell_length_b 7.621139
_cell_length_c 15.100814
_cell_angle_alpha 90.000000
_cell_angle_beta 66.819769
_cell_angle_gamma 90.000000
_cell_volume 1273.185646
_symmetry_space_group_name_H-M "P 2/M"
_symmetry_group_IT_number 10
_symmetry_cell_setting 'monoclinic'
loop_
_space_group_symop_operation_xyz
x,y,z
-x,y,-z
-x,-y,-z
x,-y,z
loop_
_atom_site_type_symbol
_atom_site_label
_atom_site_fract_x
_atom_site_fract_y
_atom_site_fract_z
Si Si1 0.055865 0.000000 0.220347
Si Si2 0.889936 0.000000 0.103698
Si Si3 0.212577 0.301679 0.235451
Si Si4 0.309069 0.294861 0.815564
Si Si5 0.515257 0.788695 0.891778
Si Si6 0.090733 0.000000 0.553918
Si Si7 0.755896 0.707661 0.572491
Si Si8 0.487464 0.287548 0.605757
O O1 0.143067 0.831985 0.194837
O O2 0.958856 0.000000 0.174658
O O3 0.982727 0.000000 0.334019
O O4 0.802235 0.830946 0.126146
O O5 0.000000 0.000000 0.000000
O O6 0.173089 0.500000 0.232035
O O7 0.355716 0.285368 0.177658
O O8 0.192912 0.258783 0.345352
O O9 0.275204 0.500000 0.816416
O O10 0.409079 0.280186 0.862032
O O11 0.376521 0.232539 0.703386
O O12 0.517595 0.000000 0.882678
O O13 0.500000 0.744847 0.000000
O O14 0.173531 0.828008 0.518030
O O15 0.000000 0.000000 0.500000
O O16 0.766982 0.500000 0.550390
O O17 0.614243 0.754621 0.613460
O O18 0.500000 0.225390 0.500000
O O19 0.478723 0.500000 0.604909
#
# Coordination Sequence:
#
# PCOD9152760 Si02
#       8
#     2   2   4   4   4   2   4   4
#     4  12  28  47  62  90 130 177 239 276 314 388
#     4  12  32  52  66  87 132 187 237 285 327 372
#     4  11  22  40  68  99 131 170 214 274 338 393
#     4  11  24  46  74 103 133 173 222 273 334 406
#     4  11  23  40  72 107 136 164 203 274 351 398
#     4  12  24  39  60  91 124 170 217 258 310 387
#     4  10  21  38  61  93 134 167 200 260 332 393
#     4   9  19  37  64  99 135 167 204 259 333 406
#
# _framework density 20.421215
#
# number of rings (size 3 to 8) (size 9 to 14) (size 15 to 20)
#    0.000    1.231    4.615    0.462    4.308    3.692 
#    0.000    0.769    0.000    0.000    0.000    0.000 
#    0.000    0.000    0.000    0.000    0.000    0.000 
#
# Total GULP energy -145352.359715 kJ/mol
# GULP energy per Si atom -5590.475374 kJ/mol
# Density = 2.037474 g / cm^3
# Si number density = 20.421215 Si / 1000 Ang^3
#
#
#
# Elastic Constant Matrix: (Units=GPa)
#
#
# Indices 1 2 3 4 5 6 
#
# 1 91.4682 39.4547 38.8276 0.0000 -15.2194 0.0000
# 2 39.4547 87.9713 31.0802 0.0000 -12.1640 0.0000
# 3 38.8276 31.0802 110.7149 0.0000 -8.5382 0.0000
# 4 0.0000 0.0000 0.0000 46.3858 0.0000 -35.8471
# 5 -15.2194 -12.1640 -8.5382 0.0000 33.6889 0.0000
# 6 0.0000 0.0000 0.0000 -35.8471 0.0000 44.2428
#
#
#
# Elastic Compliance Matrix: (Units=1/GPa)
#
#
# Indices 1 2 3 4 5 6 
#
# 1 0.015342 -0.005011 -0.003650 0.000000 0.004197 0.000000
# 2 -0.005011 0.014733 -0.002186 0.000000 0.002502 0.000000
# 3 -0.003650 -0.002186 0.010952 0.000000 0.000338 0.000000
# 4 0.000000 0.000000 0.000000 0.057666 0.000000 0.046723
# 5 0.004197 0.002502 0.000338 0.000000 0.032568 0.000000
# 6 0.000000 0.000000 0.000000 0.046723 0.000000 0.060459
#
#
# Mechanical properties :
#
#
# Convention : Reuss Voigt Hill
#
# Bulk Modulus (GPa) = 51.72388 56.54217 54.13303
# Shear Modulus (GPa) = 22.74200 36.91630 29.82915
#
# Velocity S-wave (km/s) = 3.34075 4.25637 3.82605
# Velocity P-wave (km/s) = 6.34542 7.20442 6.78852
#
# Compressibility (1/GPa) = 0.01933343
#
# Stress axis : x y z
#
# Youngs Moduli (GPa) = 65.18093 67.87563 91.30869
#
# Poissons Ratio (x) = 0.34012 0.33328
# Poissons Ratio (y) = 0.32662 0.19956
# Poissons Ratio (z) = 0.23792 0.14835
#
# Static dielectric constant tensor:
#      x y z
#    x 1.709140 0.000000 0.019560 
#    y 0.000000 1.736470 0.000000 
#    z 0.019560 0.000000 1.754190 
# 
# From -- ./inp_files/63344.got.cif
#   From: 2010.05.17/outbox.cif.g08.bks.cpg/sg10_32_cif.got.tgz:63344.got - 2010.06.03 11:33:40.
