data_PCOD9152726
_publ_section_title
;
Structure prediction by ZEFSAII (Michael W. Deem and Ramdas Pophale) SiO2 
 PCOD9152726
Probable space group: P 2/M
;
_chemical_formula_sum "Si O2"
_cell_formula_units_Z 28
_cell_length_a 13.886105
_cell_length_b 8.794699
_cell_length_c 19.241939
_cell_angle_alpha 90.000000
_cell_angle_beta 143.699561
_cell_angle_gamma 90.000000
_cell_volume 1391.189090
_symmetry_space_group_name_H-M "P 2/M"
_symmetry_group_IT_number 10
_symmetry_cell_setting 'monoclinic'
loop_
_space_group_symop_operation_xyz
x,y,z
-x,y,-z
-x,-y,-z
x,-y,z
loop_
_atom_site_type_symbol
_atom_site_label
_atom_site_fract_x
_atom_site_fract_y
_atom_site_fract_z
Si Si1 0.181705 0.676612 0.074126
Si Si2 0.876882 0.179364 0.105656
Si Si3 0.927583 0.318014 0.384157
Si Si4 0.218677 0.328654 0.311403
Si Si5 0.742425 0.670677 0.502078
Si Si6 0.311578 0.684393 0.872715
Si Si7 0.423493 0.174116 0.318925
O O1 0.230250 0.500000 0.109145
O O2 0.296946 0.783821 0.185781
O O3 0.189336 0.729774 0.999285
O O4 0.000000 0.690460 0.000000
O O5 0.798801 0.244566 0.130636
O O6 0.069238 0.214443 0.215352
O O7 0.847219 0.000000 0.082636
O O8 0.904513 0.500000 0.380966
O O9 0.765692 0.266797 0.247383
O O10 0.000000 0.258124 0.500000
O O11 0.077456 0.293547 0.418762
O O12 0.166629 0.500000 0.260407
O O13 0.258915 0.330207 0.415631
O O14 0.368295 0.278176 0.351312
O O15 0.703433 0.500000 0.453999
O O16 0.603138 0.784341 0.398013
O O17 0.297464 0.500000 0.867398
O O18 0.500000 0.722840 0.000000
O O19 0.413679 0.000000 0.334127
#
# Coordination Sequence:
#
# PCOD9152726 Si02
#       7
#     4   4   4   4   4   4   4
#     4  11  23  40  63  86 117 164 211 253 300 366
#     4  12  24  38  62  92 125 162 201 254 319 374
#     4   9  18  36  63  93 122 157 207 266 316 363
#     4  11  21  38  62  88 119 162 213 254 298 363
#     4  10  21  38  61  87 121 163 210 256 304 366
#     4  10  21  40  66  95 123 161 215 267 315 379
#     4  12  25  38  57  90 129 163 203 255 313 371
#
# _framework density 20.126667000000001
#
# number of rings (size 3 to 8) (size 9 to 14) (size 15 to 20)
#    0.000    1.286    2.857    3.857    0.000    4.857 
#    0.000    2.857    0.000    1.714    0.000    0.000 
#    0.000    0.000    0.000    0.000    0.000    0.000 
#
# Total GULP energy -156324.717613 kJ/mol
# GULP energy per Si atom -5583.025629 kJ/mol
# Density = 2.008086 g / cm^3
# Si number density = 20.126667 Si / 1000 Ang^3
#
#
#
# Elastic Constant Matrix: (Units=GPa)
#
#
# Indices 1 2 3 4 5 6 
#
# 1 52.5736 10.9720 33.6947 0.0000 -18.6249 0.0000
# 2 10.9720 36.0114 7.9586 0.0000 7.8422 0.0000
# 3 33.6947 7.9586 88.9597 0.0000 -10.0705 0.0000
# 4 0.0000 0.0000 0.0000 89.8778 0.0000 15.4195
# 5 -18.6249 7.8422 -10.0705 0.0000 24.6546 0.0000
# 6 0.0000 0.0000 0.0000 15.4195 0.0000 14.6548
#
#
#
# Elastic Compliance Matrix: (Units=1/GPa)
#
#
# Indices 1 2 3 4 5 6 
#
# 1 0.040280 -0.016923 -0.010158 0.000000 0.031662 0.000000
# 2 -0.016923 0.038312 0.000163 0.000000 -0.024904 0.000000
# 3 -0.010158 0.000163 0.014888 0.000000 -0.001645 0.000000
# 4 0.000000 0.000000 0.000000 0.013577 0.000000 -0.014286
# 5 0.031662 -0.024904 -0.001645 0.000000 0.071729 0.000000
# 6 0.000000 0.000000 0.000000 -0.014286 0.000000 0.083268
#
#
# Mechanical properties :
#
#
# Convention : Reuss Voigt Hill
#
# Bulk Modulus (GPa) = 25.22445 31.42169 28.32307
# Shear Modulus (GPa) = 15.19271 34.16539 24.67905
#
# Velocity S-wave (km/s) = 2.75044 4.12457 3.50549
# Velocity P-wave (km/s) = 4.75885 6.19101 5.52156
#
# Compressibility (1/GPa) = 0.03964408
#
# Stress axis : x y z
#
# Youngs Moduli (GPa) = 24.82621 26.10124 67.16858
#
# Poissons Ratio (x) = 0.44170 0.68232
# Poissons Ratio (y) = 0.42013 -0.01095
# Poissons Ratio (z) = 0.25219 -0.00425
#
# Static dielectric constant tensor:
#      x y z
#    x 1.685780 0.000000 -0.015920 
#    y 0.000000 1.673090 0.000000 
#    z -0.015920 0.000000 1.765410 
# 
# From -- ./inp_files/84955.got.cif
#   From: 2010.05.17/outbox.cif.g08.bks.cpg/sg10_43_cif.got.tgz:84955.got - 2010.06.03 11:33:40.
