data_PCOD9152921
_publ_section_title
;
Structure prediction by ZEFSAII (Michael W. Deem and Ramdas Pophale) SiO2 
 PCOD9152921
Probable space group: P 2/M
;
_chemical_formula_sum "Si O2"
_cell_formula_units_Z 28
_cell_length_a 11.355344
_cell_length_b 21.848234
_cell_length_c 11.887133
_cell_angle_alpha 90.000000
_cell_angle_beta 27.203115
_cell_angle_gamma 90.000000
_cell_volume 1348.183312
_symmetry_space_group_name_H-M "P 2/M"
_symmetry_group_IT_number 10
_symmetry_cell_setting 'monoclinic'
loop_
_space_group_symop_operation_xyz
x,y,z
-x,y,-z
-x,-y,-z
x,-y,z
loop_
_atom_site_type_symbol
_atom_site_label
_atom_site_fract_x
_atom_site_fract_y
_atom_site_fract_z
Si Si1 0.447503 0.120384 0.415387
Si Si2 0.203448 0.432039 0.723787
Si Si3 0.942755 0.928208 0.917247
Si Si4 0.388668 0.569042 0.221888
Si Si5 0.501384 0.735958 0.365392
Si Si6 0.804602 0.643768 0.966287
Si Si7 0.925731 0.308954 0.448300
O O1 0.500000 0.099206 0.500000
O O2 0.531448 0.191025 0.334949
O O3 0.140109 0.109290 0.670740
O O4 0.637531 0.084938 0.169898
O O5 0.500000 0.421717 0.500000
O O6 0.187624 0.500000 0.687944
O O7 0.091154 0.381101 0.739130
O O8 0.000000 0.430106 0.000000
O O9 0.996072 0.000000 0.857153
O O10 0.000000 0.911748 0.000000
O O11 0.286828 0.500000 0.327469
O O12 0.201453 0.626093 0.404644
O O13 0.500000 0.569971 0.000000
O O14 0.621580 0.584968 0.110043
O O15 0.500000 0.722098 0.500000
O O16 0.265896 0.722739 0.478228
O O17 0.723080 0.691968 0.128321
O O18 0.811019 0.677746 0.842254
O O19 0.000000 0.275028 0.500000
#
# Coordination Sequence:
#
# PCOD9152921 Si02
#       7
#     4   4   4   4   4   4   4
#     4   9  18  33  52  81 123 163 209 252 298 356
#     4  10  24  42  59  83 116 151 194 248 309 378
#     4   9  16  28  51  83 123 168 206 246 300 359
#     4  10  21  39  61  87 113 144 193 255 325 392
#     4  10  25  41  62  89 123 167 211 259 307 368
#     4  11  24  39  63  82 119 156 202 252 316 381
#     4  11  24  41  61  87 118 157 203 258 315 381
#
# _framework density 20.768688000000001
#
# number of rings (size 3 to 8) (size 9 to 14) (size 15 to 20)
#    0.000    2.000    1.429    0.857    8.000    3.143 
#    0.000    0.000    0.000    1.714    0.000    0.000 
#    0.000    3.429    0.000    0.000    0.000    0.000 
#
# Total GULP energy -156120.776234 kJ/mol
# GULP energy per Si atom -5575.742008 kJ/mol
# Density = 2.072142 g / cm^3
# Si number density = 20.768688 Si / 1000 Ang^3
#
#
#
# Elastic Constant Matrix: (Units=GPa)
#
#
# Indices 1 2 3 4 5 6 
#
# 1 86.3437 10.8882 29.5635 0.0000 3.4428 0.0000
# 2 10.8882 61.5267 34.2208 0.0000 2.5453 0.0000
# 3 29.5635 34.2208 106.0578 0.0000 -2.3553 0.0000
# 4 0.0000 0.0000 0.0000 15.0294 0.0000 -4.0090
# 5 3.4428 2.5453 -2.3553 0.0000 33.5453 0.0000
# 6 0.0000 0.0000 0.0000 -4.0090 0.0000 8.3476
#
#
#
# Elastic Compliance Matrix: (Units=1/GPa)
#
#
# Indices 1 2 3 4 5 6 
#
# 1 0.012889 -0.000243 -0.003549 0.000000 -0.001554 0.000000
# 2 -0.000243 0.019941 -0.006410 0.000000 -0.001938 0.000000
# 3 -0.003549 -0.006410 0.012525 0.000000 0.001730 0.000000
# 4 0.000000 0.000000 0.000000 0.076313 0.000000 0.036650
# 5 -0.001554 -0.001938 0.001730 0.000000 0.030238 0.000000
# 6 0.000000 0.000000 0.000000 0.036650 0.000000 0.137397
#
#
# Mechanical properties :
#
#
# Convention : Reuss Voigt Hill
#
# Bulk Modulus (GPa) = 40.07637 44.80813 42.44225
# Shear Modulus (GPa) = 15.72211 23.33483 19.52847
#
# Velocity S-wave (km/s) = 2.75437 3.35559 3.06973
# Velocity P-wave (km/s) = 5.42714 6.05268 5.74843
#
# Compressibility (1/GPa) = 0.02495236
#
# Stress axis : x y z
#
# Youngs Moduli (GPa) = 77.58335 50.14731 79.84231
#
# Poissons Ratio (x) = 0.01217 0.28337
# Poissons Ratio (y) = 0.01883 0.51176
# Poissons Ratio (z) = 0.27535 0.32143
#
# Static dielectric constant tensor:
#      x y z
#    x 1.841590 0.000000 -0.027740 
#    y 0.000000 1.718470 0.000000 
#    z -0.027740 0.000000 1.860330 
# 
# From -- ./inp_files/48017.got.cif
#   From: 2010.05.17/outbox.cif.g08.bks.cpg/sg10_25_cif.got.tgz:48017.got - 2010.06.03 11:33:40.
