data_PCOD9152066
_publ_section_title
;
Structure prediction by ZEFSAII (Michael W. Deem and Ramdas Pophale) SiO2 
 PCOD9152066
Probable space group: P 2/M
;
_chemical_formula_sum "Si O2"
_cell_formula_units_Z 28
_cell_length_a 9.672537
_cell_length_b 17.857603
_cell_length_c 15.352591
_cell_angle_alpha 90.000000
_cell_angle_beta 35.818265
_cell_angle_gamma 90.000000
_cell_volume 1551.892318
_symmetry_space_group_name_H-M "P 2/M"
_symmetry_group_IT_number 10
_symmetry_cell_setting 'monoclinic'
loop_
_space_group_symop_operation_xyz
x,y,z
-x,y,-z
-x,-y,-z
x,-y,z
loop_
_atom_site_type_symbol
_atom_site_label
_atom_site_fract_x
_atom_site_fract_y
_atom_site_fract_z
Si Si1 0.268999 0.084689 0.559862
Si Si2 0.091554 0.691399 0.355542
Si Si3 0.217033 0.248390 0.635425
Si Si4 0.894282 0.707086 0.957335
Si Si5 0.266699 0.088168 0.364269
Si Si6 0.512933 0.185147 0.891158
Si Si7 0.504219 0.587927 0.101922
O O1 0.500000 0.077947 0.500000
O O2 0.141141 0.160425 0.658600
O O3 0.350887 0.102319 0.419420
O O4 0.154418 0.000000 0.617547
O O5 0.280940 0.753933 0.229242
O O6 0.250740 0.616791 0.266146
O O7 0.000000 0.700660 0.500000
O O8 0.876731 0.703324 0.398353
O O9 0.500000 0.248462 0.500000
O O10 0.098937 0.284337 0.780982
O O11 0.724861 0.777237 0.022731
O O12 0.721244 0.636032 0.029963
O O13 0.000000 0.707549 0.000000
O O14 0.418395 0.119324 0.208614
O O15 0.000000 0.119406 0.500000
O O16 0.252125 0.000000 0.360284
O O17 0.500000 0.167318 0.000000
O O18 0.535776 0.500000 0.101273
O O19 0.500000 0.602138 0.000000
#
# Coordination Sequence:
#
# PCOD9152066 Si02
#       7
#     4   4   4   4   4   4   4
#     4   9  19  34  54  77 111 156 203 241 289 354
#     4  11  21  37  62  91 117 153 203 247 283 355
#     4  11  22  36  58  88 119 157 200 251 304 343
#     4  11  24  39  60  92 120 151 199 246 293 362
#     4  10  21  36  56  84 115 154 203 254 308 357
#     4  11  21  38  59  82 118 157 203 252 300 354
#     4  10  21  43  69  88 120 162 193 236 294 358
#
# _framework density 18.042487999999999
#
# number of rings (size 3 to 8) (size 9 to 14) (size 15 to 20)
#    0.000    1.571    2.857    3.000    8.000    0.857 
#    0.000    0.714    0.000    1.714    0.000    0.000 
#    0.000    0.000    0.000    0.000    0.000    0.000 
#
# Total GULP energy -156111.595744 kJ/mol
# GULP energy per Si atom -5575.414134 kJ/mol
# Density = 1.800142 g / cm^3
# Si number density = 18.042488 Si / 1000 Ang^3
#
#
#
# Elastic Constant Matrix: (Units=GPa)
#
#
# Indices 1 2 3 4 5 6 
#
# 1 167.4052 51.8114 71.9338 0.0000 22.2865 0.0000
# 2 51.8114 82.9514 39.4634 0.0000 9.6196 0.0000
# 3 71.9338 39.4634 111.2211 0.0000 14.7699 0.0000
# 4 0.0000 0.0000 0.0000 24.5906 0.0000 3.2805
# 5 22.2865 9.6196 14.7699 0.0000 36.4411 0.0000
# 6 0.0000 0.0000 0.0000 3.2805 0.0000 10.8773
#
#
#
# Elastic Compliance Matrix: (Units=1/GPa)
#
#
# Indices 1 2 3 4 5 6 
#
# 1 0.009321 -0.003362 -0.004435 0.000000 -0.003016 0.000000
# 2 -0.003362 0.015834 -0.003341 0.000000 -0.000769 0.000000
# 3 -0.004435 -0.003341 0.013283 0.000000 -0.001789 0.000000
# 4 0.000000 0.000000 0.000000 0.042371 0.000000 -0.012779
# 5 -0.003016 -0.000769 -0.001789 0.000000 0.030214 0.000000
# 6 0.000000 0.000000 0.000000 -0.012779 0.000000 0.095788
#
#
# Mechanical properties :
#
#
# Convention : Reuss Voigt Hill
#
# Bulk Modulus (GPa) = 61.88009 76.44386 69.16198
# Shear Modulus (GPa) = 21.32407 27.60640 24.46524
#
# Velocity S-wave (km/s) = 3.44158 3.91586 3.68636
# Velocity P-wave (km/s) = 7.08265 7.93134 7.51898
#
# Compressibility (1/GPa) = 0.01616029
#
# Stress axis : x y z
#
# Youngs Moduli (GPa) = 107.27911 63.15400 75.28487
#
# Poissons Ratio (x) = 0.21235 0.33391
# Poissons Ratio (y) = 0.36072 0.25156
# Poissons Ratio (z) = 0.47581 0.21103
#
# Static dielectric constant tensor:
#      x y z
#    x 1.611780 0.000000 -0.015330 
#    y 0.000000 1.660650 0.000000 
#    z -0.015330 0.000000 1.615420 
# 
# From -- ./inp_files/25987.got.cif
#   From: 2010.05.17/outbox.cif.g08.bks.cpg/sg10_13_cif.got.tgz:25987.got - 2010.06.03 11:33:40.
