data_PCOD9152936
_publ_section_title
;
Structure prediction by ZEFSAII (Michael W. Deem and Ramdas Pophale) SiO2 
 PCOD9152936
Probable space group: P 2/M
;
_chemical_formula_sum "Si O2"
_cell_formula_units_Z 29
_cell_length_a 12.436088
_cell_length_b 7.871463
_cell_length_c 15.843457
_cell_angle_alpha 90.000000
_cell_angle_beta 132.265485
_cell_angle_gamma 90.000000
_cell_volume 1147.736694
_symmetry_space_group_name_H-M "P 2/M"
_symmetry_group_IT_number 10
_symmetry_cell_setting 'monoclinic'
loop_
_space_group_symop_operation_xyz
x,y,z
-x,y,-z
-x,-y,-z
x,-y,z
loop_
_atom_site_type_symbol
_atom_site_label
_atom_site_fract_x
_atom_site_fract_y
_atom_site_fract_z
Si Si1 0.403220 0.811305 0.245997
Si Si2 0.609649 0.311809 0.943504
Si Si3 0.333374 0.799109 0.482155
Si Si4 0.894179 0.807558 0.173575
Si Si5 0.709752 0.205145 0.225458
Si Si6 0.902145 0.301624 0.867401
Si Si7 0.500000 0.500000 0.500000
Si Si8 0.146036 0.206217 0.532669
O O1 0.394636 0.692949 0.160312
O O2 0.534790 0.783432 0.379698
O O3 0.248276 0.798676 0.209760
O O4 0.425623 0.000000 0.222126
O O5 0.649364 0.500000 0.993420
O O6 0.447385 0.266020 0.885753
O O7 0.738901 0.192725 0.042865
O O8 0.374521 0.651400 0.439890
O O9 0.191465 0.750932 0.461988
O O10 0.329625 0.000000 0.453681
O O11 0.842450 0.735112 0.236443
O O12 0.007558 0.721323 0.170846
O O13 0.946278 0.000000 0.214376
O O14 0.733465 0.256299 0.334745
O O15 0.712322 0.000000 0.222486
O O16 0.869356 0.500000 0.862229
O O17 0.000000 0.246961 0.000000
O O18 0.000000 0.267447 0.500000
O O19 0.140537 0.000000 0.528780
#
# Coordination Sequence:
#
# PCOD9152936 Si02
#       8
#     4   4   4   4   4   4   1   4
#     4  11  22  39  65  91 122 167 216 260 306 376
#     4  12  23  35  60  89 125 165 210 261 320 372
#     4  10  23  44  71 101 132 170 218 270 332 403
#     4  11  23  38  58  88 126 169 214 262 317 377
#     4  10  21  39  61  90 122 161 210 259 315 383
#     4  11  23  38  58  86 125 169 213 259 310 372
#     4  12  26  44  74  98 138 166 214 276 338 386
#     4   9  18  39  70  97 127 166 212 269 331 396
#
# _framework density 25.267119000000001
#
# number of rings (size 3 to 8) (size 9 to 14) (size 15 to 20)
#    0.000    1.379    2.759    3.103    1.931    3.310 
#    2.483    0.345    0.000    0.000    0.000    0.000 
#    0.000    0.000    0.000    0.000    0.000    0.000 
#
# Total GULP energy -162009.074802 kJ/mol
# GULP energy per Si atom -5586.519821 kJ/mol
# Density = 2.520961 g / cm^3
# Si number density = 25.267119 Si / 1000 Ang^3
#
#
#
# Elastic Constant Matrix: (Units=GPa)
#
#
# Indices 1 2 3 4 5 6 
#
# 1 171.2976 23.6122 6.0647 0.0000 -6.3986 0.0000
# 2 23.6122 75.5173 17.5054 0.0000 -13.4957 0.0000
# 3 6.0647 17.5054 47.2793 0.0000 0.0834 0.0000
# 4 0.0000 0.0000 0.0000 -16.0802 0.0000 -10.2677
# 5 -6.3986 -13.4957 0.0834 0.0000 40.7852 0.0000
# 6 0.0000 0.0000 0.0000 -10.2677 0.0000 20.7665
#
#
#
# Elastic Compliance Matrix: (Units=1/GPa)
#
#
# Indices 1 2 3 4 5 6 
#
# 1 0.006106 -0.001820 -0.000110 0.000000 0.000356 0.000000
# 2 -0.001820 0.016034 -0.005712 0.000000 0.005032 0.000000
# 3 -0.000110 -0.005712 0.023283 0.000000 -0.001955 0.000000
# 4 0.000000 0.000000 0.000000 -0.047266 0.000000 -0.023370
# 5 0.000356 0.005032 -0.001955 0.000000 0.026244 0.000000
# 6 0.000000 0.000000 0.000000 -0.023370 0.000000 0.036600
#
#
# Mechanical properties :
#
#
# Convention : Reuss Voigt Hill
#
# Bulk Modulus (GPa) = 33.17931 43.16210 38.17070
# Shear Modulus (GPa) = 57.91602 25.55509 41.73555
#
# Velocity S-wave (km/s) = 4.79283 3.18370 4.06861
# Velocity P-wave (km/s) = 6.61727 5.53480 6.10009
#
# Compressibility (1/GPa) = 0.03013926
#
# Stress axis : x y z
#
# Youngs Moduli (GPa) = 163.77699 62.36569 42.94893
#
# Poissons Ratio (x) = 0.11351 0.00472
# Poissons Ratio (y) = 0.29808 0.24533
# Poissons Ratio (z) = 0.01801 0.35625
#
# Static dielectric constant tensor:
#      x y z
#    x 2.019130 0.000000 -0.030300 
#    y 0.000000 1.912400 0.000000 
#    z -0.030300 0.000000 2.051470 
# 
# From -- ./inp_files/63965.got.cif
#   From: 2010.05.17/outbox.cif.g08.bks.cpg/sg10_32_cif.got.tgz:63965.got - 2010.06.03 11:33:40.
