data_PCOD9152386
_publ_section_title
;
Structure prediction by ZEFSAII (Michael W. Deem and Ramdas Pophale) SiO2 
 PCOD9152386
Probable space group: P 2/M
;
_chemical_formula_sum "Si O2"
_cell_formula_units_Z 32
_cell_length_a 24.982656
_cell_length_b 7.612440
_cell_length_c 15.535859
_cell_angle_alpha 90.000000
_cell_angle_beta 28.351115
_cell_angle_gamma 90.000000
_cell_volume 1403.058280
_symmetry_space_group_name_H-M "P 2/M"
_symmetry_group_IT_number 10
_symmetry_cell_setting 'monoclinic'
loop_
_space_group_symop_operation_xyz
x,y,z
-x,y,-z
-x,-y,-z
x,-y,z
loop_
_atom_site_type_symbol
_atom_site_label
_atom_site_fract_x
_atom_site_fract_y
_atom_site_fract_z
Si Si1 0.026015 0.287792 0.867464
Si Si2 0.379539 0.790011 0.639518
Si Si3 0.145633 0.790607 0.039872
Si Si4 0.921850 0.201010 0.684596
Si Si5 0.268165 0.712976 0.456323
Si Si6 0.675926 0.701619 0.983665
Si Si7 0.384835 0.794921 0.120549
Si Si8 0.434044 0.711485 0.371956
O O1 0.029682 0.500000 0.865396
O O2 0.147539 0.227981 0.661939
O O3 0.929715 0.236721 0.937085
O O4 0.000000 0.223381 0.000000
O O5 0.500000 0.718154 0.500000
O O6 0.372000 0.757359 0.548095
O O7 0.381153 0.000000 0.650012
O O8 0.270997 0.719899 0.843848
O O9 0.084232 0.717581 0.211637
O O10 0.157436 0.000000 0.037665
O O11 0.792161 0.201627 0.837553
O O12 0.000000 0.283318 0.500000
O O13 0.963499 0.000000 0.635732
O O14 0.270178 0.500000 0.452295
O O15 0.292971 0.776552 0.325338
O O16 0.365154 0.772762 0.385790
O O17 0.692076 0.500000 0.988300
O O18 0.648720 0.705594 0.920619
O O19 0.563319 0.776039 0.188224
O O20 0.402705 0.000000 0.075211
O O21 0.500000 0.723510 0.000000
O O22 0.440193 0.500000 0.357355
#
# Coordination Sequence:
#
# PCOD9152386 Si02
#       8
#     4   4   4   4   4   4   4   4
#     4  10  22  40  63  89 121 163 204 246 298 358
#     4  10  21  37  59  85 115 152 194 241 296 358
#     4  10  22  40  61  88 123 160 199 251 308 356
#     4  10  23  43  64  87 120 162 206 254 303 359
#     4  10  21  38  59  85 119 157 197 242 298 355
#     4  11  23  39  62  89 121 157 198 251 306 359
#     4  11  23  38  59  89 122 160 201 245 300 362
#     4  10  21  37  59  87 118 152 190 241 298 356
#
# _framework density 22.807320000000001
#
# number of rings (size 3 to 8) (size 9 to 14) (size 15 to 20)
#    0.000    1.750    1.250    2.250    1.750    6.250 
#    0.000    0.000    0.000    0.000    0.000    0.000 
#    0.000    0.000    0.000    0.000    0.000    0.000 
#
# Total GULP energy -178963.615473 kJ/mol
# GULP energy per Si atom -5592.612984 kJ/mol
# Density = 2.275541 g / cm^3
# Si number density = 22.807320 Si / 1000 Ang^3
#
#
#
# Elastic Constant Matrix: (Units=GPa)
#
#
# Indices 1 2 3 4 5 6 
#
# 1 98.3056 -7.7710 39.6722 0.0000 16.4309 0.0000
# 2 -7.7710 54.1883 2.1066 0.0000 -1.1685 0.0000
# 3 39.6722 2.1066 166.7717 0.0000 20.8910 0.0000
# 4 0.0000 0.0000 0.0000 23.5713 0.0000 -20.4694
# 5 16.4309 -1.1685 20.8910 0.0000 43.6680 0.0000
# 6 0.0000 0.0000 0.0000 -20.4694 0.0000 60.2480
#
#
#
# Elastic Compliance Matrix: (Units=1/GPa)
#
#
# Indices 1 2 3 4 5 6 
#
# 1 0.011831 0.001721 -0.002430 0.000000 -0.003243 0.000000
# 2 0.001721 0.018731 -0.000668 0.000000 0.000173 0.000000
# 3 -0.002430 -0.000668 0.006883 0.000000 -0.002396 0.000000
# 4 0.000000 0.000000 0.000000 0.060180 0.000000 0.020447
# 5 -0.003243 0.000173 -0.002396 0.000000 0.025271 0.000000
# 6 0.000000 0.000000 0.000000 0.020447 0.000000 0.023545
#
#
# Mechanical properties :
#
#
# Convention : Reuss Voigt Hill
#
# Bulk Modulus (GPa) = 28.82527 43.03126 35.92826
# Shear Modulus (GPa) = 31.10264 44.51464 37.80864
#
# Velocity S-wave (km/s) = 3.69685 4.42268 4.07595
# Velocity P-wave (km/s) = 5.55773 6.70734 6.15941
#
# Compressibility (1/GPa) = 0.03469178
#
# Stress axis : x y z
#
# Youngs Moduli (GPa) = 84.52311 53.38836 145.28815
#
# Poissons Ratio (x) = -0.09189 0.35304
# Poissons Ratio (y) = -0.14548 0.09701
# Poissons Ratio (z) = 0.20538 0.03565
#
# Static dielectric constant tensor:
#      x y z
#    x 1.808240 0.000000 0.008330 
#    y 0.000000 1.869990 0.000000 
#    z 0.008330 0.000000 1.849220 
# 
# From -- ./inp_files/71430.got.cif
#   From: 2010.05.17/outbox.cif.g08.bks.cpg/sg10_36_cif.got.tgz:71430.got - 2010.06.03 11:33:40.
