data_PCOD9152491
_publ_section_title
;
Structure prediction by ZEFSAII (Michael W. Deem and Ramdas Pophale) SiO2 
 PCOD9152491
Probable space group: P 2/M
;
_chemical_formula_sum "Si O2"
_cell_formula_units_Z 32
_cell_length_a 11.666268
_cell_length_b 13.753092
_cell_length_c 10.200591
_cell_angle_alpha 90.000000
_cell_angle_beta 90.711682
_cell_angle_gamma 90.000000
_cell_volume 1636.530592
_symmetry_space_group_name_H-M "P 2/M"
_symmetry_group_IT_number 10
_symmetry_cell_setting 'monoclinic'
loop_
_space_group_symop_operation_xyz
x,y,z
-x,y,-z
-x,-y,-z
x,-y,z
loop_
_atom_site_type_symbol
_atom_site_label
_atom_site_fract_x
_atom_site_fract_y
_atom_site_fract_z
Si Si1 0.992860 0.278317 0.143975
Si Si2 0.629182 0.884143 0.002710
Si Si3 0.085337 0.384679 0.387515
Si Si4 0.417683 0.613152 0.691499
Si Si5 0.862374 0.114187 0.492073
Si Si6 0.820743 0.884821 0.796889
Si Si7 0.250681 0.784630 0.759532
Si Si8 0.341746 0.387618 0.386743
O O1 0.865907 0.244645 0.171996
O O2 0.028815 0.356717 0.251146
O O3 0.075554 0.184700 0.158428
O O4 0.000000 0.319763 0.000000
O O5 0.686601 0.859231 0.142691
O O6 0.621371 0.000000 0.990012
O O7 0.500000 0.843289 0.000000
O O8 0.710478 0.853885 0.881741
O O9 0.095498 0.500000 0.407623
O O10 0.214717 0.344053 0.384237
O O11 0.000000 0.348671 0.500000
O O12 0.410991 0.500000 0.737636
O O13 0.331732 0.690106 0.752066
O O14 0.549690 0.650313 0.693794
O O15 0.380470 0.610671 0.538320
O O16 0.812916 0.123998 0.638827
O O17 0.790282 0.173421 0.382304
O O18 0.000000 0.137347 0.500000
O O19 0.856318 0.000000 0.455069
O O20 0.843591 0.000000 0.823446
O O21 0.331065 0.500000 0.343001
#
# Coordination Sequence:
#
# PCOD9152491 Si02
#       8
#     4   4   4   4   4   4   4   4
#     4  12  25  38  57  92 124 159 203 250 302 373
#     4  10  23  45  66  85 119 167 211 251 302 373
#     4  10  22  39  64  91 121 162 202 249 312 369
#     4   9  19  35  57  87 122 159 201 245 294 351
#     4  10  21  37  61  95 127 154 196 258 319 365
#     4  10  22  41  64  87 121 162 200 252 309 367
#     4  12  23  37  62  94 123 161 202 257 303 366
#     4   8  16  35  58  84 115 156 203 243 292 359
#
# _framework density 19.553560999999998
#
# number of rings (size 3 to 8) (size 9 to 14) (size 15 to 20)
#    0.000    1.875    2.500    1.875    3.500    3.500 
#    2.250    0.000    0.000    3.750    0.000    0.000 
#    0.000    0.000    0.000    0.000    0.000    0.000 
#
# Total GULP energy -178460.051561 kJ/mol
# GULP energy per Si atom -5576.876611 kJ/mol
# Density = 1.950906 g / cm^3
# Si number density = 19.553561 Si / 1000 Ang^3
#
#
#
# Elastic Constant Matrix: (Units=GPa)
#
#
# Indices 1 2 3 4 5 6 
#
# 1 164.8118 27.2771 52.1316 0.0000 -19.9901 0.0000
# 2 27.2771 51.1102 4.0527 0.0000 -19.5081 0.0000
# 3 52.1316 4.0527 110.0751 0.0000 -12.5601 0.0000
# 4 0.0000 0.0000 0.0000 13.6899 0.0000 11.2129
# 5 -19.9901 -19.5081 -12.5601 0.0000 30.3231 0.0000
# 6 0.0000 0.0000 0.0000 11.2129 0.0000 13.4796
#
#
#
# Elastic Compliance Matrix: (Units=1/GPa)
#
#
# Indices 1 2 3 4 5 6 
#
# 1 0.007902 -0.003313 -0.003431 0.000000 0.001657 0.000000
# 2 -0.003313 0.027427 0.002439 0.000000 0.016471 0.000000
# 3 -0.003431 0.002439 0.011064 0.000000 0.003889 0.000000
# 4 0.000000 0.000000 0.000000 0.229222 0.000000 -0.190676
# 5 0.001657 0.016471 0.003889 0.000000 0.046278 0.000000
# 6 0.000000 0.000000 0.000000 -0.190676 0.000000 0.232797
#
#
# Mechanical properties :
#
#
# Convention : Reuss Voigt Hill
#
# Bulk Modulus (GPa) = 26.46784 54.76887 40.61836
# Shear Modulus (GPa) = 8.68213 27.66757 18.17485
#
# Velocity S-wave (km/s) = 2.10946 3.76568 3.05206
# Velocity P-wave (km/s) = 4.41572 6.85402 5.76525
#
# Compressibility (1/GPa) = 0.03778170
#
# Stress axis : x y z
#
# Youngs Moduli (GPa) = 126.54741 36.46029 90.38428
#
# Poissons Ratio (x) = 0.12079 0.31015
# Poissons Ratio (y) = 0.41924 -0.22041
# Poissons Ratio (z) = 0.43424 -0.08891
#
# Static dielectric constant tensor:
#      x y z
#    x 1.706930 0.000000 -0.021940 
#    y 0.000000 1.701620 0.000000 
#    z -0.021940 0.000000 1.655810 
# 
# From -- ./inp_files/25327.got.cif
#   From: 2010.05.17/outbox.cif.g08.bks.cpg/sg10_13_cif.got.tgz:25327.got - 2010.06.03 11:33:40.
