data_PCOD9152799
_publ_section_title
;
Structure prediction by ZEFSAII (Michael W. Deem and Ramdas Pophale) SiO2 
 PCOD9152799
Probable space group: P 2/M
;
_chemical_formula_sum "Si O2"
_cell_formula_units_Z 17
_cell_length_a 7.953821
_cell_length_b 9.689901
_cell_length_c 12.018884
_cell_angle_alpha 90.000000
_cell_angle_beta 115.802462
_cell_angle_gamma 90.000000
_cell_volume 833.962610
_symmetry_space_group_name_H-M "P 2/M"
_symmetry_group_IT_number 10
_symmetry_cell_setting 'monoclinic'
loop_
_space_group_symop_operation_xyz
x,y,z
-x,y,-z
-x,-y,-z
x,-y,z
loop_
_atom_site_type_symbol
_atom_site_label
_atom_site_fract_x
_atom_site_fract_y
_atom_site_fract_z
Si Si1 0.440565 0.765561 0.827381
Si Si2 0.500000 0.000000 0.000000
Si Si3 0.033166 0.287284 0.632568
Si Si4 0.039813 0.500000 0.201170
Si Si5 0.692325 0.500000 0.934985
Si Si6 0.183299 0.000000 0.431891
Si Si7 0.535947 0.000000 0.692550
O O1 0.254068 0.713939 0.715693
O O2 0.565525 0.636847 0.899713
O O3 0.381045 0.875902 0.904401
O O4 0.553617 0.866097 0.775971
O O5 0.948025 0.371190 0.711356
O O6 0.000000 0.346209 0.500000
O O7 0.942879 0.135652 0.604574
O O8 0.192788 0.500000 0.148003
O O9 0.840820 0.500000 0.078814
O O10 0.330224 0.000000 0.577019
O O11 0.313080 0.000000 0.360370
#
# Coordination Sequence:
#
# PCOD9152799 Si02
#       7
#     4   1   4   2   2   2   2
#     4  11  22  41  65  94 127 166 215 261 313 374
#     4  10  22  36  64  96 120 160 214 260 306 362
#     4  12  23  40  63  95 129 167 208 265 319 382
#     4  11  26  44  64  90 130 165 216 264 320 377
#     4  11  25  46  65  90 124 174 213 265 314 375
#     4  11  21  39  62  92 129 166 203 252 321 372
#     4  10  21  38  62  92 128 165 205 256 308 384
#
# _framework density 20.384604
#
# number of rings (size 3 to 8) (size 9 to 14) (size 15 to 20)
#    0.000    0.941    2.353    5.647    0.000    1.412 
#    0.000    1.176    0.000    9.882    0.000    0.000 
#    0.000    0.000    0.000    0.000    0.000    0.000 
#
# Total GULP energy -94740.158837 kJ/mol
# GULP energy per Si atom -5572.950520 kJ/mol
# Density = 2.033821 g / cm^3
# Si number density = 20.384604 Si / 1000 Ang^3
#
#
#
# Elastic Constant Matrix: (Units=GPa)
#
#
# Indices 1 2 3 4 5 6 
#
# 1 83.5508 48.6850 29.4881 0.0000 0.1641 0.0000
# 2 48.6850 185.1054 58.4310 0.0000 2.4791 0.0000
# 3 29.4881 58.4310 107.8933 0.0000 6.1881 0.0000
# 4 0.0000 0.0000 0.0000 -304.8011 0.0000 102.2903
# 5 0.1641 2.4791 6.1881 0.0000 35.7194 0.0000
# 6 0.0000 0.0000 0.0000 102.2903 0.0000 -19.4772
#
#
#
# Elastic Compliance Matrix: (Units=1/GPa)
#
#
# Indices 1 2 3 4 5 6 
#
# 1 0.014606 -0.003111 -0.002339 0.000000 0.000554 0.000000
# 2 -0.003111 0.007180 -0.003041 0.000000 0.000043 0.000000
# 3 -0.002339 -0.003041 0.011657 0.000000 -0.001798 0.000000
# 4 0.000000 0.000000 0.000000 0.004303 0.000000 0.022597
# 5 0.000554 0.000043 -0.001798 0.000000 0.028302 0.000000
# 6 0.000000 0.000000 0.000000 0.022597 0.000000 0.067335
#
#
# Mechanical properties :
#
#
# Convention : Reuss Voigt Hill
#
# Bulk Modulus (GPa) = 60.74410 72.19529 66.46970
# Shear Modulus (GPa) = 32.08198 -41.71541 -4.81671
#
# Velocity S-wave (km/s) = 3.97146 -4.52864 -1.53885
# Velocity P-wave (km/s) = 7.13398 2.85459 5.43334
#
# Compressibility (1/GPa) = 0.01646250
#
# Stress axis : x y z
#
# Youngs Moduli (GPa) = 68.46621 139.28242 85.78198
#
# Poissons Ratio (x) = 0.43324 0.20065
# Poissons Ratio (y) = 0.21297 0.26082
# Poissons Ratio (z) = 0.16015 0.42349
#
# Static dielectric constant tensor:
#      x y z
#    x 1.707900 0.000000 -0.032390 
#    y 0.000000 1.708080 0.000000 
#    z -0.032390 0.000000 1.824250 
# 
# From -- ./inp_files/22586.got.cif
#   From: 2010.05.17/outbox.cif.g08.bks.cpg/sg10_12_cif.got.tgz:22586.got - 2010.06.03 11:33:40.
