data_PCOD9152962
_publ_section_title
;
Structure prediction by ZEFSAII (Michael W. Deem and Ramdas Pophale) SiO2 
 PCOD9152962
Probable space group: P 2/M
;
_chemical_formula_sum "Si O2"
_cell_formula_units_Z 30
_cell_length_a 26.073601
_cell_length_b 10.994731
_cell_length_c 25.907927
_cell_angle_alpha 90.000000
_cell_angle_beta 10.963250
_cell_angle_gamma 90.000000
_cell_volume 1412.477720
_symmetry_space_group_name_H-M "P 2/M"
_symmetry_group_IT_number 10
_symmetry_cell_setting 'monoclinic'
loop_
_space_group_symop_operation_xyz
x,y,z
-x,y,-z
-x,-y,-z
x,-y,z
loop_
_atom_site_type_symbol
_atom_site_label
_atom_site_fract_x
_atom_site_fract_y
_atom_site_fract_z
Si Si1 0.409192 0.634725 0.791642
Si Si2 0.188913 0.866591 0.597045
Si Si3 0.588450 0.364490 0.765674
Si Si4 0.128988 0.215193 0.990832
Si Si5 0.738896 0.000000 0.722746
Si Si6 0.738310 0.265474 0.723317
Si Si7 0.094922 0.720366 0.200360
Si Si8 0.624143 0.858513 0.432565
O O1 0.532614 0.500000 0.668622
O O2 0.612911 0.749843 0.594656
O O3 0.235008 0.661212 0.912392
O O4 0.214555 0.646580 0.033423
O O5 0.013145 0.843389 0.719328
O O6 0.993640 0.858553 0.839517
O O7 0.319630 0.000000 0.466811
O O8 0.480610 0.500000 0.863479
O O9 0.690751 0.353988 0.722982
O O10 0.840655 0.339982 0.479367
O O11 0.343769 0.273521 0.994110
O O12 0.881201 0.219854 0.195868
O O13 0.385301 0.154958 0.710149
O O14 0.740162 0.130836 0.695027
O O15 0.000000 0.000000 0.500000
O O16 0.500000 0.000000 0.000000
O O17 0.000000 0.284719 0.500000
O O18 0.500000 0.271635 0.000000
O O19 0.500000 0.824866 0.500000
O O20 0.711680 0.000000 0.343611
#
# Coordination Sequence:
#
# PCOD9152962 Si02
#       8
#     4   4   4   4   2   4   4   4
#     4  11  24  43  71  98 130 178 228 270 321 400
#     4  11  24  43  70 101 137 171 217 278 334 385
#     4  12  24  41  65  93 128 170 212 263 322 386
#     4  11  23  40  63 100 132 174 217 274 333 389
#     4   8  16  34  58  80 110 152 196 250 300 366
#     4  10  21  39  62  89 120 157 210 260 317 375
#     4  11  25  44  62  95 130 173 211 264 324 396
#     4  11  22  38  63  97 136 175 221 275 334 395
#
# _framework density 21.239272
#
# number of rings (size 3 to 8) (size 9 to 14) (size 15 to 20)
#    0.000    1.200    2.667    3.600    0.000    6.933 
#    2.400    0.000    0.000    2.400    0.000    0.000 
#    0.000    0.000    0.000    0.000    0.000    0.000 
#
# Total GULP energy -167511.127311 kJ/mol
# GULP energy per Si atom -5583.704244 kJ/mol
# Density = 2.119093 g / cm^3
# Si number density = 21.239272 Si / 1000 Ang^3
#
#
#
# Elastic Constant Matrix: (Units=GPa)
#
#
# Indices 1 2 3 4 5 6 
#
# 1 106.2400 34.6966 22.5291 0.0000 -22.4734 0.0000
# 2 34.6966 115.3760 33.1816 0.0000 -5.8724 0.0000
# 3 22.5291 33.1816 109.0950 0.0000 -22.6630 0.0000
# 4 0.0000 0.0000 0.0000 20.9690 0.0000 -9.5453
# 5 -22.4734 -5.8724 -22.6630 0.0000 36.6615 0.0000
# 6 0.0000 0.0000 0.0000 -9.5453 0.0000 16.5010
#
#
#
# Elastic Compliance Matrix: (Units=1/GPa)
#
#
# Indices 1 2 3 4 5 6 
#
# 1 0.011903 -0.003213 -0.000083 0.000000 0.006731 0.000000
# 2 -0.003213 0.010369 -0.002931 0.000000 -0.002121 0.000000
# 3 -0.000083 -0.002931 0.011435 0.000000 0.006549 0.000000
# 4 0.000000 0.000000 0.000000 0.064736 0.000000 0.037448
# 5 0.006731 -0.002121 0.006549 0.000000 0.035111 0.000000
# 6 0.000000 0.000000 0.000000 0.037448 0.000000 0.082264
#
#
# Mechanical properties :
#
#
# Convention : Reuss Voigt Hill
#
# Bulk Modulus (GPa) = 47.04942 56.83617 51.94279
# Shear Modulus (GPa) = 21.24438 30.84655 26.04546
#
# Velocity S-wave (km/s) = 3.16609 3.81509 3.50564
# Velocity P-wave (km/s) = 5.96370 6.79886 6.39493
#
# Compressibility (1/GPa) = 0.02125425
#
# Stress axis : x y z
#
# Youngs Moduli (GPa) = 84.00932 96.44564 87.44982
#
# Poissons Ratio (x) = 0.30991 0.00722
# Poissons Ratio (y) = 0.26995 0.25628
# Poissons Ratio (z) = 0.00693 0.28264
#
# Static dielectric constant tensor:
#      x y z
#    x 1.769220 0.000000 -0.038260 
#    y 0.000000 1.830460 0.000000 
#    z -0.038260 0.000000 1.772180 
# 
# From -- ./inp_files/94059.got.cif
#   From: 2010.05.17/outbox.cif.g08.bks.cpg/sg10_48_cif.got.tgz:94059.got - 2010.06.03 11:33:40.
