data_PCOD9152735
_publ_section_title
;
Structure prediction by ZEFSAII (Michael W. Deem and Ramdas Pophale) SiO2 
 PCOD9152735
Probable space group: P 2/M
;
_chemical_formula_sum "Si O2"
_cell_formula_units_Z 24
_cell_length_a 17.482603
_cell_length_b 7.903285
_cell_length_c 13.993393
_cell_angle_alpha 90.000000
_cell_angle_beta 143.735221
_cell_angle_gamma 90.000000
_cell_volume 1143.679862
_symmetry_space_group_name_H-M "P 2/M"
_symmetry_group_IT_number 10
_symmetry_cell_setting 'monoclinic'
loop_
_space_group_symop_operation_xyz
x,y,z
-x,y,-z
-x,-y,-z
x,-y,z
loop_
_atom_site_type_symbol
_atom_site_label
_atom_site_fract_x
_atom_site_fract_y
_atom_site_fract_z
Si Si1 0.719947 0.698440 0.627616
Si Si2 0.745326 0.799646 0.870401
Si Si3 0.901258 0.707270 0.482873
Si Si4 0.974631 0.704834 0.770960
Si Si5 0.610286 0.698085 0.179411
Si Si6 0.501428 0.196206 0.269189
O O1 0.706330 0.500000 0.590792
O O2 0.725509 0.720391 0.746422
O O3 0.599838 0.789272 0.456891
O O4 0.854370 0.759035 0.715917
O O5 0.636970 0.735808 0.835429
O O6 0.723930 0.000000 0.838328
O O7 0.889048 0.768038 0.052798
O O8 0.899034 0.500000 0.481344
O O9 0.755124 0.768850 0.317576
O O10 0.000000 0.760488 0.500000
O O11 0.947388 0.759038 0.634824
O O12 0.978618 0.500000 0.777345
O O13 0.622057 0.500000 0.165336
O O14 0.562841 0.711661 0.240458
O O15 0.500000 0.773663 0.000000
O O16 0.487361 0.000000 0.227624
#
# Coordination Sequence:
#
# PCOD9152735 Si02
#       6
#     4   4   4   4   4   4
#     4  11  22  40  64  90 118 152 202 253 299 351
#     4  11  25  40  57  87 123 160 203 242 291 359
#     4   9  18  35  59  89 120 149 187 243 300 347
#     4  10  21  38  61  89 121 154 196 248 299 351
#     4  10  21  38  63  92 118 151 199 247 294 351
#     4  11  24  41  60  85 124 164 197 242 298 354
#
# _framework density 20.984893
#
# number of rings (size 3 to 8) (size 9 to 14) (size 15 to 20)
#    0.000    1.667    1.667    2.500    2.333    8.333 
#    0.000    0.000    0.000    1.000    0.000    0.000 
#    0.000    0.000    0.000    0.000    0.000    0.000 
#
# Total GULP energy -134162.732610 kJ/mol
# GULP energy per Si atom -5590.113859 kJ/mol
# Density = 2.093713 g / cm^3
# Si number density = 20.984893 Si / 1000 Ang^3
#
#
#
# Elastic Constant Matrix: (Units=GPa)
#
#
# Indices 1 2 3 4 5 6 
#
# 1 88.2536 -0.6085 6.6801 0.0000 7.6988 0.0000
# 2 -0.6085 20.6972 -3.8815 0.0000 3.8490 0.0000
# 3 6.6801 -3.8815 80.2360 0.0000 -6.3576 0.0000
# 4 0.0000 0.0000 0.0000 22.3630 0.0000 12.8957
# 5 7.6988 3.8490 -6.3576 0.0000 34.5243 0.0000
# 6 0.0000 0.0000 0.0000 12.8957 0.0000 -22.2068
#
#
#
# Elastic Compliance Matrix: (Units=1/GPa)
#
#
# Indices 1 2 3 4 5 6 
#
# 1 0.011676 0.000662 -0.001169 0.000000 -0.002893 0.000000
# 2 0.000662 0.049688 0.001926 0.000000 -0.005333 0.000000
# 3 -0.001169 0.001926 0.012845 0.000000 0.002411 0.000000
# 4 0.000000 0.000000 0.000000 0.033499 0.000000 0.019453
# 5 -0.002893 -0.005333 0.002411 0.000000 0.030649 0.000000
# 6 0.000000 0.000000 0.000000 0.019453 0.000000 -0.033735
#
#
# Mechanical properties :
#
#
# Convention : Reuss Voigt Hill
#
# Bulk Modulus (GPa) = 12.97914 21.50745 17.24330
# Shear Modulus (GPa) = 39.22577 19.40255 29.31416
#
# Velocity S-wave (km/s) = 4.32816 3.04402 3.74159
# Velocity P-wave (km/s) = 5.58352 4.75668 5.18660
#
# Compressibility (1/GPa) = 0.07704672
#
# Stress axis : x y z
#
# Youngs Moduli (GPa) = 85.64270 20.12557 77.85235
#
# Poissons Ratio (x) = -0.01332 0.09104
# Poissons Ratio (y) = -0.05670 -0.14995
# Poissons Ratio (z) = 0.10014 -0.03876
#
# Static dielectric constant tensor:
#      x y z
#    x 1.721100 0.000000 0.019240 
#    y 0.000000 1.771060 0.000000 
#    z 0.019240 0.000000 1.717850 
# 
# From -- ./inp_files/68798.got.cif
#   From: 2010.05.17/outbox.cif.g08.bks.cpg/sg10_35_cif.got.tgz:68798.got - 2010.06.03 11:33:40.
