data_PCOD9152912
_publ_section_title
;
Structure prediction by ZEFSAII (Michael W. Deem and Ramdas Pophale) SiO2 
 PCOD9152912
Probable space group: P 2/M
;
_chemical_formula_sum "Si O2"
_cell_formula_units_Z 28
_cell_length_a 9.015062
_cell_length_b 22.584114
_cell_length_c 13.598901
_cell_angle_alpha 90.000000
_cell_angle_beta 32.962992
_cell_angle_gamma 90.000000
_cell_volume 1506.440871
_symmetry_space_group_name_H-M "P 2/M"
_symmetry_group_IT_number 10
_symmetry_cell_setting 'monoclinic'
loop_
_space_group_symop_operation_xyz
x,y,z
-x,y,-z
-x,-y,-z
x,-y,z
loop_
_atom_site_type_symbol
_atom_site_label
_atom_site_fract_x
_atom_site_fract_y
_atom_site_fract_z
Si Si1 0.830086 0.339217 0.994336
Si Si2 0.211209 0.755527 0.144354
Si Si3 0.861960 0.069672 0.969129
Si Si4 0.788054 0.854965 0.382972
Si Si5 0.787673 0.654708 0.693817
Si Si6 0.695362 0.068735 0.627224
Si Si7 0.168234 0.432264 0.175328
O O1 0.839487 0.275417 0.933332
O O2 0.919536 0.389842 0.865797
O O3 0.509050 0.352815 0.188494
O O4 0.000000 0.339808 0.000000
O O5 0.240938 0.700349 0.201253
O O6 0.969255 0.798427 0.307534
O O7 0.500000 0.788044 0.000000
O O8 0.545201 0.087518 0.163749
O O9 0.870595 0.000000 0.936186
O O10 0.000000 0.075675 0.000000
O O11 0.031020 0.107335 0.795843
O O12 0.500000 0.835206 0.500000
O O13 0.707350 0.893918 0.521649
O O14 0.912282 0.596148 0.675408
O O15 0.000000 0.679972 0.500000
O O16 0.000000 0.071582 0.500000
O O17 0.631702 0.000000 0.639073
O O18 0.085126 0.500000 0.208154
O O19 0.500000 0.429959 0.000000
#
# Coordination Sequence:
#
# PCOD9152912 Si02
#       7
#     4   4   4   4   4   4   4
#     4   9  18  35  56  78 106 146 184 225 276 324
#     4   9  22  40  53  74 109 145 185 229 275 331
#     4  10  21  39  61  85 116 148 181 229 285 343
#     4  12  24  38  60  87 112 146 189 234 286 337
#     4   9  18  35  56  77 106 146 186 222 273 329
#     4  10  23  41  60  87 117 146 186 230 280 345
#     4   8  15  30  53  80 112 146 182 221 265 327
#
# _framework density 18.586856000000001
#
# number of rings (size 3 to 8) (size 9 to 14) (size 15 to 20)
#    0.000    2.429    1.429    2.143    2.000    3.429 
#    2.571    4.286    0.000    0.857    0.000    0.000 
#    0.000    0.000    0.000    0.000    0.000    0.000 
#
# Total GULP energy -156018.390435 kJ/mol
# GULP energy per Si atom -5572.085373 kJ/mol
# Density = 1.854455 g / cm^3
# Si number density = 18.586856 Si / 1000 Ang^3
#
#
#
# Elastic Constant Matrix: (Units=GPa)
#
#
# Indices 1 2 3 4 5 6 
#
# 1 102.5884 21.2922 26.3424 0.0000 -13.9163 0.0000
# 2 21.2922 43.8128 21.1886 0.0000 -12.2950 0.0000
# 3 26.3424 21.1886 96.0849 0.0000 -9.0703 0.0000
# 4 0.0000 0.0000 0.0000 -34.9465 0.0000 -24.8269
# 5 -13.9163 -12.2950 -9.0703 0.0000 25.8861 0.0000
# 6 0.0000 0.0000 0.0000 -24.8269 0.0000 2.3056
#
#
#
# Elastic Compliance Matrix: (Units=1/GPa)
#
#
# Indices 1 2 3 4 5 6 
#
# 1 0.011519 -0.003558 -0.002015 0.000000 0.003796 0.000000
# 2 -0.003558 0.029747 -0.004583 0.000000 0.010610 0.000000
# 3 -0.002015 -0.004583 0.012062 0.000000 0.000966 0.000000
# 4 0.000000 0.000000 0.000000 -0.003308 0.000000 -0.035622
# 5 0.003796 0.010610 0.000966 0.000000 0.046050 0.000000
# 6 0.000000 0.000000 0.000000 -0.035622 0.000000 0.050142
#
#
# Mechanical properties :
#
#
# Convention : Reuss Voigt Hill
#
# Bulk Modulus (GPa) = 30.28823 42.23695 36.26259
# Shear Modulus (GPa) = 28.16453 10.22657 19.19555
#
# Velocity S-wave (km/s) = 3.89690 2.34819 3.21713
# Velocity P-wave (km/s) = 6.04803 5.48866 5.77512
#
# Compressibility (1/GPa) = 0.03301613
#
# Stress axis : x y z
#
# Youngs Moduli (GPa) = 86.81671 33.61645 82.90707
#
# Poissons Ratio (x) = 0.11961 0.16705
# Poissons Ratio (y) = 0.30889 0.37995
# Poissons Ratio (z) = 0.17493 0.15406
#
# Static dielectric constant tensor:
#      x y z
#    x 1.658280 0.000000 -0.004020 
#    y 0.000000 1.651040 0.000000 
#    z -0.004020 0.000000 1.682650 
# 
# From -- ./inp_files/62559.got.cif
#   From: 2010.05.17/outbox.cif.g08.bks.cpg/sg10_32_cif.got.tgz:62559.got - 2010.06.03 11:33:40.
