data_PCOD9152281
_publ_section_title
;
Structure prediction by ZEFSAII (Michael W. Deem and Ramdas Pophale) SiO2 
 PCOD9152281
Probable space group: P 2/M
;
_chemical_formula_sum "Si O2"
_cell_formula_units_Z 28
_cell_length_a 26.066203
_cell_length_b 7.567828
_cell_length_c 9.733618
_cell_angle_alpha 90.000000
_cell_angle_beta 36.627152
_cell_angle_gamma 90.000000
_cell_volume 1145.540373
_symmetry_space_group_name_H-M "P 2/M"
_symmetry_group_IT_number 10
_symmetry_cell_setting 'monoclinic'
loop_
_space_group_symop_operation_xyz
x,y,z
-x,y,-z
-x,-y,-z
x,-y,z
loop_
_atom_site_type_symbol
_atom_site_label
_atom_site_fract_x
_atom_site_fract_y
_atom_site_fract_z
Si Si1 0.213157 0.783077 0.042339
Si Si2 0.413592 0.716329 0.265411
Si Si3 0.753796 0.290333 0.538571
Si Si4 0.878140 0.211835 0.037391
Si Si5 0.333955 0.795706 0.007771
Si Si6 0.515969 0.298536 0.613732
Si Si7 0.952680 0.799935 0.453647
O O1 0.300278 0.729544 0.932295
O O2 0.137265 0.718425 0.307690
O O3 0.212203 0.000000 0.045164
O O4 0.186879 0.726047 0.945158
O O5 0.412985 0.500000 0.270550
O O6 0.327191 0.776665 0.377555
O O7 0.423540 0.781121 0.400557
O O8 0.500000 0.769683 0.000000
O O9 0.746746 0.500000 0.564617
O O10 0.838783 0.249332 0.269815
O O11 0.740729 0.217353 0.718480
O O12 0.883982 0.000000 0.008224
O O13 0.974431 0.281339 0.800653
O O14 0.356795 0.000000 0.946489
O O15 0.418236 0.698281 0.881892
O O16 0.500000 0.213400 0.500000
O O17 0.543907 0.500000 0.530871
O O18 0.000000 0.813252 0.500000
O O19 0.934610 0.000000 0.443031
#
# Coordination Sequence:
#
# PCOD9152281 Si02
#       7
#     4   4   4   4   4   4   4
#     4   8  16  31  53  80 108 136 168 212 262 310
#     4   9  17  34  55  72  94 132 177 212 244 296
#     4  11  22  36  54  75 105 141 177 213 255 309
#     4   9  17  32  56  83 105 129 171 220 260 303
#     4  11  22  36  53  77 110 140 170 213 263 306
#     4  10  21  37  57  77 101 134 174 214 255 309
#     4   7  11  25  51  78 102 132 169 208 253 306
#
# _framework density 24.442613999999999
#
# number of rings (size 3 to 8) (size 9 to 14) (size 15 to 20)
#    0.000    2.714    1.429    2.571    2.000    0.286 
#    0.000    3.571    0.000    9.857    0.000    0.000 
#    0.000    0.000    0.000    0.000    0.000    0.000 
#
# Total GULP energy -156314.962015 kJ/mol
# GULP energy per Si atom -5582.677215 kJ/mol
# Density = 2.438698 g / cm^3
# Si number density = 24.442614 Si / 1000 Ang^3
#
#
#
# Elastic Constant Matrix: (Units=GPa)
#
#
# Indices 1 2 3 4 5 6 
#
# 1 57.8814 4.4469 -15.2107 0.0000 13.9414 0.0000
# 2 4.4469 73.5052 4.5767 0.0000 -1.8250 0.0000
# 3 -15.2107 4.5767 106.1432 0.0000 18.4805 0.0000
# 4 0.0000 0.0000 0.0000 43.0597 0.0000 -15.1314
# 5 13.9414 -1.8250 18.4805 0.0000 33.5104 0.0000
# 6 0.0000 0.0000 0.0000 -15.1314 0.0000 9.5285
#
#
#
# Elastic Compliance Matrix: (Units=1/GPa)
#
#
# Indices 1 2 3 4 5 6 
#
# 1 0.021724 -0.001944 0.005298 0.000000 -0.012065 0.000000
# 2 -0.001944 0.013857 -0.001270 0.000000 0.002264 0.000000
# 3 0.005298 -0.001270 0.011760 0.000000 -0.008759 0.000000
# 4 0.000000 0.000000 0.000000 0.052547 0.000000 0.083446
# 5 -0.012065 0.002264 -0.008759 0.000000 0.039815 0.000000
# 6 0.000000 0.000000 0.000000 0.083446 0.000000 0.237462
#
#
# Mechanical properties :
#
#
# Convention : Reuss Voigt Hill
#
# Bulk Modulus (GPa) = 19.41391 25.01730 22.21561
# Shear Modulus (GPa) = 12.81500 33.46752 23.14126
#
# Velocity S-wave (km/s) = 2.29222 3.70432 3.08028
# Velocity P-wave (km/s) = 3.86854 5.34353 4.66470
#
# Compressibility (1/GPa) = 0.05150945
#
# Stress axis : x y z
#
# Youngs Moduli (GPa) = 46.03135 72.16387 85.03292
#
# Poissons Ratio (x) = 0.14026 -0.45048
# Poissons Ratio (y) = 0.08947 0.10801
# Poissons Ratio (z) = -0.24386 0.09166
#
# Static dielectric constant tensor:
#      x y z
#    x 1.925250 0.000000 -0.017230 
#    y 0.000000 1.911160 0.000000 
#    z -0.017230 0.000000 2.039100 
# 
# From -- ./inp_files/37008.got.cif
#   From: 2010.05.17/outbox.cif.g08.bks.cpg/sg10_19_cif.got.tgz:37008.got - 2010.06.03 11:33:40.
