data_PCOD9152923
_publ_section_title
;
Structure prediction by ZEFSAII (Michael W. Deem and Ramdas Pophale) SiO2 
 PCOD9152923
Probable space group: P 2/M
;
_chemical_formula_sum "Si O2"
_cell_formula_units_Z 32
_cell_length_a 10.045018
_cell_length_b 7.840365
_cell_length_c 21.049892
_cell_angle_alpha 90.000000
_cell_angle_beta 123.815240
_cell_angle_gamma 90.000000
_cell_volume 1377.375727
_symmetry_space_group_name_H-M "P 2/M"
_symmetry_group_IT_number 10
_symmetry_cell_setting 'monoclinic'
loop_
_space_group_symop_operation_xyz
x,y,z
-x,y,-z
-x,-y,-z
x,-y,z
loop_
_atom_site_type_symbol
_atom_site_label
_atom_site_fract_x
_atom_site_fract_y
_atom_site_fract_z
Si Si1 0.423690 0.801522 0.916889
Si Si2 0.743720 0.293049 0.946920
Si Si3 0.803219 0.206083 0.244427
Si Si4 0.973829 0.704365 0.891702
Si Si5 0.414368 0.200642 0.699281
Si Si6 0.180305 0.293247 0.525137
Si Si7 0.162016 0.298826 0.378383
Si Si8 0.733639 0.798436 0.726768
O O1 0.569841 0.788378 0.905566
O O2 0.267711 0.727534 0.841126
O O3 0.390790 0.000000 0.922600
O O4 0.500000 0.718726 0.000000
O O5 0.729494 0.500000 0.943226
O O6 0.845287 0.242686 0.911867
O O7 0.853063 0.238342 0.036580
O O8 0.688114 0.273788 0.269893
O O9 0.983932 0.245546 0.310424
O O10 0.791085 0.000000 0.238930
O O11 0.978813 0.500000 0.893973
O O12 0.901820 0.759418 0.805690
O O13 0.307267 0.219187 0.607893
O O14 0.588249 0.276950 0.729761
O O15 0.435460 0.000000 0.718835
O O16 0.194625 0.500000 0.531335
O O17 0.203508 0.229585 0.459100
O O18 0.000000 0.250677 0.500000
O O19 0.160202 0.500000 0.385589
O O20 0.272264 0.257994 0.347619
O O21 0.716280 0.000000 0.721609
#
# Coordination Sequence:
#
# PCOD9152923 Si02
#       8
#     4   4   4   4   4   4   4   4
#     4  10  22  37  54  81 119 156 197 248 297 345
#     4   9  19  36  57  82 112 149 195 246 296 350
#     4  10  21  39  61  87 120 158 202 249 299 357
#     4   9  19  37  59  83 114 151 194 243 295 351
#     4  10  22  39  63  91 120 158 200 245 297 356
#     4  10  21  40  64  91 121 154 199 247 294 354
#     4  11  24  41  62  90 122 158 198 245 301 358
#     4  11  24  40  59  89 125 159 197 243 295 355
#
# _framework density 23.232586000000001
#
# number of rings (size 3 to 8) (size 9 to 14) (size 15 to 20)
#    0.000    2.000    1.250    2.250    1.750    5.500 
#    0.000    3.750    0.000    0.000    0.000    0.000 
#    0.000    0.000    0.000    0.000    0.000    0.000 
#
# Total GULP energy -178865.839075 kJ/mol
# GULP energy per Si atom -5589.557471 kJ/mol
# Density = 2.317971 g / cm^3
# Si number density = 23.232586 Si / 1000 Ang^3
#
#
#
# Elastic Constant Matrix: (Units=GPa)
#
#
# Indices 1 2 3 4 5 6 
#
# 1 53.1943 -3.7191 -3.2250 0.0000 -0.7631 0.0000
# 2 -3.7191 33.2062 -7.9099 0.0000 -3.8028 0.0000
# 3 -3.2250 -7.9099 121.0781 0.0000 -17.0609 0.0000
# 4 0.0000 0.0000 0.0000 9.1707 0.0000 -2.5355
# 5 -0.7631 -3.8028 -17.0609 0.0000 37.8667 0.0000
# 6 0.0000 0.0000 0.0000 -2.5355 0.0000 22.9242
#
#
#
# Elastic Compliance Matrix: (Units=1/GPa)
#
#
# Indices 1 2 3 4 5 6 
#
# 1 0.019032 0.002437 0.000806 0.000000 0.000991 0.000000
# 2 0.002437 0.031555 0.002755 0.000000 0.004459 0.000000
# 3 0.000806 0.002755 0.009078 0.000000 0.004383 0.000000
# 4 0.000000 0.000000 0.000000 0.112482 0.000000 0.012441
# 5 0.000991 0.004459 0.004383 0.000000 0.028851 0.000000
# 6 0.000000 0.000000 0.000000 0.012441 0.000000 0.044998
#
#
# Mechanical properties :
#
#
# Convention : Reuss Voigt Hill
#
# Bulk Modulus (GPa) = 13.95468 19.75230 16.85349
# Shear Modulus (GPa) = 19.38822 28.81449 24.10136
#
# Velocity S-wave (km/s) = 2.89195 3.52556 3.22436
# Velocity P-wave (km/s) = 4.14376 5.00931 4.59695
#
# Compressibility (1/GPa) = 0.07166053
#
# Stress axis : x y z
#
# Youngs Moduli (GPa) = 52.54183 31.69105 110.15433
#
# Poissons Ratio (x) = -0.07723 -0.08877
# Poissons Ratio (y) = -0.12805 -0.30344
# Poissons Ratio (z) = -0.04234 -0.08730
#
# Static dielectric constant tensor:
#      x y z
#    x 1.909100 0.000000 -0.028390 
#    y 0.000000 1.825070 0.000000 
#    z -0.028390 0.000000 1.895030 
# 
# From -- ./inp_files/83637.got.cif
#   From: 2010.05.17/outbox.cif.g08.bks.cpg/sg10_42_cif.got.tgz:83637.got - 2010.06.03 11:33:40.
