data_PCOD9152612
_publ_section_title
;
Structure prediction by ZEFSAII (Michael W. Deem and Ramdas Pophale) SiO2 
 PCOD9152612
Probable space group: P 2/M
;
_chemical_formula_sum "Si O2"
_cell_formula_units_Z 26
_cell_length_a 31.541337
_cell_length_b 7.225769
_cell_length_c 31.540453
_cell_angle_alpha 90.000000
_cell_angle_beta 170.325881
_cell_angle_gamma 90.000000
_cell_volume 1207.967911
_symmetry_space_group_name_H-M "P 2/M"
_symmetry_group_IT_number 10
_symmetry_cell_setting 'monoclinic'
loop_
_space_group_symop_operation_xyz
x,y,z
-x,y,-z
-x,-y,-z
x,-y,z
loop_
_atom_site_type_symbol
_atom_site_label
_atom_site_fract_x
_atom_site_fract_y
_atom_site_fract_z
Si Si1 0.178927 0.724116 0.335189
Si Si2 0.041082 0.725463 0.492096
Si Si3 0.893186 0.725561 0.639171
Si Si4 0.735777 0.000000 0.764192
Si Si5 0.418020 0.274648 0.114447
Si Si6 0.704340 0.722930 0.809249
Si Si7 0.565758 0.725454 0.967293
O O1 0.178576 0.500000 0.335979
O O2 0.145793 0.785897 0.350892
O O3 0.445260 0.777636 0.577329
O O4 0.943526 0.777483 0.073832
O O5 0.041456 0.500000 0.492612
O O6 0.000000 0.783833 0.500000
O O7 0.308995 0.783383 0.737219
O O8 0.810943 0.783392 0.235267
O O9 0.893263 0.500000 0.639511
O O10 0.662556 0.783352 0.381952
O O11 0.160743 0.783171 0.883722
O O12 0.500000 0.000000 0.500000
O O13 0.720675 0.823761 0.780494
O O14 0.000000 0.000000 0.000000
O O15 0.418693 0.500000 0.114943
O O16 0.426609 0.216067 0.074053
O O17 0.705897 0.500000 0.806064
O O18 0.566326 0.500000 0.967721
#
# Coordination Sequence:
#
# PCOD9152612 Si02
#       7
#     4   4   4   2   4   4   4
#     4   9  17  31  52  76 102 134 170 208 252 306
#     4   9  15  21  27  33  43  67 110 163 217 279
#     4   9  15  23  37  58  82 108 140 176 220 284
#     4  12  26  42  62  88 116 148 186 226 270 320
#     4   9  15  21  30  47  72  99 127 167 223 290
#     4  10  21  38  59  83 112 145 181 222 267 315
#     4   9  15  21  27  36  53  78 110 155 217 283
#
# _framework density 21.523752000000002
#
# number of rings (size 3 to 8) (size 9 to 14) (size 15 to 20)
#    0.000    2.615    0.000    3.231    0.000    9.846 
#    0.000    0.000    0.000    0.000    0.000    0.000 
#    0.000    0.000    0.000    0.000    0.000    0.000 
#
# Total GULP energy -145416.475043 kJ/mol
# GULP energy per Si atom -5592.941348 kJ/mol
# Density = 2.147476 g / cm^3
# Si number density = 21.523752 Si / 1000 Ang^3
#
#
#
# Elastic Constant Matrix: (Units=GPa)
#
#
# Indices 1 2 3 4 5 6 
#
# 1 25.5525 -4.8714 -74.0464 0.0000 3.2869 0.0000
# 2 -4.8714 102.2648 -13.5298 0.0000 -0.3813 0.0000
# 3 -74.0464 -13.5298 22.2694 0.0000 2.5634 0.0000
# 4 0.0000 0.0000 0.0000 -18.8199 0.0000 7.4805
# 5 3.2869 -0.3813 2.5634 0.0000 51.4844 0.0000
# 6 0.0000 0.0000 0.0000 7.4805 0.0000 -92.0029
#
#
#
# Elastic Compliance Matrix: (Units=1/GPa)
#
#
# Indices 1 2 3 4 5 6 
#
# 1 -0.003998 -0.002132 -0.014701 0.000000 0.000971 0.000000
# 2 -0.002132 0.009500 -0.001349 0.000000 0.000274 0.000000
# 3 -0.014701 -0.001349 -0.004932 0.000000 0.001174 0.000000
# 4 0.000000 0.000000 0.000000 -0.054910 0.000000 -0.004465
# 5 0.000971 0.000274 0.001174 0.000000 0.019305 0.000000
# 6 0.000000 0.000000 0.000000 -0.004465 0.000000 -0.011232
#
#
# Mechanical properties :
#
#
# Convention : Reuss Voigt Hill
#
# Bulk Modulus (GPa) = -27.93708 -3.86760 -15.90234
# Shear Modulus (GPa) = -228.97719 4.30128 -112.33796
#
# Velocity S-wave (km/s) = -10.32543 1.41518 -7.23228
# Velocity P-wave (km/s) = 12.45634 0.93247 8.78325
#
# Compressibility (1/GPa) = -0.03579472
#
# Stress axis : x y z
#
# Youngs Moduli (GPa) = -250.10746 105.26767 -202.73889
#
# Poissons Ratio (x) = 0.22442 -2.98055
# Poissons Ratio (y) = -0.53319 -0.27339
# Poissons Ratio (z) = -3.67694 0.14195
#
# Static dielectric constant tensor:
#      x y z
#    x 1.704990 0.000000 0.001360 
#    y 0.000000 1.708580 0.000000 
#    z 0.001360 0.000000 1.715390 
# 
# From -- ./inp_files/91561.got.cif
#   From: 2010.05.17/outbox.cif.g08.bks.cpg/sg10_46_cif.got.tgz:91561.got - 2010.06.03 11:33:40.
