data_PCOD9152127
_publ_section_title
;
Structure prediction by ZEFSAII (Michael W. Deem and Ramdas Pophale) SiO2 
 PCOD9152127
Probable space group: P 2/M
;
_chemical_formula_sum "Si O2"
_cell_formula_units_Z 24
_cell_length_a 21.138911
_cell_length_b 9.250537
_cell_length_c 10.960057
_cell_angle_alpha 90.000000
_cell_angle_beta 33.462520
_cell_angle_gamma 90.000000
_cell_volume 1181.741102
_symmetry_space_group_name_H-M "P 2/M"
_symmetry_group_IT_number 10
_symmetry_cell_setting 'monoclinic'
loop_
_space_group_symop_operation_xyz
x,y,z
-x,y,-z
-x,-y,-z
x,-y,z
loop_
_atom_site_type_symbol
_atom_site_label
_atom_site_fract_x
_atom_site_fract_y
_atom_site_fract_z
Si Si1 0.029838 0.166413 0.139861
Si Si2 0.152583 0.667846 0.428773
Si Si3 0.368441 0.330152 0.237221
Si Si4 0.635602 0.331395 0.298931
Si Si5 0.255882 0.826794 0.645079
Si Si6 0.815861 0.167348 0.862140
O O1 0.103915 0.171727 0.146900
O O2 0.924521 0.270573 0.337038
O O3 0.991774 0.000000 0.182861
O O4 0.121198 0.206105 0.887938
O O5 0.126003 0.500000 0.450809
O O6 0.285562 0.681650 0.253639
O O7 0.130965 0.760312 0.342670
O O8 0.367757 0.500000 0.275564
O O9 0.309792 0.235041 0.435820
O O10 0.500000 0.289276 0.000000
O O11 0.500000 0.322108 0.500000
O O12 0.668590 0.500000 0.254615
O O13 0.674807 0.247133 0.356309
O O14 0.703190 0.256903 0.079659
O O15 0.265860 0.000000 0.635821
O O16 0.790263 0.000000 0.878659
#
# Coordination Sequence:
#
# PCOD9152127 Si02
#       6
#     4   4   4   4   4   4
#     4   9  20  39  60  86 121 155 188 239 304 355
#     4  11  23  37  59  89 118 156 203 245 292 351
#     4  10  24  44  61  81 117 160 199 244 297 351
#     4  10  21  36  58  86 118 157 195 237 293 350
#     4  10  22  40  62  88 117 151 197 247 293 347
#     4  10  21  37  58  87 123 157 192 241 296 350
#
# _framework density 20.309017000000001
#
# number of rings (size 3 to 8) (size 9 to 14) (size 15 to 20)
#    0.000    2.000    0.000    3.500    2.333    9.667 
#    0.000    3.333    0.000    0.000    0.000    0.000 
#    0.000    0.000    0.000    0.000    0.000    0.000 
#
# Total GULP energy -134121.760156 kJ/mol
# GULP energy per Si atom -5588.406673 kJ/mol
# Density = 2.026279 g / cm^3
# Si number density = 20.309017 Si / 1000 Ang^3
#
#
#
# Elastic Constant Matrix: (Units=GPa)
#
#
# Indices 1 2 3 4 5 6 
#
# 1 42.2525 36.9570 30.2977 0.0000 4.0028 0.0000
# 2 36.9570 100.7652 65.8193 0.0000 -0.3634 0.0000
# 3 30.2977 65.8193 120.3869 0.0000 1.6247 0.0000
# 4 0.0000 0.0000 0.0000 21.0285 0.0000 -53.2809
# 5 4.0028 -0.3634 1.6247 0.0000 33.9752 0.0000
# 6 0.0000 0.0000 0.0000 -53.2809 0.0000 -148.8682
#
#
#
# Elastic Compliance Matrix: (Units=1/GPa)
#
#
# Indices 1 2 3 4 5 6 
#
# 1 0.036050 -0.011430 -0.002766 0.000000 -0.004237 0.000000
# 2 -0.011430 0.019072 -0.007576 0.000000 0.001913 0.000000
# 3 -0.002766 -0.007576 0.013150 0.000000 -0.000384 0.000000
# 4 0.000000 0.000000 0.000000 0.024939 0.000000 -0.008926
# 5 -0.004237 0.001913 -0.000384 0.000000 0.029971 0.000000
# 6 0.000000 0.000000 0.000000 -0.008926 0.000000 -0.003523
#
#
# Mechanical properties :
#
#
# Convention : Reuss Voigt Hill
#
# Bulk Modulus (GPa) = 40.44266 58.83918 49.64092
# Shear Modulus (GPa) = 29.16346 -10.08421 9.53963
#
# Velocity S-wave (km/s) = 3.79355 -2.23073 2.16966
# Velocity P-wave (km/s) = 6.25659 4.73286 5.54729
#
# Compressibility (1/GPa) = 0.02472636
#
# Stress axis : x y z
#
# Youngs Moduli (GPa) = 27.73934 52.43275 76.04447
#
# Poissons Ratio (x) = 0.59932 0.21036
# Poissons Ratio (y) = 0.31707 0.57615
# Poissons Ratio (z) = 0.07673 0.39726
#
# Static dielectric constant tensor:
#      x y z
#    x 1.748540 0.000000 0.004070 
#    y 0.000000 1.677730 0.000000 
#    z 0.004070 0.000000 1.723810 
# 
# From -- ./inp_files/54598.got.cif
#   From: 2010.05.17/outbox.cif.g08.bks.cpg/sg10_28_cif.got.tgz:54598.got - 2010.06.03 11:33:40.
