data_PCOD9152321
_publ_section_title
;
Structure prediction by ZEFSAII (Michael W. Deem and Ramdas Pophale) SiO2 
 PCOD9152321
Probable space group: P 2/M
;
_chemical_formula_sum "Si O2"
_cell_formula_units_Z 32
_cell_length_a 12.174718
_cell_length_b 9.166707
_cell_length_c 33.446725
_cell_angle_alpha 90.000000
_cell_angle_beta 22.688322
_cell_angle_gamma 90.000000
_cell_volume 1439.778784
_symmetry_space_group_name_H-M "P 2/M"
_symmetry_group_IT_number 10
_symmetry_cell_setting 'monoclinic'
loop_
_space_group_symop_operation_xyz
x,y,z
-x,y,-z
-x,-y,-z
x,-y,z
loop_
_atom_site_type_symbol
_atom_site_label
_atom_site_fract_x
_atom_site_fract_y
_atom_site_fract_z
Si Si1 0.377048 0.831035 0.999800
Si Si2 0.668149 0.671705 0.065071
Si Si3 0.323776 0.174995 0.342472
Si Si4 0.152381 0.167131 0.617414
Si Si5 0.645605 0.673845 0.161472
Si Si6 0.188050 0.168621 0.765372
Si Si7 0.841268 0.668892 0.303940
Si Si8 0.154321 0.331030 0.535361
O O1 0.445474 0.750488 0.936024
O O2 0.038958 0.828001 0.122352
O O3 0.469734 0.000000 0.965741
O O4 0.500000 0.769789 0.000000
O O5 0.608140 0.500000 0.082584
O O6 0.012287 0.688707 0.949519
O O7 0.568155 0.722867 0.142385
O O8 0.490479 0.236453 0.247812
O O9 0.512986 0.220959 0.316963
O O10 0.011150 0.241761 0.442925
O O11 0.313348 0.000000 0.345557
O O12 0.500000 0.163695 0.500000
O O13 0.067856 0.243314 0.687236
O O14 0.071804 0.261221 0.605818
O O15 0.053044 0.000000 0.647945
O O16 0.585179 0.500000 0.185418
O O17 0.074574 0.259110 0.766108
O O18 0.217241 0.000000 0.742693
O O19 0.923931 0.500000 0.279181
O O20 0.495211 0.676903 0.418642
O O21 0.071757 0.500000 0.561356
#
# Coordination Sequence:
#
# PCOD9152321 Si02
#       8
#     4   4   4   4   4   4   4   4
#     4  10  21  39  60  82 112 149 189 234 283 333
#     4   9  18  34  58  84 109 142 184 227 281 340
#     4  11  22  36  56  83 114 151 195 238 288 341
#     4   9  17  33  58  83 109 143 183 229 280 331
#     4   9  18  34  56  82 112 145 180 228 285 339
#     4  10  22  39  57  80 112 150 192 239 288 340
#     4  10  21  37  59  85 113 152 196 233 281 340
#     4  10  21  37  57  84 117 150 189 237 285 338
#
# _framework density 22.225636999999999
#
# number of rings (size 3 to 8) (size 9 to 14) (size 15 to 20)
#    0.000    2.250    1.250    2.250    0.000    5.750 
#    2.250    3.750    0.000    0.000    0.000    0.000 
#    0.000    0.000    0.000    0.000    0.000    0.000 
#
# Total GULP energy -178927.352564 kJ/mol
# GULP energy per Si atom -5591.479768 kJ/mol
# Density = 2.217505 g / cm^3
# Si number density = 22.225637 Si / 1000 Ang^3
#
#
#
# Elastic Constant Matrix: (Units=GPa)
#
#
# Indices 1 2 3 4 5 6 
#
# 1 126.6083 34.4294 14.9010 0.0000 13.5214 0.0000
# 2 34.4294 71.6303 8.3111 0.0000 21.1220 0.0000
# 3 14.9010 8.3111 64.0301 0.0000 10.0609 0.0000
# 4 0.0000 0.0000 0.0000 17.2664 0.0000 5.1599
# 5 13.5214 21.1220 10.0609 0.0000 41.7094 0.0000
# 6 0.0000 0.0000 0.0000 5.1599 0.0000 33.5407
#
#
#
# Elastic Compliance Matrix: (Units=1/GPa)
#
#
# Indices 1 2 3 4 5 6 
#
# 1 0.009255 -0.004108 -0.001534 0.000000 -0.000550 0.000000
# 2 -0.004108 0.018280 -0.000178 0.000000 -0.007882 0.000000
# 3 -0.001534 -0.000178 0.016532 0.000000 -0.003400 0.000000
# 4 0.000000 0.000000 0.000000 0.060707 0.000000 -0.009339
# 5 -0.000550 -0.007882 -0.003400 0.000000 0.028966 0.000000
# 6 0.000000 0.000000 0.000000 -0.009339 0.000000 0.031251
#
#
# Mechanical properties :
#
#
# Convention : Reuss Voigt Hill
#
# Bulk Modulus (GPa) = 30.83942 41.95016 36.39479
# Shear Modulus (GPa) = 26.67509 32.14510 29.41010
#
# Velocity S-wave (km/s) = 3.46814 3.80716 3.64160
# Velocity P-wave (km/s) = 5.47203 6.18398 5.83886
#
# Compressibility (1/GPa) = 0.03242603
#
# Stress axis : x y z
#
# Youngs Moduli (GPa) = 108.05165 54.70388 60.48851
#
# Poissons Ratio (x) = 0.22474 0.09280
# Poissons Ratio (y) = 0.44391 0.01078
# Poissons Ratio (z) = 0.16577 0.00975
#
# Static dielectric constant tensor:
#      x y z
#    x 1.810880 0.000000 -0.056780 
#    y 0.000000 1.753150 0.000000 
#    z -0.056780 0.000000 1.883340 
# 
# From -- ./inp_files/94967.got.cif
#   From: 2010.05.17/outbox.cif.g08.bks.cpg/sg10_48_cif.got.tgz:94967.got - 2010.06.03 11:33:40.
