data_PCOD9152622
_publ_section_title
;
Structure prediction by ZEFSAII (Michael W. Deem and Ramdas Pophale) SiO2 
 PCOD9152622
Probable space group: P 2/M
;
_chemical_formula_sum "Si O2"
_cell_formula_units_Z 24
_cell_length_a 14.190505
_cell_length_b 8.082909
_cell_length_c 14.309184
_cell_angle_alpha 90.000000
_cell_angle_beta 139.766801
_cell_angle_gamma 90.000000
_cell_volume 1060.097456
_symmetry_space_group_name_H-M "P 2/M"
_symmetry_group_IT_number 10
_symmetry_cell_setting 'monoclinic'
loop_
_space_group_symop_operation_xyz
x,y,z
-x,y,-z
-x,-y,-z
x,-y,z
loop_
_atom_site_type_symbol
_atom_site_label
_atom_site_fract_x
_atom_site_fract_y
_atom_site_fract_z
Si Si1 0.418634 0.191111 0.193690
Si Si2 0.597208 0.804848 0.490328
Si Si3 0.331006 0.500000 0.828708
Si Si4 0.092608 0.686524 0.303839
Si Si5 0.879859 0.500000 0.491148
Si Si6 0.119542 0.697043 0.011008
Si Si7 0.654227 0.185834 0.063980
O O1 0.543707 0.268338 0.351235
O O2 0.454961 0.000000 0.200513
O O3 0.269449 0.206641 0.138808
O O4 0.384258 0.260543 0.066438
O O5 0.500000 0.733055 0.500000
O O6 0.768596 0.785411 0.626439
O O7 0.562452 0.000000 0.459528
O O8 0.277831 0.500000 0.680624
O O9 0.264054 0.330419 0.819198
O O10 0.500000 0.500000 0.000000
O O11 0.113404 0.500000 0.280330
O O12 0.097373 0.654225 0.418806
O O13 0.947811 0.745415 0.141436
O O14 0.000000 0.500000 0.500000
O O15 0.152298 0.500000 0.036585
O O16 0.000000 0.730538 0.000000
O O17 0.719721 0.000000 0.108097
O O18 0.500000 0.165469 0.000000
#
# Coordination Sequence:
#
# PCOD9152622 Si02
#       7
#     4   4   2   4   2   4   4
#     4  10  22  36  58  88 117 154 199 250 300 356
#     4  10  21  38  60  88 122 158 195 243 308 367
#     4  10  22  36  66  89 111 161 211 244 306 367
#     4   9  22  38  58  85 119 159 194 246 300 358
#     4  10  24  42  58  85 123 157 195 252 305 361
#     4  10  21  38  59  86 117 155 201 245 294 357
#     4   9  20  36  56  87 123 149 193 254 298 349
#
# _framework density 22.639427000000001
#
# number of rings (size 3 to 8) (size 9 to 14) (size 15 to 20)
#    0.500    1.833    0.000    1.000    8.167    2.000 
#    0.000    0.000    0.000    1.000    0.000    0.000 
#    0.000    0.000    0.000    0.000    0.000    0.000 
#
# Total GULP energy -133695.146136 kJ/mol
# GULP energy per Si atom -5570.631089 kJ/mol
# Density = 2.258790 g / cm^3
# Si number density = 22.639427 Si / 1000 Ang^3
#
#
#
# Elastic Constant Matrix: (Units=GPa)
#
#
# Indices 1 2 3 4 5 6 
#
# 1 70.6422 -1.9982 3.7874 0.0000 -5.7920 0.0000
# 2 -1.9982 55.0569 7.7163 0.0000 -16.2056 0.0000
# 3 3.7874 7.7163 101.2623 0.0000 -4.3405 0.0000
# 4 0.0000 0.0000 0.0000 16.1440 0.0000 -0.1245
# 5 -5.7920 -16.2056 -4.3405 0.0000 31.1251 0.0000
# 6 0.0000 0.0000 0.0000 -0.1245 0.0000 19.9222
#
#
#
# Elastic Compliance Matrix: (Units=1/GPa)
#
#
# Indices 1 2 3 4 5 6 
#
# 1 0.014514 0.001622 -0.000518 0.000000 0.003473 0.000000
# 2 0.001622 0.021768 -0.001228 0.000000 0.011464 0.000000
# 3 -0.000518 -0.001228 0.010017 0.000000 0.000661 0.000000
# 4 0.000000 0.000000 0.000000 0.061946 0.000000 0.000387
# 5 0.003473 0.011464 0.000661 0.000000 0.038836 0.000000
# 6 0.000000 0.000000 0.000000 0.000387 0.000000 0.050198
#
#
# Mechanical properties :
#
#
# Convention : Reuss Voigt Hill
#
# Bulk Modulus (GPa) = 21.71495 27.33029 24.52262
# Shear Modulus (GPa) = 23.48774 27.93531 25.71153
#
# Velocity S-wave (km/s) = 3.22447 3.51653 3.37367
# Velocity P-wave (km/s) = 4.84515 5.34661 5.10204
#
# Compressibility (1/GPa) = 0.04605123
#
# Stress axis : x y z
#
# Youngs Moduli (GPa) = 68.89799 45.93802 99.83407
#
# Poissons Ratio (x) = -0.07449 0.05167
# Poissons Ratio (y) = -0.11172 0.12260
# Poissons Ratio (z) = 0.03566 0.05641
#
# Static dielectric constant tensor:
#      x y z
#    x 1.878640 0.000000 -0.047660 
#    y 0.000000 1.877620 0.000000 
#    z -0.047660 0.000000 1.904160 
# 
# From -- ./inp_files/66746.got.cif
#   From: 2010.05.17/outbox.cif.g08.bks.cpg/sg10_34_cif.got.tgz:66746.got - 2010.06.03 11:33:40.
