data_PCOD9152810
_publ_section_title
;
Structure prediction by ZEFSAII (Michael W. Deem and Ramdas Pophale) SiO2 
 PCOD9152810
Probable space group: P 2/M
;
_chemical_formula_sum "Si O2"
_cell_formula_units_Z 20
_cell_length_a 14.597543
_cell_length_b 16.280890
_cell_length_c 9.636794
_cell_angle_alpha 90.000000
_cell_angle_beta 25.779246
_cell_angle_gamma 90.000000
_cell_volume 996.058472
_symmetry_space_group_name_H-M "P 2/M"
_symmetry_group_IT_number 10
_symmetry_cell_setting 'monoclinic'
loop_
_space_group_symop_operation_xyz
x,y,z
-x,y,-z
-x,-y,-z
x,-y,z
loop_
_atom_site_type_symbol
_atom_site_label
_atom_site_fract_x
_atom_site_fract_y
_atom_site_fract_z
Si Si1 0.292244 0.289216 0.367885
Si Si2 0.386685 0.000000 0.307494
Si Si3 0.827039 0.000000 0.857949
Si Si4 0.953212 0.138588 0.272033
Si Si5 0.308223 0.747003 0.672581
Si Si6 0.065456 0.591886 0.072815
O O1 0.340500 0.267801 0.464494
O O2 0.176709 0.207780 0.466846
O O3 0.132225 0.365431 0.582888
O O4 0.500000 0.306360 0.000000
O O5 0.229163 0.077930 0.538194
O O6 0.500000 0.000000 0.000000
O O7 0.586047 0.000000 0.137638
O O8 0.890765 0.920073 0.857317
O O9 0.000000 0.000000 0.500000
O O10 0.109825 0.193727 0.966772
O O11 0.500000 0.781217 0.500000
O O12 0.248934 0.659257 0.823089
O O13 0.115327 0.500000 0.053104
O O14 0.000000 0.587399 0.000000
#
# Coordination Sequence:
#
# PCOD9152810 Si02
#       6
#     4   2   2   4   4   4
#     4  10  21  38  63  88 120 166 204 254 307 358
#     4  11  21  40  61  90 129 159 198 262 318 363
#     4  11  23  38  61  96 122 158 207 260 312 363
#     4  10  22  39  61  88 119 163 203 250 304 376
#     4  10  22  39  61  91 125 162 208 250 305 371
#     4   8  16  35  60  88 124 162 202 247 303 368
#
# _framework density 20.079141
#
# number of rings (size 3 to 8) (size 9 to 14) (size 15 to 20)
#    0.000    2.200    2.000    2.400    2.800    0.800 
#    0.000   13.000    0.000    1.200    0.000    0.000 
#    0.000    0.000    0.000    0.000    0.000    0.000 
#
# Total GULP energy -111494.961070 kJ/mol
# GULP energy per Si atom -5574.748053 kJ/mol
# Density = 2.003344 g / cm^3
# Si number density = 20.079141 Si / 1000 Ang^3
#
#
#
# Elastic Constant Matrix: (Units=GPa)
#
#
# Indices 1 2 3 4 5 6 
#
# 1 61.9807 24.3772 37.2763 0.0000 -25.6133 0.0000
# 2 24.3772 150.3121 54.4676 0.0000 -4.8602 0.0000
# 3 37.2763 54.4676 140.6742 0.0000 -9.8231 0.0000
# 4 0.0000 0.0000 0.0000 4.7266 0.0000 -8.0006
# 5 -25.6133 -4.8602 -9.8231 0.0000 42.6626 0.0000
# 6 0.0000 0.0000 0.0000 -8.0006 0.0000 -2.4996
#
#
#
# Elastic Compliance Matrix: (Units=1/GPa)
#
#
# Indices 1 2 3 4 5 6 
#
# 1 0.025766 -0.001868 -0.005121 0.000000 0.014077 0.000000
# 2 -0.001868 0.007876 -0.002612 0.000000 -0.000826 0.000000
# 3 -0.005121 -0.002612 0.009393 0.000000 -0.001210 0.000000
# 4 0.000000 0.000000 0.000000 0.032965 0.000000 -0.105515
# 5 0.014077 -0.000826 -0.001210 0.000000 0.031519 0.000000
# 6 0.000000 0.000000 0.000000 -0.105515 0.000000 -0.062336
#
#
# Mechanical properties :
#
#
# Convention : Reuss Voigt Hill
#
# Bulk Modulus (GPa) = 41.96061 65.02325 53.49193
# Shear Modulus (GPa) = 69.12891 24.76764 46.94828
#
# Velocity S-wave (km/s) = 5.87392 3.51593 4.84070
# Velocity P-wave (km/s) = 8.18211 6.99544 7.61193
#
# Compressibility (1/GPa) = 0.02383187
#
# Stress axis : x y z
#
# Youngs Moduli (GPa) = 38.81069 126.97531 106.46647
#
# Poissons Ratio (x) = 0.23715 0.54526
# Poissons Ratio (y) = 0.07249 0.27810
# Poissons Ratio (z) = 0.19877 0.33167
#
# Static dielectric constant tensor:
#      x y z
#    x 2.832130 0.000000 0.725430 
#    y 0.000000 1.743130 0.000000 
#    z 0.725430 0.000000 2.155680 
# 
# From -- ./inp_files/53874.got.cif
#   From: 2010.05.17/outbox.cif.g08.bks.cpg/sg10_27_cif.got.tgz:53874.got - 2010.06.03 11:33:40.
