data_PCOD9152004
_publ_section_title
;
Structure prediction by ZEFSAII (Michael W. Deem and Ramdas Pophale) SiO2 
 PCOD9152004
Probable space group: P 2/M
;
_chemical_formula_sum "Si O2"
_cell_formula_units_Z 28
_cell_length_a 16.634843
_cell_length_b 11.880446
_cell_length_c 9.679021
_cell_angle_alpha 90.000000
_cell_angle_beta 55.099007
_cell_angle_gamma 90.000000
_cell_volume 1568.815656
_symmetry_space_group_name_H-M "P 2/M"
_symmetry_group_IT_number 10
_symmetry_cell_setting 'monoclinic'
loop_
_space_group_symop_operation_xyz
x,y,z
-x,y,-z
-x,-y,-z
x,-y,z
loop_
_atom_site_type_symbol
_atom_site_label
_atom_site_fract_x
_atom_site_fract_y
_atom_site_fract_z
Si Si1 0.096564 0.368697 0.713744
Si Si2 0.111752 0.000000 0.823561
Si Si3 0.207600 0.234743 0.826960
Si Si4 0.799477 0.633333 0.668264
Si Si5 0.905860 0.241499 0.794885
Si Si6 0.993758 0.000000 0.671592
Si Si7 0.590620 0.363972 0.002330
Si Si8 0.398476 0.633471 0.683394
O O1 0.077929 0.500000 0.745049
O O2 0.135571 0.316756 0.815122
O O3 0.179036 0.351198 0.514180
O O4 0.998732 0.307870 0.761383
O O5 0.172999 0.889583 0.810875
O O6 0.088534 0.000000 0.680865
O O7 0.000000 0.000000 0.000000
O O8 0.317075 0.282560 0.700285
O O9 0.183636 0.251151 0.011448
O O10 0.814223 0.500000 0.684450
O O11 0.876363 0.707084 0.677815
O O12 0.692181 0.666356 0.827111
O O13 0.935216 0.112250 0.763168
O O14 0.000000 0.000000 0.500000
O O15 0.586355 0.500000 0.002811
O O16 0.587090 0.336240 0.168565
O O17 0.500000 0.320638 0.000000
O O18 0.500000 0.641679 0.500000
O O19 0.367031 0.500000 0.707554
#
# Coordination Sequence:
#
# PCOD9152004 Si02
#       8
#     4   2   4   4   4   2   4   4
#     4  11  23  34  53  85 123 160 194 240 300 367
#     4  12  22  44  61  86 120 160 204 252 296 354
#     4  12  23  39  61  86 118 160 204 250 304 358
#     4  10  21  36  54  84 122 156 195 242 300 361
#     4  12  22  38  58  83 119 159 202 248 293 356
#     4  12  24  40  62  86 115 160 210 250 293 349
#     4   9  18  34  57  82 112 152 193 241 298 357
#     4  10  22  39  60  90 123 155 201 257 310 366
#
# _framework density 17.847857999999999
#
# number of rings (size 3 to 8) (size 9 to 14) (size 15 to 20)
#    0.000    1.143    4.286    2.571    2.000    3.429 
#    0.000    0.357    0.000    0.000    0.000    1.000 
#    0.000    0.000    0.000    0.000    0.000    0.000 
#
# Total GULP energy -156243.072984 kJ/mol
# GULP energy per Si atom -5580.109749 kJ/mol
# Density = 1.780724 g / cm^3
# Si number density = 17.847858 Si / 1000 Ang^3
#
#
#
# Elastic Constant Matrix: (Units=GPa)
#
#
# Indices 1 2 3 4 5 6 
#
# 1 83.5233 40.7107 7.0951 0.0000 -6.8729 0.0000
# 2 40.7107 87.6177 37.3352 0.0000 -6.3919 0.0000
# 3 7.0951 37.3352 52.7348 0.0000 -4.8967 0.0000
# 4 0.0000 0.0000 0.0000 12.7340 0.0000 8.6367
# 5 -6.8729 -6.3919 -4.8967 0.0000 30.4155 0.0000
# 6 0.0000 0.0000 0.0000 8.6367 0.0000 40.2837
#
#
#
# Elastic Compliance Matrix: (Units=1/GPa)
#
#
# Indices 1 2 3 4 5 6 
#
# 1 0.016374 -0.009432 0.004705 0.000000 0.002475 0.000000
# 2 -0.009432 0.021854 -0.014187 0.000000 0.000177 0.000000
# 3 0.004705 -0.014187 0.028623 0.000000 0.002690 0.000000
# 4 0.000000 0.000000 0.000000 0.091893 0.000000 -0.019702
# 5 0.002475 0.000177 0.002690 0.000000 0.033908 0.000000
# 6 0.000000 0.000000 0.000000 -0.019702 0.000000 0.029048
#
#
# Mechanical properties :
#
#
# Convention : Reuss Voigt Hill
#
# Bulk Modulus (GPa) = 34.45533 43.79533 39.12533
# Shear Modulus (GPa) = 18.57337 25.93560 22.25449
#
# Velocity S-wave (km/s) = 3.22941 3.81616 3.53498
# Velocity P-wave (km/s) = 5.76649 6.63391 6.21535
#
# Compressibility (1/GPa) = 0.02902309
#
# Stress axis : x y z
#
# Youngs Moduli (GPa) = 61.07175 45.75837 34.93637
#
# Poissons Ratio (x) = 0.43161 -0.16436
# Poissons Ratio (y) = 0.57605 0.49563
# Poissons Ratio (z) = -0.28732 0.64916
#
# Static dielectric constant tensor:
#      x y z
#    x 1.597090 0.000000 0.001770 
#    y 0.000000 1.472570 0.000000 
#    z 0.001770 0.000000 1.641960 
# 
# From -- ./inp_files/28536.got.cif
#   From: 2010.05.17/outbox.cif.g08.bks.cpg/sg10_15_cif.got.tgz:28536.got - 2010.06.03 11:33:40.
