data_PCOD9152193
_publ_section_title
;
Structure prediction by ZEFSAII (Michael W. Deem and Ramdas Pophale) SiO2 
 PCOD9152193
Probable space group: P 2/M
;
_chemical_formula_sum "Si O2"
_cell_formula_units_Z 32
_cell_length_a 6.420420
_cell_length_b 13.379284
_cell_length_c 18.710230
_cell_angle_alpha 90.000000
_cell_angle_beta 93.579323
_cell_angle_gamma 90.000000
_cell_volume 1604.085238
_symmetry_space_group_name_H-M "P 2/M"
_symmetry_group_IT_number 10
_symmetry_cell_setting 'monoclinic'
loop_
_space_group_symop_operation_xyz
x,y,z
-x,y,-z
-x,-y,-z
x,-y,z
loop_
_atom_site_type_symbol
_atom_site_label
_atom_site_fract_x
_atom_site_fract_y
_atom_site_fract_z
Si Si1 0.251666 0.275153 0.839034
Si Si2 0.377479 0.888542 0.571795
Si Si3 0.530164 0.111640 0.915658
Si Si4 0.368524 0.617473 0.697525
Si Si5 0.107190 0.885669 0.180861
Si Si6 0.067583 0.289453 0.577741
Si Si7 0.702820 0.223363 0.677663
Si Si8 0.756431 0.615691 0.019632
O O1 0.438240 0.204065 0.869804
O O2 0.270556 0.324863 0.762694
O O3 0.227127 0.361515 0.896471
O O4 0.069932 0.194522 0.835358
O O5 0.500000 0.891040 0.500000
O O6 0.191413 0.811278 0.561221
O O7 0.533623 0.845128 0.634046
O O8 0.306708 0.000000 0.588661
O O9 0.763242 0.108954 0.890132
O O10 0.440585 0.000000 0.896864
O O11 0.500000 0.124844 0.000000
O O12 0.386802 0.500000 0.709816
O O13 0.224903 0.640720 0.625709
O O14 0.589731 0.672591 0.693951
O O15 0.228623 0.838929 0.251384
O O16 0.043987 0.000000 0.196778
O O17 0.000000 0.334366 0.500000
O O18 0.884509 0.253787 0.626653
O O19 0.756955 0.500000 0.998087
O O20 0.500000 0.646427 0.000000
O O21 0.000000 0.653519 0.000000
#
# Coordination Sequence:
#
# PCOD9152193 Si02
#       8
#     4   4   4   4   4   4   4   4
#     4  12  23  41  66  96 133 175 223 283 346 406
#     4  10  21  36  62  97 133 172 214 263 328 405
#     4  10  23  42  64  94 135 178 223 272 329 404
#     4  11  26  45  67  95 126 170 229 288 347 404
#     4  11  24  41  65  98 132 175 224 273 338 410
#     4  11  23  43  66  94 133 169 217 272 339 408
#     4  11  22  44  63  95 129 173 219 281 338 401
#     4  10  24  44  69 103 138 180 234 294 362 428
#
# _framework density 19.949065000000001
#
# number of rings (size 3 to 8) (size 9 to 14) (size 15 to 20)
#    0.000    1.250    3.750    1.500    3.500    2.000 
#    0.000    2.500    0.000    0.000    0.000    0.000 
#    0.000    0.000    0.000    0.000    0.000    0.000 
#
# Total GULP energy -178154.085362 kJ/mol
# GULP energy per Si atom -5567.315168 kJ/mol
# Density = 1.990366 g / cm^3
# Si number density = 19.949065 Si / 1000 Ang^3
#
#
#
# Elastic Constant Matrix: (Units=GPa)
#
#
# Indices 1 2 3 4 5 6 
#
# 1 76.4079 13.4059 39.7567 0.0000 -6.2804 0.0000
# 2 13.4059 98.7083 28.6051 0.0000 1.0114 0.0000
# 3 39.7567 28.6051 87.9590 0.0000 -11.9970 0.0000
# 4 0.0000 0.0000 0.0000 14.3338 0.0000 -7.7573
# 5 -6.2804 1.0114 -11.9970 0.0000 30.5999 0.0000
# 6 0.0000 0.0000 0.0000 -7.7573 0.0000 16.5533
#
#
#
# Elastic Compliance Matrix: (Units=1/GPa)
#
#
# Indices 1 2 3 4 5 6 
#
# 1 0.017121 -0.000120 -0.007627 0.000000 0.000527 0.000000
# 2 -0.000120 0.011291 -0.003879 0.000000 -0.001919 0.000000
# 3 -0.007627 -0.003879 0.016779 0.000000 0.005141 0.000000
# 4 0.000000 0.000000 0.000000 0.093471 0.000000 0.043803
# 5 0.000527 -0.001919 0.005141 0.000000 0.034867 0.000000
# 6 0.000000 0.000000 0.000000 0.043803 0.000000 0.080938
#
#
# Mechanical properties :
#
#
# Convention : Reuss Voigt Hill
#
# Bulk Modulus (GPa) = 45.58470 47.40119 46.49294
# Shear Modulus (GPa) = 17.54175 24.38456 20.96316
#
# Velocity S-wave (km/s) = 2.96856 3.49999 3.24517
# Velocity P-wave (km/s) = 5.88642 6.33608 6.11539
#
# Compressibility (1/GPa) = 0.02193719
#
# Stress axis : x y z
#
# Youngs Moduli (GPa) = 58.40846 88.56563 59.59730
#
# Poissons Ratio (x) = 0.01065 0.45457
# Poissons Ratio (y) = 0.00702 0.23120
# Poissons Ratio (z) = 0.44551 0.34357
#
# Static dielectric constant tensor:
#      x y z
#    x 1.403040 0.000000 -0.298860 
#    y 0.000000 1.692580 0.000000 
#    z -0.298860 0.000000 1.475620 
# 
# From -- ./inp_files/73543.got.cif
#   From: 2010.05.17/outbox.cif.g08.bks.cpg/sg10_37_cif.got.tgz:73543.got - 2010.06.03 11:33:40.
