data_PCOD9152887
_publ_section_title
;
Structure prediction by ZEFSAII (Michael W. Deem and Ramdas Pophale) SiO2 
 PCOD9152887
Probable space group: P 2/M
;
_chemical_formula_sum "Si O2"
_cell_formula_units_Z 32
_cell_length_a 14.427591
_cell_length_b 9.899492
_cell_length_c 21.355644
_cell_angle_alpha 90.000000
_cell_angle_beta 31.936057
_cell_angle_gamma 90.000000
_cell_volume 1613.438805
_symmetry_space_group_name_H-M "P 2/M"
_symmetry_group_IT_number 10
_symmetry_cell_setting 'monoclinic'
loop_
_space_group_symop_operation_xyz
x,y,z
-x,y,-z
-x,-y,-z
x,-y,z
loop_
_atom_site_type_symbol
_atom_site_label
_atom_site_fract_x
_atom_site_fract_y
_atom_site_fract_z
Si Si1 0.798737 0.351293 0.680037
Si Si2 0.572340 0.143661 0.860330
Si Si3 0.178432 0.654629 0.482015
Si Si4 0.486728 0.837839 0.683980
Si Si5 0.035374 0.343472 0.148779
Si Si6 0.619325 0.345550 0.370191
Si Si7 0.207401 0.147557 0.138458
Si Si8 0.154268 0.158988 0.963645
O O1 0.774170 0.500000 0.720566
O O2 0.626415 0.265708 0.787604
O O3 0.820715 0.358840 0.593385
O O4 0.978380 0.297453 0.608533
O O5 0.699802 0.155231 0.847446
O O6 0.606605 0.000000 0.809006
O O7 0.375624 0.146754 0.996222
O O8 0.203025 0.500000 0.492941
O O9 0.329384 0.760063 0.411626
O O10 0.414870 0.767279 0.662334
O O11 0.340617 0.814244 0.822359
O O12 0.507406 0.000000 0.666481
O O13 0.092980 0.500000 0.112644
O O14 0.825135 0.340926 0.267188
O O15 0.092904 0.270292 0.179951
O O16 0.111367 0.256572 0.046629
O O17 0.500000 0.323692 0.500000
O O18 0.581426 0.500000 0.369133
O O19 0.118751 0.000000 0.184504
O O20 0.152363 0.000000 0.984161
O O21 0.000000 0.175758 0.000000
#
# Coordination Sequence:
#
# PCOD9152887 Si02
#       8
#     4   4   4   4   4   4   4   4
#     4   9  19  36  57  80 110 150 189 229 279 330
#     4   9  19  36  57  80 109 149 190 229 277 332
#     4   9  20  38  56  79 115 152 184 226 283 336
#     4  11  23  38  60  89 115 148 194 236 282 339
#     4  11  23  37  59  89 114 146 195 238 279 338
#     4  10  23  43  62  82 115 154 189 233 287 338
#     4   9  20  38  56  78 114 152 183 225 285 338
#     4  10  21  39  60  83 118 154 183 230 291 341
#
# _framework density 19.833414000000001
#
# number of rings (size 3 to 8) (size 9 to 14) (size 15 to 20)
#    0.000    2.250    1.250    2.250    1.750    5.000 
#    0.000    6.250    0.000    0.000    0.000    0.000 
#    0.000    0.000    0.000    0.000    0.000    0.000 
#
# Total GULP energy -178376.940470 kJ/mol
# GULP energy per Si atom -5574.279390 kJ/mol
# Density = 1.978827 g / cm^3
# Si number density = 19.833414 Si / 1000 Ang^3
#
#
#
# Elastic Constant Matrix: (Units=GPa)
#
#
# Indices 1 2 3 4 5 6 
#
# 1 45.4725 26.3922 -5.5783 0.0000 -18.4484 0.0000
# 2 26.3922 92.5416 29.4245 0.0000 -10.7924 0.0000
# 3 -5.5783 29.4245 51.2790 0.0000 0.1652 0.0000
# 4 0.0000 0.0000 0.0000 21.1786 0.0000 -24.1815
# 5 -18.4484 -10.7924 0.1652 0.0000 25.3553 0.0000
# 6 0.0000 0.0000 0.0000 -24.1815 0.0000 45.6442
#
#
#
# Elastic Compliance Matrix: (Units=1/GPa)
#
#
# Indices 1 2 3 4 5 6 
#
# 1 0.040246 -0.012292 0.011354 0.000000 0.023977 0.000000
# 2 -0.012292 0.017842 -0.011571 0.000000 -0.001274 0.000000
# 3 0.011354 -0.011571 0.027366 0.000000 0.003158 0.000000
# 4 0.000000 0.000000 0.000000 0.119507 0.000000 0.063313
# 5 0.023977 -0.001274 0.003158 0.000000 0.056322 0.000000
# 6 0.000000 0.000000 0.000000 0.063313 0.000000 0.055451
#
#
# Mechanical properties :
#
#
# Convention : Reuss Voigt Hill
#
# Bulk Modulus (GPa) = 16.54647 32.19666 24.37156
# Shear Modulus (GPa) = 13.81613 27.70593 20.76103
#
# Velocity S-wave (km/s) = 2.64220 3.74161 3.23889
# Velocity P-wave (km/s) = 4.20346 5.91058 5.12855
#
# Compressibility (1/GPa) = 0.06043586
#
# Stress axis : x y z
#
# Youngs Moduli (GPa) = 24.84739 56.04738 36.54213
#
# Poissons Ratio (x) = 0.68892 -0.41490
# Poissons Ratio (y) = 0.30542 0.42283
# Poissons Ratio (z) = -0.28211 0.64852
#
# Static dielectric constant tensor:
#      x y z
#    x 1.726600 0.000000 -0.005110 
#    y 0.000000 1.714640 0.000000 
#    z -0.005110 0.000000 1.699250 
# 
# From -- ./inp_files/89487.got.cif
#   From: 2010.05.17/outbox.cif.g08.bks.cpg/sg10_45_cif.got.tgz:89487.got - 2010.06.03 11:33:40.
