data_PCOD9152696
_publ_section_title
;
Structure prediction by ZEFSAII (Michael W. Deem and Ramdas Pophale) SiO2 
 PCOD9152696
Probable space group: P 2/M
;
_chemical_formula_sum "Si O2"
_cell_formula_units_Z 28
_cell_length_a 9.256241
_cell_length_b 18.701185
_cell_length_c 15.901576
_cell_angle_alpha 90.000000
_cell_angle_beta 28.030312
_cell_angle_gamma 90.000000
_cell_volume 1293.555546
_symmetry_space_group_name_H-M "P 2/M"
_symmetry_group_IT_number 10
_symmetry_cell_setting 'monoclinic'
loop_
_space_group_symop_operation_xyz
x,y,z
-x,y,-z
-x,-y,-z
x,-y,z
loop_
_atom_site_type_symbol
_atom_site_label
_atom_site_fract_x
_atom_site_fract_y
_atom_site_fract_z
Si Si1 0.864812 0.085886 0.805546
Si Si2 0.353678 0.729084 0.323966
Si Si3 0.606525 0.500000 0.107729
Si Si4 0.386508 0.650220 0.470179
Si Si5 0.664477 0.500000 0.279455
Si Si6 0.112066 0.080791 0.854984
Si Si7 0.349789 0.351843 0.167059
Si Si8 0.209813 0.114773 0.463568
O O1 0.010080 0.112429 0.818540
O O2 0.006790 0.124368 0.651417
O O3 0.930623 0.000000 0.761476
O O4 0.500000 0.094214 0.000000
O O5 0.504234 0.691395 0.326664
O O6 0.472992 0.705905 0.171955
O O7 0.322362 0.811760 0.362521
O O8 0.000000 0.701769 0.500000
O O9 0.594873 0.500000 0.215102
O O10 0.444815 0.429302 0.154737
O O11 0.967308 0.500000 0.897896
O O12 0.500000 0.681878 0.500000
O O13 0.515741 0.570409 0.395129
O O14 0.017232 0.651227 0.657313
O O15 0.478038 0.076894 0.670725
O O16 0.976176 0.000000 0.924314
O O17 0.000000 0.115255 0.000000
O O18 0.500000 0.340602 0.000000
O O19 0.000000 0.079081 0.500000
#
# Coordination Sequence:
#
# PCOD9152696 Si02
#       8
#     4   4   2   4   2   4   4   4
#     4  10  21  38  64  97 130 163 205 261 320 372
#     4   9  22  42  60  83 120 162 208 250 303 363
#     4  11  22  37  64  96 122 156 196 255 317 375
#     4  11  22  39  61  87 120 161 199 247 305 366
#     4  11  22  37  60  94 126 152 196 251 309 373
#     4  10  21  38  60  91 128 163 204 254 308 367
#     4  11  22  41  65  90 121 158 204 252 311 373
#     4  11  22  39  61  89 124 168 211 256 307 373
#
# _framework density 21.645766999999999
#
# number of rings (size 3 to 8) (size 9 to 14) (size 15 to 20)
#    0.000    1.571    1.429    3.429    0.000    5.143 
#    0.000   13.571    0.000    0.000    0.000    0.000 
#    0.000    0.000    0.000    0.000    0.000    0.000 
#
# Total GULP energy -156401.755593 kJ/mol
# GULP energy per Si atom -5585.776985 kJ/mol
# Density = 2.159650 g / cm^3
# Si number density = 21.645767 Si / 1000 Ang^3
#
#
#
# Elastic Constant Matrix: (Units=GPa)
#
#
# Indices 1 2 3 4 5 6 
#
# 1 190.4133 34.2866 60.6256 0.0000 16.9933 0.0000
# 2 34.2866 74.9278 9.5836 0.0000 11.6780 0.0000
# 3 60.6256 9.5836 100.5394 0.0000 12.6182 0.0000
# 4 0.0000 0.0000 0.0000 -109.5219 0.0000 -35.5110
# 5 16.9933 11.6780 12.6182 0.0000 40.1889 0.0000
# 6 0.0000 0.0000 0.0000 -35.5110 0.0000 -5.4411
#
#
#
# Elastic Compliance Matrix: (Units=1/GPa)
#
#
# Indices 1 2 3 4 5 6 
#
# 1 0.007037 -0.002567 -0.003871 0.000000 -0.001014 0.000000
# 2 -0.002567 0.014987 0.000551 0.000000 -0.003443 0.000000
# 3 -0.003871 0.000551 0.012537 0.000000 -0.002459 0.000000
# 4 0.000000 0.000000 0.000000 0.008181 0.000000 -0.053391
# 5 -0.001014 -0.003443 -0.002459 0.000000 0.027084 0.000000
# 6 0.000000 0.000000 0.000000 -0.053391 0.000000 0.164668
#
#
# Mechanical properties :
#
#
# Convention : Reuss Voigt Hill
#
# Bulk Modulus (GPa) = 43.88490 63.87467 53.87979
# Shear Modulus (GPa) = 19.69568 2.47082 11.08325
#
# Velocity S-wave (km/s) = 3.01974 1.06956 2.26526
# Velocity P-wave (km/s) = 5.69882 5.57660 5.63804
#
# Compressibility (1/GPa) = 0.02278688
#
# Stress axis : x y z
#
# Youngs Moduli (GPa) = 142.10473 66.72529 79.76422
#
# Poissons Ratio (x) = 0.17128 0.30880
# Poissons Ratio (y) = 0.36477 -0.04398
# Poissons Ratio (z) = 0.55015 -0.03679
#
# Static dielectric constant tensor:
#      x y z
#    x 1.802980 0.000000 0.018000 
#    y 0.000000 1.818990 0.000000 
#    z 0.018000 0.000000 1.778960 
# 
# From -- ./inp_files/62595.got.cif
#   From: 2010.05.17/outbox.cif.g08.bks.cpg/sg10_32_cif.got.tgz:62595.got - 2010.06.03 11:33:40.
