data_PCOD9152916
_publ_section_title
;
Structure prediction by ZEFSAII (Michael W. Deem and Ramdas Pophale) SiO2 
 PCOD9152916
Probable space group: P 2/M
;
_chemical_formula_sum "Si O2"
_cell_formula_units_Z 28
_cell_length_a 9.319590
_cell_length_b 9.355303
_cell_length_c 27.390081
_cell_angle_alpha 90.000000
_cell_angle_beta 142.121725
_cell_angle_gamma 90.000000
_cell_volume 1466.244578
_symmetry_space_group_name_H-M "P 2/M"
_symmetry_group_IT_number 10
_symmetry_cell_setting 'monoclinic'
loop_
_space_group_symop_operation_xyz
x,y,z
-x,y,-z
-x,-y,-z
x,-y,z
loop_
_atom_site_type_symbol
_atom_site_label
_atom_site_fract_x
_atom_site_fract_y
_atom_site_fract_z
Si Si1 0.183462 0.331495 0.006811
Si Si2 0.484241 0.167538 0.276113
Si Si3 0.280867 0.664490 0.572610
Si Si4 0.731597 0.668718 0.164389
Si Si5 0.279891 0.161882 0.476367
Si Si6 0.072549 0.830380 0.877507
Si Si7 0.845099 0.171103 0.291579
O O1 0.144172 0.500000 0.984748
O O2 0.150482 0.237925 0.949578
O O3 0.451713 0.316584 0.095497
O O4 0.000000 0.291293 0.000000
O O5 0.603568 0.257725 0.350641
O O6 0.607142 0.201070 0.257504
O O7 0.207417 0.188564 0.201004
O O8 0.531800 0.000000 0.298280
O O9 0.352635 0.500000 0.591422
O O10 0.341092 0.741287 0.538453
O O11 0.000000 0.672282 0.500000
O O12 0.786406 0.500000 0.176128
O O13 0.808535 0.748507 0.135659
O O14 0.851273 0.742810 0.243097
O O15 0.500000 0.157596 0.500000
O O16 0.055630 0.209891 0.384876
O O17 0.228844 0.000000 0.480070
O O18 0.124326 0.000000 0.889546
O O19 0.861271 0.000000 0.286392
#
# Coordination Sequence:
#
# PCOD9152916 Si02
#       7
#     4   4   4   4   4   4   4
#     4  10  22  42  66  91 121 158 197 238 292 356
#     4  10  22  40  62  86 116 157 202 245 297 353
#     4  11  23  38  59  89 120 154 199 249 298 351
#     4  11  24  40  61  89 124 161 193 237 299 357
#     4  10  22  39  61  86 116 157 201 247 300 353
#     4  11  24  40  62  92 122 155 199 248 291 344
#     4  10  21  39  61  86 117 155 200 249 294 346
#
# _framework density 19.096405000000001
#
# number of rings (size 3 to 8) (size 9 to 14) (size 15 to 20)
#    0.000    1.571    1.429    2.571    2.000    6.286 
#    0.000    0.000    0.000    0.000    0.000    0.000 
#    0.000    0.000    0.000    0.000    0.000    0.000 
#
# Total GULP energy -156489.552664 kJ/mol
# GULP energy per Si atom -5588.912595 kJ/mol
# Density = 1.905294 g / cm^3
# Si number density = 19.096405 Si / 1000 Ang^3
#
#
#
# Elastic Constant Matrix: (Units=GPa)
#
#
# Indices 1 2 3 4 5 6 
#
# 1 86.2334 31.7873 8.1230 0.0000 -12.2489 0.0000
# 2 31.7873 65.4815 38.3645 0.0000 -19.0167 0.0000
# 3 8.1230 38.3645 54.1854 0.0000 -19.8939 0.0000
# 4 0.0000 0.0000 0.0000 39.0321 0.0000 -7.4534
# 5 -12.2489 -19.0167 -19.8939 0.0000 36.0235 0.0000
# 6 0.0000 0.0000 0.0000 -7.4534 0.0000 27.1150
#
#
#
# Elastic Compliance Matrix: (Units=1/GPa)
#
#
# Indices 1 2 3 4 5 6 
#
# 1 0.015133 -0.009872 0.005892 0.000000 0.003188 0.000000
# 2 -0.009872 0.033127 -0.021056 0.000000 0.002503 0.000000
# 3 0.005892 -0.021056 0.036544 0.000000 0.011069 0.000000
# 4 0.000000 0.000000 0.000000 0.027039 0.000000 0.007433
# 5 0.003188 0.002503 0.011069 0.000000 0.036278 0.000000
# 6 0.000000 0.000000 0.000000 0.007433 0.000000 0.038923
#
#
# Mechanical properties :
#
#
# Convention : Reuss Voigt Hill
#
# Bulk Modulus (GPa) = 28.79258 40.27221 34.53240
# Shear Modulus (GPa) = 20.10499 28.94250 24.52374
#
# Velocity S-wave (km/s) = 3.24823 3.89729 3.58747
# Velocity P-wave (km/s) = 5.40169 6.43324 5.93990
#
# Compressibility (1/GPa) = 0.03473117
#
# Stress axis : x y z
#
# Youngs Moduli (GPa) = 66.07906 30.18691 27.36427
#
# Poissons Ratio (x) = 0.29801 -0.16122
# Poissons Ratio (y) = 0.65235 0.57618
# Poissons Ratio (z) = -0.38931 0.63561
#
# Static dielectric constant tensor:
#      x y z
#    x 1.660430 0.000000 0.016500 
#    y 0.000000 1.647730 0.000000 
#    z 0.016500 0.000000 1.642230 
# 
# From -- ./inp_files/36913.got.cif
#   From: 2010.05.17/outbox.cif.g08.bks.cpg/sg10_19_cif.got.tgz:36913.got - 2010.06.03 11:33:40.
