data_PCOD9152677
_publ_section_title
;
Structure prediction by ZEFSAII (Michael W. Deem and Ramdas Pophale) SiO2 
 PCOD9152677
Probable space group: P 2/M
;
_chemical_formula_sum "Si O2"
_cell_formula_units_Z 28
_cell_length_a 9.340822
_cell_length_b 26.952202
_cell_length_c 9.854570
_cell_angle_alpha 90.000000
_cell_angle_beta 146.581890
_cell_angle_gamma 90.000000
_cell_volume 1366.366696
_symmetry_space_group_name_H-M "P 2/M"
_symmetry_group_IT_number 10
_symmetry_cell_setting 'monoclinic'
loop_
_space_group_symop_operation_xyz
x,y,z
-x,y,-z
-x,-y,-z
x,-y,z
loop_
_atom_site_type_symbol
_atom_site_label
_atom_site_fract_x
_atom_site_fract_y
_atom_site_fract_z
Si Si1 0.280721 0.379146 0.931513
Si Si2 0.617805 0.140773 0.445455
Si Si3 0.878411 0.199894 0.051148
Si Si4 0.991125 0.282366 0.346264
Si Si5 0.688907 0.941842 0.277894
Si Si6 0.873323 0.555260 0.550101
Si Si7 0.552530 0.348350 0.383959
O O1 0.155818 0.334399 0.745615
O O2 0.115508 0.427880 0.833274
O O3 0.500000 0.396181 0.000000
O O4 0.306894 0.349429 0.092758
O O5 0.500000 0.128664 0.500000
O O6 0.632828 0.093364 0.360561
O O7 0.902103 0.164877 0.701667
O O8 0.403822 0.176542 0.203982
O O9 0.858567 0.246678 0.133898
O O10 0.000000 0.212995 0.000000
O O11 0.000000 0.256941 0.500000
O O12 0.267555 0.301495 0.508287
O O13 0.000000 0.936833 0.500000
O O14 0.637881 0.000000 0.266176
O O15 0.500000 0.928705 0.000000
O O16 0.775139 0.500000 0.496048
O O17 0.679114 0.600194 0.427032
O O18 0.000000 0.557415 0.500000
O O19 0.500000 0.351156 0.500000
#
# Coordination Sequence:
#
# PCOD9152677 Si02
#       7
#     4   4   4   4   4   4   4
#     4  11  20  39  61  84 113 149 193 243 292 361
#     4  10  22  42  62  91 129 170 212 262 317 379
#     4  10  24  40  62  91 128 164 209 262 318 373
#     4  11  24  39  59  87 114 151 202 249 294 369
#     4  10  21  38  63  95 130 170 218 270 320 371
#     4  10  21  38  60  88 115 146 192 237 291 366
#     4  11  24  39  60  86 117 150 191 244 303 357
#
# _framework density 20.492303
#
# number of rings (size 3 to 8) (size 9 to 14) (size 15 to 20)
#    0.000    1.571    2.857    1.714    4.000    5.429 
#    0.000    0.714    0.000    5.143    0.000    0.000 
#    0.000    0.000    0.000    0.000    0.000    0.000 
#
# Total GULP energy -155961.521295 kJ/mol
# GULP energy per Si atom -5570.054332 kJ/mol
# Density = 2.044566 g / cm^3
# Si number density = 20.492303 Si / 1000 Ang^3
#
#
#
# Elastic Constant Matrix: (Units=GPa)
#
#
# Indices 1 2 3 4 5 6 
#
# 1 61.1851 45.0597 29.9054 0.0000 -28.2611 0.0000
# 2 45.0597 98.7100 41.7286 0.0000 -21.2172 0.0000
# 3 29.9054 41.7286 112.0486 0.0000 -27.7934 0.0000
# 4 0.0000 0.0000 0.0000 11.5842 0.0000 5.4640
# 5 -28.2611 -21.2172 -27.7934 0.0000 32.1846 0.0000
# 6 0.0000 0.0000 0.0000 5.4640 0.0000 5.2591
#
#
#
# Elastic Compliance Matrix: (Units=1/GPa)
#
#
# Indices 1 2 3 4 5 6 
#
# 1 0.035606 -0.011324 0.000786 0.000000 0.024479 0.000000
# 2 -0.011324 0.016340 -0.003636 0.000000 -0.002312 0.000000
# 3 0.000786 -0.003636 0.012275 0.000000 0.008893 0.000000
# 4 0.000000 0.000000 0.000000 0.169285 0.000000 -0.175883
# 5 0.024479 -0.002312 0.008893 0.000000 0.058721 0.000000
# 6 0.000000 0.000000 0.000000 -0.175883 0.000000 0.372886
#
#
# Mechanical properties :
#
#
# Convention : Reuss Voigt Hill
#
# Bulk Modulus (GPa) = 27.87667 56.14790 42.01229
# Shear Modulus (GPa) = 7.08797 20.15557 13.62177
#
# Velocity S-wave (km/s) = 1.86181 3.13959 2.58103
# Velocity P-wave (km/s) = 4.27257 6.37195 5.42478
#
# Compressibility (1/GPa) = 0.03587229
#
# Stress axis : x y z
#
# Youngs Moduli (GPa) = 28.08498 61.19779 81.46557
#
# Poissons Ratio (x) = 0.69303 -0.06404
# Poissons Ratio (y) = 0.31805 0.29625
# Poissons Ratio (z) = -0.02208 0.22254
#
# Static dielectric constant tensor:
#      x y z
#    x 1.767350 0.000000 0.102620 
#    y 0.000000 1.692330 0.000000 
#    z 0.102620 0.000000 2.062900 
# 
# From -- ./inp_files/20856.got.cif
#   From: 2010.05.17/outbox.cif.g08.bks.cpg/sg10_11_cif.got.tgz:20856.got - 2010.06.03 11:33:40.
