data_PCOD9152325
_publ_section_title
;
Structure prediction by ZEFSAII (Michael W. Deem and Ramdas Pophale) SiO2 
 PCOD9152325
Probable space group: P 2/M
;
_chemical_formula_sum "Si O2"
_cell_formula_units_Z 22
_cell_length_a 9.949953
_cell_length_b 13.538411
_cell_length_c 6.674630
_cell_angle_alpha 90.000000
_cell_angle_beta 91.770773
_cell_angle_gamma 90.000000
_cell_volume 898.687031
_symmetry_space_group_name_H-M "P 2/M"
_symmetry_group_IT_number 10
_symmetry_cell_setting 'monoclinic'
loop_
_space_group_symop_operation_xyz
x,y,z
-x,y,-z
-x,-y,-z
x,-y,z
loop_
_atom_site_type_symbol
_atom_site_label
_atom_site_fract_x
_atom_site_fract_y
_atom_site_fract_z
Si Si1 0.769701 0.390310 0.739867
Si Si2 0.867580 0.106369 0.357906
Si Si3 0.335231 0.605198 0.829305
Si Si4 0.362618 0.808114 0.377267
Si Si5 0.500000 0.227140 0.000000
Si Si6 0.052016 0.312122 0.732290
O O1 0.390205 0.500000 0.754776
O O2 0.696036 0.304422 0.613083
O O3 0.914099 0.349716 0.824189
O O4 0.679519 0.401955 0.931505
O O5 0.748712 0.129257 0.509715
O O6 0.895584 0.201552 0.219748
O O7 0.000000 0.100036 0.500000
O O8 0.845336 0.000000 0.256763
O O9 0.212152 0.500000 0.346801
O O10 0.182280 0.619749 0.752253
O O11 0.423159 0.704190 0.831321
O O12 0.500000 0.824462 0.500000
O O13 0.393739 0.827623 0.141216
O O14 0.000000 0.312032 0.500000
#
# Coordination Sequence:
#
# PCOD9152325 Si02
#       6
#     4   4   4   4   2   4
#     4  10  21  37  57  89 130 170 213 253 307 375
#     4  10  21  41  67  90 119 161 210 270 334 384
#     4  10  21  37  57  84 128 176 211 254 309 372
#     4  11  22  42  63  95 130 172 213 263 319 378
#     4  10  23  38  63  90 132 178 217 252 311 382
#     4  11  20  36  59  93 118 160 209 264 319 374
#
# _framework density 24.480156000000001
#
# number of rings (size 3 to 8) (size 9 to 14) (size 15 to 20)
#    0.000    1.636    3.636    2.455    0.000    4.364 
#    0.000    0.455    0.000    8.727    0.000    0.000 
#    0.000    0.000    0.000    0.000    0.000    0.000 
#
# Total GULP energy -122767.300019 kJ/mol
# GULP energy per Si atom -5580.331819 kJ/mol
# Density = 2.442444 g / cm^3
# Si number density = 24.480156 Si / 1000 Ang^3
#
#
#
# Elastic Constant Matrix: (Units=GPa)
#
#
# Indices 1 2 3 4 5 6 
#
# 1 153.7396 14.5045 15.4897 0.0000 6.1895 0.0000
# 2 14.5045 100.9635 0.1055 0.0000 -1.6545 0.0000
# 3 15.4897 0.1055 43.1654 0.0000 -5.1427 0.0000
# 4 0.0000 0.0000 0.0000 14.4330 0.0000 -6.6794
# 5 6.1895 -1.6545 -5.1427 0.0000 47.9066 0.0000
# 6 0.0000 0.0000 0.0000 -6.6794 0.0000 61.8136
#
#
#
# Elastic Compliance Matrix: (Units=1/GPa)
#
#
# Indices 1 2 3 4 5 6 
#
# 1 0.006913 -0.001010 -0.002622 0.000000 -0.001209 0.000000
# 2 -0.001010 0.010058 0.000400 0.000000 0.000521 0.000000
# 3 -0.002622 0.000400 0.024462 0.000000 0.002979 0.000000
# 4 0.000000 0.000000 0.000000 0.072933 0.000000 0.007881
# 5 -0.001209 0.000521 0.002979 0.000000 0.021368 0.000000
# 6 0.000000 0.000000 0.000000 0.007881 0.000000 0.017029
#
#
# Mechanical properties :
#
#
# Convention : Reuss Voigt Hill
#
# Bulk Modulus (GPa) = 28.59823 39.78532 34.19178
# Shear Modulus (GPa) = 29.25980 42.68186 35.97083
#
# Velocity S-wave (km/s) = 3.46098 4.18009 3.83742
# Velocity P-wave (km/s) = 5.26106 6.29165 5.79930
#
# Compressibility (1/GPa) = 0.03496720
#
# Stress axis : x y z
#
# Youngs Moduli (GPa) = 144.66127 99.42521 40.88049
#
# Poissons Ratio (x) = 0.10044 0.10720
# Poissons Ratio (y) = 0.14613 -0.01635
# Poissons Ratio (z) = 0.37933 -0.03977
#
# Static dielectric constant tensor:
#      x y z
#    x 1.974360 0.000000 -0.067010 
#    y 0.000000 2.050410 0.000000 
#    z -0.067010 0.000000 2.106120 
# 
# From -- ./inp_files/18856.got.cif
#   From: 2010.05.17/outbox.cif.g08.bks.cpg/sg10_10_cif.got.tgz:18856.got - 2010.06.03 11:33:40.
