data_PCOD9152699
_publ_section_title
;
Structure prediction by ZEFSAII (Michael W. Deem and Ramdas Pophale) SiO2 
 PCOD9152699
Probable space group: P 2/M
;
_chemical_formula_sum "Si O2"
_cell_formula_units_Z 28
_cell_length_a 21.332846
_cell_length_b 14.275925
_cell_length_c 9.042018
_cell_angle_alpha 90.000000
_cell_angle_beta 150.783345
_cell_angle_gamma 90.000000
_cell_volume 1344.123391
_symmetry_space_group_name_H-M "P 2/M"
_symmetry_group_IT_number 10
_symmetry_cell_setting 'monoclinic'
loop_
_space_group_symop_operation_xyz
x,y,z
-x,y,-z
-x,-y,-z
x,-y,z
loop_
_atom_site_type_symbol
_atom_site_label
_atom_site_fract_x
_atom_site_fract_y
_atom_site_fract_z
Si Si1 0.642885 0.605237 0.856615
Si Si2 0.133002 0.110284 0.696130
Si Si3 0.627920 0.387185 0.171218
Si Si4 0.515320 0.109084 0.209300
Si Si5 0.275687 0.237156 0.203775
Si Si6 0.775921 0.891071 0.413312
Si Si7 0.859263 0.728935 0.782378
O O1 0.500000 0.596706 0.500000
O O2 0.701102 0.500000 0.976943
O O3 0.704042 0.675816 0.864986
O O4 0.632174 0.638633 0.005454
O O5 0.131709 0.144672 0.525864
O O6 0.000000 0.128475 0.500000
O O7 0.154940 0.000000 0.729599
O O8 0.237457 0.154974 0.014736
O O9 0.628624 0.500000 0.178561
O O10 0.755226 0.345509 0.507378
O O11 0.500000 0.356745 0.000000
O O12 0.603915 0.190826 0.459196
O O13 0.557213 0.000000 0.326450
O O14 0.500000 0.116649 0.000000
O O15 0.366402 0.119043 0.948210
O O16 0.164656 0.265570 0.091470
O O17 0.806098 0.828737 0.615139
O O18 0.794324 0.000000 0.487651
O O19 0.000000 0.713192 0.000000
#
# Coordination Sequence:
#
# PCOD9152699 Si02
#       7
#     4   4   4   4   4   4   4
#     4  10  23  41  64  97 127 158 205 263 319 377
#     4  10  22  40  59  84 123 169 215 261 314 381
#     4  10  23  46  73  96 126 168 211 259 319 384
#     4  10  21  38  60  92 129 166 215 268 317 371
#     4  12  24  36  65  93 126 167 211 265 323 380
#     4  10  22  40  61  85 127 174 215 263 314 374
#     4  12  26  40  63  97 130 168 216 264 317 379
#
# _framework density 20.831420000000001
#
# number of rings (size 3 to 8) (size 9 to 14) (size 15 to 20)
#    0.000    1.429    1.429    3.000    6.000    2.857 
#    0.000    2.143    0.000    2.571    0.000    0.000 
#    0.000    0.000    0.000    0.000    0.000    0.000 
#
# Total GULP energy -156258.807251 kJ/mol
# GULP energy per Si atom -5580.671688 kJ/mol
# Density = 2.078401 g / cm^3
# Si number density = 20.831420 Si / 1000 Ang^3
#
#
#
# Elastic Constant Matrix: (Units=GPa)
#
#
# Indices 1 2 3 4 5 6 
#
# 1 167.3521 65.3451 31.0196 0.0000 -2.7518 0.0000
# 2 65.3451 94.2368 29.2474 0.0000 -9.3681 0.0000
# 3 31.0196 29.2474 45.7345 0.0000 4.7311 0.0000
# 4 0.0000 0.0000 0.0000 10.6634 0.0000 -0.5917
# 5 -2.7518 -9.3681 4.7311 0.0000 37.6015 0.0000
# 6 0.0000 0.0000 0.0000 -0.5917 0.0000 37.4208
#
#
#
# Elastic Compliance Matrix: (Units=1/GPa)
#
#
# Indices 1 2 3 4 5 6 
#
# 1 0.008415 -0.005129 -0.002390 0.000000 -0.000361 0.000000
# 2 -0.005129 0.017133 -0.007984 0.000000 0.004898 0.000000
# 3 -0.002390 -0.007984 0.029196 0.000000 -0.005838 0.000000
# 4 0.000000 0.000000 0.000000 0.093861 0.000000 0.001484
# 5 -0.000361 0.004898 -0.005838 0.000000 0.028523 0.000000
# 6 0.000000 0.000000 0.000000 0.001484 0.000000 0.026747
#
#
# Mechanical properties :
#
#
# Convention : Reuss Voigt Hill
#
# Bulk Modulus (GPa) = 42.12800 62.06084 52.09442
# Shear Modulus (GPa) = 20.59339 29.25121 24.92230
#
# Velocity S-wave (km/s) = 3.14757 3.75131 3.46263
# Velocity P-wave (km/s) = 5.78591 6.97279 6.40689
#
# Compressibility (1/GPa) = 0.02373718
#
# Stress axis : x y z
#
# Youngs Moduli (GPa) = 118.83010 58.36563 34.25081
#
# Poissons Ratio (x) = 0.29939 0.08186
# Poissons Ratio (y) = 0.60954 0.27347
# Poissons Ratio (z) = 0.28401 0.46602
#
# Static dielectric constant tensor:
#      x y z
#    x 1.816200 0.000000 0.032170 
#    y 0.000000 1.789680 0.000000 
#    z 0.032170 0.000000 1.739070 
# 
# From -- ./inp_files/29611.got.cif
#   From: 2010.05.17/outbox.cif.g08.bks.cpg/sg10_15_cif.got.tgz:29611.got - 2010.06.03 11:33:40.
