data_PCOD9152293
_publ_section_title
;
Structure prediction by ZEFSAII (Michael W. Deem and Ramdas Pophale) SiO2 
 PCOD9152293
Probable space group: P 2/M
;
_chemical_formula_sum "Si O2"
_cell_formula_units_Z 28
_cell_length_a 16.547675
_cell_length_b 7.710676
_cell_length_c 20.624066
_cell_angle_alpha 90.000000
_cell_angle_beta 146.170091
_cell_angle_gamma 90.000000
_cell_volume 1465.034402
_symmetry_space_group_name_H-M "P 2/M"
_symmetry_group_IT_number 10
_symmetry_cell_setting 'monoclinic'
loop_
_space_group_symop_operation_xyz
x,y,z
-x,y,-z
-x,-y,-z
x,-y,z
loop_
_atom_site_type_symbol
_atom_site_label
_atom_site_fract_x
_atom_site_fract_y
_atom_site_fract_z
Si Si1 0.652450 0.796129 0.629915
Si Si2 0.793566 0.000000 0.411574
Si Si3 0.199621 0.701189 0.394210
Si Si4 0.564988 0.291909 0.250055
Si Si5 0.506900 0.707413 0.657705
Si Si6 0.119457 0.292746 0.773471
Si Si7 0.100560 0.000000 0.663835
Si Si8 0.432993 0.291169 0.024311
O O1 0.500000 0.724804 0.500000
O O2 0.774641 0.714908 0.665977
O O3 0.632438 0.770406 0.692972
O O4 0.659236 0.000000 0.621305
O O5 0.704221 0.176347 0.358240
O O6 0.926905 0.000000 0.548616
O O7 0.849896 0.000000 0.376134
O O8 0.198696 0.500000 0.412920
O O9 0.347194 0.775764 0.526426
O O10 0.038083 0.763336 0.304405
O O11 0.592256 0.500000 0.266511
O O12 0.468737 0.256279 0.250164
O O13 0.505093 0.234142 0.139980
O O14 0.501891 0.500000 0.647229
O O15 0.117986 0.500000 0.759099
O O16 0.260373 0.258111 0.911523
O O17 0.149882 0.175378 0.731317
O O18 0.452273 0.500000 0.035840
O O19 0.500000 0.226738 0.000000
#
# Coordination Sequence:
#
# PCOD9152293 Si02
#       8
#     4   2   4   4   4   4   2   4
#     4   9  17  27  45  74 105 138 172 212 262 316
#     4  11  24  37  53  80 110 142 180 223 276 340
#     4   9  17  30  49  74 105 140 176 216 265 323
#     4  10  21  37  57  80 109 145 183 228 277 321
#     4   9  17  30  49  74 105 140 176 216 265 323
#     4  10  21  37  57  80 109 145 183 228 277 321
#     4  11  24  37  53  80 110 142 180 223 276 340
#     4   9  18  35  59  82 104 138 188 237 276 321
#
# _framework density 19.112179000000001
#
# number of rings (size 3 to 8) (size 9 to 14) (size 15 to 20)
#    0.000    2.429    0.000    2.143    2.000    5.714 
#    0.000    2.857    0.000    0.857    0.000    6.000 
#    0.000    0.000    0.000    0.000    0.000    0.000 
#
# Total GULP energy -155904.148294 kJ/mol
# GULP energy per Si atom -5568.005296 kJ/mol
# Density = 1.906868 g / cm^3
# Si number density = 19.112179 Si / 1000 Ang^3
#
#
#
# Elastic Constant Matrix: (Units=GPa)
#
#
# Indices 1 2 3 4 5 6 
#
# 1 98.7908 8.3327 19.6680 0.0000 -14.1911 0.0000
# 2 8.3327 40.3068 14.3311 0.0000 -2.4370 0.0000
# 3 19.6680 14.3311 56.6018 0.0000 -14.3865 0.0000
# 4 0.0000 0.0000 0.0000 11.5290 0.0000 -5.7310
# 5 -14.1911 -2.4370 -14.3865 0.0000 25.7322 0.0000
# 6 0.0000 0.0000 0.0000 -5.7310 0.0000 -2.7389
#
#
#
# Elastic Compliance Matrix: (Units=1/GPa)
#
#
# Indices 1 2 3 4 5 6 
#
# 1 0.011399 -0.001200 -0.002434 0.000000 0.004812 0.000000
# 2 -0.001200 0.027439 -0.007038 0.000000 -0.001998 0.000000
# 3 -0.002434 -0.007038 0.023062 0.000000 0.010884 0.000000
# 4 0.000000 0.000000 0.000000 0.042515 0.000000 -0.088962
# 5 0.004812 -0.001998 0.010884 0.000000 0.047412 0.000000
# 6 0.000000 0.000000 0.000000 -0.088962 0.000000 -0.178963
#
#
# Mechanical properties :
#
#
# Convention : Reuss Voigt Hill
#
# Bulk Modulus (GPa) = 24.65761 31.15144 27.90453
# Shear Modulus (GPa) = 646.95650 17.12898 332.04274
#
# Velocity S-wave (km/s) = 18.41846 2.99696 13.19510
# Velocity P-wave (km/s) = 21.56963 5.32075 15.70922
#
# Compressibility (1/GPa) = 0.04055543
#
# Stress axis : x y z
#
# Youngs Moduli (GPa) = 87.72321 36.44386 43.36213
#
# Poissons Ratio (x) = 0.04374 0.10555
# Poissons Ratio (y) = 0.10529 0.30519
# Poissons Ratio (z) = 0.21353 0.25650
#
# Static dielectric constant tensor:
#      x y z
#    x 1.717010 0.000000 -0.001060 
#    y 0.000000 1.691510 0.000000 
#    z -0.001060 0.000000 1.668200 
# 
# From -- ./inp_files/77823.got.cif
#   From: 2010.05.17/outbox.cif.g08.bks.cpg/sg10_39_cif.got.tgz:77823.got - 2010.06.03 11:33:40.
