data_PCOD9152458
_publ_section_title
;
Structure prediction by ZEFSAII (Michael W. Deem and Ramdas Pophale) SiO2 
 PCOD9152458
Probable space group: P 2/M
;
_chemical_formula_sum "Si O2"
_cell_formula_units_Z 26
_cell_length_a 8.169418
_cell_length_b 16.125855
_cell_length_c 13.192563
_cell_angle_alpha 90.000000
_cell_angle_beta 137.831153
_cell_angle_gamma 90.000000
_cell_volume 1166.732087
_symmetry_space_group_name_H-M "P 2/M"
_symmetry_group_IT_number 10
_symmetry_cell_setting 'monoclinic'
loop_
_space_group_symop_operation_xyz
x,y,z
-x,y,-z
-x,-y,-z
x,-y,z
loop_
_atom_site_type_symbol
_atom_site_label
_atom_site_fract_x
_atom_site_fract_y
_atom_site_fract_z
Si Si1 0.439121 0.326417 0.324129
Si Si2 0.287840 0.000000 0.199375
Si Si3 0.144466 0.404103 0.344923
Si Si4 0.908728 0.176733 0.843898
Si Si5 0.191205 0.325583 0.672419
Si Si6 0.109046 0.853339 0.723132
Si Si7 0.533458 0.000000 0.133650
Si Si8 0.721598 0.000000 0.521091
O O1 0.224628 0.386282 0.266484
O O2 0.668343 0.347720 0.502525
O O3 0.319751 0.236450 0.283921
O O4 0.546452 0.334167 0.260236
O O5 0.185275 0.083311 0.195484
O O6 0.276935 0.000000 0.073393
O O7 0.579838 0.000000 0.350018
O O8 0.185693 0.500000 0.387840
O O9 0.877408 0.375829 0.257849
O O10 0.095901 0.176966 0.834980
O O11 0.000000 0.197579 0.000000
O O12 0.127013 0.229877 0.666053
O O13 0.000000 0.357698 0.500000
O O14 0.880654 0.916452 0.603504
O O15 0.327975 0.912865 0.789826
O O16 0.500000 0.000000 0.000000
O O17 0.500000 0.000000 0.500000
#
# Coordination Sequence:
#
# PCOD9152458 Si02
#       8
#     4   2   4   4   4   4   2   2
#     4  10  21  37  60  92 123 160 199 246 310 364
#     4  12  24  38  60  85 119 166 216 257 312 363
#     4  10  21  39  66  97 128 156 192 251 319 389
#     4  12  24  40  61  84 120 170 221 257 294 361
#     4  10  22  35  60  94 129 153 192 246 313 379
#     4  11  23  39  56  86 124 161 206 264 312 364
#     4  11  24  40  56  81 123 171 220 259 294 351
#     4  11  23  35  58  86 114 160 200 264 326 358
#
# _framework density 22.284464
#
# number of rings (size 3 to 8) (size 9 to 14) (size 15 to 20)
#    0.000    1.231    3.077    3.462    6.462    4.000 
#    0.000    0.000    0.000    1.846    0.000    1.077 
#    0.000    0.000    0.000    0.000    0.000    0.000 
#
# Total GULP energy -145027.152837 kJ/mol
# GULP energy per Si atom -5577.967417 kJ/mol
# Density = 2.223374 g / cm^3
# Si number density = 22.284464 Si / 1000 Ang^3
#
#
#
# Elastic Constant Matrix: (Units=GPa)
#
#
# Indices 1 2 3 4 5 6 
#
# 1 180.5261 47.7875 -1.3847 0.0000 -6.5857 0.0000
# 2 47.7875 122.1259 31.7678 0.0000 9.9028 0.0000
# 3 -1.3847 31.7678 28.4708 0.0000 -5.5260 0.0000
# 4 0.0000 0.0000 0.0000 0.6818 0.0000 -7.4864
# 5 -6.5857 9.9028 -5.5260 0.0000 19.8026 0.0000
# 6 0.0000 0.0000 0.0000 -7.4864 0.0000 6.4774
#
#
#
# Elastic Compliance Matrix: (Units=1/GPa)
#
#
# Indices 1 2 3 4 5 6 
#
# 1 0.007346 -0.005564 0.008014 0.000000 0.007462 0.000000
# 2 -0.005564 0.017933 -0.023662 0.000000 -0.017421 0.000000
# 3 0.008014 -0.023662 0.068436 0.000000 0.033595 0.000000
# 4 0.000000 0.000000 0.000000 -0.125460 0.000000 -0.145002
# 5 0.007462 -0.017421 0.033595 0.000000 0.071066 0.000000
# 6 0.000000 0.000000 0.000000 -0.145002 0.000000 -0.013205
#
#
# Mechanical properties :
#
#
# Convention : Reuss Voigt Hill
#
# Bulk Modulus (GPa) = 19.49657 54.16267 36.82962
# Shear Modulus (GPa) = 58.38665 22.25585 40.32125
#
# Velocity S-wave (km/s) = 5.12421 3.16368 4.25831
# Velocity P-wave (km/s) = 6.61649 6.14028 6.38283
#
# Compressibility (1/GPa) = 0.05129106
#
# Stress axis : x y z
#
# Youngs Moduli (GPa) = 136.12974 55.76302 14.61229
#
# Poissons Ratio (x) = 0.31027 -0.11710
# Poissons Ratio (y) = 0.75744 0.34575
# Poissons Ratio (z) = -1.09094 1.31944
#
# Static dielectric constant tensor:
#      x y z
#    x 1.927240 0.000000 -0.091430 
#    y 0.000000 1.683250 0.000000 
#    z -0.091430 0.000000 1.969800 
# 
# From -- ./inp_files/62112.got.cif
#   From: 2010.05.17/outbox.cif.g08.bks.cpg/sg10_32_cif.got.tgz:62112.got - 2010.06.03 11:33:40.
