data_PCOD9152372
_publ_section_title
;
Structure prediction by ZEFSAII (Michael W. Deem and Ramdas Pophale) SiO2 
 PCOD9152372
Probable space group: P 2/M
;
_chemical_formula_sum "Si O2"
_cell_formula_units_Z 26
_cell_length_a 15.876592
_cell_length_b 7.894577
_cell_length_c 16.729585
_cell_angle_alpha 90.000000
_cell_angle_beta 144.100838
_cell_angle_gamma 90.000000
_cell_volume 1229.521225
_symmetry_space_group_name_H-M "P 2/M"
_symmetry_group_IT_number 10
_symmetry_cell_setting 'monoclinic'
loop_
_space_group_symop_operation_xyz
x,y,z
-x,y,-z
-x,-y,-z
x,-y,z
loop_
_atom_site_type_symbol
_atom_site_label
_atom_site_fract_x
_atom_site_fract_y
_atom_site_fract_z
Si Si1 0.278181 0.500000 0.856703
Si Si2 0.457001 0.186784 0.721768
Si Si3 0.066215 0.500000 0.397866
Si Si4 0.856865 0.203992 0.842864
Si Si5 0.311758 0.500000 0.698170
Si Si6 0.065416 0.196925 0.278954
Si Si7 0.724678 0.188696 0.034017
Si Si8 0.462018 0.697829 0.382904
O O1 0.332903 0.500000 0.808826
O O2 0.319515 0.333575 0.938199
O O3 0.104329 0.500000 0.721555
O O4 0.379070 0.335137 0.708777
O O5 0.457001 0.212019 0.626975
O O6 0.402051 0.000000 0.700530
O O7 0.622246 0.197230 0.878699
O O8 0.146784 0.500000 0.543611
O O9 0.107887 0.333855 0.378085
O O10 0.873044 0.239820 0.760861
O O11 0.708953 0.282987 0.759195
O O12 0.846589 0.000000 0.844316
O O13 0.000000 0.259634 0.000000
O O14 0.891391 0.209055 0.139259
O O15 0.099723 0.000000 0.324578
O O16 0.708316 0.000000 0.056622
O O17 0.500000 0.765757 0.500000
O O18 0.501523 0.500000 0.410472
#
# Coordination Sequence:
#
# PCOD9152372 Si02
#       8
#     2   4   2   4   2   4   4   4
#     4  10  22  42  67  92 119 159 196 247 323 362
#     4  11  24  42  64  90 123 165 202 249 310 364
#     4  10  23  40  62  86 122 157 200 247 300 361
#     4  10  21  37  58  87 122 162 211 262 306 357
#     4  12  26  42  61  91 126 157 205 254 293 378
#     4   9  19  36  61  88 117 158 204 252 302 355
#     4   9  19  39  65  93 124 154 199 253 306 369
#     4  11  25  41  60  88 129 169 212 261 306 362
#
# _framework density 21.146443000000001
#
# number of rings (size 3 to 8) (size 9 to 14) (size 15 to 20)
#    0.000    1.846    0.769    2.077    3.231    6.462 
#    2.769    1.538    0.000    4.615    0.000    0.000 
#    0.000    0.000    0.000    0.000    0.000    0.000 
#
# Total GULP energy -145400.657633 kJ/mol
# GULP energy per Si atom -5592.332986 kJ/mol
# Density = 2.109831 g / cm^3
# Si number density = 21.146443 Si / 1000 Ang^3
#
#
#
# Elastic Constant Matrix: (Units=GPa)
#
#
# Indices 1 2 3 4 5 6 
#
# 1 94.0482 54.8563 9.9661 0.0000 -23.9055 0.0000
# 2 54.8563 113.6942 10.6980 0.0000 -17.5378 0.0000
# 3 9.9661 10.6980 57.4796 0.0000 -6.7081 0.0000
# 4 0.0000 0.0000 0.0000 31.1098 0.0000 8.7009
# 5 -23.9055 -17.5378 -6.7081 0.0000 32.8280 0.0000
# 6 0.0000 0.0000 0.0000 8.7009 0.0000 -11.8714
#
#
#
# Elastic Compliance Matrix: (Units=1/GPa)
#
#
# Indices 1 2 3 4 5 6 
#
# 1 0.016786 -0.006726 -0.000667 0.000000 0.008494 0.000000
# 2 -0.006726 0.012364 -0.000959 0.000000 0.001512 0.000000
# 3 -0.000667 -0.000959 0.018004 0.000000 0.002681 0.000000
# 4 0.000000 0.000000 0.000000 0.026676 0.000000 0.019552
# 5 0.008494 0.001512 0.002681 0.000000 0.038002 0.000000
# 6 0.000000 0.000000 0.000000 0.019552 0.000000 -0.069906
#
#
# Mechanical properties :
#
#
# Convention : Reuss Voigt Hill
#
# Bulk Modulus (GPa) = 32.84013 46.25142 39.54578
# Shear Modulus (GPa) = 72.69527 23.06006 47.87766
#
# Velocity S-wave (km/s) = 5.86956 3.30584 4.76342
# Velocity P-wave (km/s) = 7.84214 6.04077 6.99965
#
# Compressibility (1/GPa) = 0.03045055
#
# Stress axis : x y z
#
# Youngs Moduli (GPa) = 59.57485 80.87953 55.54179
#
# Poissons Ratio (x) = 0.54399 0.03706
# Poissons Ratio (y) = 0.40069 0.05324
# Poissons Ratio (z) = 0.03976 0.07753
#
# Static dielectric constant tensor:
#      x y z
#    x 1.713830 0.000000 0.028190 
#    y 0.000000 1.755750 0.000000 
#    z 0.028190 0.000000 1.779200 
# 
# From -- ./inp_files/66833.got.cif
#   From: 2010.05.17/outbox.cif.g08.bks.cpg/sg10_34_cif.got.tgz:66833.got - 2010.06.03 11:33:40.
