data_PCOD9152019
_publ_section_title
;
Structure prediction by ZEFSAII (Michael W. Deem and Ramdas Pophale) SiO2 
 PCOD9152019
Probable space group: P 2/M
;
_chemical_formula_sum "Si O2"
_cell_formula_units_Z 20
_cell_length_a 9.106045
_cell_length_b 24.095506
_cell_length_c 5.154226
_cell_angle_alpha 90.000000
_cell_angle_beta 64.139858
_cell_angle_gamma 90.000000
_cell_volume 1017.665226
_symmetry_space_group_name_H-M "P 2/M"
_symmetry_group_IT_number 10
_symmetry_cell_setting 'monoclinic'
loop_
_space_group_symop_operation_xyz
x,y,z
-x,y,-z
-x,-y,-z
x,-y,z
loop_
_atom_site_type_symbol
_atom_site_label
_atom_site_fract_x
_atom_site_fract_y
_atom_site_fract_z
Si Si1 0.610025 0.349042 0.664949
Si Si2 0.802451 0.237987 0.655723
Si Si3 0.890194 0.564729 0.327199
Si Si4 0.613991 0.938183 0.160316
Si Si5 0.195535 0.829169 0.847960
O O1 0.500000 0.336179 0.500000
O O2 0.717848 0.295634 0.655603
O O3 0.731233 0.398554 0.492813
O O4 0.500000 0.363397 0.000000
O O5 0.755001 0.192612 0.473680
O O6 0.000000 0.244155 0.500000
O O7 0.752841 0.215545 0.975448
O O8 0.848360 0.500000 0.313292
O O9 0.000000 0.568115 0.500000
O O10 0.000000 0.584297 0.000000
O O11 0.500000 0.940042 0.500000
O O12 0.737293 0.888461 0.117606
O O13 0.688240 0.000000 0.068633
O O14 0.500000 0.927311 0.000000
O O15 0.000000 0.831467 0.000000
#
# Coordination Sequence:
#
# PCOD9152019 Si02
#       5
#     4   4   4   4   4
#     4  12  25  38  59  92 123 152 193 245 296 341
#     4  10  22  39  57  80 114 153 191 231 283 347
#     4  10  22  42  66  88 116 160 203 236 285 351
#     4  10  21  36  55  80 110 145 182 225 283 345
#     4  10  21  37  58  82 108 145 191 237 281 330
#
# _framework density 19.652826999999998
#
# number of rings (size 3 to 8) (size 9 to 14) (size 15 to 20)
#    0.000    1.600    0.000    4.200    0.000    8.400 
#    0.000    0.000    0.000    7.200    0.000    0.000 
#    0.000    0.000    0.000    0.000    0.000    0.000 
#
# Total GULP energy -111802.100401 kJ/mol
# GULP energy per Si atom -5590.105020 kJ/mol
# Density = 1.960810 g / cm^3
# Si number density = 19.652827 Si / 1000 Ang^3
#
#
#
# Elastic Constant Matrix: (Units=GPa)
#
#
# Indices 1 2 3 4 5 6 
#
# 1 80.0860 65.2881 46.5121 0.0000 20.9681 0.0000
# 2 65.2881 111.9379 31.6141 0.0000 -4.6325 0.0000
# 3 46.5121 31.6141 122.5627 0.0000 18.6150 0.0000
# 4 0.0000 0.0000 0.0000 19.3082 0.0000 -32.8069
# 5 20.9681 -4.6325 18.6150 0.0000 26.7186 0.0000
# 6 0.0000 0.0000 0.0000 -32.8069 0.0000 -69.9173
#
#
#
# Elastic Compliance Matrix: (Units=1/GPa)
#
#
# Indices 1 2 3 4 5 6 
#
# 1 0.050476 -0.029653 -0.005267 0.000000 -0.041084 0.000000
# 2 -0.029653 0.027414 -0.000083 0.000000 0.028082 0.000000
# 3 -0.005267 -0.000083 0.010684 0.000000 -0.003325 0.000000
# 4 0.000000 0.000000 0.000000 0.028817 0.000000 -0.013522
# 5 -0.041084 0.028082 -0.003325 0.000000 0.076854 0.000000
# 6 0.000000 0.000000 0.000000 -0.013522 0.000000 -0.007958
#
#
# Mechanical properties :
#
#
# Convention : Reuss Voigt Hill
#
# Bulk Modulus (GPa) = 53.85451 66.82391 60.33921
# Shear Modulus (GPa) = 19.04888 6.63338 12.84113
#
# Velocity S-wave (km/s) = 3.11669 1.83919 2.55894
# Velocity P-wave (km/s) = 6.35721 6.21178 6.28491
#
# Compressibility (1/GPa) = 0.01856855
#
# Stress axis : x y z
#
# Youngs Moduli (GPa) = 19.81149 36.47728 93.59530
#
# Poissons Ratio (x) = 1.08166 0.49294
# Poissons Ratio (y) = 0.58747 0.00779
# Poissons Ratio (z) = 0.10434 0.00304
#
# Static dielectric constant tensor:
#      x y z
#    x 1.646390 0.000000 -0.001370 
#    y 0.000000 1.683720 0.000000 
#    z -0.001370 0.000000 1.670680 
# 
# From -- ./inp_files/4698.got.cif
#   From: 2010.05.17/outbox.cif.g08.bks.cpg/sg10_3_cif.got.tgz:4698.got - 2010.06.03 11:33:40.
