data_PCOD9152688
_publ_section_title
;
Structure prediction by ZEFSAII (Michael W. Deem and Ramdas Pophale) SiO2 
 PCOD9152688
Probable space group: P 2/M
;
_chemical_formula_sum "Si O2"
_cell_formula_units_Z 32
_cell_length_a 12.394386
_cell_length_b 13.981158
_cell_length_c 14.766544
_cell_angle_alpha 90.000000
_cell_angle_beta 140.200558
_cell_angle_gamma 90.000000
_cell_volume 1637.933843
_symmetry_space_group_name_H-M "P 2/M"
_symmetry_group_IT_number 10
_symmetry_cell_setting 'monoclinic'
loop_
_space_group_symop_operation_xyz
x,y,z
-x,y,-z
-x,-y,-z
x,-y,z
loop_
_atom_site_type_symbol
_atom_site_label
_atom_site_fract_x
_atom_site_fract_y
_atom_site_fract_z
Si Si1 0.016321 0.891891 0.178509
Si Si2 0.091334 0.698664 0.311240
Si Si3 0.213900 0.387616 0.201020
Si Si4 0.757907 0.606818 0.174447
Si Si5 0.504766 0.338828 0.860805
Si Si6 0.605851 0.108835 0.653358
Si Si7 0.268989 0.219556 0.104792
Si Si8 0.593348 0.393331 0.404808
O O1 0.037826 0.808960 0.266585
O O2 0.198327 0.893923 0.248123
O O3 0.978079 0.000000 0.183965
O O4 0.875290 0.853147 0.018486
O O5 0.124892 0.655396 0.232196
O O6 0.264669 0.681306 0.475910
O O7 0.938469 0.643663 0.260044
O O8 0.171810 0.500000 0.158892
O O9 0.190907 0.315596 0.100746
O O10 0.417036 0.384349 0.344235
O O11 0.769601 0.500000 0.220578
O O12 0.661811 0.671644 0.186228
O O13 0.635028 0.603817 0.007913
O O14 0.616107 0.247298 0.906062
O O15 0.456043 0.384261 0.732932
O O16 0.500000 0.146101 0.500000
O O17 0.606308 0.173998 0.741160
O O18 0.548057 0.000000 0.633934
O O19 0.661946 0.500000 0.467107
#
# Coordination Sequence:
#
# PCOD9152688 Si02
#       8
#     4   4   4   4   4   4   4   4
#     4  11  24  41  60  87 122 158 201 258 312 357
#     4  12  23  38  60  89 120 162 209 248 302 366
#     4  10  22  37  57  89 130 165 193 239 300 366
#     4  11  22  40  62  87 124 161 208 257 299 358
#     4  10  22  38  61  86 121 162 202 248 300 350
#     4  10  22  38  63  95 126 162 202 252 311 372
#     4  11  21  39  63  88 121 164 206 245 299 372
#     4  10  21  38  60  88 125 165 199 239 297 365
#
# _framework density 19.536809000000002
#
# number of rings (size 3 to 8) (size 9 to 14) (size 15 to 20)
#    0.000    1.375    2.500    3.750    3.500    3.500 
#    0.000    1.875    0.000    2.250    0.000    0.875 
#    0.000    0.000    0.000    0.000    0.000    0.000 
#
# Total GULP energy -178697.885663 kJ/mol
# GULP energy per Si atom -5584.308927 kJ/mol
# Density = 1.949234 g / cm^3
# Si number density = 19.536809 Si / 1000 Ang^3
#
#
#
# Elastic Constant Matrix: (Units=GPa)
#
#
# Indices 1 2 3 4 5 6 
#
# 1 114.2665 19.4871 31.0714 0.0000 16.1699 0.0000
# 2 19.4871 103.8200 40.9608 0.0000 1.0332 0.0000
# 3 31.0714 40.9608 97.2300 0.0000 10.2848 0.0000
# 4 0.0000 0.0000 0.0000 29.9535 0.0000 0.2607
# 5 16.1699 1.0332 10.2848 0.0000 23.7756 0.0000
# 6 0.0000 0.0000 0.0000 0.2607 0.0000 7.4759
#
#
#
# Elastic Compliance Matrix: (Units=1/GPa)
#
#
# Indices 1 2 3 4 5 6 
#
# 1 0.010392 -0.000998 -0.002261 0.000000 -0.006046 0.000000
# 2 -0.000998 0.011712 -0.004855 0.000000 0.002270 0.000000
# 3 -0.002261 -0.004855 0.013485 0.000000 -0.004085 0.000000
# 4 0.000000 0.000000 0.000000 0.033395 0.000000 -0.001164
# 5 -0.006046 0.002270 -0.004085 0.000000 0.047840 0.000000
# 6 0.000000 0.000000 0.000000 -0.001164 0.000000 0.133803
#
#
# Mechanical properties :
#
#
# Convention : Reuss Voigt Hill
#
# Bulk Modulus (GPa) = 51.65185 55.37282 53.51233
# Shear Modulus (GPa) = 18.29422 27.16083 22.72753
#
# Velocity S-wave (km/s) = 3.06338 3.73264 3.41445
# Velocity P-wave (km/s) = 6.24564 6.85428 6.55702
#
# Compressibility (1/GPa) = 0.01936039
#
# Stress axis : x y z
#
# Youngs Moduli (GPa) = 96.22672 85.37912 74.15738
#
# Poissons Ratio (x) = 0.08525 0.16765
# Poissons Ratio (y) = 0.09608 0.36005
# Poissons Ratio (z) = 0.21754 0.41454
#
# Static dielectric constant tensor:
#      x y z
#    x 1.671890 0.000000 -0.001590 
#    y 0.000000 1.730190 0.000000 
#    z -0.001590 0.000000 1.719300 
# 
# From -- ./inp_files/65109.got.cif
#   From: 2010.05.17/outbox.cif.g08.bks.cpg/sg10_33_cif.got.tgz:65109.got - 2010.06.03 11:33:40.
