data_PCOD9152521
_publ_section_title
;
Structure prediction by ZEFSAII (Michael W. Deem and Ramdas Pophale) SiO2 
 PCOD9152521
Probable space group: P 2/M
;
_chemical_formula_sum "Si O2"
_cell_formula_units_Z 26
_cell_length_a 10.758659
_cell_length_b 16.057138
_cell_length_c 8.963296
_cell_angle_alpha 90.000000
_cell_angle_beta 60.862468
_cell_angle_gamma 90.000000
_cell_volume 1352.489150
_symmetry_space_group_name_H-M "P 2/M"
_symmetry_group_IT_number 10
_symmetry_cell_setting 'monoclinic'
loop_
_space_group_symop_operation_xyz
x,y,z
-x,y,-z
-x,-y,-z
x,-y,z
loop_
_atom_site_type_symbol
_atom_site_label
_atom_site_fract_x
_atom_site_fract_y
_atom_site_fract_z
Si Si1 0.695850 0.597017 0.031372
Si Si2 0.651742 0.000000 0.317033
Si Si3 0.669415 0.829986 0.438923
Si Si4 0.871085 0.697834 0.168565
Si Si5 0.925572 0.333031 0.691525
Si Si6 0.249681 0.171729 0.257507
Si Si7 0.667397 0.000000 0.946342
Si Si8 0.500000 0.287791 0.000000
O O1 0.668551 0.500000 0.061135
O O2 0.786270 0.618155 0.828631
O O3 0.553787 0.651903 0.099712
O O4 0.791420 0.633502 0.108054
O O5 0.500000 0.000000 0.500000
O O6 0.720128 0.084329 0.334305
O O7 0.656364 0.000000 0.134135
O O8 0.500000 0.820616 0.500000
O O9 0.755939 0.757889 0.307583
O O10 0.709789 0.835086 0.590582
O O11 0.956959 0.655828 0.250754
O O12 0.000000 0.741055 0.000000
O O13 0.883548 0.234452 0.693583
O O14 0.000000 0.363659 0.500000
O O15 0.374875 0.226351 0.114648
O O16 0.257215 0.082272 0.169610
O O17 0.500000 0.000000 0.000000
#
# Coordination Sequence:
#
# PCOD9152521 Si02
#       8
#     4   2   4   4   4   4   2   2
#     4  10  22  39  64  93 124 158 202 255 320 386
#     4  10  24  34  54  88 126 159 206 259 305 356
#     4  11  21  38  60  88 121 160 212 264 311 369
#     4  10  22  38  64  86 123 164 208 250 318 375
#     4  10  21  40  60  89 118 164 213 255 305 371
#     4  11  22  37  64  88 125 166 213 257 309 362
#     4  12  22  36  60  92 128 164 214 258 306 372
#     4  10  21  37  66  94 122 162 200 255 321 374
#
# _framework density 19.223814999999998
#
# number of rings (size 3 to 8) (size 9 to 14) (size 15 to 20)
#    0.000    1.538    2.308    3.462    6.462    3.077 
#    0.000    1.538    0.000    1.385    0.000    0.000 
#    0.000    0.000    0.000    0.000    0.000    0.000 
#
# Total GULP energy -144866.878115 kJ/mol
# GULP energy per Si atom -5571.803004 kJ/mol
# Density = 1.918006 g / cm^3
# Si number density = 19.223815 Si / 1000 Ang^3
#
#
#
# Elastic Constant Matrix: (Units=GPa)
#
#
# Indices 1 2 3 4 5 6 
#
# 1 54.7401 11.3065 -8.3868 0.0000 14.4887 0.0000
# 2 11.3065 112.7267 15.6146 0.0000 4.2877 0.0000
# 3 -8.3868 15.6146 67.9537 0.0000 17.1148 0.0000
# 4 0.0000 0.0000 0.0000 32.5022 0.0000 19.9406
# 5 14.4887 4.2877 17.1148 0.0000 34.7528 0.0000
# 6 0.0000 0.0000 0.0000 19.9406 0.0000 13.9149
#
#
#
# Elastic Compliance Matrix: (Units=1/GPa)
#
#
# Indices 1 2 3 4 5 6 
#
# 1 0.023205 -0.002773 0.006680 0.000000 -0.012622 0.000000
# 2 -0.002773 0.009494 -0.002877 0.000000 0.001401 0.000000
# 3 0.006680 -0.002877 0.019194 0.000000 -0.011883 0.000000
# 4 0.000000 0.000000 0.000000 0.254672 0.000000 -0.364953
# 5 -0.012622 0.001401 -0.011883 0.000000 0.039716 0.000000
# 6 0.000000 0.000000 0.000000 -0.364953 0.000000 0.594855
#
#
# Mechanical properties :
#
#
# Convention : Reuss Voigt Hill
#
# Bulk Modulus (GPa) = 18.53404 30.27659 24.40532
# Shear Modulus (GPa) = 5.22433 30.69304 17.95869
#
# Velocity S-wave (km/s) = 1.65031 4.00010 3.05977
# Velocity P-wave (km/s) = 3.64602 6.09247 5.02054
#
# Compressibility (1/GPa) = 0.05395477
#
# Stress axis : x y z
#
# Youngs Moduli (GPa) = 43.09390 105.32640 52.09922
#
# Poissons Ratio (x) = 0.29204 -0.34803
# Poissons Ratio (y) = 0.11949 0.14988
# Poissons Ratio (z) = -0.28787 0.30300
#
# Static dielectric constant tensor:
#      x y z
#    x 1.721240 0.000000 0.002290 
#    y 0.000000 1.663930 0.000000 
#    z 0.002290 0.000000 1.727070 
# 
# From -- ./inp_files/24852.got.cif
#   From: 2010.05.17/outbox.cif.g08.bks.cpg/sg10_13_cif.got.tgz:24852.got - 2010.06.03 11:33:40.
