data_PCOD9152795
_publ_section_title
;
Structure prediction by ZEFSAII (Michael W. Deem and Ramdas Pophale) SiO2 
 PCOD9152795
Probable space group: P 2/M
;
_chemical_formula_sum "Si O2"
_cell_formula_units_Z 24
_cell_length_a 9.340808
_cell_length_b 15.514427
_cell_length_c 15.662882
_cell_angle_alpha 90.000000
_cell_angle_beta 34.736385
_cell_angle_gamma 90.000000
_cell_volume 1293.348164
_symmetry_space_group_name_H-M "P 2/M"
_symmetry_group_IT_number 10
_symmetry_cell_setting 'monoclinic'
loop_
_space_group_symop_operation_xyz
x,y,z
-x,y,-z
-x,-y,-z
x,-y,z
loop_
_atom_site_type_symbol
_atom_site_label
_atom_site_fract_x
_atom_site_fract_y
_atom_site_fract_z
Si Si1 0.253935 0.097438 0.928346
Si Si2 0.127082 0.600908 0.029770
Si Si3 0.254545 0.905665 0.432751
Si Si4 0.798956 0.398754 0.359696
Si Si5 0.974194 0.736538 0.413480
Si Si6 0.473695 0.749448 0.913488
O O1 0.494435 0.100512 0.747200
O O2 0.296523 0.170117 0.977983
O O3 0.241508 0.000000 0.969470
O O4 0.000000 0.113580 0.000000
O O5 0.198110 0.500000 0.001079
O O6 0.937076 0.619819 0.201658
O O7 0.360031 0.664907 0.925125
O O8 0.000000 0.614195 0.000000
O O9 0.218861 0.816594 0.500790
O O10 0.000000 0.907063 0.500000
O O11 0.262863 0.000000 0.472938
O O12 0.500000 0.385486 0.500000
O O13 0.842490 0.500000 0.356778
O O14 0.904716 0.339417 0.383129
O O15 0.000000 0.709093 0.500000
O O16 0.249842 0.769920 0.254922
O O17 0.500000 0.732738 0.000000
#
# Coordination Sequence:
#
# PCOD9152795 Si02
#       6
#     4   4   4   4   4   4
#     4  10  21  38  62  91 123 161 208 257 304 362
#     4  10  23  42  63  85 118 165 204 246 310 372
#     4   9  17  35  62  86 117 161 200 238 296 366
#     4  10  23  42  61  87 122 158 204 257 307 363
#     4  11  22  38  62  92 119 160 204 247 305 369
#     4  12  23  38  60  92 124 157 204 257 309 366
#
# _framework density 18.556488999999999
#
# number of rings (size 3 to 8) (size 9 to 14) (size 15 to 20)
#    0.000    1.667    5.000    0.500    2.333    3.000 
#    0.000    0.000    0.000    0.500    0.000    0.000 
#    0.000    0.000    0.000    0.000    0.000    0.000 
#
# Total GULP energy -133842.740741 kJ/mol
# GULP energy per Si atom -5576.780864 kJ/mol
# Density = 1.851425 g / cm^3
# Si number density = 18.556489 Si / 1000 Ang^3
#
#
#
# Elastic Constant Matrix: (Units=GPa)
#
#
# Indices 1 2 3 4 5 6 
#
# 1 85.2160 65.5467 14.6143 0.0000 6.0522 0.0000
# 2 65.5467 100.6629 11.5877 0.0000 7.9544 0.0000
# 3 14.6143 11.5877 46.0638 0.0000 -2.4976 0.0000
# 4 0.0000 0.0000 0.0000 13.0514 0.0000 -0.5991
# 5 6.0522 7.9544 -2.4976 0.0000 32.7907 0.0000
# 6 0.0000 0.0000 0.0000 -0.5991 0.0000 0.6281
#
#
#
# Elastic Compliance Matrix: (Units=1/GPa)
#
#
# Indices 1 2 3 4 5 6 
#
# 1 0.024181 -0.015211 -0.003903 0.000000 -0.001070 0.000000
# 2 -0.015211 0.020041 -0.000328 0.000000 -0.002079 0.000000
# 3 -0.003903 -0.000328 0.023169 0.000000 0.002565 0.000000
# 4 0.000000 0.000000 0.000000 0.080129 0.000000 0.076435
# 5 -0.001070 -0.002079 0.002565 0.000000 0.031394 0.000000
# 6 0.000000 0.000000 0.000000 0.076435 0.000000 1.665096
#
#
# Mechanical properties :
#
#
# Convention : Reuss Voigt Hill
#
# Bulk Modulus (GPa) = 35.08118 46.16000 40.62059
# Shear Modulus (GPa) = 2.64215 18.64030 10.64123
#
# Velocity S-wave (km/s) = 1.19454 3.17285 2.39728
# Velocity P-wave (km/s) = 4.56604 6.19290 5.44062
#
# Compressibility (1/GPa) = 0.02850531
#
# Stress axis : x y z
#
# Youngs Moduli (GPa) = 41.35558 49.89756 43.16125
#
# Poissons Ratio (x) = 0.75901 0.16846
# Poissons Ratio (y) = 0.62907 0.01417
# Poissons Ratio (z) = 0.16141 0.01638
#
# Static dielectric constant tensor:
#      x y z
#    x 1.622220 0.000000 0.027710 
#    y 0.000000 1.671860 0.000000 
#    z 0.027710 0.000000 1.740970 
# 
# From -- ./inp_files/61660.got.cif
#   From: 2010.05.17/outbox.cif.g08.bks.cpg/sg10_31_cif.got.tgz:61660.got - 2010.06.03 11:33:40.
