data_PCOD9152982
_publ_section_title
;
Structure prediction by ZEFSAII (Michael W. Deem and Ramdas Pophale) SiO2 
 PCOD9152982
Probable space group: P 2/M
;
_chemical_formula_sum "Si O2"
_cell_formula_units_Z 22
_cell_length_a 9.337097
_cell_length_b 11.443523
_cell_length_c 13.908175
_cell_angle_alpha 90.000000
_cell_angle_beta 52.597599
_cell_angle_gamma 90.000000
_cell_volume 1180.524698
_symmetry_space_group_name_H-M "P 2/M"
_symmetry_group_IT_number 10
_symmetry_cell_setting 'monoclinic'
loop_
_space_group_symop_operation_xyz
x,y,z
-x,y,-z
-x,-y,-z
x,-y,z
loop_
_atom_site_type_symbol
_atom_site_label
_atom_site_fract_x
_atom_site_fract_y
_atom_site_fract_z
Si Si1 0.476447 0.000000 0.667499
Si Si2 0.647364 0.760602 0.375302
Si Si3 0.200593 0.360217 0.878805
Si Si4 0.932140 0.000000 0.133416
Si Si5 0.841002 0.000000 0.643905
Si Si6 0.964044 0.814396 0.749206
Si Si7 0.299257 0.635410 0.043556
O O1 0.455897 0.119936 0.614963
O O2 0.281433 0.000000 0.795998
O O3 0.650451 0.000000 0.665112
O O4 0.500000 0.694279 0.500000
O O5 0.722633 0.699261 0.247989
O O6 0.830028 0.782470 0.361963
O O7 0.204133 0.500000 0.862045
O O8 0.313063 0.326265 0.926987
O O9 0.000000 0.330102 0.000000
O O10 0.999443 0.107065 0.170861
O O11 0.000000 0.000000 0.000000
O O12 0.870893 0.889399 0.703104
O O13 0.000000 0.000000 0.500000
O O14 0.839302 0.709391 0.836332
O O15 0.237896 0.500000 0.068071
O O16 0.500000 0.642170 0.000000
#
# Coordination Sequence:
#
# PCOD9152982 Si02
#       7
#     2   4   4   2   2   4   4
#     4  10  23  36  59  81 117 156 193 230 290 349
#     4  11  22  38  61  88 119 155 194 241 291 348
#     4  10  21  39  63  88 115 154 197 240 292 344
#     4   9  21  35  56  86 119 149 187 246 291 338
#     4  11  23  41  58  81 117 157 194 238 289 353
#     4  10  22  37  59  86 116 154 196 238 294 347
#     4  10  22  39  61  86 119 154 191 240 295 349
#
# _framework density 18.63578
#
# number of rings (size 3 to 8) (size 9 to 14) (size 15 to 20)
#    0.000    1.818    1.818    1.909    7.636    0.364 
#    0.000    1.818    0.000    0.545    0.000    0.000 
#    0.000    0.000    0.000    0.000    0.000    0.000 
#
# Total GULP energy -122593.340747 kJ/mol
# GULP energy per Si atom -5572.424579 kJ/mol
# Density = 1.859336 g / cm^3
# Si number density = 18.635780 Si / 1000 Ang^3
#
#
#
# Elastic Constant Matrix: (Units=GPa)
#
#
# Indices 1 2 3 4 5 6 
#
# 1 131.2772 33.3925 50.6118 0.0000 -8.0301 0.0000
# 2 33.3925 72.7676 48.6406 0.0000 -4.1246 0.0000
# 3 50.6118 48.6406 144.2224 0.0000 6.2152 0.0000
# 4 0.0000 0.0000 0.0000 -66.2041 0.0000 -82.6850
# 5 -8.0301 -4.1246 6.2152 0.0000 18.1006 0.0000
# 6 0.0000 0.0000 0.0000 -82.6850 0.0000 -70.0111
#
#
#
# Elastic Compliance Matrix: (Units=1/GPa)
#
#
# Indices 1 2 3 4 5 6 
#
# 1 0.009554 -0.002250 -0.002796 0.000000 0.004686 0.000000
# 2 -0.002250 0.018982 -0.005842 0.000000 0.005333 0.000000
# 3 -0.002796 -0.005842 0.010146 0.000000 -0.006056 0.000000
# 4 0.000000 0.000000 0.000000 0.031797 0.000000 -0.037553
# 5 0.004686 0.005333 -0.006056 0.000000 0.060620 0.000000
# 6 0.000000 0.000000 0.000000 -0.037553 0.000000 0.030068
#
#
# Mechanical properties :
#
#
# Convention : Reuss Voigt Hill
#
# Bulk Modulus (GPa) = 59.14851 68.17300 63.66075
# Shear Modulus (GPa) = 26.51382 -9.24809 8.63287
#
# Velocity S-wave (km/s) = 3.77601 -2.23009 2.15464
# Velocity P-wave (km/s) = 7.12875 5.47997 6.35804
#
# Compressibility (1/GPa) = 0.01690660
#
# Stress axis : x y z
#
# Youngs Moduli (GPa) = 104.66404 52.68057 98.55796
#
# Poissons Ratio (x) = 0.11852 0.27558
# Poissons Ratio (y) = 0.23547 0.57581
# Poissons Ratio (z) = 0.29265 0.30778
#
# Static dielectric constant tensor:
#      x y z
#    x 1.684570 0.000000 -0.002600 
#    y 0.000000 1.702620 0.000000 
#    z -0.002600 0.000000 1.664350 
# 
# From -- ./inp_files/60630.got.cif
#   From: 2010.05.17/outbox.cif.g08.bks.cpg/sg10_31_cif.got.tgz:60630.got - 2010.06.03 11:33:40.
