data_PCOD9152009
_publ_section_title
;
Structure prediction by ZEFSAII (Michael W. Deem and Ramdas Pophale) SiO2 
 PCOD9152009
Probable space group: P 2/M
;
_chemical_formula_sum "Si O2"
_cell_formula_units_Z 28
_cell_length_a 30.048452
_cell_length_b 7.594791
_cell_length_c 9.687902
_cell_angle_alpha 90.000000
_cell_angle_beta 37.404816
_cell_angle_gamma 90.000000
_cell_volume 1342.990442
_symmetry_space_group_name_H-M "P 2/M"
_symmetry_group_IT_number 10
_symmetry_cell_setting 'monoclinic'
loop_
_space_group_symop_operation_xyz
x,y,z
-x,y,-z
-x,-y,-z
x,-y,z
loop_
_atom_site_type_symbol
_atom_site_label
_atom_site_fract_x
_atom_site_fract_y
_atom_site_fract_z
Si Si1 0.295888 0.788521 0.596519
Si Si2 0.990467 0.799010 0.173681
Si Si3 0.430595 0.784603 0.762586
Si Si4 0.126883 0.298241 0.004592
Si Si5 0.295075 0.214798 0.912674
Si Si6 0.569772 0.215511 0.919225
Si Si7 0.128824 0.786456 0.319364
O O1 0.211826 0.746232 0.769177
O O2 0.311129 0.726956 0.715822
O O3 0.355991 0.725318 0.339782
O O4 0.301540 0.000000 0.586172
O O5 0.930738 0.720230 0.425160
O O6 0.964551 0.000000 0.213012
O O7 0.067892 0.804343 0.060560
O O8 0.000000 0.715424 0.000000
O O9 0.500000 0.729876 0.500000
O O10 0.356304 0.727326 0.869371
O O11 0.430695 0.000000 0.763572
O O12 0.435163 0.727043 0.909961
O O13 0.114701 0.500000 0.000067
O O14 0.113421 0.270231 0.200638
O O15 0.296268 0.000000 0.908915
O O16 0.211836 0.267744 0.150811
O O17 0.570036 0.000000 0.920247
O O18 0.500000 0.269109 0.000000
O O19 0.126831 0.000000 0.321225
#
# Coordination Sequence:
#
# PCOD9152009 Si02
#       7
#     4   4   4   4   4   4   4
#     4   9  17  31  50  70  97 130 165 207 252 299
#     4  10  21  36  55  79 105 133 168 211 259 309
#     4   9  15  22  36  63  99 130 155 192 244 297
#     4  11  22  35  53  76 103 136 174 211 252 306
#     4   8  14  25  41  62  89 123 158 193 237 286
#     4   9  16  25  41  68  99 130 163 202 250 300
#     4   9  18  34  55  76 100 131 169 212 256 305
#
# _framework density 20.848991999999999
#
# number of rings (size 3 to 8) (size 9 to 14) (size 15 to 20)
#    0.000    2.714    0.000    3.429    0.000    7.143 
#    0.000    4.286    0.000    0.429    0.000    0.000 
#    0.000   14.286    0.000    0.000    0.000    0.000 
#
# Total GULP energy -156306.214745 kJ/mol
# GULP energy per Si atom -5582.364812 kJ/mol
# Density = 2.080154 g / cm^3
# Si number density = 20.848992 Si / 1000 Ang^3
#
#
#
# Elastic Constant Matrix: (Units=GPa)
#
#
# Indices 1 2 3 4 5 6 
#
# 1 166.5922 -2.3776 101.4842 0.0000 3.7859 0.0000
# 2 -2.3776 46.7001 5.6904 0.0000 2.4579 0.0000
# 3 101.4842 5.6904 200.5394 0.0000 11.6371 0.0000
# 4 0.0000 0.0000 0.0000 1.9365 0.0000 42.7963
# 5 3.7859 2.4579 11.6371 0.0000 16.4366 0.0000
# 6 0.0000 0.0000 0.0000 42.7963 0.0000 109.1495
#
#
#
# Elastic Compliance Matrix: (Units=1/GPa)
#
#
# Indices 1 2 3 4 5 6 
#
# 1 0.008740 0.000940 -0.004510 0.000000 0.001039 0.000000
# 2 0.000940 0.021722 -0.000929 0.000000 -0.002807 0.000000
# 3 -0.004510 -0.000929 0.007536 0.000000 -0.004158 0.000000
# 4 0.000000 0.000000 0.000000 -0.067370 0.000000 0.026415
# 5 0.001039 -0.002807 -0.004158 0.000000 0.063964 0.000000
# 6 0.000000 0.000000 0.000000 0.026415 0.000000 -0.001195
#
#
# Mechanical properties :
#
#
# Convention : Reuss Voigt Hill
#
# Bulk Modulus (GPa) = 34.48276 69.26953 51.87614
# Shear Modulus (GPa) = 96.03946 46.10682 71.07314
#
# Velocity S-wave (km/s) = 6.79443 4.70772 5.84495
# Velocity P-wave (km/s) = 8.83898 7.92759 8.39566
#
# Compressibility (1/GPa) = 0.02900000
#
# Stress axis : x y z
#
# Youngs Moduli (GPa) = 114.42002 46.03628 132.68927
#
# Poissons Ratio (x) = -0.04326 0.59840
# Poissons Ratio (y) = -0.10753 0.12328
# Poissons Ratio (z) = 0.51601 0.04277
#
# Static dielectric constant tensor:
#      x y z
#    x 1.706190 0.000000 -0.003610 
#    y 0.000000 1.768440 0.000000 
#    z -0.003610 0.000000 1.740730 
# 
# From -- ./inp_files/37972.got.cif
#   From: 2010.05.17/outbox.cif.g08.bks.cpg/sg10_19_cif.got.tgz:37972.got - 2010.06.03 11:33:40.
