data_PCOD9152899
_publ_section_title
;
Structure prediction by ZEFSAII (Michael W. Deem and Ramdas Pophale) SiO2 
 PCOD9152899
Probable space group: P 2/M
;
_chemical_formula_sum "Si O2"
_cell_formula_units_Z 17
_cell_length_a 9.065083
_cell_length_b 15.196754
_cell_length_c 9.953806
_cell_angle_alpha 90.000000
_cell_angle_beta 43.347092
_cell_angle_gamma 90.000000
_cell_volume 941.237819
_symmetry_space_group_name_H-M "P 2/M"
_symmetry_group_IT_number 10
_symmetry_cell_setting 'monoclinic'
loop_
_space_group_symop_operation_xyz
x,y,z
-x,y,-z
-x,-y,-z
x,-y,z
loop_
_atom_site_type_symbol
_atom_site_label
_atom_site_fract_x
_atom_site_fract_y
_atom_site_fract_z
Si Si1 0.464727 0.160555 0.670082
Si Si2 0.500000 0.500000 0.500000
Si Si3 0.200711 0.662922 0.769307
Si Si4 0.925426 0.763489 0.403721
Si Si5 0.278442 0.099439 0.064879
O O1 0.500000 0.117686 0.500000
O O2 0.336375 0.251380 0.726209
O O3 0.700715 0.184817 0.567611
O O4 0.335778 0.109517 0.869568
O O5 0.347576 0.577751 0.666680
O O6 0.116789 0.686807 0.675557
O O7 0.000000 0.652237 0.000000
O O8 0.000000 0.731981 0.500000
O O9 0.102375 0.829716 0.225662
O O10 0.203869 0.000000 0.142490
O O11 0.500000 0.113743 0.000000
#
# Coordination Sequence:
#
# PCOD9152899 Si02
#       5
#     4   1   4   4   4
#     4  10  21  39  60  86 121 160 202 246 306 357
#     4  12  22  40  66  96 122 144 200 252 298 370
#     4  11  22  40  66  90 118 158 198 243 308 362
#     4  11  21  38  64  87 122 166 200 246 301 356
#     4  11  23  37  59  91 124 161 209 252 294 350
#
# _framework density 18.061322000000001
#
# number of rings (size 3 to 8) (size 9 to 14) (size 15 to 20)
#    0.000    1.176    8.235    0.353    0.000    1.882 
#    0.000    8.824    0.000    1.412    0.000    0.000 
#    0.000    0.000    0.000    0.000    0.000    0.000 
#
# Total GULP energy -94646.993736 kJ/mol
# GULP energy per Si atom -5567.470220 kJ/mol
# Density = 1.802021 g / cm^3
# Si number density = 18.061322 Si / 1000 Ang^3
#
#
#
# Elastic Constant Matrix: (Units=GPa)
#
#
# Indices 1 2 3 4 5 6 
#
# 1 68.7423 3.3208 13.5293 0.0000 12.5639 0.0000
# 2 3.3208 61.2355 15.4064 0.0000 1.5178 0.0000
# 3 13.5293 15.4064 110.0653 0.0000 -2.7344 0.0000
# 4 0.0000 0.0000 0.0000 -9.2421 0.0000 -2.3322
# 5 12.5639 1.5178 -2.7344 0.0000 33.3978 0.0000
# 6 0.0000 0.0000 0.0000 -2.3322 0.0000 2.1450
#
#
#
# Elastic Compliance Matrix: (Units=1/GPa)
#
#
# Indices 1 2 3 4 5 6 
#
# 1 0.016109 -0.000189 -0.002108 0.000000 -0.006224 0.000000
# 2 -0.000189 0.016960 -0.002373 0.000000 -0.000894 0.000000
# 3 -0.002108 -0.002373 0.009719 0.000000 0.001697 0.000000
# 4 0.000000 0.000000 0.000000 -0.084907 0.000000 -0.092313
# 5 -0.006224 -0.000894 0.001697 0.000000 0.032463 0.000000
# 6 0.000000 0.000000 0.000000 -0.092313 0.000000 0.365826
#
#
# Mechanical properties :
#
#
# Convention : Reuss Voigt Hill
#
# Bulk Modulus (GPa) = 29.89780 33.83955 31.86868
# Shear Modulus (GPa) = 13.27461 19.11259 16.19360
#
# Velocity S-wave (km/s) = 2.71398 3.25654 2.99756
# Velocity P-wave (km/s) = 5.13910 5.73730 5.44642
#
# Compressibility (1/GPa) = 0.03344728
#
# Stress axis : x y z
#
# Youngs Moduli (GPa) = 62.07831 58.96291 102.89156
#
# Poissons Ratio (x) = 0.01114 0.21692
# Poissons Ratio (y) = 0.01173 0.24416
# Poissons Ratio (z) = 0.13088 0.13992
#
# Static dielectric constant tensor:
#      x y z
#    x 1.638730 0.000000 0.012260 
#    y 0.000000 1.554760 0.000000 
#    z 0.012260 0.000000 1.627230 
# 
# From -- ./inp_files/19024.got.cif
#   From: 2010.05.17/outbox.cif.g08.bks.cpg/sg10_10_cif.got.tgz:19024.got - 2010.06.03 11:33:40.
