data_PCOD9152674
_publ_section_title
;
Structure prediction by ZEFSAII (Michael W. Deem and Ramdas Pophale) SiO2 
 PCOD9152674
Probable space group: P 2/M
;
_chemical_formula_sum "Si O2"
_cell_formula_units_Z 26
_cell_length_a 19.093857
_cell_length_b 11.900466
_cell_length_c 9.736085
_cell_angle_alpha 90.000000
_cell_angle_beta 147.133698
_cell_angle_gamma 90.000000
_cell_volume 1200.566552
_symmetry_space_group_name_H-M "P 2/M"
_symmetry_group_IT_number 10
_symmetry_cell_setting 'monoclinic'
loop_
_space_group_symop_operation_xyz
x,y,z
-x,y,-z
-x,-y,-z
x,-y,z
loop_
_atom_site_type_symbol
_atom_site_label
_atom_site_fract_x
_atom_site_fract_y
_atom_site_fract_z
Si Si1 0.869769 0.726030 0.495972
Si Si2 0.796049 0.622888 0.108083
Si Si3 0.238255 0.329899 0.267615
Si Si4 0.136631 0.500000 0.332025
Si Si5 0.921833 0.874369 0.013122
Si Si6 0.383597 0.130970 0.915954
Si Si7 0.477864 0.286120 0.304567
O O1 0.875152 0.602764 0.574280
O O2 0.987942 0.802819 0.737373
O O3 0.738300 0.790960 0.322779
O O4 0.861634 0.709961 0.318656
O O5 0.847043 0.500000 0.220807
O O6 0.799133 0.639737 0.950044
O O7 0.644613 0.631747 0.898817
O O8 0.159276 0.403277 0.246019
O O9 0.391770 0.343453 0.536440
O O10 0.204502 0.198833 0.224724
O O11 0.895247 0.000000 0.018452
O O12 0.000000 0.880249 0.000000
O O13 0.345801 0.000000 0.861536
O O14 0.500000 0.142428 0.000000
O O15 0.438505 0.179580 0.149134
O O16 0.500000 0.255722 0.500000
#
# Coordination Sequence:
#
# PCOD9152674 Si02
#       7
#     4   4   4   2   4   4   4
#     4  11  23  42  61  94 123 167 207 255 319 368
#     4  10  21  41  63  91 135 164 199 252 316 376
#     4  11  23  40  63  98 121 167 212 254 312 368
#     4  12  22  37  64  90 131 156 207 262 295 378
#     4  11  25  44  66  89 125 166 211 265 308 365
#     4  10  21  38  60  87 123 162 208 261 308 366
#     4   9  21  38  61  91 127 162 205 251 311 376
#
# _framework density 21.656441000000001
#
# number of rings (size 3 to 8) (size 9 to 14) (size 15 to 20)
#    0.000    1.538    3.077    1.385    1.077    3.692 
#    0.000   10.385    0.000    0.000    0.000    0.000 
#    0.000    0.000    0.000    0.000    0.000    0.000 
#
# Total GULP energy -144802.765839 kJ/mol
# GULP energy per Si atom -5569.337148 kJ/mol
# Density = 2.160715 g / cm^3
# Si number density = 21.656441 Si / 1000 Ang^3
#
#
#
# Elastic Constant Matrix: (Units=GPa)
#
#
# Indices 1 2 3 4 5 6 
#
# 1 55.6827 20.9580 20.4227 0.0000 5.2651 0.0000
# 2 20.9580 159.4349 27.8749 0.0000 7.1891 0.0000
# 3 20.4227 27.8749 81.0396 0.0000 2.5899 0.0000
# 4 0.0000 0.0000 0.0000 4.2022 0.0000 -13.9978
# 5 5.2651 7.1891 2.5899 0.0000 32.3368 0.0000
# 6 0.0000 0.0000 0.0000 -13.9978 0.0000 8.9051
#
#
#
# Elastic Compliance Matrix: (Units=1/GPa)
#
#
# Indices 1 2 3 4 5 6 
#
# 1 0.020520 -0.001799 -0.004470 0.000000 -0.002583 0.000000
# 2 -0.001799 0.006887 -0.001881 0.000000 -0.001087 0.000000
# 3 -0.004470 -0.001881 0.014112 0.000000 0.000016 0.000000
# 4 0.000000 0.000000 0.000000 -0.056178 0.000000 -0.088305
# 5 -0.002583 -0.001087 0.000016 0.000000 0.031586 0.000000
# 6 0.000000 0.000000 0.000000 -0.088305 0.000000 -0.026510
#
#
# Mechanical properties :
#
#
# Convention : Reuss Voigt Hill
#
# Bulk Modulus (GPa) = 39.65197 48.29650 43.97423
# Shear Modulus (GPa) = 330.62667 24.21559 177.42113
#
# Velocity S-wave (km/s) = 12.36933 3.34753 9.06108
# Velocity P-wave (km/s) = 14.91140 6.10663 11.39387
#
# Compressibility (1/GPa) = 0.02521943
#
# Stress axis : x y z
#
# Youngs Moduli (GPa) = 48.73352 145.21157 70.85979
#
# Poissons Ratio (x) = 0.26130 0.31672
# Poissons Ratio (y) = 0.08769 0.13325
# Poissons Ratio (z) = 0.21782 0.27307
#
# Static dielectric constant tensor:
#      x y z
#    x 1.811780 0.000000 0.036840 
#    y 0.000000 1.764800 0.000000 
#    z 0.036840 0.000000 1.814100 
# 
# From -- ./inp_files/34715.got.cif
#   From: 2010.05.17/outbox.cif.g08.bks.cpg/sg10_18_cif.got.tgz:34715.got - 2010.06.03 11:33:40.
