data_PCOD9152776
_publ_section_title
;
Structure prediction by ZEFSAII (Michael W. Deem and Ramdas Pophale) SiO2 
 PCOD9152776
Probable space group: P 2/M
;
_chemical_formula_sum "Si O2"
_cell_formula_units_Z 24
_cell_length_a 15.659947
_cell_length_b 15.683743
_cell_length_c 8.408703
_cell_angle_alpha 90.000000
_cell_angle_beta 36.149513
_cell_angle_gamma 90.000000
_cell_volume 1218.269222
_symmetry_space_group_name_H-M "P 2/M"
_symmetry_group_IT_number 10
_symmetry_cell_setting 'monoclinic'
loop_
_space_group_symop_operation_xyz
x,y,z
-x,y,-z
-x,-y,-z
x,-y,z
loop_
_atom_site_type_symbol
_atom_site_label
_atom_site_fract_x
_atom_site_fract_y
_atom_site_fract_z
Si Si1 0.155819 0.401389 0.182684
Si Si2 0.836457 0.000000 0.327907
Si Si3 0.151247 0.240231 0.982520
Si Si4 0.176612 0.807348 0.578007
Si Si5 0.599928 0.168013 0.198065
Si Si6 0.618949 0.687879 0.937142
Si Si7 0.491818 0.000000 0.202010
O O1 0.165115 0.500000 0.121961
O O2 0.275443 0.377608 0.134785
O O3 0.000000 0.386391 0.500000
O O4 0.175476 0.336898 0.005421
O O5 0.824949 0.090317 0.434434
O O6 0.676632 0.000000 0.481237
O O7 0.000000 0.000000 0.000000
O O8 0.196997 0.216322 0.733992
O O9 0.238490 0.183586 0.979010
O O10 0.981054 0.223230 0.239312
O O11 0.291124 0.756713 0.301468
O O12 0.500000 0.159896 0.500000
O O13 0.573241 0.084021 0.137849
O O14 0.552858 0.252218 0.173286
O O15 0.500000 0.648750 0.000000
O O16 0.500000 0.000000 0.000000
#
# Coordination Sequence:
#
# PCOD9152776 Si02
#       7
#     4   2   4   4   4   4   2
#     4  10  21  40  63  89 121 159 205 261 320 377
#     4  12  22  34  60  87 124 161 208 258 298 355
#     4  10  21  38  62  88 123 159 204 252 308 373
#     4  11  22  39  61  92 126 167 210 249 310 366
#     4  11  23  37  61  88 122 163 209 253 308 372
#     4  11  22  39  65  89 125 163 206 255 312 381
#     4  12  25  42  58  88 124 171 218 265 317 367
#
# _framework density 19.700078999999999
#
# number of rings (size 3 to 8) (size 9 to 14) (size 15 to 20)
#    0.000    1.167    3.333    4.750    0.000    1.667 
#    0.000    2.500    0.000   21.000    0.000    0.000 
#    0.000    0.000    0.000    0.000    0.000    0.000 
#
# Total GULP energy -133981.043266 kJ/mol
# GULP energy per Si atom -5582.543469 kJ/mol
# Density = 1.965524 g / cm^3
# Si number density = 19.700079 Si / 1000 Ang^3
#
#
#
# Elastic Constant Matrix: (Units=GPa)
#
#
# Indices 1 2 3 4 5 6 
#
# 1 140.7466 46.9011 21.9924 0.0000 -16.6856 0.0000
# 2 46.9011 111.4772 23.2169 0.0000 2.7430 0.0000
# 3 21.9924 23.2169 51.9175 0.0000 0.7859 0.0000
# 4 0.0000 0.0000 0.0000 6.1603 0.0000 1.5496
# 5 -16.6856 2.7430 0.7859 0.0000 36.3975 0.0000
# 6 0.0000 0.0000 0.0000 1.5496 0.0000 23.2257
#
#
#
# Elastic Compliance Matrix: (Units=1/GPa)
#
#
# Indices 1 2 3 4 5 6 
#
# 1 0.009172 -0.003470 -0.002402 0.000000 0.004518 0.000000
# 2 -0.003470 0.011220 -0.003512 0.000000 -0.002360 0.000000
# 3 -0.002402 -0.003512 0.021869 0.000000 -0.001309 0.000000
# 4 0.000000 0.000000 0.000000 0.165101 0.000000 -0.011015
# 5 0.004518 -0.002360 -0.001309 0.000000 0.029752 0.000000
# 6 0.000000 0.000000 0.000000 -0.011015 0.000000 0.043791
#
#
# Mechanical properties :
#
#
# Convention : Reuss Voigt Hill
#
# Bulk Modulus (GPa) = 42.56476 54.26245 48.41361
# Shear Modulus (GPa) = 16.25997 27.29209 21.77603
#
# Velocity S-wave (km/s) = 2.87605 3.72611 3.32833
# Velocity P-wave (km/s) = 5.71683 6.79087 6.27687
#
# Compressibility (1/GPa) = 0.02349361
#
# Stress axis : x y z
#
# Youngs Moduli (GPa) = 109.02507 89.12851 45.72670
#
# Poissons Ratio (x) = 0.30926 0.10984
# Poissons Ratio (y) = 0.37830 0.16058
# Poissons Ratio (z) = 0.26189 0.31300
#
# Static dielectric constant tensor:
#      x y z
#    x 1.716880 0.000000 -0.011440 
#    y 0.000000 1.656330 0.000000 
#    z -0.011440 0.000000 1.731490 
# 
# From -- ./inp_files/29357.got.cif
#   From: 2010.05.17/outbox.cif.g08.bks.cpg/sg10_15_cif.got.tgz:29357.got - 2010.06.03 11:33:40.
