data_PCOD9152156
_publ_section_title
;
Structure prediction by ZEFSAII (Michael W. Deem and Ramdas Pophale) SiO2 
 PCOD9152156
Probable space group: P 2/M
;
_chemical_formula_sum "Si O2"
_cell_formula_units_Z 32
_cell_length_a 17.550243
_cell_length_b 15.225688
_cell_length_c 13.395386
_cell_angle_alpha 90.000000
_cell_angle_beta 25.768941
_cell_angle_gamma 90.000000
_cell_volume 1556.137182
_symmetry_space_group_name_H-M "P 2/M"
_symmetry_group_IT_number 10
_symmetry_cell_setting 'monoclinic'
loop_
_space_group_symop_operation_xyz
x,y,z
-x,y,-z
-x,-y,-z
x,-y,z
loop_
_atom_site_type_symbol
_atom_site_label
_atom_site_fract_x
_atom_site_fract_y
_atom_site_fract_z
Si Si1 0.968266 0.405749 0.156779
Si Si2 0.321741 0.404270 0.872318
Si Si3 0.985573 0.214832 0.135416
Si Si4 0.299523 0.214517 0.201836
Si Si5 0.387302 0.219190 0.729924
Si Si6 0.205149 0.901370 0.487003
Si Si7 0.207849 0.404025 0.237969
Si Si8 0.394199 0.099713 0.913138
O O1 0.879764 0.500000 0.286091
O O2 0.891435 0.309102 0.269262
O O3 0.000000 0.405457 0.000000
O O4 0.152393 0.406680 0.999315
O O5 0.410751 0.500000 0.757004
O O6 0.431490 0.318288 0.714547
O O7 0.254768 0.395353 0.065214
O O8 0.889833 0.136612 0.304202
O O9 0.182667 0.219705 0.943806
O O10 0.000000 0.203127 0.000000
O O11 0.182640 0.167677 0.423746
O O12 0.269355 0.317180 0.221353
O O13 0.500000 0.205163 0.000000
O O14 0.281533 0.160440 0.120311
O O15 0.500000 0.198333 0.500000
O O16 0.412109 0.148996 0.787455
O O17 0.411215 0.905321 0.269737
O O18 0.148014 0.000000 0.528166
O O19 0.277352 0.500000 0.189263
O O20 0.000000 0.406182 0.500000
O O21 0.327529 0.000000 0.983043
#
# Coordination Sequence:
#
# PCOD9152156 Si02
#       8
#     4   4   4   4   4   4   4   4
#     4   8  15  29  51  78 109 144 182 225 272 324
#     4   9  18  34  55  81 116 153 190 230 279 340
#     4  10  21  37  57  85 117 154 188 237 284 341
#     4  10  21  38  62  89 116 148 189 238 291 344
#     4  11  22  36  58  85 114 152 195 238 287 341
#     4  10  22  39  61  85 112 148 192 240 291 347
#     4  10  21  36  59  89 121 157 191 228 283 344
#     4  10  21  40  61  83 113 149 189 238 294 347
#
# _framework density 20.563739000000002
#
# number of rings (size 3 to 8) (size 9 to 14) (size 15 to 20)
#    0.000    2.250    1.250    1.125    3.500    3.000 
#    0.000    0.000    0.000    5.250    0.000    0.000 
#    0.000    0.000    0.000    0.000    0.000    0.000 
#
# Total GULP energy -178484.067798 kJ/mol
# GULP energy per Si atom -5577.627119 kJ/mol
# Density = 2.051694 g / cm^3
# Si number density = 20.563739 Si / 1000 Ang^3
#
#
#
# Elastic Constant Matrix: (Units=GPa)
#
#
# Indices 1 2 3 4 5 6 
#
# 1 50.9915 56.3613 16.6156 0.0000 20.8447 0.0000
# 2 56.3613 186.0214 38.2406 0.0000 31.3179 0.0000
# 3 16.6156 38.2406 38.3570 0.0000 19.7440 0.0000
# 4 0.0000 0.0000 0.0000 23.5961 0.0000 8.1985
# 5 20.8447 31.3179 19.7440 0.0000 28.6086 0.0000
# 6 0.0000 0.0000 0.0000 8.1985 0.0000 33.9239
#
#
#
# Elastic Compliance Matrix: (Units=1/GPa)
#
#
# Indices 1 2 3 4 5 6 
#
# 1 0.035339 -0.008056 0.002230 0.000000 -0.018468 0.000000
# 2 -0.008056 0.008951 -0.005291 0.000000 -0.000277 0.000000
# 3 0.002230 -0.005291 0.043792 0.000000 -0.026055 0.000000
# 4 0.000000 0.000000 0.000000 0.046265 0.000000 -0.011181
# 5 -0.018468 -0.000277 -0.026055 0.000000 0.066695 0.000000
# 6 0.000000 0.000000 0.000000 -0.011181 0.000000 0.032180
#
#
# Mechanical properties :
#
#
# Convention : Reuss Voigt Hill
#
# Bulk Modulus (GPa) = 15.18692 55.31165 35.24929
# Shear Modulus (GPa) = 18.02417 28.16922 23.09670
#
# Velocity S-wave (km/s) = 2.96379 3.70516 3.35502
# Velocity P-wave (km/s) = 4.37189 6.72758 5.67335
#
# Compressibility (1/GPa) = 0.06584612
#
# Stress axis : x y z
#
# Youngs Moduli (GPa) = 28.29772 111.71920 22.83529
#
# Poissons Ratio (x) = 0.90003 -0.05092
# Poissons Ratio (y) = 0.22797 0.12083
# Poissons Ratio (z) = -0.06310 0.59116
#
# Static dielectric constant tensor:
#      x y z
#    x 1.590180 0.000000 -0.012340 
#    y 0.000000 1.782500 0.000000 
#    z -0.012340 0.000000 1.708970 
# 
# From -- ./inp_files/36378.got.cif
#   From: 2010.05.17/outbox.cif.g08.bks.cpg/sg10_19_cif.got.tgz:36378.got - 2010.06.03 11:33:40.
