data_PCOD9152664
_publ_section_title
;
Structure prediction by ZEFSAII (Michael W. Deem and Ramdas Pophale) SiO2 
 PCOD9152664
Probable space group: P 2/M
;
_chemical_formula_sum "Si O2"
_cell_formula_units_Z 20
_cell_length_a 5.429309
_cell_length_b 28.608030
_cell_length_c 5.378679
_cell_angle_alpha 90.000000
_cell_angle_beta 81.785966
_cell_angle_gamma 90.000000
_cell_volume 826.855875
_symmetry_space_group_name_H-M "P 2/M"
_symmetry_group_IT_number 10
_symmetry_cell_setting 'monoclinic'
loop_
_space_group_symop_operation_xyz
x,y,z
-x,y,-z
-x,-y,-z
x,-y,z
loop_
_atom_site_type_symbol
_atom_site_label
_atom_site_fract_x
_atom_site_fract_y
_atom_site_fract_z
Si Si1 0.774965 0.550099 0.335900
Si Si2 0.664832 0.050013 0.224448
Si Si3 0.777162 0.850070 0.339520
Si Si4 0.665106 0.650104 0.224522
Si Si5 0.664745 0.249834 0.224421
O O1 0.500000 0.550607 0.500000
O O2 0.781451 0.500000 0.194609
O O3 0.797890 0.600110 0.201867
O O4 0.000000 0.549112 0.500000
O O5 0.500000 0.050521 0.500000
O O6 0.795676 0.100148 0.201175
O O7 0.805721 0.000000 0.218452
O O8 0.500000 0.048830 0.000000
O O9 0.500000 0.850096 0.500000
O O10 0.795276 0.800330 0.200766
O O11 0.000000 0.849999 0.500000
O O12 0.500000 0.649673 0.500000
O O13 0.805563 0.700158 0.218280
O O14 0.500000 0.651015 0.000000
O O15 0.500000 0.249280 0.500000
O O16 0.500000 0.251131 0.000000
#
# Coordination Sequence:
#
# PCOD9152664 Si02
#       5
#     4   4   4   4   4
#     4   9  18  34  56  82 113 149 189 234 284 339
#     4   9  18  35  58  84 115 151 191 236 286 340
#     4  10  21  38  60  86 117 153 193 238 288 342
#     4   9  18  34  57  83 113 149 189 235 285 339
#     4   9  18  35  57  83 114 149 190 235 285 340
#
# _framework density 24.188013000000002
#
# number of rings (size 3 to 8) (size 9 to 14) (size 15 to 20)
#    0.000    2.800    0.000    0.600    0.000    1.600 
#    0.000   20.000    0.000   43.200    0.000    0.000 
#    0.000    0.000    0.000    0.000    0.000    0.000 
#
# Total GULP energy -111472.663248 kJ/mol
# GULP energy per Si atom -5573.633162 kJ/mol
# Density = 2.413296 g / cm^3
# Si number density = 24.188013 Si / 1000 Ang^3
#
#
#
# Elastic Constant Matrix: (Units=GPa)
#
#
# Indices 1 2 3 4 5 6 
#
# 1 119.2518 33.2014 50.7623 0.0000 -19.4447 0.0000
# 2 33.2014 393.2616 33.2513 0.0000 19.2220 0.0000
# 3 50.7623 33.2513 147.0024 0.0000 -12.8306 0.0000
# 4 0.0000 0.0000 0.0000 24.6019 0.0000 55.1218
# 5 -19.4447 19.2220 -12.8306 0.0000 57.3643 0.0000
# 6 0.0000 0.0000 0.0000 55.1218 0.0000 -33.3965
#
#
#
# Elastic Compliance Matrix: (Units=1/GPa)
#
#
# Indices 1 2 3 4 5 6 
#
# 1 0.010450 -0.000766 -0.003166 0.000000 0.003091 0.000000
# 2 -0.000766 0.002708 -0.000459 0.000000 -0.001270 0.000000
# 3 -0.003166 -0.000459 0.008077 0.000000 0.000887 0.000000
# 4 0.000000 0.000000 0.000000 0.008652 0.000000 0.014280
# 5 0.003091 -0.001270 0.000887 0.000000 0.019104 0.000000
# 6 0.000000 0.000000 0.000000 0.014280 0.000000 -0.006373
#
#
# Mechanical properties :
#
#
# Convention : Reuss Voigt Hill
#
# Bulk Modulus (GPa) = 80.28973 99.32732 89.80852
# Shear Modulus (GPa) = 90.00782 45.86731 67.93757
#
# Velocity S-wave (km/s) = 6.10676 4.35936 5.30549
# Velocity P-wave (km/s) = 9.10985 8.15429 8.64529
#
# Compressibility (1/GPa) = 0.01245489
#
# Stress axis : x y z
#
# Youngs Moduli (GPa) = 95.69070 369.22760 123.80744
#
# Poissons Ratio (x) = 0.28271 0.39194
# Poissons Ratio (y) = 0.07327 0.05683
# Poissons Ratio (z) = 0.30293 0.16949
#
# Static dielectric constant tensor:
#      x y z
#    x 1.822170 0.000000 0.033330 
#    y 0.000000 2.065520 0.000000 
#    z 0.033330 0.000000 1.775130 
# 
# From -- ./inp_files/2328.got.cif
#   From: 2010.05.17/outbox.cif.g08.bks.cpg/sg10_2_cif.got.tgz:2328.got - 2010.06.03 11:33:40.
