data_PCOD9152944
_publ_section_title
;
Structure prediction by ZEFSAII (Michael W. Deem and Ramdas Pophale) SiO2 
 PCOD9152944
Probable space group: P 2/M
;
_chemical_formula_sum "Si O2"
_cell_formula_units_Z 28
_cell_length_a 9.263184
_cell_length_b 7.899937
_cell_length_c 19.344448
_cell_angle_alpha 90.000000
_cell_angle_beta 76.461640
_cell_angle_gamma 90.000000
_cell_volume 1376.264371
_symmetry_space_group_name_H-M "P 2/M"
_symmetry_group_IT_number 10
_symmetry_cell_setting 'monoclinic'
loop_
_space_group_symop_operation_xyz
x,y,z
-x,y,-z
-x,-y,-z
x,-y,z
loop_
_atom_site_type_symbol
_atom_site_label
_atom_site_fract_x
_atom_site_fract_y
_atom_site_fract_z
Si Si1 0.068426 0.802573 0.063498
Si Si2 0.607483 0.299940 0.928585
Si Si3 0.826093 0.196176 0.496370
Si Si4 0.509760 0.704489 0.789990
Si Si5 0.175430 0.700598 0.800441
Si Si6 0.750150 0.203792 0.650296
Si Si7 0.078143 0.793836 0.658743
O O1 0.222472 0.720306 0.068782
O O2 0.947448 0.784187 0.137170
O O3 0.101306 0.000000 0.048136
O O4 0.000000 0.731650 0.000000
O O5 0.574620 0.500000 0.927937
O O6 0.574757 0.231086 0.855676
O O7 0.500000 0.227538 0.000000
O O8 0.742148 0.270801 0.572202
O O9 0.828853 0.267972 0.418692
O O10 0.000000 0.195221 0.500000
O O11 0.778739 0.000000 0.494859
O O12 0.507499 0.500000 0.791445
O O13 0.340843 0.763078 0.799057
O O14 0.614783 0.753832 0.714846
O O15 0.169454 0.500000 0.814780
O O16 0.138772 0.732551 0.724615
O O17 0.906760 0.260183 0.666300
O O18 0.760156 0.000000 0.643652
O O19 0.080400 0.000000 0.657949
#
# Coordination Sequence:
#
# PCOD9152944 Si02
#       7
#     4   4   4   4   4   4   4
#     4  11  24  40  59  85 113 139 172 217 266 313
#     4  10  21  39  62  84 108 142 181 217 258 312
#     4   7  12  26  49  76 104 134 171 216 265 318
#     4  10  22  37  52  75 107 142 180 221 263 310
#     4  11  23  38  55  76 107 146 183 217 260 316
#     4   9  17  31  54  80 104 136 177 220 269 321
#     4   9  17  32  55  81 107 135 174 224 271 316
#
# _framework density 20.344926999999998
#
# number of rings (size 3 to 8) (size 9 to 14) (size 15 to 20)
#    0.000    2.429    0.000    4.286    0.000    7.143 
#    0.000    1.429    0.000    6.857    0.000    0.000 
#    0.000    0.000    0.000    0.000    0.000    0.000 
#
# Total GULP energy -156243.580517 kJ/mol
# GULP energy per Si atom -5580.127876 kJ/mol
# Density = 2.029862 g / cm^3
# Si number density = 20.344927 Si / 1000 Ang^3
#
#
#
# Elastic Constant Matrix: (Units=GPa)
#
#
# Indices 1 2 3 4 5 6 
#
# 1 97.9593 -11.0957 67.4129 0.0000 -8.8838 0.0000
# 2 -11.0957 16.5827 -11.1010 0.0000 -1.1459 0.0000
# 3 67.4129 -11.1010 170.0112 0.0000 -8.1734 0.0000
# 4 0.0000 0.0000 0.0000 5.1554 0.0000 10.1432
# 5 -8.8838 -1.1459 -8.1734 0.0000 34.5520 0.0000
# 6 0.0000 0.0000 0.0000 10.1432 0.0000 22.2503
#
#
#
# Elastic Compliance Matrix: (Units=1/GPa)
#
#
# Indices 1 2 3 4 5 6 
#
# 1 0.014877 0.006575 -0.005336 0.000000 0.002781 0.000000
# 2 0.006575 0.066296 0.001931 0.000000 0.004346 0.000000
# 3 -0.005336 0.001931 0.008154 0.000000 0.000621 0.000000
# 4 0.000000 0.000000 0.000000 1.881694 0.000000 -0.857806
# 5 0.002781 0.004346 0.000621 0.000000 0.029948 0.000000
# 6 0.000000 0.000000 0.000000 -0.857806 0.000000 0.435990
#
#
# Mechanical properties :
#
#
# Convention : Reuss Voigt Hill
#
# Bulk Modulus (GPa) = 10.45305 41.66507 26.05906
# Shear Modulus (GPa) = 2.03045 28.34736 15.18890
#
# Velocity S-wave (km/s) = 1.00009 3.73679 2.73531
# Velocity P-wave (km/s) = 2.54610 6.25635 4.77622
#
# Compressibility (1/GPa) = 0.09566584
#
# Stress axis : x y z
#
# Youngs Moduli (GPa) = 67.21565 15.08385 122.64213
#
# Poissons Ratio (x) = -0.09917 0.65445
# Poissons Ratio (y) = -0.44192 -0.23679
# Poissons Ratio (z) = 0.35868 -0.02912
#
# Static dielectric constant tensor:
#      x y z
#    x 1.681820 0.000000 0.008290 
#    y 0.000000 1.751160 0.000000 
#    z 0.008290 0.000000 1.740960 
# 
# From -- ./inp_files/37951.got.cif
#   From: 2010.05.17/outbox.cif.g08.bks.cpg/sg10_19_cif.got.tgz:37951.got - 2010.06.03 11:33:40.
