data_PCOD9152168
_publ_section_title
;
Structure prediction by ZEFSAII (Michael W. Deem and Ramdas Pophale) SiO2 
 PCOD9152168
Probable space group: P 2/M
;
_chemical_formula_sum "Si O2"
_cell_formula_units_Z 21
_cell_length_a 17.491797
_cell_length_b 12.106651
_cell_length_c 8.161252
_cell_angle_alpha 90.000000
_cell_angle_beta 40.007069
_cell_angle_gamma 90.000000
_cell_volume 1111.083211
_symmetry_space_group_name_H-M "P 2/M"
_symmetry_group_IT_number 10
_symmetry_cell_setting 'monoclinic'
loop_
_space_group_symop_operation_xyz
x,y,z
-x,y,-z
-x,-y,-z
x,-y,z
loop_
_atom_site_type_symbol
_atom_site_label
_atom_site_fract_x
_atom_site_fract_y
_atom_site_fract_z
Si Si1 0.185429 0.629462 0.287323
Si Si2 0.938387 0.629687 0.862027
Si Si3 0.689236 0.000000 0.278088
Si Si4 0.375241 0.227699 0.147164
Si Si5 0.566459 0.000000 0.130108
Si Si6 0.182175 0.817617 0.736255
Si Si7 0.000000 0.000000 0.000000
O O1 0.210680 0.500000 0.270383
O O2 0.137394 0.642532 0.181474
O O3 0.299579 0.701090 0.143019
O O4 0.073886 0.657912 0.588955
O O5 0.934253 0.500000 0.915366
O O6 0.883229 0.710800 0.085372
O O7 0.767696 0.106501 0.196725
O O8 0.646462 0.000000 0.162405
O O9 0.570614 0.000000 0.585053
O O10 0.290824 0.213309 0.442213
O O11 0.500000 0.278873 0.000000
O O12 0.405535 0.109200 0.018772
O O13 0.093937 0.902189 0.790588
#
# Coordination Sequence:
#
# PCOD9152168 Si02
#       7
#     4   4   2   4   2   4   1
#     4   9  20  39  61  85 115 150 192 242 290 340
#     4   9  19  39  64  86 110 148 198 245 288 335
#     4  10  21  36  60  78 110 147 195 236 272 336
#     4  12  23  36  56  83 121 157 186 231 287 354
#     4  11  21  39  56  80 107 154 197 228 275 336
#     4  11  21  37  57  88 117 151 188 239 291 340
#     4  10  22  34  54  84 120 142 182 242 286 336
#
# _framework density 18.900473999999999
#
# number of rings (size 3 to 8) (size 9 to 14) (size 15 to 20)
#    0.000    1.714    1.905    4.857    0.000    1.143 
#    0.000    2.381    0.000   10.286    0.000    0.000 
#    0.000    0.000    0.000    0.000    0.000    0.000 
#
# Total GULP energy -117051.334471 kJ/mol
# GULP energy per Si atom -5573.873070 kJ/mol
# Density = 1.885746 g / cm^3
# Si number density = 18.900474 Si / 1000 Ang^3
#
#
#
# Elastic Constant Matrix: (Units=GPa)
#
#
# Indices 1 2 3 4 5 6 
#
# 1 72.8198 34.9074 18.5269 0.0000 -12.9409 0.0000
# 2 34.9074 95.3486 49.7937 0.0000 -3.6591 0.0000
# 3 18.5269 49.7937 98.1093 0.0000 -2.1684 0.0000
# 4 0.0000 0.0000 0.0000 -19.9390 0.0000 46.5073
# 5 -12.9409 -3.6591 -2.1684 0.0000 33.4882 0.0000
# 6 0.0000 0.0000 0.0000 46.5073 0.0000 -19.2793
#
#
#
# Elastic Compliance Matrix: (Units=1/GPa)
#
#
# Indices 1 2 3 4 5 6 
#
# 1 0.017856 -0.006272 -0.000051 0.000000 0.006212 0.000000
# 2 -0.006272 0.016513 -0.007221 0.000000 -0.001087 0.000000
# 3 -0.000051 -0.007221 0.013869 0.000000 0.000089 0.000000
# 4 0.000000 0.000000 0.000000 0.010840 0.000000 0.026149
# 5 0.006212 -0.001087 0.000089 0.000000 0.032149 0.000000
# 6 0.000000 0.000000 0.000000 0.026149 0.000000 0.011211
#
#
# Mechanical properties :
#
#
# Convention : Reuss Voigt Hill
#
# Bulk Modulus (GPa) = 47.28054 52.52595 49.90325
# Shear Modulus (GPa) = 36.60975 9.72399 23.16687
#
# Velocity S-wave (km/s) = 4.40588 2.27068 3.50484
# Velocity P-wave (km/s) = 7.13808 5.89286 6.54515
#
# Compressibility (1/GPa) = 0.02115035
#
# Stress axis : x y z
#
# Youngs Moduli (GPa) = 56.00358 60.55818 72.10291
#
# Poissons Ratio (x) = 0.37981 0.00371
# Poissons Ratio (y) = 0.35125 0.52062
# Poissons Ratio (z) = 0.00288 0.43726
#
# Static dielectric constant tensor:
#      x y z
#    x 1.706090 0.000000 -0.007240 
#    y 0.000000 1.631530 0.000000 
#    z -0.007240 0.000000 1.650150 
# 
# From -- ./inp_files/32046.got.cif
#   From: 2010.05.17/outbox.cif.g08.bks.cpg/sg10_17_cif.got.tgz:32046.got - 2010.06.03 11:33:40.
