data_PCOD9152494
_publ_section_title
;
Structure prediction by ZEFSAII (Michael W. Deem and Ramdas Pophale) SiO2 
 PCOD9152494
Probable space group: P 2/M
;
_chemical_formula_sum "Si O2"
_cell_formula_units_Z 28
_cell_length_a 9.860814
_cell_length_b 27.601375
_cell_length_c 5.343059
_cell_angle_alpha 90.000000
_cell_angle_beta 115.721192
_cell_angle_gamma 90.000000
_cell_volume 1310.140962
_symmetry_space_group_name_H-M "P 2/M"
_symmetry_group_IT_number 10
_symmetry_cell_setting 'monoclinic'
loop_
_space_group_symop_operation_xyz
x,y,z
-x,y,-z
-x,-y,-z
x,-y,z
loop_
_atom_site_type_symbol
_atom_site_label
_atom_site_fract_x
_atom_site_fract_y
_atom_site_fract_z
Si Si1 0.155531 0.152787 0.027167
Si Si2 0.159975 0.948257 0.758811
Si Si3 0.897853 0.270482 0.667877
Si Si4 0.646567 0.792822 0.217330
Si Si5 0.373196 0.894559 0.582983
Si Si6 0.101097 0.617140 0.332334
Si Si7 0.403659 0.557196 0.676649
O O1 0.235853 0.128408 0.324888
O O2 0.132223 0.103520 0.857747
O O3 0.247353 0.189397 0.926656
O O4 0.000000 0.172779 0.000000
O O5 0.306797 0.935482 0.709327
O O6 0.000000 0.954866 0.500000
O O7 0.187566 0.000000 0.918421
O O8 0.753343 0.235362 0.500875
O O9 0.847746 0.326580 0.637139
O O10 0.000000 0.263776 0.500000
O O11 0.000000 0.266160 0.000000
O O12 0.573734 0.842853 0.265865
O O13 0.500000 0.764151 0.000000
O O14 0.500000 0.913949 0.500000
O O15 0.247572 0.584483 0.496110
O O16 0.000000 0.612027 0.500000
O O17 0.000000 0.607049 0.000000
O O18 0.500000 0.562370 0.500000
O O19 0.372597 0.500000 0.691336
O O20 0.500000 0.573624 0.000000
#
# Coordination Sequence:
#
# PCOD9152494 Si02
#       7
#     4   4   4   4   4   4   4
#     4  11  23  40  63  90 119 162 202 250 315 377
#     4  10  22  39  60  90 119 152 205 252 300 378
#     4  10  25  43  65  96 131 172 220 273 330 398
#     4  11  25  41  63  93 124 158 210 266 314 385
#     4  11  23  40  60  87 123 153 198 253 313 372
#     4  10  21  41  63  91 131 174 224 279 334 394
#     4  10  21  37  61  96 135 178 229 282 337 398
#
# _framework density 21.371745000000001
#
# number of rings (size 3 to 8) (size 9 to 14) (size 15 to 20)
#    0.000    1.571    2.857    0.857    4.000    2.286 
#    0.000    1.429    0.000    0.000    0.000    0.000 
#    0.000    0.000    0.000    0.000    0.000    0.000 
#
# Total GULP energy -155953.298705 kJ/mol
# GULP energy per Si atom -5569.760668 kJ/mol
# Density = 2.132310 g / cm^3
# Si number density = 21.371745 Si / 1000 Ang^3
#
#
#
# Elastic Constant Matrix: (Units=GPa)
#
#
# Indices 1 2 3 4 5 6 
#
# 1 86.4995 58.0849 33.1308 0.0000 5.6130 0.0000
# 2 58.0849 106.4184 46.9954 0.0000 15.3265 0.0000
# 3 33.1308 46.9954 150.2852 0.0000 13.0328 0.0000
# 4 0.0000 0.0000 0.0000 28.3321 0.0000 1.9057
# 5 5.6130 15.3265 13.0328 0.0000 35.5887 0.0000
# 6 0.0000 0.0000 0.0000 1.9057 0.0000 10.1147
#
#
#
# Elastic Compliance Matrix: (Units=1/GPa)
#
#
# Indices 1 2 3 4 5 6 
#
# 1 0.018494 -0.009836 -0.001152 0.000000 0.001741 0.000000
# 2 -0.009836 0.016589 -0.002617 0.000000 -0.004634 0.000000
# 3 -0.001152 -0.002617 0.007863 0.000000 -0.001571 0.000000
# 4 0.000000 0.000000 0.000000 0.035749 0.000000 -0.006735
# 5 0.001741 -0.004634 -0.001571 0.000000 0.030395 0.000000
# 6 0.000000 0.000000 0.000000 -0.006735 0.000000 0.100135
#
#
# Mechanical properties :
#
#
# Convention : Reuss Voigt Hill
#
# Bulk Modulus (GPa) = 63.55519 68.84725 66.20122
# Shear Modulus (GPa) = 20.68846 28.47325 24.58085
#
# Velocity S-wave (km/s) = 3.11469 3.65401 3.39508
# Velocity P-wave (km/s) = 6.53740 7.07718 6.81264
#
# Compressibility (1/GPa) = 0.01573436
#
# Stress axis : x y z
#
# Youngs Moduli (GPa) = 54.07066 60.28101 127.18416
#
# Poissons Ratio (x) = 0.59295 0.14654
# Poissons Ratio (y) = 0.53186 0.33286
# Poissons Ratio (z) = 0.06230 0.15776
#
# Static dielectric constant tensor:
#      x y z
#    x 1.767550 0.000000 -0.037890 
#    y 0.000000 1.925920 0.000000 
#    z -0.037890 0.000000 2.319520 
# 
# From -- ./inp_files/5551.got.cif
#   From: 2010.05.17/outbox.cif.g08.bks.cpg/sg10_3_cif.got.tgz:5551.got - 2010.06.03 11:33:40.
