data_PCOD9152985
_publ_section_title
;
Structure prediction by ZEFSAII (Michael W. Deem and Ramdas Pophale) SiO2 
 PCOD9152985
Probable space group: P 2/M
;
_chemical_formula_sum "Si O2"
_cell_formula_units_Z 30
_cell_length_a 8.527289
_cell_length_b 12.374083
_cell_length_c 13.968808
_cell_angle_alpha 90.000000
_cell_angle_beta 104.399434
_cell_angle_gamma 90.000000
_cell_volume 1427.648755
_symmetry_space_group_name_H-M "P 2/M"
_symmetry_group_IT_number 10
_symmetry_cell_setting 'monoclinic'
loop_
_space_group_symop_operation_xyz
x,y,z
-x,y,-z
-x,-y,-z
x,-y,z
loop_
_atom_site_type_symbol
_atom_site_label
_atom_site_fract_x
_atom_site_fract_y
_atom_site_fract_z
Si Si1 0.457206 0.287192 0.754195
Si Si2 0.623419 0.500000 0.867154
Si Si3 0.655240 0.873209 0.910462
Si Si4 0.105380 0.679314 0.758261
Si Si5 0.370844 0.800284 0.408964
Si Si6 0.869390 0.620987 0.560576
Si Si7 0.823085 0.321831 0.020976
Si Si8 0.893922 0.884756 0.765800
O O1 0.528741 0.402881 0.795119
O O2 0.508617 0.194165 0.839234
O O3 0.264997 0.299743 0.721521
O O4 0.534678 0.251475 0.666134
O O5 0.720721 0.405656 0.943258
O O6 0.791809 0.873950 0.847646
O O7 0.623202 0.000000 0.929090
O O8 0.730445 0.794112 0.002564
O O9 0.159186 0.633225 0.868828
O O10 0.969941 0.619358 0.675670
O O11 0.019559 0.790161 0.774311
O O12 0.500000 0.852070 0.500000
O O13 0.273856 0.705788 0.449187
O O14 0.235056 0.874795 0.339998
O O15 0.811410 0.500000 0.529704
O O16 0.000000 0.653136 0.500000
O O17 0.000000 0.311134 0.000000
O O18 0.976605 0.000000 0.777109
#
# Coordination Sequence:
#
# PCOD9152985 Si02
#       8
#     4   2   4   4   4   4   4   4
#     4  10  23  39  58  87 122 167 202 245 309 358
#     4  10  25  39  57  82 126 161 211 241 294 370
#     4   9  19  38  60  85 121 157 205 254 301 361
#     4  11  23  37  60  87 122 155 202 252 299 358
#     4  10  21  39  63  88 121 155 197 253 302 365
#     4  10  23  40  62  89 118 153 201 249 301 354
#     4  11  22  37  59  89 118 164 209 250 303 353
#     4   9  19  38  62  88 120 158 199 251 306 365
#
# _framework density 21.013570999999999
#
# number of rings (size 3 to 8) (size 9 to 14) (size 15 to 20)
#    0.000    2.000    1.333    1.000    4.667    4.533 
#    0.000    0.667    0.000   13.600    0.000    0.000 
#    0.000    0.000    0.000    0.000    0.000    0.000 
#
# Total GULP energy -167008.475753 kJ/mol
# GULP energy per Si atom -5566.949192 kJ/mol
# Density = 2.096574 g / cm^3
# Si number density = 21.013571 Si / 1000 Ang^3
#
#
#
# Elastic Constant Matrix: (Units=GPa)
#
#
# Indices 1 2 3 4 5 6 
#
# 1 30.3251 10.0257 5.7438 0.0000 -10.8622 0.0000
# 2 10.0257 114.7216 6.4197 0.0000 3.9807 0.0000
# 3 5.7438 6.4197 65.5456 0.0000 9.4920 0.0000
# 4 0.0000 0.0000 0.0000 -1.0041 0.0000 -13.2016
# 5 -10.8622 3.9807 9.4920 0.0000 31.7054 0.0000
# 6 0.0000 0.0000 0.0000 -13.2016 0.0000 -17.5467
#
#
#
# Elastic Compliance Matrix: (Units=1/GPa)
#
#
# Indices 1 2 3 4 5 6 
#
# 1 0.041121 -0.003845 -0.005579 0.000000 0.016241 0.000000
# 2 -0.003845 0.009148 -0.000211 0.000000 -0.002403 0.000000
# 3 -0.005579 -0.000211 0.016766 0.000000 -0.006904 0.000000
# 4 0.000000 0.000000 0.000000 0.112002 0.000000 -0.084267
# 5 0.016241 -0.002403 -0.006904 0.000000 0.039473 0.000000
# 6 0.000000 0.000000 0.000000 -0.084267 0.000000 0.006409
#
#
# Mechanical properties :
#
#
# Convention : Reuss Voigt Hill
#
# Bulk Modulus (GPa) = 20.93569 28.33005 24.63287
# Shear Modulus (GPa) = 19.22253 15.19113 17.20683
#
# Velocity S-wave (km/s) = 3.02779 2.69163 2.86465
# Velocity P-wave (km/s) = 4.71253 4.81362 4.76334
#
# Compressibility (1/GPa) = 0.04776533
#
# Stress axis : x y z
#
# Youngs Moduli (GPa) = 24.31831 109.31403 59.64472
#
# Poissons Ratio (x) = 0.42031 0.33275
# Poissons Ratio (y) = 0.09350 0.01259
# Poissons Ratio (z) = 0.13567 0.02308
#
# Static dielectric constant tensor:
#      x y z
#    x 1.741800 0.000000 -0.005480 
#    y 0.000000 1.727500 0.000000 
#    z -0.005480 0.000000 1.782120 
# 
# From -- ./inp_files/61258.got.cif
#   From: 2010.05.17/outbox.cif.g08.bks.cpg/sg10_31_cif.got.tgz:61258.got - 2010.06.03 11:33:40.
