data_PCOD9152210
_publ_section_title
;
Structure prediction by ZEFSAII (Michael W. Deem and Ramdas Pophale) SiO2 
 PCOD9152210
Probable space group: P 2/M
;
_chemical_formula_sum "Si O2"
_cell_formula_units_Z 28
_cell_length_a 14.444605
_cell_length_b 9.763821
_cell_length_c 20.453195
_cell_angle_alpha 90.000000
_cell_angle_beta 151.723234
_cell_angle_gamma 90.000000
_cell_volume 1366.528080
_symmetry_space_group_name_H-M "P 2/M"
_symmetry_group_IT_number 10
_symmetry_cell_setting 'monoclinic'
loop_
_space_group_symop_operation_xyz
x,y,z
-x,y,-z
-x,-y,-z
x,-y,z
loop_
_atom_site_type_symbol
_atom_site_label
_atom_site_fract_x
_atom_site_fract_y
_atom_site_fract_z
Si Si1 0.301107 0.660831 0.228666
Si Si2 0.172866 0.348590 0.512245
Si Si3 0.660554 0.163454 0.494172
Si Si4 0.862421 0.339383 0.012770
Si Si5 0.720986 0.647810 0.277032
Si Si6 0.296834 0.852779 0.838384
Si Si7 0.048482 0.165272 0.806281
O O1 0.357237 0.500000 0.265949
O O2 0.456479 0.754473 0.363606
O O3 0.085755 0.670318 0.125694
O O4 0.272175 0.698875 0.133653
O O5 0.206043 0.500000 0.502798
O O6 0.230458 0.225874 0.501518
O O7 0.291554 0.340653 0.653548
O O8 0.948874 0.347422 0.396627
O O9 0.815764 0.189707 0.649543
O O10 0.630982 0.000000 0.472147
O O11 0.823621 0.500000 0.003840
O O12 0.860986 0.244858 0.075977
O O13 0.640992 0.500000 0.207158
O O14 0.642153 0.771590 0.187629
O O15 0.154898 0.789133 0.804991
O O16 0.208529 0.000000 0.765232
O O17 0.500000 0.869805 0.000000
O O18 0.076875 0.000000 0.829870
#
# Coordination Sequence:
#
# PCOD9152210 Si02
#       7
#     4   4   4   4   4   4   4
#     4   9  20  40  62  86 114 143 184 236 281 333
#     4   9  18  33  53  77 106 139 177 228 279 320
#     4  11  22  35  55  86 119 152 189 228 280 338
#     4   9  20  40  64  85 109 147 189 229 282 340
#     4   9  18  33  53  76 102 136 181 230 276 319
#     4  10  21  37  54  74 108 151 188 227 276 327
#     4  10  22  38  55  82 119 151 186 235 282 332
#
# _framework density 20.489884
#
# number of rings (size 3 to 8) (size 9 to 14) (size 15 to 20)
#    0.000    2.429    1.429    2.143    0.000    5.429 
#    0.000    8.571    0.000    0.000    0.000    0.000 
#    0.000    0.000    0.000    0.000    0.000    0.000 
#
# Total GULP energy -156023.823030 kJ/mol
# GULP energy per Si atom -5572.279394 kJ/mol
# Density = 2.044325 g / cm^3
# Si number density = 20.489884 Si / 1000 Ang^3
#
#
#
# Elastic Constant Matrix: (Units=GPa)
#
#
# Indices 1 2 3 4 5 6 
#
# 1 35.3273 9.0671 6.0111 0.0000 -1.0189 0.0000
# 2 9.0671 62.7767 20.1396 0.0000 -20.2695 0.0000
# 3 6.0111 20.1396 49.8914 0.0000 4.4538 0.0000
# 4 0.0000 0.0000 0.0000 -29.1121 0.0000 5.3294
# 5 -1.0189 -20.2695 4.4538 0.0000 37.0886 0.0000
# 6 0.0000 0.0000 0.0000 5.3294 0.0000 26.4765
#
#
#
# Elastic Compliance Matrix: (Units=1/GPa)
#
#
# Indices 1 2 3 4 5 6 
#
# 1 0.029629 -0.004086 -0.001813 0.000000 -0.001201 0.000000
# 2 -0.004086 0.024733 -0.010804 0.000000 0.014702 0.000000
# 3 -0.001813 -0.010804 0.025427 0.000000 -0.009008 0.000000
# 4 0.000000 0.000000 0.000000 -0.033129 0.000000 0.006668
# 5 -0.001201 0.014702 -0.009008 0.000000 0.036046 0.000000
# 6 0.000000 0.000000 0.000000 0.006668 0.000000 0.036427
#
#
# Mechanical properties :
#
#
# Convention : Reuss Voigt Hill
#
# Bulk Modulus (GPa) = 21.55946 24.27012 22.91479
# Shear Modulus (GPa) = 29.76192 14.40912 22.08552
#
# Velocity S-wave (km/s) = 3.81533 2.65473 3.28666
# Velocity P-wave (km/s) = 5.47301 4.61166 5.06069
#
# Compressibility (1/GPa) = 0.04638335
#
# Stress axis : x y z
#
# Youngs Moduli (GPa) = 33.75051 40.43243 39.32770
#
# Poissons Ratio (x) = 0.16519 0.07132
# Poissons Ratio (y) = 0.13789 0.42490
# Poissons Ratio (z) = 0.06120 0.43683
#
# Static dielectric constant tensor:
#      x y z
#    x 1.753120 0.000000 0.044990 
#    y 0.000000 1.790750 0.000000 
#    z 0.044990 0.000000 1.782350 
# 
# From -- ./inp_files/84954.got.cif
#   From: 2010.05.17/outbox.cif.g08.bks.cpg/sg10_43_cif.got.tgz:84954.got - 2010.06.03 11:33:40.
