data_PCOD9152233
_publ_section_title
;
Structure prediction by ZEFSAII (Michael W. Deem and Ramdas Pophale) SiO2 
 PCOD9152233
Probable space group: P 2/M
;
_chemical_formula_sum "Si O2"
_cell_formula_units_Z 32
_cell_length_a 9.927394
_cell_length_b 11.913298
_cell_length_c 32.708379
_cell_angle_alpha 90.000000
_cell_angle_beta 152.432764
_cell_angle_gamma 90.000000
_cell_volume 1790.232735
_symmetry_space_group_name_H-M "P 2/M"
_symmetry_group_IT_number 10
_symmetry_cell_setting 'monoclinic'
loop_
_space_group_symop_operation_xyz
x,y,z
-x,y,-z
-x,-y,-z
x,-y,z
loop_
_atom_site_type_symbol
_atom_site_label
_atom_site_fract_x
_atom_site_fract_y
_atom_site_fract_z
Si Si1 0.283710 0.625183 0.054971
Si Si2 0.292948 0.280364 0.770693
Si Si3 0.823709 0.368490 0.580627
Si Si4 0.406569 0.196357 0.021704
Si Si5 0.739168 0.874965 0.842645
Si Si6 0.843980 0.369159 0.414253
Si Si7 0.514361 0.868103 0.689057
Si Si8 0.926079 0.123409 0.217563
O O1 0.201662 0.500000 0.021179
O O2 0.537252 0.627294 0.156933
O O3 0.379872 0.690015 0.040614
O O4 0.000000 0.679236 0.000000
O O5 0.548133 0.209936 0.817589
O O6 0.126547 0.209292 0.760288
O O7 0.066581 0.317586 0.675595
O O8 0.500000 0.320296 0.500000
O O9 0.809562 0.500000 0.587402
O O10 0.931023 0.359583 0.562887
O O11 0.657350 0.130371 0.113447
O O12 0.500000 0.210505 0.000000
O O13 0.085295 0.143762 0.937349
O O14 0.638990 0.865874 0.768619
O O15 0.674899 0.000000 0.840411
O O16 0.713513 0.500000 0.374796
O O17 0.664555 0.250087 0.363940
O O18 0.000000 0.369581 0.500000
O O19 0.780006 0.858685 0.728735
O O20 0.393723 0.000000 0.651454
O O21 0.934178 0.000000 0.238108
#
# Coordination Sequence:
#
# PCOD9152233 Si02
#       8
#     4   4   4   4   4   4   4   4
#     4  10  21  37  55  80 114 153 193 237 291 354
#     4  11  21  38  60  83 115 152 196 242 294 355
#     4  10  22  40  62  88 116 152 196 246 299 354
#     4  11  21  36  56  82 117 153 198 243 289 344
#     4  11  21  35  59  85 114 154 199 240 286 349
#     4  10  22  41  66  93 120 151 196 248 298 358
#     4  10  21  39  60  88 123 160 197 240 301 358
#     4  10  22  36  57  86 120 156 194 246 295 347
#
# _framework density 17.874770000000002
#
# number of rings (size 3 to 8) (size 9 to 14) (size 15 to 20)
#    0.000    1.625    3.750    1.125    1.750    1.000 
#    0.000    5.000    0.000    1.875    0.000    0.000 
#    0.000    0.000    0.000    0.000    0.000    0.000 
#
# Total GULP energy -178149.518562 kJ/mol
# GULP energy per Si atom -5567.172455 kJ/mol
# Density = 1.783409 g / cm^3
# Si number density = 17.874770 Si / 1000 Ang^3
#
#
#
# Elastic Constant Matrix: (Units=GPa)
#
#
# Indices 1 2 3 4 5 6 
#
# 1 87.6598 36.7212 23.4786 0.0000 -4.7352 0.0000
# 2 36.7212 102.4112 36.5164 0.0000 9.9941 0.0000
# 3 23.4786 36.5164 84.8610 0.0000 -1.1191 0.0000
# 4 0.0000 0.0000 0.0000 12.9010 0.0000 6.4550
# 5 -4.7352 9.9941 -1.1191 0.0000 31.4445 0.0000
# 6 0.0000 0.0000 0.0000 6.4550 0.0000 -28.8455
#
#
#
# Elastic Compliance Matrix: (Units=1/GPa)
#
#
# Indices 1 2 3 4 5 6 
#
# 1 0.014073 -0.004752 -0.001802 0.000000 0.003565 0.000000
# 2 -0.004752 0.013623 -0.004616 0.000000 -0.005210 0.000000
# 3 -0.001802 -0.004616 0.014291 0.000000 0.001704 0.000000
# 4 0.000000 0.000000 0.000000 0.069708 0.000000 0.015599
# 5 0.003565 -0.005210 0.001704 0.000000 0.034055 0.000000
# 6 0.000000 0.000000 0.000000 0.015599 0.000000 -0.031177
#
#
# Mechanical properties :
#
#
# Convention : Reuss Voigt Hill
#
# Bulk Modulus (GPa) = 50.89557 52.04048 51.46802
# Shear Modulus (GPa) = 34.85212 14.98106 24.91659
#
# Velocity S-wave (km/s) = 4.42044 2.89816 3.73762
# Velocity P-wave (km/s) = 7.38843 6.35423 6.89076
#
# Compressibility (1/GPa) = 0.01964808
#
# Stress axis : x y z
#
# Youngs Moduli (GPa) = 71.05559 73.40722 69.97258
#
# Poissons Ratio (x) = 0.34881 0.12609
# Poissons Ratio (y) = 0.33763 0.32299
# Poissons Ratio (z) = 0.12804 0.33885
#
# Static dielectric constant tensor:
#      x y z
#    x 1.579740 0.000000 0.013510 
#    y 0.000000 1.629310 0.000000 
#    z 0.013510 0.000000 1.610640 
# 
# From -- ./inp_files/28590.got.cif
#   From: 2010.05.17/outbox.cif.g08.bks.cpg/sg10_15_cif.got.tgz:28590.got - 2010.06.03 11:33:40.
