data_PCOD9152453
_publ_section_title
;
Structure prediction by ZEFSAII (Michael W. Deem and Ramdas Pophale) SiO2 
 PCOD9152453
Probable space group: P 2/M
;
_chemical_formula_sum "Si O2"
_cell_formula_units_Z 24
_cell_length_a 9.303201
_cell_length_b 14.052804
_cell_length_c 15.292095
_cell_angle_alpha 90.000000
_cell_angle_beta 36.970816
_cell_angle_gamma 90.000000
_cell_volume 1202.352174
_symmetry_space_group_name_H-M "P 2/M"
_symmetry_group_IT_number 10
_symmetry_cell_setting 'monoclinic'
loop_
_space_group_symop_operation_xyz
x,y,z
-x,y,-z
-x,-y,-z
x,-y,z
loop_
_atom_site_type_symbol
_atom_site_label
_atom_site_fract_x
_atom_site_fract_y
_atom_site_fract_z
Si Si1 0.007783 0.891496 0.126548
Si Si2 0.723381 0.108584 0.440664
Si Si3 0.245851 0.711690 0.850212
Si Si4 0.611721 0.391594 0.541400
Si Si5 0.510510 0.784412 0.096938
Si Si6 0.984622 0.750964 0.409265
O O1 0.922836 0.887290 0.268596
O O2 0.855728 0.811252 0.146160
O O3 0.961209 0.000000 0.119122
O O4 0.291283 0.868506 0.991975
O O5 0.500000 0.154247 0.500000
O O6 0.796351 0.163565 0.490908
O O7 0.664749 0.000000 0.490259
O O8 0.421382 0.660019 0.697604
O O9 0.388486 0.721407 0.872111
O O10 0.000000 0.661303 0.000000
O O11 0.500000 0.393010 0.500000
O O12 0.651509 0.500000 0.551534
O O13 0.860749 0.333612 0.416165
O O14 0.233964 0.793598 0.256413
O O15 0.500000 0.752634 0.000000
O O16 0.000000 0.717100 0.500000
#
# Coordination Sequence:
#
# PCOD9152453 Si02
#       6
#     4   4   4   4   4   4
#     4  10  21  39  63  91 128 175 216 253 305 374
#     4  10  21  37  60  90 126 171 217 260 308 373
#     4  10  22  41  66  95 127 167 211 260 312 373
#     4  11  25  45  71  97 123 162 212 264 323 389
#     4  11  23  39  60  93 126 175 208 254 310 371
#     4  12  23  40  66  92 129 167 208 268 323 376
#
# _framework density 19.960875999999999
#
# number of rings (size 3 to 8) (size 9 to 14) (size 15 to 20)
#    0.000    1.333    3.333    2.500    2.333    5.000 
#    0.000    0.000    0.000    1.000    0.000    0.000 
#    0.000    0.000    0.000    0.000    0.000    0.000 
#
# Total GULP energy -133626.044062 kJ/mol
# GULP energy per Si atom -5567.751836 kJ/mol
# Density = 1.991544 g / cm^3
# Si number density = 19.960876 Si / 1000 Ang^3
#
#
#
# Elastic Constant Matrix: (Units=GPa)
#
#
# Indices 1 2 3 4 5 6 
#
# 1 121.3195 22.6178 7.2588 0.0000 -5.7592 0.0000
# 2 22.6178 76.0672 11.0751 0.0000 -12.7913 0.0000
# 3 7.2588 11.0751 66.8827 0.0000 -15.7442 0.0000
# 4 0.0000 0.0000 0.0000 16.6475 0.0000 10.3946
# 5 -5.7592 -12.7913 -15.7442 0.0000 43.2291 0.0000
# 6 0.0000 0.0000 0.0000 10.3946 0.0000 -31.6006
#
#
#
# Elastic Compliance Matrix: (Units=1/GPa)
#
#
# Indices 1 2 3 4 5 6 
#
# 1 0.008747 -0.002489 -0.000477 0.000000 0.000255 0.000000
# 2 -0.002489 0.014673 -0.001330 0.000000 0.003526 0.000000
# 3 -0.000477 -0.001330 0.016533 0.000000 0.005565 0.000000
# 4 0.000000 0.000000 0.000000 0.049834 0.000000 0.016392
# 5 0.000255 0.003526 0.005565 0.000000 0.026236 0.000000
# 6 0.000000 0.000000 0.000000 0.016392 0.000000 -0.026253
#
#
# Mechanical properties :
#
#
# Convention : Reuss Voigt Hill
#
# Bulk Modulus (GPa) = 31.88495 38.46364 35.17429
# Shear Modulus (GPa) = 45.94934 20.54305 33.24619
#
# Velocity S-wave (km/s) = 4.80309 3.21154 4.08556
# Velocity P-wave (km/s) = 6.83871 5.75007 6.31788
#
# Compressibility (1/GPa) = 0.03136276
#
# Stress axis : x y z
#
# Youngs Moduli (GPa) = 114.32091 68.15385 60.48366
#
# Poissons Ratio (x) = 0.16960 0.02886
# Poissons Ratio (y) = 0.28449 0.08042
# Poissons Ratio (z) = 0.05455 0.09062
#
# Static dielectric constant tensor:
#      x y z
#    x 1.756580 0.000000 -0.019360 
#    y 0.000000 1.711890 0.000000 
#    z -0.019360 0.000000 1.757450 
# 
# From -- ./inp_files/61678.got.cif
#   From: 2010.05.17/outbox.cif.g08.bks.cpg/sg10_31_cif.got.tgz:61678.got - 2010.06.03 11:33:40.
