data_PCOD9152228
_publ_section_title
;
Structure prediction by ZEFSAII (Michael W. Deem and Ramdas Pophale) SiO2 
 PCOD9152228
Probable space group: P 2/M
;
_chemical_formula_sum "Si O2"
_cell_formula_units_Z 32
_cell_length_a 14.972163
_cell_length_b 14.382186
_cell_length_c 8.823795
_cell_angle_alpha 90.000000
_cell_angle_beta 114.682175
_cell_angle_gamma 90.000000
_cell_volume 1726.457202
_symmetry_space_group_name_H-M "P 2/M"
_symmetry_group_IT_number 10
_symmetry_cell_setting 'monoclinic'
loop_
_space_group_symop_operation_xyz
x,y,z
-x,y,-z
-x,-y,-z
x,-y,z
loop_
_atom_site_type_symbol
_atom_site_label
_atom_site_fract_x
_atom_site_fract_y
_atom_site_fract_z
Si Si1 0.519911 0.748566 0.690287
Si Si2 0.090379 0.890141 0.182222
Si Si3 0.214703 0.607358 0.355944
Si Si4 0.258133 0.241715 0.805477
Si Si5 0.249400 0.235697 0.136712
Si Si6 0.585464 0.103941 0.185680
Si Si7 0.912891 0.257372 0.555292
Si Si8 0.382983 0.392245 0.734387
O O1 0.500000 0.732222 0.500000
O O2 0.632962 0.776923 0.791679
O O3 0.449583 0.829760 0.703748
O O4 0.484081 0.657975 0.757969
O O5 0.188545 0.845974 0.175886
O O6 0.069511 0.827442 0.315953
O O7 0.101895 0.000000 0.223289
O O8 0.000000 0.879801 0.000000
O O9 0.199881 0.500000 0.307633
O O10 0.234512 0.672187 0.226252
O O11 0.120730 0.652558 0.373011
O O12 0.308203 0.613161 0.536935
O O13 0.322776 0.149756 0.832447
O O14 0.179916 0.236523 0.616762
O O15 0.329727 0.329527 0.823681
O O16 0.212497 0.247468 0.939072
O O17 0.604981 0.000000 0.252382
O O18 0.500000 0.103173 0.000000
O O19 0.000000 0.274204 0.500000
O O20 0.394898 0.500000 0.783370
#
# Coordination Sequence:
#
# PCOD9152228 Si02
#       8
#     4   4   4   4   4   4   4   4
#     4  11  21  35  55  82 114 152 195 233 278 336
#     4  10  23  42  63  88 115 144 186 237 287 343
#     4   9  19  36  57  85 117 151 192 234 281 339
#     4  10  21  37  57  83 116 150 192 236 280 341
#     4  11  21  36  58  84 117 151 189 236 285 334
#     4  10  21  37  55  77 111 151 190 233 280 333
#     4  10  21  39  63  86 113 149 185 233 291 340
#     4   9  19  35  55  81 117 155 194 239 281 328
#
# _framework density 18.535067999999999
#
# number of rings (size 3 to 8) (size 9 to 14) (size 15 to 20)
#    0.000    2.000    2.500    0.750    1.750    3.500 
#    0.000    0.625    0.000   12.750    0.000    0.000 
#    0.000    0.000    0.000    0.000    0.000    0.000 
#
# Total GULP energy -178564.351106 kJ/mol
# GULP energy per Si atom -5580.135972 kJ/mol
# Density = 1.849288 g / cm^3
# Si number density = 18.535068 Si / 1000 Ang^3
#
#
#
# Elastic Constant Matrix: (Units=GPa)
#
#
# Indices 1 2 3 4 5 6 
#
# 1 87.5579 29.0757 2.6122 0.0000 -7.6924 0.0000
# 2 29.0757 97.1080 -4.0178 0.0000 3.0706 0.0000
# 3 2.6122 -4.0178 32.5625 0.0000 -4.9848 0.0000
# 4 0.0000 0.0000 0.0000 20.1705 0.0000 6.1038
# 5 -7.6924 3.0706 -4.9848 0.0000 32.1844 0.0000
# 6 0.0000 0.0000 0.0000 6.1038 0.0000 10.1001
#
#
#
# Elastic Compliance Matrix: (Units=1/GPa)
#
#
# Indices 1 2 3 4 5 6 
#
# 1 0.013099 -0.004071 -0.001039 0.000000 0.003358 0.000000
# 2 -0.004071 0.011637 0.001479 0.000000 -0.001854 0.000000
# 3 -0.001039 0.001479 0.031667 0.000000 0.004515 0.000000
# 4 0.000000 0.000000 0.000000 0.060673 0.000000 -0.036667
# 5 0.003358 -0.001854 0.004515 0.000000 0.032750 0.000000
# 6 0.000000 0.000000 0.000000 -0.036667 0.000000 0.121168
#
#
# Mechanical properties :
#
#
# Convention : Reuss Voigt Hill
#
# Bulk Modulus (GPa) = 20.35031 30.28540 25.31786
# Shear Modulus (GPa) = 16.97004 25.12822 21.04913
#
# Velocity S-wave (km/s) = 3.02911 3.68599 3.37358
# Velocity P-wave (km/s) = 4.82050 5.87285 5.37250
#
# Compressibility (1/GPa) = 0.04913930
#
# Stress axis : x y z
#
# Youngs Moduli (GPa) = 76.34167 85.93565 31.57846
#
# Poissons Ratio (x) = 0.34986 0.03281
# Poissons Ratio (y) = 0.31080 -0.04669
# Poissons Ratio (z) = 0.07932 -0.12706
#
# Static dielectric constant tensor:
#      x y z
#    x 1.657070 0.000000 0.021470 
#    y 0.000000 1.616570 0.000000 
#    z 0.021470 0.000000 1.667070 
# 
# From -- ./inp_files/29520.got.cif
#   From: 2010.05.17/outbox.cif.g08.bks.cpg/sg10_15_cif.got.tgz:29520.got - 2010.06.03 11:33:40.
