data_PCOD9152703
_publ_section_title
;
Structure prediction by ZEFSAII (Michael W. Deem and Ramdas Pophale) SiO2 
 PCOD9152703
Probable space group: P 2/M
;
_chemical_formula_sum "Si O2"
_cell_formula_units_Z 32
_cell_length_a 14.318937
_cell_length_b 12.924761
_cell_length_c 9.614678
_cell_angle_alpha 90.000000
_cell_angle_beta 120.687921
_cell_angle_gamma 90.000000
_cell_volume 1530.193088
_symmetry_space_group_name_H-M "P 2/M"
_symmetry_group_IT_number 10
_symmetry_cell_setting 'monoclinic'
loop_
_space_group_symop_operation_xyz
x,y,z
-x,y,-z
-x,-y,-z
x,-y,z
loop_
_atom_site_type_symbol
_atom_site_label
_atom_site_fract_x
_atom_site_fract_y
_atom_site_fract_z
Si Si1 0.345421 0.616001 0.851059
Si Si2 0.190413 0.117587 0.558274
Si Si3 0.901574 0.686713 0.010505
Si Si4 0.896941 0.691215 0.336936
Si Si5 0.588096 0.169898 0.676727
Si Si6 0.563357 0.169159 0.182805
Si Si7 0.171727 0.116668 0.216931
Si Si8 0.659011 0.385790 0.820735
O O1 0.379449 0.500000 0.836418
O O2 0.215599 0.628513 0.731117
O O3 0.405084 0.709404 0.818051
O O4 0.362695 0.629042 0.030457
O O5 0.131701 0.197535 0.616297
O O6 0.319907 0.122302 0.688342
O O7 0.170302 0.145257 0.380279
O O8 0.153373 0.000000 0.551190
O O9 0.882843 0.797979 0.922302
O O10 0.789104 0.625749 0.907210
O O11 0.921257 0.697828 0.190638
O O12 0.000000 0.637281 0.000000
O O13 0.000000 0.648949 0.500000
O O14 0.500000 0.137293 0.500000
O O15 0.527741 0.149988 0.773099
O O16 0.702760 0.118367 0.735714
O O17 0.609160 0.293520 0.693830
O O18 0.500000 0.130966 0.000000
O O19 0.128822 0.000000 0.169718
O O20 0.623235 0.500000 0.752905
#
# Coordination Sequence:
#
# PCOD9152703 Si02
#       8
#     4   4   4   4   4   4   4   4
#     4   9  19  36  58  83 111 147 190 228 269 329
#     4  10  22  39  58  83 113 145 187 235 277 325
#     4  10  21  38  61  84 112 148 181 225 282 337
#     4  10  21  38  61  85 112 144 182 231 281 329
#     4  11  21  36  57  82 116 150 187 232 274 325
#     4  11  21  36  57  84 114 152 191 226 274 328
#     4  10  22  39  59  82 111 148 188 229 278 335
#     4   9  19  36  57  83 113 146 187 230 273 325
#
# _framework density 20.912393000000002
#
# number of rings (size 3 to 8) (size 9 to 14) (size 15 to 20)
#    0.000    2.000    2.500    0.750    1.750    3.500 
#    0.000    0.000    0.000    0.000    0.000    0.000 
#    0.000    0.000    0.000    0.000    0.000    0.000 
#
# Total GULP energy -178664.266932 kJ/mol
# GULP energy per Si atom -5583.258342 kJ/mol
# Density = 2.086480 g / cm^3
# Si number density = 20.912393 Si / 1000 Ang^3
#
#
#
# Elastic Constant Matrix: (Units=GPa)
#
#
# Indices 1 2 3 4 5 6 
#
# 1 87.6452 -14.4444 35.4565 0.0000 -7.1310 0.0000
# 2 -14.4444 73.3981 11.5280 0.0000 -8.7337 0.0000
# 3 35.4565 11.5280 78.6296 0.0000 -3.2945 0.0000
# 4 0.0000 0.0000 0.0000 9.4256 0.0000 -12.0724
# 5 -7.1310 -8.7337 -3.2945 0.0000 43.4382 0.0000
# 6 0.0000 0.0000 0.0000 -12.0724 0.0000 -5.2229
#
#
#
# Elastic Compliance Matrix: (Units=1/GPa)
#
#
# Indices 1 2 3 4 5 6 
#
# 1 0.015432 0.004559 -0.007506 0.000000 0.002881 0.000000
# 2 0.004559 0.015605 -0.004194 0.000000 0.003568 0.000000
# 3 -0.007506 -0.004194 0.016684 0.000000 -0.000810 0.000000
# 4 0.000000 0.000000 0.000000 0.026788 0.000000 -0.061919
# 5 0.002881 0.003568 -0.000810 0.000000 0.024150 0.000000
# 6 0.000000 0.000000 0.000000 -0.061919 0.000000 -0.048343
#
#
# Mechanical properties :
#
#
# Convention : Reuss Voigt Hill
#
# Bulk Modulus (GPa) = 29.90705 33.86146 31.88426
# Shear Modulus (GPa) = 66.01162 23.33704 44.67433
#
# Velocity S-wave (km/s) = 5.62444 3.34420 4.62698
# Velocity P-wave (km/s) = 7.51740 5.58021 6.62005
#
# Compressibility (1/GPa) = 0.03343693
#
# Stress axis : x y z
#
# Youngs Moduli (GPa) = 64.80045 64.08321 59.93887
#
# Poissons Ratio (x) = -0.29214 0.44993
# Poissons Ratio (y) = -0.29540 0.25138
# Poissons Ratio (z) = 0.48642 0.26876
#
# Static dielectric constant tensor:
#      x y z
#    x 1.739000 0.000000 0.029410 
#    y 0.000000 1.757340 0.000000 
#    z 0.029410 0.000000 1.704920 
# 
# From -- ./inp_files/29517.got.cif
#   From: 2010.05.17/outbox.cif.g08.bks.cpg/sg10_15_cif.got.tgz:29517.got - 2010.06.03 11:33:40.
