data_PCOD9152791
_publ_section_title
;
Structure prediction by ZEFSAII (Michael W. Deem and Ramdas Pophale) SiO2 
 PCOD9152791
Probable space group: P 2/M
;
_chemical_formula_sum "Si O2"
_cell_formula_units_Z 24
_cell_length_a 15.445862
_cell_length_b 8.670413
_cell_length_c 15.111740
_cell_angle_alpha 90.000000
_cell_angle_beta 39.933672
_cell_angle_gamma 90.000000
_cell_volume 1299.074437
_symmetry_space_group_name_H-M "P 2/M"
_symmetry_group_IT_number 10
_symmetry_cell_setting 'monoclinic'
loop_
_space_group_symop_operation_xyz
x,y,z
-x,y,-z
-x,-y,-z
x,-y,z
loop_
_atom_site_type_symbol
_atom_site_label
_atom_site_fract_x
_atom_site_fract_y
_atom_site_fract_z
Si Si1 0.656833 0.314610 0.660072
Si Si2 0.852783 0.815030 0.654604
Si Si3 0.171439 0.314347 0.647690
Si Si4 0.356171 0.814094 0.653100
Si Si5 0.636819 0.814554 0.147538
Si Si6 0.867018 0.314520 0.840083
O O1 0.651400 0.500000 0.666579
O O2 0.739678 0.253686 0.678945
O O3 0.738294 0.266629 0.507554
O O4 0.507357 0.246773 0.772299
O O5 0.841727 0.749796 0.761868
O O6 0.000000 0.772913 0.500000
O O7 0.842527 0.000000 0.664012
O O8 0.174419 0.500000 0.649370
O O9 0.238052 0.248595 0.683773
O O10 0.017300 0.266106 0.752656
O O11 0.500000 0.762268 0.500000
O O12 0.345847 0.766759 0.763376
O O13 0.353966 0.000000 0.651654
O O14 0.637586 0.000000 0.143059
O O15 0.755652 0.748109 0.994478
O O16 0.862854 0.500000 0.840936
#
# Coordination Sequence:
#
# PCOD9152791 Si02
#       6
#     4   4   4   4   4   4
#     4  11  22  39  64  93 123 161 205 252 305 362
#     4  11  23  39  64  95 124 160 204 252 304 363
#     4  10  22  38  62  92 122 159 205 252 300 361
#     4  10  21  38  62  90 122 161 205 252 304 361
#     4  11  24  42  62  91 127 162 204 256 309 363
#     4  11  24  43  63  90 127 164 203 252 308 365
#
# _framework density 18.474691
#
# number of rings (size 3 to 8) (size 9 to 14) (size 15 to 20)
#    0.000    1.333    3.333    2.000    0.000    5.667 
#    0.000    6.667    0.000    0.000    0.000    0.000 
#    0.000    0.000    0.000    0.000    0.000    0.000 
#
# Total GULP energy -134186.683157 kJ/mol
# GULP energy per Si atom -5591.111798 kJ/mol
# Density = 1.843264 g / cm^3
# Si number density = 18.474691 Si / 1000 Ang^3
#
#
#
# Elastic Constant Matrix: (Units=GPa)
#
#
# Indices 1 2 3 4 5 6 
#
# 1 164.1625 27.1853 65.8861 0.0000 6.8947 0.0000
# 2 27.1853 35.5010 30.4798 0.0000 4.1175 0.0000
# 3 65.8861 30.4798 146.1086 0.0000 6.1615 0.0000
# 4 0.0000 0.0000 0.0000 16.8102 0.0000 -0.4850
# 5 6.8947 4.1175 6.1615 0.0000 34.2809 0.0000
# 6 0.0000 0.0000 0.0000 -0.4850 0.0000 38.7610
#
#
#
# Elastic Compliance Matrix: (Units=1/GPa)
#
#
# Indices 1 2 3 4 5 6 
#
# 1 0.007811 -0.003539 -0.002757 0.000000 -0.000650 0.000000
# 2 -0.003539 0.036198 -0.005846 0.000000 -0.002585 0.000000
# 3 -0.002757 -0.005846 0.009325 0.000000 -0.000419 0.000000
# 4 0.000000 0.000000 0.000000 0.059509 0.000000 0.000745
# 5 -0.000650 -0.002585 -0.000419 0.000000 0.029687 0.000000
# 6 0.000000 0.000000 0.000000 0.000745 0.000000 0.025808
#
#
# Mechanical properties :
#
#
# Convention : Reuss Voigt Hill
#
# Bulk Modulus (GPa) = 34.42437 65.87491 50.14964
# Shear Modulus (GPa) = 24.71499 32.78514 28.75007
#
# Velocity S-wave (km/s) = 3.66153 4.21717 3.94913
# Velocity P-wave (km/s) = 6.04561 7.71018 6.92807
#
# Compressibility (1/GPa) = 0.02904919
#
# Stress axis : x y z
#
# Youngs Moduli (GPa) = 128.01896 27.62605 107.24377
#
# Poissons Ratio (x) = 0.09778 0.29563
# Poissons Ratio (y) = 0.45311 0.62696
# Poissons Ratio (z) = 0.35290 0.16151
#
# Static dielectric constant tensor:
#      x y z
#    x 1.599800 0.000000 0.000240 
#    y 0.000000 1.622910 0.000000 
#    z 0.000240 0.000000 1.612780 
# 
# From -- ./inp_files/66310.got.cif
#   From: 2010.05.17/outbox.cif.g08.bks.cpg/sg10_34_cif.got.tgz:66310.got - 2010.06.03 11:33:40.
