data_PCOD9152315
_publ_section_title
;
Structure prediction by ZEFSAII (Michael W. Deem and Ramdas Pophale) SiO2 
 PCOD9152315
Probable space group: P 2/M
;
_chemical_formula_sum "Si O2"
_cell_formula_units_Z 24
_cell_length_a 15.075296
_cell_length_b 13.085347
_cell_length_c 8.978002
_cell_angle_alpha 90.000000
_cell_angle_beta 42.402662
_cell_angle_gamma 90.000000
_cell_volume 1194.283916
_symmetry_space_group_name_H-M "P 2/M"
_symmetry_group_IT_number 10
_symmetry_cell_setting 'monoclinic'
loop_
_space_group_symop_operation_xyz
x,y,z
-x,y,-z
-x,-y,-z
x,-y,z
loop_
_atom_site_type_symbol
_atom_site_label
_atom_site_fract_x
_atom_site_fract_y
_atom_site_fract_z
Si Si1 0.868724 0.386066 0.262365
Si Si2 0.282889 0.801757 0.009741
Si Si3 0.953417 0.114415 0.897345
Si Si4 0.358398 0.677566 0.671440
Si Si5 0.204220 0.808049 0.448176
Si Si6 0.574986 0.881128 0.602702
O O1 0.872004 0.500000 0.324180
O O2 0.748830 0.375932 0.295248
O O3 0.841678 0.298572 0.418148
O O4 0.000000 0.373939 0.000000
O O5 0.233495 0.797956 0.238617
O O6 0.166330 0.838584 0.045242
O O7 0.316989 0.693466 0.892946
O O8 0.420394 0.864663 0.830752
O O9 0.081235 0.119144 0.635377
O O10 0.911036 0.000000 0.985105
O O11 0.000000 0.158536 0.000000
O O12 0.500000 0.627069 0.500000
O O13 0.381065 0.792207 0.569020
O O14 0.331962 0.854009 0.372759
O O15 0.595734 0.000000 0.531592
#
# Coordination Sequence:
#
# PCOD9152315 Si02
#       6
#     4   4   4   4   4   4
#     4  10  21  40  64  84 106 143 189 235 287 345
#     4  11  22  35  56  84 118 151 185 231 280 331
#     4  11  23  37  54  78 112 155 195 228 270 329
#     4   9  20  37  57  82 112 148 190 230 276 331
#     4  11  22  37  57  83 117 148 183 236 290 335
#     4  10  21  37  57  83 118 159 197 229 268 328
#
# _framework density 20.095725000000002
#
# number of rings (size 3 to 8) (size 9 to 14) (size 15 to 20)
#    0.000    1.667    0.000    5.500    0.000    9.333 
#    0.000    0.833    0.000   17.500    0.000    0.000 
#    0.000    0.000    0.000    0.000    0.000    0.000 
#
# Total GULP energy -133887.646681 kJ/mol
# GULP energy per Si atom -5578.651945 kJ/mol
# Density = 2.004999 g / cm^3
# Si number density = 20.095725 Si / 1000 Ang^3
#
#
#
# Elastic Constant Matrix: (Units=GPa)
#
#
# Indices 1 2 3 4 5 6 
#
# 1 140.9811 13.8062 74.1913 0.0000 -23.7845 0.0000
# 2 13.8062 98.5707 16.6748 0.0000 -3.9276 0.0000
# 3 74.1913 16.6748 132.0833 0.0000 0.1238 0.0000
# 4 0.0000 0.0000 0.0000 7.8345 0.0000 3.4157
# 5 -23.7845 -3.9276 0.1238 0.0000 39.7088 0.0000
# 6 0.0000 0.0000 0.0000 3.4157 0.0000 3.3293
#
#
#
# Elastic Compliance Matrix: (Units=1/GPa)
#
#
# Indices 1 2 3 4 5 6 
#
# 1 0.011774 -0.000254 -0.006588 0.000000 0.007048 0.000000
# 2 -0.000254 0.010414 -0.001173 0.000000 0.000882 0.000000
# 3 -0.006588 -0.001173 0.011423 0.000000 -0.004098 0.000000
# 4 0.000000 0.000000 0.000000 0.230940 0.000000 -0.236937
# 5 0.007048 0.000882 -0.004098 0.000000 0.029505 0.000000
# 6 0.000000 0.000000 0.000000 -0.236937 0.000000 0.543455
#
#
# Mechanical properties :
#
#
# Convention : Reuss Voigt Hill
#
# Bulk Modulus (GPa) = 56.87689 64.55332 60.71510
# Shear Modulus (GPa) = 5.81800 27.97204 16.89502
#
# Velocity S-wave (km/s) = 1.70336 3.73492 2.90268
# Velocity P-wave (km/s) = 5.67741 7.12686 6.44302
#
# Compressibility (1/GPa) = 0.01758183
#
# Stress axis : x y z
#
# Youngs Moduli (GPa) = 84.93341 96.02357 87.53975
#
# Poissons Ratio (x) = 0.02437 0.57671
# Poissons Ratio (y) = 0.02156 0.10268
# Poissons Ratio (z) = 0.55954 0.11263
#
# Static dielectric constant tensor:
#      x y z
#    x 1.722820 0.000000 -0.023820 
#    y 0.000000 1.747650 0.000000 
#    z -0.023820 0.000000 1.726810 
# 
# From -- ./inp_files/29241.got.cif
#   From: 2010.05.17/outbox.cif.g08.bks.cpg/sg10_15_cif.got.tgz:29241.got - 2010.06.03 11:33:40.
