data_PCOD9152892
_publ_section_title
;
Structure prediction by ZEFSAII (Michael W. Deem and Ramdas Pophale) SiO2 
 PCOD9152892
Probable space group: P 2/M
;
_chemical_formula_sum "Si O2"
_cell_formula_units_Z 20
_cell_length_a 5.282799
_cell_length_b 28.652885
_cell_length_c 5.293996
_cell_angle_alpha 90.000000
_cell_angle_beta 95.644928
_cell_angle_gamma 90.000000
_cell_volume 797.452550
_symmetry_space_group_name_H-M "P 2/M"
_symmetry_group_IT_number 10
_symmetry_cell_setting 'monoclinic'
loop_
_space_group_symop_operation_xyz
x,y,z
-x,y,-z
-x,-y,-z
x,-y,z
loop_
_atom_site_type_symbol
_atom_site_label
_atom_site_fract_x
_atom_site_fract_y
_atom_site_fract_z
Si Si1 0.668638 0.798547 0.271296
Si Si2 0.677193 0.599845 0.266059
Si Si3 0.322862 0.500000 0.733963
Si Si4 0.322140 0.300362 0.734100
Si Si5 0.330995 0.000000 0.729183
Si Si6 0.227734 0.898828 0.832802
O O1 0.500000 0.791950 0.500000
O O2 0.822222 0.749625 0.266245
O O3 0.776987 0.850442 0.318360
O O4 0.500000 0.801062 0.000000
O O5 0.500000 0.599606 0.500000
O O6 0.818997 0.549922 0.272642
O O7 0.819734 0.649742 0.271850
O O8 0.500000 0.600021 0.000000
O O9 0.500000 0.500000 0.500000
O O10 0.500000 0.500000 0.000000
O O11 0.500000 0.301687 0.500000
O O12 0.500000 0.299737 0.000000
O O13 0.500000 0.000000 0.500000
O O14 0.192675 0.049818 0.713511
O O15 0.500000 0.000000 0.000000
O O16 0.500000 0.900609 0.000000
O O17 0.000000 0.893109 0.000000
#
# Coordination Sequence:
#
# PCOD9152892 Si02
#       6
#     4   4   2   4   2   4
#     4   9  17  31  49  72  99 132 171 216 264 317
#     4   8  12  17  25  40  62  95 135 181 230 284
#     4   8  12  16  22  34  58  90 131 176 226 280
#     4   8  13  21  35  53  77 108 149 194 243 296
#     4  10  21  40  62  88 118 152 190 232 278 330
#     4  10  21  39  60  86 116 150 188 231 278 330
#
# _framework density 25.079861999999999
#
# number of rings (size 3 to 8) (size 9 to 14) (size 15 to 20)
#    0.000    3.200    0.000    0.900    0.000    0.000 
#    0.000   20.000    0.000    0.000    0.000    0.000 
#    0.000    0.000    0.000    0.900    0.000    5.400 
#
# Total GULP energy -111446.109233 kJ/mol
# GULP energy per Si atom -5572.305462 kJ/mol
# Density = 2.502278 g / cm^3
# Si number density = 25.079862 Si / 1000 Ang^3
#
#
#
# Elastic Constant Matrix: (Units=GPa)
#
#
# Indices 1 2 3 4 5 6 
#
# 1 48.7787 -5.3999 28.2622 0.0000 23.2072 0.0000
# 2 -5.3999 369.3700 -20.6908 0.0000 3.1694 0.0000
# 3 28.2622 -20.6908 180.7584 0.0000 22.7280 0.0000
# 4 0.0000 0.0000 0.0000 52.2545 0.0000 -12.6967
# 5 23.2072 3.1694 22.7280 0.0000 54.7246 0.0000
# 6 0.0000 0.0000 0.0000 -12.6967 0.0000 -47.1508
#
#
#
# Elastic Compliance Matrix: (Units=1/GPa)
#
#
# Indices 1 2 3 4 5 6 
#
# 1 0.027129 0.000322 -0.002908 0.000000 -0.010316 0.000000
# 2 0.000322 0.002733 0.000316 0.000000 -0.000426 0.000000
# 3 -0.002908 0.000316 0.006194 0.000000 -0.001358 0.000000
# 4 0.000000 0.000000 0.000000 0.017962 0.000000 -0.004837
# 5 -0.010316 -0.000426 -0.001358 0.000000 0.023236 0.000000
# 6 0.000000 0.000000 0.000000 -0.004837 0.000000 -0.019906
#
#
# Mechanical properties :
#
#
# Convention : Reuss Voigt Hill
#
# Bulk Modulus (GPa) = 31.72859 67.02779 49.37819
# Shear Modulus (GPa) = 69.06744 51.74804 60.40774
#
# Velocity S-wave (km/s) = 5.25345 4.54732 4.91309
# Velocity P-wave (km/s) = 7.03398 7.37255 7.20526
#
# Compressibility (1/GPa) = 0.03151732
#
# Stress axis : x y z
#
# Youngs Moduli (GPa) = 36.86090 365.84651 161.45271
#
# Poissons Ratio (x) = -0.11789 0.46947
# Poissons Ratio (y) = -0.01188 -0.05103
# Poissons Ratio (z) = 0.10718 -0.11564
#
# Static dielectric constant tensor:
#      x y z
#    x 1.827560 0.000000 0.063990 
#    y 0.000000 2.029730 0.000000 
#    z 0.063990 0.000000 1.882180 
# 
# From -- ./inp_files/2311.got.cif
#   From: 2010.05.17/outbox.cif.g08.bks.cpg/sg10_2_cif.got.tgz:2311.got - 2010.06.03 11:33:40.
