data_PCOD9152241
_publ_section_title
;
Structure prediction by ZEFSAII (Michael W. Deem and Ramdas Pophale) SiO2 
 PCOD9152241
Probable space group: P 2/M
;
_chemical_formula_sum "Si O2"
_cell_formula_units_Z 28
_cell_length_a 20.215660
_cell_length_b 10.620215
_cell_length_c 23.466649
_cell_angle_alpha 90.000000
_cell_angle_beta 17.895909
_cell_angle_gamma 90.000000
_cell_volume 1548.170762
_symmetry_space_group_name_H-M "P 2/M"
_symmetry_group_IT_number 10
_symmetry_cell_setting 'monoclinic'
loop_
_space_group_symop_operation_xyz
x,y,z
-x,y,-z
-x,-y,-z
x,-y,z
loop_
_atom_site_type_symbol
_atom_site_label
_atom_site_fract_x
_atom_site_fract_y
_atom_site_fract_z
Si Si1 0.152385 0.000000 0.264087
Si Si2 0.635924 0.857582 0.298596
Si Si3 0.984021 0.857980 0.107597
Si Si4 0.444807 0.000000 0.137487
Si Si5 0.445394 0.648064 0.266428
Si Si6 0.077529 0.353719 0.123905
Si Si7 0.144194 0.798087 0.437927
Si Si8 0.370525 0.648259 0.455594
O O1 0.312974 0.000000 0.186399
O O2 0.001175 0.120037 0.399554
O O3 0.303999 0.000000 0.084401
O O4 0.761814 0.841856 0.254925
O O5 0.478161 0.743430 0.412460
O O6 0.541136 0.000000 0.374887
O O7 0.823709 0.854358 0.096503
O O8 0.021531 0.746136 0.120867
O O9 0.985875 0.000000 0.131182
O O10 0.347566 0.118420 0.250622
O O11 0.431910 0.500000 0.283852
O O12 0.253129 0.687910 0.383364
O O13 0.428592 0.697208 0.344951
O O14 0.685008 0.678092 0.047857
O O15 0.083392 0.500000 0.097900
O O16 0.885971 0.347748 0.326170
O O17 0.000000 0.769712 0.500000
O O18 0.436897 0.500000 0.408629
#
# Coordination Sequence:
#
# PCOD9152241 Si02
#       8
#     2   4   4   2   4   4   4   4
#     4   8  15  31  54  79 109 138 163 205 263 313
#     4   9  18  34  56  81 110 141 174 220 273 318
#     4   9  18  34  56  81 110 141 174 220 273 318
#     4   8  15  31  54  79 109 138 163 205 263 313
#     4  10  21  38  55  73 106 143 173 220 273 309
#     4  10  21  37  56  77 104 143 186 221 262 320
#     4   9  18  33  55  82 107 136 178 219 260 319
#     4  10  21  37  56  77 104 143 186 221 262 320
#
# _framework density 18.08586
#
# number of rings (size 3 to 8) (size 9 to 14) (size 15 to 20)
#    0.000    2.714    1.429    1.714    0.000    3.143 
#    5.143    4.286    0.000    0.000    0.000    8.000 
#    0.000    0.000    0.000    0.000    0.000    0.000 
#
# Total GULP energy -155920.339122 kJ/mol
# GULP energy per Si atom -5568.583540 kJ/mol
# Density = 1.804470 g / cm^3
# Si number density = 18.085860 Si / 1000 Ang^3
#
#
#
# Elastic Constant Matrix: (Units=GPa)
#
#
# Indices 1 2 3 4 5 6 
#
# 1 37.7755 29.4142 18.0890 0.0000 -17.6533 0.0000
# 2 29.4142 60.9242 31.3511 0.0000 -15.5648 0.0000
# 3 18.0890 31.3511 100.4485 0.0000 -7.0082 0.0000
# 4 0.0000 0.0000 0.0000 72.3799 0.0000 -60.7590
# 5 -17.6533 -15.5648 -7.0082 0.0000 22.1970 0.0000
# 6 0.0000 0.0000 0.0000 -60.7590 0.0000 81.1325
#
#
#
# Elastic Compliance Matrix: (Units=1/GPa)
#
#
# Indices 1 2 3 4 5 6 
#
# 1 0.056222 -0.017914 -0.002342 0.000000 0.031413 0.000000
# 2 -0.017914 0.029020 -0.005528 0.000000 0.004357 0.000000
# 3 -0.002342 -0.005528 0.011966 0.000000 -0.001961 0.000000
# 4 0.000000 0.000000 0.000000 0.037205 0.000000 0.027862
# 5 0.031413 0.004357 -0.001961 0.000000 0.072470 0.000000
# 6 0.000000 0.000000 0.000000 0.027862 0.000000 0.033191
#
#
# Mechanical properties :
#
#
# Convention : Reuss Voigt Hill
#
# Bulk Modulus (GPa) = 21.90985 39.65074 30.78030
# Shear Modulus (GPa) = 16.29439 43.16147 29.72793
#
# Velocity S-wave (km/s) = 3.00483 4.89046 4.05867
# Velocity P-wave (km/s) = 4.91725 7.33893 6.24657
#
# Compressibility (1/GPa) = 0.04564158
#
# Stress axis : x y z
#
# Youngs Moduli (GPa) = 17.78657 34.45870 83.57350
#
# Poissons Ratio (x) = 0.61728 0.19572
# Poissons Ratio (y) = 0.31862 0.46196
# Poissons Ratio (z) = 0.04165 0.19047
#
# Static dielectric constant tensor:
#      x y z
#    x 1.594730 0.000000 0.028410 
#    y 0.000000 1.637960 0.000000 
#    z 0.028410 0.000000 1.676070 
# 
# From -- ./inp_files/85842.got.cif
#   From: 2010.05.17/outbox.cif.g08.bks.cpg/sg10_43_cif.got.tgz:85842.got - 2010.06.03 11:33:40.
