data_PCOD9152740
_publ_section_title
;
Structure prediction by ZEFSAII (Michael W. Deem and Ramdas Pophale) SiO2 
 PCOD9152740
Probable space group: P 2/M
;
_chemical_formula_sum "Si O2"
_cell_formula_units_Z 17
_cell_length_a 7.988860
_cell_length_b 20.107659
_cell_length_c 7.285712
_cell_angle_alpha 90.000000
_cell_angle_beta 139.891768
_cell_angle_gamma 90.000000
_cell_volume 753.983153
_symmetry_space_group_name_H-M "P 2/M"
_symmetry_group_IT_number 10
_symmetry_cell_setting 'monoclinic'
loop_
_space_group_symop_operation_xyz
x,y,z
-x,y,-z
-x,-y,-z
x,-y,z
loop_
_atom_site_type_symbol
_atom_site_label
_atom_site_fract_x
_atom_site_fract_y
_atom_site_fract_z
Si Si1 0.560263 0.788079 0.331180
Si Si2 0.210447 0.427486 0.838752
Si Si3 0.000000 0.000000 0.000000
Si Si4 0.063290 0.284178 0.840920
Si Si5 0.774583 0.069246 0.462551
O O1 0.500000 0.787315 0.500000
O O2 0.616516 0.863704 0.325982
O O3 0.812496 0.740790 0.519824
O O4 0.316091 0.759854 0.017136
O O5 0.200020 0.500000 0.926675
O O6 0.136662 0.361283 0.884165
O O7 0.000000 0.429841 0.500000
O O8 0.500000 0.420696 0.000000
O O9 0.096973 0.057000 0.230828
O O10 0.000000 0.272588 0.000000
O O11 0.000000 0.071832 0.500000
O O12 0.614118 0.000000 0.299923
#
# Coordination Sequence:
#
# PCOD9152740 Si02
#       5
#     4   4   1   4   4
#     4  10  22  38  63  87 124 163 199 258 318 371
#     4  10  21  38  61  89 124 164 205 253 309 369
#     4   8  18  36  70  84 130 166 202 278 320 370
#     4  10  22  39  61  90 122 160 204 250 311 369
#     4   9  20  38  63  94 123 164 220 257 321 389
#
# _framework density 22.546921999999999
#
# number of rings (size 3 to 8) (size 9 to 14) (size 15 to 20)
#    0.706    1.647    0.000    1.412    4.941    3.765 
#    0.000    1.176    0.000   13.412    0.000    0.000 
#    0.000    0.000    0.000    0.000    0.000    0.000 
#
# Total GULP energy -94764.091460 kJ/mol
# GULP energy per Si atom -5574.358321 kJ/mol
# Density = 2.249560 g / cm^3
# Si number density = 22.546922 Si / 1000 Ang^3
#
#
#
# Elastic Constant Matrix: (Units=GPa)
#
#
# Indices 1 2 3 4 5 6 
#
# 1 56.2001 40.8102 39.9470 0.0000 9.3235 0.0000
# 2 40.8102 195.9042 52.9387 0.0000 32.0269 0.0000
# 3 39.9470 52.9387 120.3482 0.0000 17.7544 0.0000
# 4 0.0000 0.0000 0.0000 51.7775 0.0000 17.0356
# 5 9.3235 32.0269 17.7544 0.0000 34.0276 0.0000
# 6 0.0000 0.0000 0.0000 17.0356 0.0000 43.5068
#
#
#
# Elastic Compliance Matrix: (Units=1/GPa)
#
#
# Indices 1 2 3 4 5 6 
#
# 1 0.025119 -0.003360 -0.006837 0.000000 -0.000153 0.000000
# 2 -0.003360 0.006945 -0.001204 0.000000 -0.004988 0.000000
# 3 -0.006837 -0.001204 0.011554 0.000000 -0.003022 0.000000
# 4 0.000000 0.000000 0.000000 0.022169 0.000000 -0.008681
# 5 -0.000153 -0.004988 -0.003022 0.000000 0.035701 0.000000
# 6 0.000000 0.000000 0.000000 -0.008681 0.000000 0.026384
#
#
# Mechanical properties :
#
#
# Convention : Reuss Voigt Hill
#
# Bulk Modulus (GPa) = 48.04040 71.09383 59.56711
# Shear Modulus (GPa) = 31.72316 41.77948 36.75132
#
# Velocity S-wave (km/s) = 3.75505 4.30932 4.04170
# Velocity P-wave (km/s) = 6.33669 7.50735 6.94672
#
# Compressibility (1/GPa) = 0.02081582
#
# Stress axis : x y z
#
# Youngs Moduli (GPa) = 39.81102 143.98206 86.54983
#
# Poissons Ratio (x) = 0.48380 0.59175
# Poissons Ratio (y) = 0.13377 0.10420
# Poissons Ratio (z) = 0.27219 0.17334
#
# Static dielectric constant tensor:
#      x y z
#    x 1.816090 0.000000 0.019020 
#    y 0.000000 1.519920 0.000000 
#    z 0.019020 0.000000 1.816900 
# 
# From -- ./inp_files/14846.got.cif
#   From: 2010.05.17/outbox.cif.g08.bks.cpg/sg10_8_cif.got.tgz:14846.got - 2010.06.03 11:33:40.
