data_PCOD9152175
_publ_section_title
;
Structure prediction by ZEFSAII (Michael W. Deem and Ramdas Pophale) SiO2 
 PCOD9152175
Probable space group: P 2/M
;
_chemical_formula_sum "Si O2"
_cell_formula_units_Z 16
_cell_length_a 13.150883
_cell_length_b 5.345483
_cell_length_c 18.097667
_cell_angle_alpha 90.000000
_cell_angle_beta 148.031121
_cell_angle_gamma 90.000000
_cell_volume 673.591241
_symmetry_space_group_name_H-M "P 2/M"
_symmetry_group_IT_number 10
_symmetry_cell_setting 'monoclinic'
loop_
_space_group_symop_operation_xyz
x,y,z
-x,y,-z
-x,-y,-z
x,-y,z
loop_
_atom_site_type_symbol
_atom_site_label
_atom_site_fract_x
_atom_site_fract_y
_atom_site_fract_z
Si Si1 0.857639 0.000000 0.843440
Si Si2 0.082663 0.000000 0.279274
Si Si3 0.045502 0.000000 0.640513
Si Si4 0.229442 0.500000 0.155503
Si Si5 0.201032 0.500000 0.538050
Si Si6 0.546412 0.500000 0.858387
Si Si7 0.487441 0.000000 0.904232
Si Si8 0.669623 0.500000 0.544789
O O1 0.731274 0.751625 0.774466
O O2 0.980201 0.000000 0.844408
O O3 0.000000 0.000000 0.000000
O O4 0.209067 0.249027 0.365364
O O5 0.941407 0.000000 0.261550
O O6 0.928515 0.750129 0.546420
O O7 0.739263 0.000000 0.256236
O O8 0.319472 0.500000 0.130479
O O9 0.000000 0.500000 0.000000
O O10 0.332864 0.500000 0.691500
O O11 0.341818 0.500000 0.552444
O O12 0.574616 0.251720 0.923713
O O13 0.500000 0.000000 0.000000
O O14 0.500000 0.500000 0.500000
#
# Coordination Sequence:
#
# PCOD9152175 Si02
#       8
#     2   2   2   2   2   2   2   2
#     4  10  21  37  59  92 125 173 220 262 318 383
#     4  10  21  36  60  89 124 171 214 259 318 387
#     4  10  23  45  67  98 134 178 230 279 344 406
#     4  10  23  41  62  93 135 176 217 264 330 393
#     4  10  23  41  69 102 138 174 227 279 343 407
#     4  12  26  45  70 106 137 173 226 293 336 401
#     4  12  28  48  73  99 134 180 228 285 342 407
#     4  10  21  37  57  90 130 176 208 257 318 387
#
# _framework density 23.75328
#
# number of rings (size 3 to 8) (size 9 to 14) (size 15 to 20)
#    0.000    1.500    0.000    3.750    3.500    7.000 
#    0.000    2.500    0.000    0.000    0.000    0.000 
#    0.000    0.000    0.000    0.000    0.000    0.000 
#
# Total GULP energy -89564.747643 kJ/mol
# GULP energy per Si atom -5597.796728 kJ/mol
# Density = 2.369922 g / cm^3
# Si number density = 23.753280 Si / 1000 Ang^3
#
#
#
# Elastic Constant Matrix: (Units=GPa)
#
#
# Indices 1 2 3 4 5 6 
#
# 1 127.5215 56.1129 14.6528 0.0000 -12.0206 0.0000
# 2 56.1129 239.1345 29.4697 0.0000 -10.2020 0.0000
# 3 14.6528 29.4697 78.1090 0.0000 -33.8298 0.0000
# 4 0.0000 0.0000 0.0000 17.9748 0.0000 -13.5319
# 5 -12.0206 -10.2020 -33.8298 0.0000 53.5097 0.0000
# 6 0.0000 0.0000 0.0000 -13.5319 0.0000 27.7484
#
#
#
# Elastic Compliance Matrix: (Units=1/GPa)
#
#
# Indices 1 2 3 4 5 6 
#
# 1 0.008885 -0.001987 -0.000298 0.000000 0.001428 0.000000
# 2 -0.001987 0.004833 -0.001714 0.000000 -0.000609 0.000000
# 3 -0.000298 -0.001714 0.018363 0.000000 0.011216 0.000000
# 4 0.000000 0.000000 0.000000 0.087906 0.000000 0.042869
# 5 0.001428 -0.000609 0.011216 0.000000 0.025984 0.000000
# 6 0.000000 0.000000 0.000000 0.042869 0.000000 0.056944
#
#
# Mechanical properties :
#
#
# Convention : Reuss Voigt Hill
#
# Bulk Modulus (GPa) = 41.52573 71.69287 56.60930
# Shear Modulus (GPa) = 22.83711 42.81522 32.82617
#
# Velocity S-wave (km/s) = 3.10406 4.25019 3.72151
# Velocity P-wave (km/s) = 5.51062 7.37111 6.50770
#
# Compressibility (1/GPa) = 0.02408145
#
# Stress axis : x y z
#
# Youngs Moduli (GPa) = 112.54714 206.89582 54.45734
#
# Poissons Ratio (x) = 0.41114 0.01625
# Poissons Ratio (y) = 0.22365 0.09337
# Poissons Ratio (z) = 0.03358 0.35472
#
# Static dielectric constant tensor:
#      x y z
#    x 1.853620 0.000000 -0.024510 
#    y 0.000000 2.146940 0.000000 
#    z -0.024510 0.000000 1.850550 
# 
# From -- ./inp_files/56193.got.cif
#   From: 2010.05.17/outbox.cif.g08.bks.cpg/sg10_29_cif.got.tgz:56193.got - 2010.06.03 11:33:40.
