data_PCOD9152847
_publ_section_title
;
Structure prediction by ZEFSAII (Michael W. Deem and Ramdas Pophale) SiO2 
 PCOD9152847
Probable space group: P 2/M
;
_chemical_formula_sum "Si O2"
_cell_formula_units_Z 25
_cell_length_a 15.257335
_cell_length_b 7.482462
_cell_length_c 15.903563
_cell_angle_alpha 90.000000
_cell_angle_beta 38.420241
_cell_angle_gamma 90.000000
_cell_volume 1128.251906
_symmetry_space_group_name_H-M "P 2/M"
_symmetry_group_IT_number 10
_symmetry_cell_setting 'monoclinic'
loop_
_space_group_symop_operation_xyz
x,y,z
-x,y,-z
-x,-y,-z
x,-y,z
loop_
_atom_site_type_symbol
_atom_site_label
_atom_site_fract_x
_atom_site_fract_y
_atom_site_fract_z
Si Si1 0.959952 0.216819 0.936865
Si Si2 0.350804 0.204558 0.087203
Si Si3 0.472266 0.205632 0.393775
Si Si4 0.952847 0.781142 0.628484
Si Si5 0.146691 0.782634 0.638790
Si Si6 0.650663 0.706683 0.102947
Si Si7 0.500000 0.500000 0.500000
O O1 0.067511 0.275794 0.783015
O O2 0.961452 0.000000 0.935547
O O3 0.803652 0.274981 0.029810
O O4 0.000000 0.277015 0.000000
O O5 0.205248 0.282110 0.231758
O O6 0.354294 0.000000 0.116925
O O7 0.500000 0.288783 0.000000
O O8 0.342538 0.203563 0.992913
O O9 0.309870 0.271383 0.515582
O O10 0.536851 0.214769 0.252383
O O11 0.551107 0.341836 0.395499
O O12 0.478829 0.000000 0.416910
O O13 0.059543 0.724188 0.622183
O O14 0.000000 0.727640 0.500000
O O15 0.952156 0.000000 0.631433
O O16 0.146791 0.000000 0.637836
O O17 0.616970 0.500000 0.114567
#
# Coordination Sequence:
#
# PCOD9152847 Si02
#       7
#     4   4   4   4   4   4   1
#     4  10  21  39  65  93 124 165 219 272 330 398
#     4  10  21  38  65  95 125 169 222 273 335 405
#     4  11  25  44  69  95 135 179 220 276 336 396
#     4   9  17  32  58  94 129 159 210 273 324 395
#     4   9  19  37  61  92 127 171 216 267 332 396
#     4  12  25  43  62  95 135 177 224 275 333 405
#     4  12  26  48  64 104 132 172 230 278 332 406
#
# _framework density 22.158172
#
# number of rings (size 3 to 8) (size 9 to 14) (size 15 to 20)
#    0.000    1.760    2.400    1.680    4.480    0.640 
#    1.440    0.000    0.000    0.480    0.000    0.000 
#    0.000    0.000    0.000    0.000    0.000    0.160 
#
# Total GULP energy -139529.878472 kJ/mol
# GULP energy per Si atom -5581.195139 kJ/mol
# Density = 2.210774 g / cm^3
# Si number density = 22.158172 Si / 1000 Ang^3
#
#
#
# Elastic Constant Matrix: (Units=GPa)
#
#
# Indices 1 2 3 4 5 6 
#
# 1 102.8812 -3.2399 56.8864 0.0000 11.4601 0.0000
# 2 -3.2399 98.4164 7.2847 0.0000 0.5704 0.0000
# 3 56.8864 7.2847 176.2099 0.0000 11.1660 0.0000
# 4 0.0000 0.0000 0.0000 -54.1290 0.0000 -20.4834
# 5 11.4601 0.5704 11.1660 0.0000 40.6125 0.0000
# 6 0.0000 0.0000 0.0000 -20.4834 0.0000 2.5518
#
#
#
# Elastic Compliance Matrix: (Units=1/GPa)
#
#
# Indices 1 2 3 4 5 6 
#
# 1 0.012099 0.000692 -0.003784 0.000000 -0.002384 0.000000
# 2 0.000692 0.010232 -0.000636 0.000000 -0.000164 0.000000
# 3 -0.003784 -0.000636 0.006976 0.000000 -0.000841 0.000000
# 4 0.000000 0.000000 0.000000 -0.004576 0.000000 -0.036728
# 5 -0.002384 -0.000164 -0.000841 0.000000 0.025529 0.000000
# 6 0.000000 0.000000 0.000000 -0.036728 0.000000 0.097058
#
#
# Mechanical properties :
#
#
# Convention : Reuss Voigt Hill
#
# Bulk Modulus (GPa) = 45.76190 55.48553 50.62372
# Shear Modulus (GPa) = 30.85324 18.91215 24.88269
#
# Velocity S-wave (km/s) = 3.73555 2.92465 3.35469
# Velocity P-wave (km/s) = 6.26921 6.04151 6.15641
#
# Compressibility (1/GPa) = 0.02185224
#
# Stress axis : x y z
#
# Youngs Moduli (GPa) = 82.64892 97.73524 143.34560
#
# Poissons Ratio (x) = -0.06765 0.54237
# Poissons Ratio (y) = -0.05721 0.09118
# Poissons Ratio (z) = 0.31271 0.06216
#
# Static dielectric constant tensor:
#      x y z
#    x 1.804860 0.000000 -0.018040 
#    y 0.000000 1.970870 0.000000 
#    z -0.018040 0.000000 1.761400 
# 
# From -- ./inp_files/66796.got.cif
#   From: 2010.05.17/outbox.cif.g08.bks.cpg/sg10_34_cif.got.tgz:66796.got - 2010.06.03 11:33:40.
