data_PCOD9152344
_publ_section_title
;
Structure prediction by ZEFSAII (Michael W. Deem and Ramdas Pophale) SiO2 
 PCOD9152344
Probable space group: P 2/M
;
_chemical_formula_sum "Si O2"
_cell_formula_units_Z 28
_cell_length_a 9.153068
_cell_length_b 9.117874
_cell_length_c 29.353866
_cell_angle_alpha 90.000000
_cell_angle_beta 38.780848
_cell_angle_gamma 90.000000
_cell_volume 1534.397910
_symmetry_space_group_name_H-M "P 2/M"
_symmetry_group_IT_number 10
_symmetry_cell_setting 'monoclinic'
loop_
_space_group_symop_operation_xyz
x,y,z
-x,y,-z
-x,-y,-z
x,-y,z
loop_
_atom_site_type_symbol
_atom_site_label
_atom_site_fract_x
_atom_site_fract_y
_atom_site_fract_z
Si Si1 0.887921 0.825314 0.075594
Si Si2 0.825545 0.673182 0.500000
Si Si3 0.047499 0.673284 0.211326
Si Si4 0.333150 0.173352 0.636726
Si Si5 0.234113 0.174687 0.075592
Si Si6 0.016784 0.826648 0.363274
Si Si7 0.604132 0.326717 0.788673
O O1 0.651023 0.739720 0.143156
O O2 0.073672 0.800526 0.070531
O O3 0.837235 0.000000 0.085922
O O4 0.000000 0.782522 0.000000
O O5 0.791854 0.500000 0.500000
O O6 0.579588 0.748259 0.571048
O O7 0.000000 0.691202 0.500000
O O8 0.934833 0.748258 0.428952
O O9 0.002597 0.500000 0.218437
O O10 0.133194 0.739727 0.143157
O O11 0.249010 0.694947 0.200396
O O12 0.820032 0.755015 0.286001
O O13 0.182381 0.192301 0.627046
O O14 0.362904 0.000000 0.637176
O O15 0.233172 0.000000 0.085915
O O16 0.500000 0.217491 0.000000
O O17 0.249969 0.755020 0.286000
O O18 0.048786 0.000000 0.362826
O O19 0.594794 0.500000 0.781559
#
# Coordination Sequence:
#
# PCOD9152344 Si02
#       7
#     4   4   4   4   4   4   4
#     4  10  21  37  58  83 111 146 187 230 277 329
#     4  11  24  39  56  82 116 151 186 227 276 328
#     4  10  21  37  58  84 113 146 184 227 277 331
#     4  10  21  38  61  86 111 144 187 231 276 329
#     4  10  21  37  58  83 111 146 187 230 277 329
#     4  10  21  38  61  86 111 144 187 231 276 329
#     4  10  21  37  58  84 113 146 184 227 277 331
#
# _framework density 18.248200000000001
#
# number of rings (size 3 to 8) (size 9 to 14) (size 15 to 20)
#    0.000    1.857    0.000    3.429    0.000    9.714 
#    0.000    0.000    0.000    0.000    0.000    0.000 
#    0.000    0.000    0.000    0.000    0.000    0.000 
#
# Total GULP energy -156499.433623 kJ/mol
# GULP energy per Si atom -5589.265487 kJ/mol
# Density = 1.820667 g / cm^3
# Si number density = 18.248200 Si / 1000 Ang^3
#
#
#
# Elastic Constant Matrix: (Units=GPa)
#
#
# Indices 1 2 3 4 5 6 
#
# 1 64.3731 85.5540 93.7904 0.0000 -5.3289 0.0000
# 2 85.5540 128.7461 121.7675 0.0000 -1.8578 0.0000
# 3 93.7904 121.7675 211.3898 0.0000 -2.2159 0.0000
# 4 0.0000 0.0000 0.0000 104.3006 0.0000 -3.7737
# 5 -5.3289 -1.8578 -2.2159 0.0000 37.0084 0.0000
# 6 0.0000 0.0000 0.0000 -3.7737 0.0000 30.8745
#
#
#
# Elastic Compliance Matrix: (Units=1/GPa)
#
#
# Indices 1 2 3 4 5 6 
#
# 1 0.186611 -0.100191 -0.024870 0.000000 0.020352 0.000000
# 2 -0.100191 0.070858 0.003525 0.000000 -0.010659 0.000000
# 3 -0.024870 0.003525 0.013708 0.000000 -0.002583 0.000000
# 4 0.000000 0.000000 0.000000 0.009630 0.000000 0.001177
# 5 0.020352 -0.010659 -0.002583 0.000000 0.029262 0.000000
# 6 0.000000 0.000000 0.000000 0.001177 0.000000 0.032533
#
#
# Mechanical properties :
#
#
# Convention : Reuss Voigt Hill
#
# Bulk Modulus (GPa) = 35.58094 111.85919 73.72007
# Shear Modulus (GPa) = 8.40276 41.32984 24.86630
#
# Velocity S-wave (km/s) = 2.14819 4.76423 3.69544
# Velocity P-wave (km/s) = 5.06889 9.57579 7.66124
#
# Compressibility (1/GPa) = 0.02810493
#
# Stress axis : x y z
#
# Youngs Moduli (GPa) = 5.35874 14.11267 72.95207
#
# Poissons Ratio (x) = 1.41396 1.81431
# Poissons Ratio (y) = 0.53690 -0.25712
# Poissons Ratio (z) = 0.13327 -0.04974
#
# Static dielectric constant tensor:
#      x y z
#    x 1.609240 0.000000 0.001420 
#    y 0.000000 1.607960 0.000000 
#    z 0.001420 0.000000 1.581540 
# 
# From -- ./inp_files/36818.got.cif
#   From: 2010.05.17/outbox.cif.g08.bks.cpg/sg10_19_cif.got.tgz:36818.got - 2010.06.03 11:33:40.
