data_PCOD9152717
_publ_section_title
;
Structure prediction by ZEFSAII (Michael W. Deem and Ramdas Pophale) SiO2 
 PCOD9152717
Probable space group: P 2/M
;
_chemical_formula_sum "Si O2"
_cell_formula_units_Z 20
_cell_length_a 5.133105
_cell_length_b 7.919859
_cell_length_c 23.762123
_cell_angle_alpha 90.000000
_cell_angle_beta 70.096464
_cell_angle_gamma 90.000000
_cell_volume 908.309981
_symmetry_space_group_name_H-M "P 2/M"
_symmetry_group_IT_number 10
_symmetry_cell_setting 'monoclinic'
loop_
_space_group_symop_operation_xyz
x,y,z
-x,y,-z
-x,-y,-z
x,-y,z
loop_
_atom_site_type_symbol
_atom_site_label
_atom_site_fract_x
_atom_site_fract_y
_atom_site_fract_z
Si Si1 0.698197 0.793792 0.934951
Si Si2 0.807430 0.795751 0.462250
Si Si3 0.308682 0.206280 0.865618
Si Si4 0.712228 0.194369 0.260586
Si Si5 0.882080 0.691767 0.672688
O O1 0.563753 0.739785 0.885602
O O2 0.017636 0.743634 0.915247
O O3 0.696501 0.000000 0.936212
O O4 0.500000 0.737059 0.000000
O O5 0.500000 0.737999 0.500000
O O6 0.000000 0.746188 0.500000
O O7 0.927793 0.730110 0.395011
O O8 0.805162 0.000000 0.458595
O O9 0.306812 0.264834 0.801354
O O10 0.319105 0.000000 0.863355
O O11 0.399221 0.200632 0.307023
O O12 0.930613 0.279922 0.285958
O O13 0.805168 0.000000 0.249673
O O14 0.785596 0.500000 0.677644
#
# Coordination Sequence:
#
# PCOD9152717 Si02
#       5
#     4   4   4   4   4
#     4   9  15  24  40  67 106 143 174 221 288 346
#     4  10  21  38  61  87 115 150 191 231 278 342
#     4   9  17  28  45  71 102 142 187 227 275 338
#     4  11  22  39  61  83 115 158 201 240 284 347
#     4  12  25  40  60  89 122 152 191 243 295 341
#
# _framework density 22.018913999999999
#
# number of rings (size 3 to 8) (size 9 to 14) (size 15 to 20)
#    0.000    1.800    0.000    5.400    0.000    8.000 
#    0.000    0.000    0.000    0.000    0.000    0.000 
#    0.000   56.000    0.000    0.000    0.000    0.000 
#
# Total GULP energy -111833.383057 kJ/mol
# GULP energy per Si atom -5591.669153 kJ/mol
# Density = 2.196880 g / cm^3
# Si number density = 22.018914 Si / 1000 Ang^3
#
#
#
# Elastic Constant Matrix: (Units=GPa)
#
#
# Indices 1 2 3 4 5 6 
#
# 1 71.3258 -3.8069 -25.9761 0.0000 4.4977 0.0000
# 2 -3.8069 27.5430 0.8702 0.0000 6.6369 0.0000
# 3 -25.9761 0.8702 55.5047 0.0000 4.1861 0.0000
# 4 0.0000 0.0000 0.0000 -38.5095 0.0000 18.1358
# 5 4.4977 6.6369 4.1861 0.0000 39.3457 0.0000
# 6 0.0000 0.0000 0.0000 18.1358 0.0000 5.5925
#
#
#
# Elastic Compliance Matrix: (Units=1/GPa)
#
#
# Indices 1 2 3 4 5 6 
#
# 1 0.017440 0.002961 0.008371 0.000000 -0.003384 0.000000
# 2 0.002961 0.038349 0.001309 0.000000 -0.006946 0.000000
# 3 0.008371 0.001309 0.022180 0.000000 -0.003537 0.000000
# 4 0.000000 0.000000 0.000000 -0.010275 0.000000 0.033321
# 5 -0.003384 -0.006946 -0.003537 0.000000 0.027351 0.000000
# 6 0.000000 0.000000 0.000000 0.033321 0.000000 0.070755
#
#
# Mechanical properties :
#
#
# Convention : Reuss Voigt Hill
#
# Bulk Modulus (GPa) = 9.68519 10.72755 10.20637
# Shear Modulus (GPa) = 28.58212 13.50480 21.04346
#
# Velocity S-wave (km/s) = 3.60678 2.47923 3.09479
# Velocity P-wave (km/s) = 4.66404 3.61635 4.17321
#
# Compressibility (1/GPa) = 0.10325045
#
# Stress axis : x y z
#
# Youngs Moduli (GPa) = 57.33903 26.07648 45.08518
#
# Poissons Ratio (x) = -0.07722 -0.37739
# Poissons Ratio (y) = -0.16980 -0.05900
# Poissons Ratio (z) = -0.47997 -0.03412
#
# Static dielectric constant tensor:
#      x y z
#    x 1.743940 0.000000 -0.003470 
#    y 0.000000 1.791470 0.000000 
#    z -0.003470 0.000000 1.784570 
# 
# From -- ./inp_files/11983.got.cif
#   From: 2010.05.17/outbox.cif.g08.bks.cpg/sg10_6_cif.got.tgz:11983.got - 2010.06.03 11:33:40.
