data_PCOD9152806
_publ_section_title
;
Structure prediction by ZEFSAII (Michael W. Deem and Ramdas Pophale) SiO2 
 PCOD9152806
Probable space group: P 2/M
;
_chemical_formula_sum "Si O2"
_cell_formula_units_Z 32
_cell_length_a 14.157396
_cell_length_b 22.080589
_cell_length_c 13.795636
_cell_angle_alpha 90.000000
_cell_angle_beta 20.617644
_cell_angle_gamma 90.000000
_cell_volume 1518.583402
_symmetry_space_group_name_H-M "P 2/M"
_symmetry_group_IT_number 10
_symmetry_cell_setting 'monoclinic'
loop_
_space_group_symop_operation_xyz
x,y,z
-x,y,-z
-x,-y,-z
x,-y,z
loop_
_atom_site_type_symbol
_atom_site_label
_atom_site_fract_x
_atom_site_fract_y
_atom_site_fract_z
Si Si1 0.531968 0.741378 0.585667
Si Si2 0.475757 0.673079 0.822054
Si Si3 0.969419 0.182707 0.914079
Si Si4 0.265436 0.431156 0.304516
Si Si5 0.557307 0.932385 0.141591
Si Si6 0.992191 0.264845 0.391415
Si Si7 0.331415 0.930889 0.565585
Si Si8 0.966582 0.127544 0.417808
O O1 0.500000 0.731971 0.500000
O O2 0.463206 0.683920 0.718701
O O3 0.831106 0.765493 0.316331
O O4 0.332252 0.795258 0.812716
O O5 0.617285 0.611794 0.724085
O O6 0.686983 0.722957 0.655926
O O7 0.195196 0.689115 0.143264
O O8 0.100005 0.117799 0.765930
O O9 0.000000 0.185305 0.000000
O O10 0.212202 0.500000 0.389820
O O11 0.000000 0.410681 0.500000
O O12 0.500000 0.432486 0.000000
O O13 0.530015 0.931304 0.283579
O O14 0.341562 0.884843 0.309863
O O15 0.475319 0.000000 0.188906
O O16 0.845444 0.917732 0.821875
O O17 0.057468 0.195375 0.304197
O O18 0.000000 0.271109 0.500000
O O19 0.500000 0.914100 0.500000
O O20 0.229055 0.000000 0.676795
O O21 0.000000 0.119208 0.500000
#
# Coordination Sequence:
#
# PCOD9152806 Si02
#       8
#     4   4   4   4   4   4   4   4
#     4  10  23  39  57  88 122 158 205 253 301 355
#     4  12  22  37  64  91 123 172 203 246 302 361
#     4  10  21  39  58  81 114 154 199 248 307 369
#     4  10  21  38  62  95 135 171 208 253 296 353
#     4  11  25  42  64  88 112 150 201 251 305 381
#     4  11  24  39  59  91 123 155 198 252 307 372
#     4  10  23  42  63  89 120 154 195 254 320 388
#     4  11  25  44  62  85 118 152 197 256 311 362
#
# _framework density 21.07227
#
# number of rings (size 3 to 8) (size 9 to 14) (size 15 to 20)
#    0.000    1.375    0.000    5.625    5.250    4.750 
#    2.250    4.375    0.000    0.750    0.000    0.000 
#    0.000    8.000    0.000    0.000    0.000    2.375 
#
# Total GULP energy -178963.006715 kJ/mol
# GULP energy per Si atom -5592.593960 kJ/mol
# Density = 2.102431 g / cm^3
# Si number density = 21.072270 Si / 1000 Ang^3
#
#
#
# Elastic Constant Matrix: (Units=GPa)
#
#
# Indices 1 2 3 4 5 6 
#
# 1 93.3323 25.3136 6.2349 0.0000 7.5386 0.0000
# 2 25.3136 111.4236 7.5603 0.0000 5.6372 0.0000
# 3 6.2349 7.5603 84.5602 0.0000 -4.0206 0.0000
# 4 0.0000 0.0000 0.0000 22.2538 0.0000 -5.4402
# 5 7.5386 5.6372 -4.0206 0.0000 28.8699 0.0000
# 6 0.0000 0.0000 0.0000 -5.4402 0.0000 20.0273
#
#
#
# Elastic Compliance Matrix: (Units=1/GPa)
#
#
# Indices 1 2 3 4 5 6 
#
# 1 0.011648 -0.002459 -0.000766 0.000000 -0.002668 0.000000
# 2 -0.002459 0.009652 -0.000746 0.000000 -0.001346 0.000000
# 3 -0.000766 -0.000746 0.012045 0.000000 0.002023 0.000000
# 4 0.000000 0.000000 0.000000 0.048132 0.000000 0.013075
# 5 -0.002668 -0.001346 0.002023 0.000000 0.035880 0.000000
# 6 0.000000 0.000000 0.000000 0.013075 0.000000 0.053484
#
#
# Mechanical properties :
#
#
# Convention : Reuss Voigt Hill
#
# Bulk Modulus (GPa) = 39.36404 40.83707 40.10056
# Shear Modulus (GPa) = 26.70218 30.91067 28.80642
#
# Velocity S-wave (km/s) = 3.56360 3.83415 3.70135
# Velocity P-wave (km/s) = 5.97104 6.24681 6.11048
#
# Compressibility (1/GPa) = 0.02540390
#
# Stress axis : x y z
#
# Youngs Moduli (GPa) = 85.85107 103.60353 83.02042
#
# Poissons Ratio (x) = 0.25479 0.06358
# Poissons Ratio (y) = 0.21113 0.06190
# Poissons Ratio (z) = 0.06575 0.07725
#
# Static dielectric constant tensor:
#      x y z
#    x 1.807290 0.000000 0.016670 
#    y 0.000000 1.786470 0.000000 
#    z 0.016670 0.000000 1.740300 
# 
# From -- ./inp_files/67952.got.cif
#   From: 2010.05.17/outbox.cif.g08.bks.cpg/sg10_34_cif.got.tgz:67952.got - 2010.06.03 11:33:40.
