data_PCOD9152702
_publ_section_title
;
Structure prediction by ZEFSAII (Michael W. Deem and Ramdas Pophale) SiO2 
 PCOD9152702
Probable space group: P 2/M
;
_chemical_formula_sum "Si O2"
_cell_formula_units_Z 32
_cell_length_a 8.577253
_cell_length_b 20.182232
_cell_length_c 12.744125
_cell_angle_alpha 90.000000
_cell_angle_beta 137.921139
_cell_angle_gamma 90.000000
_cell_volume 1478.431781
_symmetry_space_group_name_H-M "P 2/M"
_symmetry_group_IT_number 10
_symmetry_cell_setting 'monoclinic'
loop_
_space_group_symop_operation_xyz
x,y,z
-x,y,-z
-x,-y,-z
x,-y,z
loop_
_atom_site_type_symbol
_atom_site_label
_atom_site_fract_x
_atom_site_fract_y
_atom_site_fract_z
Si Si1 0.084759 0.860322 0.379574
Si Si2 0.914670 0.075985 0.844034
Si Si3 0.948213 0.679337 0.866072
Si Si4 0.448536 0.670688 0.713184
Si Si5 0.627354 0.576513 0.952509
Si Si6 0.572263 0.073831 0.303800
Si Si7 0.587805 0.803048 0.164696
Si Si8 0.258553 0.728724 0.432658
O O1 0.028425 0.888405 0.236411
O O2 0.189585 0.912256 0.513739
O O3 0.283461 0.804853 0.474621
O O4 0.863937 0.817487 0.305235
O O5 0.635938 0.074687 0.715971
O O6 0.001505 0.000000 0.881453
O O7 0.000000 0.102839 0.000000
O O8 0.686454 0.657550 0.765332
O O9 0.935657 0.719616 0.752656
O O10 0.139982 0.621885 0.944784
O O11 0.000000 0.718544 0.000000
O O12 0.470426 0.735960 0.799462
O O13 0.243176 0.685631 0.529397
O O14 0.437579 0.606314 0.778177
O O15 0.684559 0.500000 0.961877
O O16 0.500000 0.583050 0.000000
O O17 0.509280 0.130402 0.187309
O O18 0.579751 0.000000 0.259936
O O19 0.500000 0.799034 0.000000
O O20 0.500000 0.710186 0.500000
#
# Coordination Sequence:
#
# PCOD9152702 Si02
#       8
#     4   4   4   4   4   4   4   4
#     4  12  24  38  63  91 124 174 215 277 342 401
#     4  10  22  41  65  93 124 166 221 284 342 406
#     4   9  21  38  65  97 125 175 212 260 317 374
#     4  10  22  41  63  93 137 168 217 269 321 390
#     4  10  22  43  70 102 138 176 217 261 317 388
#     4  11  24  44  65  90 127 172 224 278 342 414
#     4  12  27  42  60  95 129 170 221 278 346 398
#     4  10  21  38  60  93 129 163 216 268 323 387
#
# _framework density 21.644556000000001
#
# number of rings (size 3 to 8) (size 9 to 14) (size 15 to 20)
#    0.000    1.500    1.250    3.000    7.000    5.500 
#    0.000    0.625    0.000    6.000    0.000    0.000 
#    0.000    0.000    0.000    0.000    0.000    0.000 
#
# Total GULP energy -178311.621334 kJ/mol
# GULP energy per Si atom -5572.238167 kJ/mol
# Density = 2.159529 g / cm^3
# Si number density = 21.644556 Si / 1000 Ang^3
#
#
#
# Elastic Constant Matrix: (Units=GPa)
#
#
# Indices 1 2 3 4 5 6 
#
# 1 77.3089 45.2925 23.4245 0.0000 -6.4258 0.0000
# 2 45.2925 83.9268 28.8363 0.0000 -14.9526 0.0000
# 3 23.4245 28.8363 90.9416 0.0000 -8.1323 0.0000
# 4 0.0000 0.0000 0.0000 8.5812 0.0000 -2.4416
# 5 -6.4258 -14.9526 -8.1323 0.0000 24.2548 0.0000
# 6 0.0000 0.0000 0.0000 -2.4416 0.0000 29.8929
#
#
#
# Elastic Compliance Matrix: (Units=1/GPa)
#
#
# Indices 1 2 3 4 5 6 
#
# 1 0.019257 -0.010037 -0.001933 0.000000 -0.001734 0.000000
# 2 -0.010037 0.019878 -0.002948 0.000000 0.008607 0.000000
# 3 -0.001933 -0.002948 0.012598 0.000000 0.001895 0.000000
# 4 0.000000 0.000000 0.000000 0.119306 0.000000 0.009745
# 5 -0.001734 0.008607 0.001895 0.000000 0.046711 0.000000
# 6 0.000000 0.000000 0.000000 0.009745 0.000000 0.034249
#
#
# Mechanical properties :
#
#
# Convention : Reuss Voigt Hill
#
# Bulk Modulus (GPa) = 45.66729 49.69822 47.68276
# Shear Modulus (GPa) = 17.29299 22.85405 20.07352
#
# Velocity S-wave (km/s) = 2.82964 3.25296 3.04866
# Velocity P-wave (km/s) = 5.64096 6.09261 5.87113
#
# Compressibility (1/GPa) = 0.02189751
#
# Stress axis : x y z
#
# Youngs Moduli (GPa) = 51.92894 50.30600 79.37730
#
# Poissons Ratio (x) = 0.50494 0.15340
# Poissons Ratio (y) = 0.52123 0.23401
# Poissons Ratio (z) = 0.10036 0.14831
#
# Static dielectric constant tensor:
#      x y z
#    x 1.912800 0.000000 -0.017430 
#    y 0.000000 1.754810 0.000000 
#    z -0.017430 0.000000 1.903020 
# 
# From -- ./inp_files/43614.got.cif
#   From: 2010.05.17/outbox.cif.g08.bks.cpg/sg10_22_cif.got.tgz:43614.got - 2010.06.03 11:33:40.
