data_PCOD9152234
_publ_section_title
;
Structure prediction by ZEFSAII (Michael W. Deem and Ramdas Pophale) SiO2 
 PCOD9152234
Probable space group: P 2/M
;
_chemical_formula_sum "Si O2"
_cell_formula_units_Z 32
_cell_length_a 21.325228
_cell_length_b 8.553937
_cell_length_c 26.876526
_cell_angle_alpha 90.000000
_cell_angle_beta 159.130082
_cell_angle_gamma 90.000000
_cell_volume 1746.564566
_symmetry_space_group_name_H-M "P 2/M"
_symmetry_group_IT_number 10
_symmetry_cell_setting 'monoclinic'
loop_
_space_group_symop_operation_xyz
x,y,z
-x,y,-z
-x,-y,-z
x,-y,z
loop_
_atom_site_type_symbol
_atom_site_label
_atom_site_fract_x
_atom_site_fract_y
_atom_site_fract_z
Si Si1 0.528212 0.809195 0.349530
Si Si2 0.188644 0.189121 0.162349
Si Si3 0.241013 0.313626 0.946483
Si Si4 0.148622 0.185549 0.341930
Si Si5 0.200798 0.188585 0.646302
Si Si6 0.476802 0.311298 0.926395
Si Si7 0.290006 0.316054 0.344546
Si Si8 0.481725 0.188764 0.772338
O O1 0.351384 0.761431 0.247743
O O2 0.700517 0.757619 0.507965
O O3 0.529045 0.757498 0.292726
O O4 0.529145 0.000000 0.350120
O O5 0.215154 0.257958 0.236698
O O6 0.193505 0.000000 0.169322
O O7 0.000000 0.234245 0.000000
O O8 0.246942 0.500000 0.955209
O O9 0.042147 0.259690 0.792560
O O10 0.358027 0.265954 0.985608
O O11 0.341067 0.243155 0.068513
O O12 0.211596 0.224573 0.333029
O O13 0.133384 0.000000 0.336711
O O14 0.306468 0.243170 0.773053
O O15 0.316868 0.241379 0.684597
O O16 0.000000 0.244549 0.500000
O O17 0.198368 0.000000 0.643054
O O18 0.464661 0.500000 0.917145
O O19 0.500000 0.258147 0.000000
O O20 0.500000 0.292512 0.500000
O O21 0.254088 0.500000 0.324349
O O22 0.480781 0.000000 0.771344
#
# Coordination Sequence:
#
# PCOD9152234 Si02
#       8
#     4   4   4   4   4   4   4   4
#     4   9  19  35  54  79 107 137 179 226 266 319
#     4  10  21  37  58  83 108 140 184 227 271 322
#     4  10  21  37  55  81 113 143 182 227 273 325
#     4  11  22  37  59  82 108 145 185 224 272 327
#     4   9  18  32  52  80 111 143 179 225 274 319
#     4   9  19  36  56  78 109 148 185 224 269 323
#     4  11  23  39  58  82 113 146 180 225 279 324
#     4   9  18  35  56  78 108 145 183 221 270 328
#
# _framework density 18.321683
#
# number of rings (size 3 to 8) (size 9 to 14) (size 15 to 20)
#    0.000    2.250    1.250    1.125    1.750    2.750 
#    0.000    3.125    0.000    0.000    0.000    0.000 
#    0.000    0.000    0.000    0.000    0.000    0.000 
#
# Total GULP energy -178605.419794 kJ/mol
# GULP energy per Si atom -5581.419369 kJ/mol
# Density = 1.827998 g / cm^3
# Si number density = 18.321683 Si / 1000 Ang^3
#
#
#
# Elastic Constant Matrix: (Units=GPa)
#
#
# Indices 1 2 3 4 5 6 
#
# 1 124.7411 10.4678 81.0864 0.0000 -27.8161 0.0000
# 2 10.4678 4.7687 18.7407 0.0000 -0.6226 0.0000
# 3 81.0864 18.7407 160.0205 0.0000 -8.2905 0.0000
# 4 0.0000 0.0000 0.0000 6.3268 0.0000 -2.0532
# 5 -27.8161 -0.6226 -8.2905 0.0000 29.3375 0.0000
# 6 0.0000 0.0000 0.0000 -2.0532 0.0000 30.1624
#
#
#
# Elastic Compliance Matrix: (Units=1/GPa)
#
#
# Indices 1 2 3 4 5 6 
#
# 1 0.015687 -0.007667 -0.006382 0.000000 0.012907 0.000000
# 2 -0.007667 0.392907 -0.042700 0.000000 -0.010998 0.000000
# 3 -0.006382 -0.042700 0.014333 0.000000 -0.002907 0.000000
# 4 0.000000 0.000000 0.000000 0.161629 0.000000 0.011002
# 5 0.012907 -0.010998 -0.002907 0.000000 0.045269 0.000000
# 6 0.000000 0.000000 0.000000 0.011002 0.000000 0.033903
#
#
# Mechanical properties :
#
#
# Convention : Reuss Voigt Hill
#
# Bulk Modulus (GPa) = 3.23176 56.68000 29.95588
# Shear Modulus (GPa) = 5.67943 25.11434 15.39689
#
# Velocity S-wave (km/s) = 1.76255 3.70637 2.90205
# Velocity P-wave (km/s) = 2.43101 7.02278 5.25496
#
# Compressibility (1/GPa) = 0.30942907
#
# Stress axis : x y z
#
# Youngs Moduli (GPa) = 63.74746 2.54513 69.76687
#
# Poissons Ratio (x) = 0.01951 0.44527
# Poissons Ratio (y) = 0.48875 2.97904
# Poissons Ratio (z) = 0.40686 0.10868
#
# Static dielectric constant tensor:
#      x y z
#    x 1.621250 0.000000 0.014570 
#    y 0.000000 1.621430 0.000000 
#    z 0.014570 0.000000 1.607640 
# 
# From -- ./inp_files/93806.got.cif
#   From: 2010.05.17/outbox.cif.g08.bks.cpg/sg10_47_cif.got.tgz:93806.got - 2010.06.03 11:33:40.
