data_PCOD9152432
_publ_section_title
;
Structure prediction by ZEFSAII (Michael W. Deem and Ramdas Pophale) SiO2 
 PCOD9152432
Probable space group: P 2/M
;
_chemical_formula_sum "Si O2"
_cell_formula_units_Z 32
_cell_length_a 12.092368
_cell_length_b 18.017402
_cell_length_c 14.466728
_cell_angle_alpha 90.000000
_cell_angle_beta 32.176009
_cell_angle_gamma 90.000000
_cell_volume 1678.461255
_symmetry_space_group_name_H-M "P 2/M"
_symmetry_group_IT_number 10
_symmetry_cell_setting 'monoclinic'
loop_
_space_group_symop_operation_xyz
x,y,z
-x,y,-z
-x,-y,-z
x,-y,z
loop_
_atom_site_type_symbol
_atom_site_label
_atom_site_fract_x
_atom_site_fract_y
_atom_site_fract_z
Si Si1 0.603468 0.588671 0.024278
Si Si2 0.726714 0.189075 0.294510
Si Si3 0.810031 0.354772 0.198492
Si Si4 0.126779 0.087704 0.644961
Si Si5 0.093643 0.586278 0.673195
Si Si6 0.651049 0.088813 0.976009
Si Si7 0.494714 0.841858 0.729389
Si Si8 0.565028 0.666624 0.675032
O O1 0.577367 0.500000 0.055105
O O2 0.499289 0.630236 0.183232
O O3 0.500000 0.609306 0.000000
O O4 0.849486 0.604055 0.849549
O O5 0.500000 0.206055 0.500000
O O6 0.839668 0.267707 0.203630
O O7 0.835758 0.133544 0.287553
O O8 0.678375 0.153425 0.229299
O O9 0.812085 0.399553 0.291831
O O10 0.601935 0.357879 0.285126
O O11 0.000000 0.379548 0.000000
O O12 0.302412 0.113938 0.448886
O O13 0.627188 0.000000 0.006641
O O14 0.891224 0.102479 0.780683
O O15 0.118454 0.500000 0.630010
O O16 0.214399 0.638023 0.516351
O O17 0.590129 0.128929 0.113958
O O18 0.150172 0.000000 0.644998
O O19 0.500000 0.111835 0.000000
O O20 0.552371 0.755071 0.692099
#
# Coordination Sequence:
#
# PCOD9152432 Si02
#       8
#     4   4   4   4   4   4   4   4
#     4  10  23  43  63  85 116 155 199 245 292 342
#     4   9  20  36  56  86 119 153 189 228 287 351
#     4  11  21  36  59  87 122 157 190 233 291 352
#     4  10  21  37  60  87 117 151 190 239 287 340
#     4  11  23  39  62  89 119 155 194 241 291 347
#     4  10  23  41  59  82 113 153 199 240 284 339
#     4  10  22  38  60  86 118 152 189 233 292 341
#     4  11  23  40  61  90 119 157 192 239 292 352
#
# _framework density 19.065080999999999
#
# number of rings (size 3 to 8) (size 9 to 14) (size 15 to 20)
#    0.000    1.750    1.250    3.375    3.500    7.000 
#    0.000    6.250    0.000    0.000    0.000    0.000 
#    0.000    0.000    0.000    0.000    0.000    0.000 
#
# Total GULP energy -178848.758190 kJ/mol
# GULP energy per Si atom -5589.023693 kJ/mol
# Density = 1.902169 g / cm^3
# Si number density = 19.065081 Si / 1000 Ang^3
#
#
#
# Elastic Constant Matrix: (Units=GPa)
#
#
# Indices 1 2 3 4 5 6 
#
# 1 70.0935 20.2172 10.4885 0.0000 3.0410 0.0000
# 2 20.2172 27.5720 21.4865 0.0000 -1.1350 0.0000
# 3 10.4885 21.4865 49.9142 0.0000 4.3271 0.0000
# 4 0.0000 0.0000 0.0000 40.5931 0.0000 2.7999
# 5 3.0410 -1.1350 4.3271 0.0000 13.1469 0.0000
# 6 0.0000 0.0000 0.0000 2.7999 0.0000 38.1370
#
#
#
# Elastic Compliance Matrix: (Units=1/GPa)
#
#
# Indices 1 2 3 4 5 6 
#
# 1 0.018999 -0.017472 0.004159 0.000000 -0.007272 0.000000
# 2 -0.017472 0.072824 -0.029411 0.000000 0.020009 0.000000
# 3 0.004159 -0.029411 0.033068 0.000000 -0.014385 0.000000
# 4 0.000000 0.000000 0.000000 0.024760 0.000000 -0.001818
# 5 -0.007272 0.020009 -0.014385 0.000000 0.084208 0.000000
# 6 0.000000 0.000000 0.000000 -0.001818 0.000000 0.026355
#
#
# Mechanical properties :
#
#
# Convention : Reuss Voigt Hill
#
# Bulk Modulus (GPa) = 25.35314 27.99598 26.67456
# Shear Modulus (GPa) = 13.93499 24.73455 19.33477
#
# Velocity S-wave (km/s) = 2.70648 3.60582 3.18802
# Velocity P-wave (km/s) = 4.80560 5.66146 5.25100
#
# Compressibility (1/GPa) = 0.03944284
#
# Stress axis : x y z
#
# Youngs Moduli (GPa) = 52.63382 13.73183 30.24054
#
# Poissons Ratio (x) = 0.23992 -0.12577
# Poissons Ratio (y) = 0.91960 0.88942
# Poissons Ratio (z) = -0.21891 0.40387
#
# Static dielectric constant tensor:
#      x y z
#    x 1.645430 0.000000 -0.013330 
#    y 0.000000 1.645970 0.000000 
#    z -0.013330 0.000000 1.654000 
# 
# From -- ./inp_files/65379.got.cif
#   From: 2010.05.17/outbox.cif.g08.bks.cpg/sg10_33_cif.got.tgz:65379.got - 2010.06.03 11:33:40.
