data_PCOD9152035
_publ_section_title
;
Structure prediction by ZEFSAII (Michael W. Deem and Ramdas Pophale) SiO2 
 PCOD9152035
Probable space group: P 2/M
;
_chemical_formula_sum "Si O2"
_cell_formula_units_Z 28
_cell_length_a 29.223288
_cell_length_b 7.640706
_cell_length_c 9.081665
_cell_angle_alpha 90.000000
_cell_angle_beta 39.820958
_cell_angle_gamma 90.000000
_cell_volume 1298.592979
_symmetry_space_group_name_H-M "P 2/M"
_symmetry_group_IT_number 10
_symmetry_cell_setting 'monoclinic'
loop_
_space_group_symop_operation_xyz
x,y,z
-x,y,-z
-x,-y,-z
x,-y,z
loop_
_atom_site_type_symbol
_atom_site_label
_atom_site_fract_x
_atom_site_fract_y
_atom_site_fract_z
Si Si1 0.427335 0.708367 0.752432
Si Si2 0.713778 0.211662 0.387097
Si Si3 0.428580 0.788302 0.093872
Si Si4 0.856193 0.787134 0.206785
Si Si5 0.863565 0.295210 0.530609
Si Si6 0.010540 0.203156 0.311870
Si Si7 0.282026 0.292611 0.966950
O O1 0.500000 0.780126 0.500000
O O2 0.427114 0.500000 0.723610
O O3 0.354253 0.780351 0.862161
O O4 0.428007 0.735567 0.925245
O O5 0.642291 0.272896 0.646273
O O6 0.784390 0.268063 0.300088
O O7 0.715529 0.268653 0.213778
O O8 0.713247 0.000000 0.389151
O O9 0.428555 0.000000 0.098382
O O10 0.500000 0.726887 0.000000
O O11 0.857455 0.723866 0.370797
O O12 0.857254 0.000000 0.210300
O O13 0.925360 0.723455 0.945314
O O14 0.869486 0.500000 0.554237
O O15 0.935983 0.210237 0.410494
O O16 0.791826 0.221285 0.783505
O O17 0.000000 0.282737 0.500000
O O18 0.030929 0.000000 0.285182
O O19 0.280848 0.500000 0.003178
#
# Coordination Sequence:
#
# PCOD9152035 Si02
#       7
#     4   4   4   4   4   4   4
#     4  10  21  37  57  81 109 145 188 225 262 318
#     4  10  21  37  58  83 109 142 184 224 267 323
#     4  10  21  36  55  83 115 143 177 224 275 323
#     4  10  21  37  57  81 108 141 183 225 265 317
#     4  11  23  37  55  81 112 144 178 220 272 325
#     4  10  21  38  59  81 107 141 181 225 270 317
#     4  10  22  38  55  80 112 143 179 224 271 319
#
# _framework density 21.561798
#
# number of rings (size 3 to 8) (size 9 to 14) (size 15 to 20)
#    0.000    1.857    0.000    3.429    0.000    7.143 
#    0.000    0.000    0.000    0.000    0.000    0.000 
#    0.000    0.000    0.000    0.000    0.000    0.000 
#
# Total GULP energy -156550.884798 kJ/mol
# GULP energy per Si atom -5591.103029 kJ/mol
# Density = 2.151272 g / cm^3
# Si number density = 21.561798 Si / 1000 Ang^3
#
#
#
# Elastic Constant Matrix: (Units=GPa)
#
#
# Indices 1 2 3 4 5 6 
#
# 1 140.7180 -28.3068 75.3756 0.0000 -14.3948 0.0000
# 2 -28.3068 37.8313 -12.8941 0.0000 -9.8912 0.0000
# 3 75.3756 -12.8941 211.6596 0.0000 -15.5274 0.0000
# 4 0.0000 0.0000 0.0000 12.8871 0.0000 10.4050
# 5 -14.3948 -9.8912 -15.5274 0.0000 42.4771 0.0000
# 6 0.0000 0.0000 0.0000 10.4050 0.0000 22.7808
#
#
#
# Elastic Compliance Matrix: (Units=1/GPa)
#
#
# Indices 1 2 3 4 5 6 
#
# 1 0.010852 0.008261 -0.003032 0.000000 0.004493 0.000000
# 2 0.008261 0.035525 0.000035 0.000000 0.011085 0.000000
# 3 -0.003032 0.000035 0.005890 0.000000 0.001134 0.000000
# 4 0.000000 0.000000 0.000000 0.122930 0.000000 -0.056147
# 5 0.004493 0.011085 0.001134 0.000000 0.028060 0.000000
# 6 0.000000 0.000000 0.000000 -0.056147 0.000000 0.069541
#
#
# Mechanical properties :
#
#
# Convention : Reuss Voigt Hill
#
# Bulk Modulus (GPa) = 15.92473 50.95094 33.43783
# Shear Modulus (GPa) = 17.65540 39.36461 28.51000
#
# Velocity S-wave (km/s) = 2.86462 4.27741 3.64022
# Velocity P-wave (km/s) = 4.28288 6.93372 5.76279
#
# Compressibility (1/GPa) = 0.06279543
#
# Stress axis : x y z
#
# Youngs Moduli (GPa) = 92.15148 28.14954 169.79352
#
# Poissons Ratio (x) = -0.23255 0.51475
# Poissons Ratio (y) = -0.76127 -0.00601
# Poissons Ratio (z) = 0.27937 -0.00100
#
# Static dielectric constant tensor:
#      x y z
#    x 1.714240 0.000000 -0.028250 
#    y 0.000000 1.824340 0.000000 
#    z -0.028250 0.000000 1.764850 
# 
# From -- ./inp_files/36908.got.cif
#   From: 2010.05.17/outbox.cif.g08.bks.cpg/sg10_19_cif.got.tgz:36908.got - 2010.06.03 11:33:40.
