data_PCOD9152146
_publ_section_title
;
Structure prediction by ZEFSAII (Michael W. Deem and Ramdas Pophale) SiO2 
 PCOD9152146
Probable space group: P 2/M
;
_chemical_formula_sum "Si O2"
_cell_formula_units_Z 30
_cell_length_a 21.148459
_cell_length_b 14.905283
_cell_length_c 5.573057
_cell_angle_alpha 90.000000
_cell_angle_beta 120.270180
_cell_angle_gamma 90.000000
_cell_volume 1517.239876
_symmetry_space_group_name_H-M "P 2/M"
_symmetry_group_IT_number 10
_symmetry_cell_setting 'monoclinic'
loop_
_space_group_symop_operation_xyz
x,y,z
-x,y,-z
-x,-y,-z
x,-y,z
loop_
_atom_site_type_symbol
_atom_site_label
_atom_site_fract_x
_atom_site_fract_y
_atom_site_fract_z
Si Si1 0.673771 0.399710 0.084285
Si Si2 0.537248 0.197544 0.322272
Si Si3 0.955868 0.000000 0.661284
Si Si4 0.417470 0.397800 0.589768
Si Si5 0.682804 0.898120 0.450695
Si Si6 0.777035 0.764977 0.337463
Si Si7 0.917462 0.826552 0.827133
Si Si8 0.826095 0.900012 0.055839
O O1 0.703823 0.500000 0.139791
O O2 0.628865 0.390014 0.747850
O O3 0.626817 0.391787 0.242029
O O4 0.737345 0.327509 0.219555
O O5 0.500000 0.167637 0.500000
O O6 0.535894 0.306588 0.321076
O O7 0.618443 0.155928 0.460088
O O8 0.500000 0.168760 0.000000
O O9 0.916995 0.903064 0.619500
O O10 0.000000 0.000000 0.500000
O O11 0.000000 0.000000 0.000000
O O12 0.450297 0.500000 0.649417
O O13 0.713743 0.834937 0.299554
O O14 0.754505 0.906908 0.750397
O O15 0.660425 0.000000 0.337838
O O16 0.847927 0.762503 0.647497
O O17 0.809678 0.810388 0.166997
O O18 0.895928 0.880619 0.024487
O O19 0.000000 0.789276 0.000000
O O20 0.830557 0.000000 0.176295
#
# Coordination Sequence:
#
# PCOD9152146 Si02
#       8
#     4   4   2   4   4   4   4   4
#     4  10  21  39  67  94 120 156 200 255 311 367
#     4  12  26  41  64  90 124 169 206 250 308 369
#     4  10  22  36  54  76 126 170 196 242 294 358
#     4  10  21  41  66  94 125 153 193 254 320 376
#     4  10  23  42  57  85 121 160 215 259 299 355
#     4  11  22  35  64  86 119 162 206 258 308 363
#     4  10  23  35  52  87 128 166 204 249 303 366
#     4  10  21  36  59  87 118 163 208 254 309 351
#
# _framework density 19.772746000000001
#
# number of rings (size 3 to 8) (size 9 to 14) (size 15 to 20)
#    0.000    1.600    2.000    2.000    9.333    1.067 
#    0.000    0.000    0.000    0.400    0.000    0.933 
#    0.000    0.000    0.000    0.000    0.000    0.000 
#
# Total GULP energy -167235.913127 kJ/mol
# GULP energy per Si atom -5574.530438 kJ/mol
# Density = 1.972774 g / cm^3
# Si number density = 19.772746 Si / 1000 Ang^3
#
#
#
# Elastic Constant Matrix: (Units=GPa)
#
#
# Indices 1 2 3 4 5 6 
#
# 1 125.1883 29.7032 33.8464 0.0000 -18.4865 0.0000
# 2 29.7032 74.0698 28.1857 0.0000 -1.2849 0.0000
# 3 33.8464 28.1857 83.5018 0.0000 -18.2288 0.0000
# 4 0.0000 0.0000 0.0000 35.7261 0.0000 12.9204
# 5 -18.4865 -1.2849 -18.2288 0.0000 27.3569 0.0000
# 6 0.0000 0.0000 0.0000 12.9204 0.0000 32.8661
#
#
#
# Elastic Compliance Matrix: (Units=1/GPa)
#
#
# Indices 1 2 3 4 5 6 
#
# 1 0.010047 -0.003256 -0.001784 0.000000 0.005448 0.000000
# 2 -0.003256 0.016793 -0.005449 0.000000 -0.005042 0.000000
# 3 -0.001784 -0.005449 0.016640 0.000000 0.009626 0.000000
# 4 0.000000 0.000000 0.000000 0.032630 0.000000 -0.012827
# 5 0.005448 -0.005042 0.009626 0.000000 0.046412 0.000000
# 6 0.000000 0.000000 0.000000 -0.012827 0.000000 0.035469
#
#
# Mechanical properties :
#
#
# Convention : Reuss Voigt Hill
#
# Bulk Modulus (GPa) = 44.44271 51.80337 48.12304
# Shear Modulus (GPa) = 26.81395 31.92481 29.36938
#
# Velocity S-wave (km/s) = 3.68653 4.02255 3.85820
# Velocity P-wave (km/s) = 6.37544 6.91598 6.65120
#
# Compressibility (1/GPa) = 0.02250088
#
# Stress axis : x y z
#
# Youngs Moduli (GPa) = 99.52929 59.55034 60.09657
#
# Poissons Ratio (x) = 0.19387 0.10724
# Poissons Ratio (y) = 0.32403 0.32749
# Poissons Ratio (z) = 0.17760 0.32451
#
# Static dielectric constant tensor:
#      x y z
#    x 1.713150 0.000000 0.003920 
#    y 0.000000 1.692010 0.000000 
#    z 0.003920 0.000000 1.837650 
# 
# From -- ./inp_files/11441.got.cif
#   From: 2010.05.17/outbox.cif.g08.bks.cpg/sg10_6_cif.got.tgz:11441.got - 2010.06.03 11:33:40.
