data_PCOD9152684
_publ_section_title
;
Structure prediction by ZEFSAII (Michael W. Deem and Ramdas Pophale) SiO2 
 PCOD9152684
Probable space group: P 2/M
;
_chemical_formula_sum "Si O2"
_cell_formula_units_Z 28
_cell_length_a 9.075243
_cell_length_b 20.430881
_cell_length_c 15.104457
_cell_angle_alpha 90.000000
_cell_angle_beta 150.289544
_cell_angle_gamma 90.000000
_cell_volume 1388.023518
_symmetry_space_group_name_H-M "P 2/M"
_symmetry_group_IT_number 10
_symmetry_cell_setting 'monoclinic'
loop_
_space_group_symop_operation_xyz
x,y,z
-x,y,-z
-x,-y,-z
x,-y,z
loop_
_atom_site_type_symbol
_atom_site_label
_atom_site_fract_x
_atom_site_fract_y
_atom_site_fract_z
Si Si1 0.606190 0.425156 0.452594
Si Si2 0.786859 0.169908 0.471587
Si Si3 0.720521 0.704994 0.029491
Si Si4 0.154483 0.429180 0.842233
Si Si5 0.855751 0.821356 0.698991
Si Si6 0.232068 0.923563 0.201208
Si Si7 0.346211 0.688722 0.655529
O O1 0.500000 0.414689 0.500000
O O2 0.531140 0.500000 0.387899
O O3 0.532981 0.370242 0.342520
O O4 0.962976 0.422203 0.653474
O O5 0.964424 0.166407 0.656064
O O6 0.533453 0.115274 0.336283
O O7 0.649546 0.242863 0.395130
O O8 0.000000 0.163323 0.500000
O O9 0.528975 0.701813 0.840473
O O10 0.500000 0.710298 0.000000
O O11 0.888962 0.635412 0.123721
O O12 0.960052 0.762685 0.161448
O O13 0.074972 0.500000 0.840740
O O14 0.500000 0.430881 0.000000
O O15 0.500000 0.808431 0.500000
O O16 0.886764 0.885451 0.774972
O O17 0.285583 0.000000 0.246020
O O18 0.000000 0.917289 0.000000
O O19 0.000000 0.676202 0.500000
#
# Coordination Sequence:
#
# PCOD9152684 Si02
#       7
#     4   4   4   4   4   4   4
#     4  10  22  40  60  83 116 155 198 251 303 352
#     4  10  21  38  60  88 121 155 197 245 290 344
#     4  11  21  36  61  89 119 155 199 250 297 350
#     4   9  18  34  55  79 110 150 194 239 290 346
#     4  10  22  39  62  88 121 159 198 243 293 352
#     4  10  22  41  63  89 121 156 196 239 287 349
#     4  11  22  37  60  90 121 155 201 246 295 358
#
# _framework density 20.17257
#
# number of rings (size 3 to 8) (size 9 to 14) (size 15 to 20)
#    0.000    1.857    0.000    5.143    0.000    8.286 
#    0.000    3.571    0.000    4.714    0.000    0.000 
#    0.000    0.000    0.000    0.000    0.000    0.000 
#
# Total GULP energy -156280.322260 kJ/mol
# GULP energy per Si atom -5581.440081 kJ/mol
# Density = 2.012666 g / cm^3
# Si number density = 20.172570 Si / 1000 Ang^3
#
#
#
# Elastic Constant Matrix: (Units=GPa)
#
#
# Indices 1 2 3 4 5 6 
#
# 1 106.1937 73.6043 41.8870 0.0000 -29.4741 0.0000
# 2 73.6043 195.1818 61.3395 0.0000 -20.6352 0.0000
# 3 41.8870 61.3395 97.2029 0.0000 -18.0129 0.0000
# 4 0.0000 0.0000 0.0000 23.1250 0.0000 -1.5640
# 5 -29.4741 -20.6352 -18.0129 0.0000 30.1305 0.0000
# 6 0.0000 0.0000 0.0000 -1.5640 0.0000 29.3625
#
#
#
# Elastic Compliance Matrix: (Units=1/GPa)
#
#
# Indices 1 2 3 4 5 6 
#
# 1 0.016588 -0.004292 -0.002223 0.000000 0.011957 0.000000
# 2 -0.004292 0.007635 -0.003124 0.000000 -0.000837 0.000000
# 3 -0.002223 -0.003124 0.013965 0.000000 0.004034 0.000000
# 4 0.000000 0.000000 0.000000 0.043400 0.000000 0.002312
# 5 0.011957 -0.000837 0.004034 0.000000 0.046724 0.000000
# 6 0.000000 0.000000 0.000000 0.002312 0.000000 0.034180
#
#
# Mechanical properties :
#
#
# Convention : Reuss Voigt Hill
#
# Bulk Modulus (GPa) = 52.88612 83.58220 68.23416
# Shear Modulus (GPa) = 26.58539 31.30679 28.94609
#
# Velocity S-wave (km/s) = 3.63422 3.94375 3.79215
# Velocity P-wave (km/s) = 6.62449 7.89057 7.28509
#
# Compressibility (1/GPa) = 0.01890855
#
# Stress axis : x y z
#
# Youngs Moduli (GPa) = 60.28592 130.97120 71.60929
#
# Poissons Ratio (x) = 0.56218 0.15922
# Poissons Ratio (y) = 0.25877 0.22368
# Poissons Ratio (z) = 0.13404 0.40911
#
# Static dielectric constant tensor:
#      x y z
#    x 1.766870 0.000000 0.039230 
#    y 0.000000 1.713170 0.000000 
#    z 0.039230 0.000000 1.737700 
# 
# From -- ./inp_files/62621.got.cif
#   From: 2010.05.17/outbox.cif.g08.bks.cpg/sg10_32_cif.got.tgz:62621.got - 2010.06.03 11:33:40.
