data_PCOD9152473
_publ_section_title
;
Structure prediction by ZEFSAII (Michael W. Deem and Ramdas Pophale) SiO2 
 PCOD9152473
Probable space group: P 2/M
;
_chemical_formula_sum "Si O2"
_cell_formula_units_Z 28
_cell_length_a 12.023696
_cell_length_b 8.911911
_cell_length_c 15.604939
_cell_angle_alpha 90.000000
_cell_angle_beta 118.619377
_cell_angle_gamma 90.000000
_cell_volume 1467.833810
_symmetry_space_group_name_H-M "P 2/M"
_symmetry_group_IT_number 10
_symmetry_cell_setting 'monoclinic'
loop_
_space_group_symop_operation_xyz
x,y,z
-x,y,-z
-x,-y,-z
x,-y,z
loop_
_atom_site_type_symbol
_atom_site_label
_atom_site_fract_x
_atom_site_fract_y
_atom_site_fract_z
Si Si1 0.078716 0.681861 0.113012
Si Si2 0.876571 0.180725 0.510122
Si Si3 0.629030 0.320729 0.813705
Si Si4 0.633533 0.171284 0.000088
Si Si5 0.740041 0.328262 0.196514
Si Si6 0.033295 0.674355 0.288736
Si Si7 0.624220 0.821080 0.316732
O O1 0.064741 0.500000 0.106835
O O2 0.228162 0.716238 0.162514
O O3 0.035372 0.732467 0.191617
O O4 0.000000 0.736366 0.000000
O O5 0.888067 0.237122 0.611422
O O6 0.743143 0.228563 0.418897
O O7 0.000000 0.231362 0.500000
O O8 0.878842 0.000000 0.509488
O O9 0.617769 0.500000 0.813805
O O10 0.511326 0.255245 0.716499
O O11 0.618172 0.248707 0.903561
O O12 0.721060 0.270183 0.093503
O O13 0.678663 0.000000 0.007714
O O14 0.500000 0.167985 0.000000
O O15 0.695282 0.500000 0.188026
O O16 0.666925 0.225073 0.236645
O O17 0.889018 0.322006 0.268274
O O18 0.074606 0.500000 0.302029
O O19 0.610786 0.000000 0.317093
#
# Coordination Sequence:
#
# PCOD9152473 Si02
#       7
#     4   4   4   4   4   4   4
#     4   9  19  39  63  87 118 154 192 239 295 346
#     4  10  21  38  59  84 118 160 198 237 294 354
#     4  11  22  37  60  85 114 152 196 244 291 348
#     4  11  22  34  51  78 115 154 187 229 287 349
#     4  11  21  33  55  86 115 147 190 238 289 347
#     4  10  21  37  61  90 117 149 195 248 295 343
#     4  11  22  37  56  81 118 155 188 235 294 349
#
# _framework density 19.075728000000002
#
# number of rings (size 3 to 8) (size 9 to 14) (size 15 to 20)
#    0.000    1.571    2.857    2.571    0.000    4.857 
#    0.000    2.143    0.000    7.286    0.000    0.000 
#    0.000    0.000    0.000    0.000    0.000    0.000 
#
# Total GULP energy -156252.655993 kJ/mol
# GULP energy per Si atom -5580.452000 kJ/mol
# Density = 1.903231 g / cm^3
# Si number density = 19.075728 Si / 1000 Ang^3
#
#
#
# Elastic Constant Matrix: (Units=GPa)
#
#
# Indices 1 2 3 4 5 6 
#
# 1 68.0120 7.2678 26.9831 0.0000 1.4219 0.0000
# 2 7.2678 22.0494 5.6725 0.0000 8.1003 0.0000
# 3 26.9831 5.6725 119.9810 0.0000 11.4969 0.0000
# 4 0.0000 0.0000 0.0000 38.9521 0.0000 -2.1819
# 5 1.4219 8.1003 11.4969 0.0000 28.8236 0.0000
# 6 0.0000 0.0000 0.0000 -2.1819 0.0000 18.5546
#
#
#
# Elastic Compliance Matrix: (Units=1/GPa)
#
#
# Indices 1 2 3 4 5 6 
#
# 1 0.016701 -0.005343 -0.003710 0.000000 0.002158 0.000000
# 2 -0.005343 0.052416 0.000114 0.000000 -0.014512 0.000000
# 3 -0.003710 0.000114 0.009513 0.000000 -0.003643 0.000000
# 4 0.000000 0.000000 0.000000 0.025843 0.000000 0.003039
# 5 0.002158 -0.014512 -0.003643 0.000000 0.040119 0.000000
# 6 0.000000 0.000000 0.000000 0.003039 0.000000 0.054252
#
#
# Mechanical properties :
#
#
# Convention : Reuss Voigt Hill
#
# Bulk Modulus (GPa) = 16.46049 32.20992 24.33520
# Shear Modulus (GPa) = 21.09949 28.60733 24.85341
#
# Velocity S-wave (km/s) = 3.32940 3.87676 3.61346
# Velocity P-wave (km/s) = 4.84021 6.07955 5.49494
#
# Compressibility (1/GPa) = 0.06075154
#
# Stress axis : x y z
#
# Youngs Moduli (GPa) = 59.87637 19.07821 105.12198
#
# Poissons Ratio (x) = 0.10194 0.39001
# Poissons Ratio (y) = 0.31992 -0.01199
# Poissons Ratio (z) = 0.22215 -0.00218
#
# Static dielectric constant tensor:
#      x y z
#    x 1.678570 0.000000 0.029650 
#    y 0.000000 1.653570 0.000000 
#    z 0.029650 0.000000 1.685340 
# 
# From -- ./inp_files/49632.got.cif
#   From: 2010.05.17/outbox.cif.g08.bks.cpg/sg10_25_cif.got.tgz:49632.got - 2010.06.03 11:33:40.
