data_PCOD9152399
_publ_section_title
;
Structure prediction by ZEFSAII (Michael W. Deem and Ramdas Pophale) SiO2 
 PCOD9152399
Probable space group: P 2/M
;
_chemical_formula_sum "Si O2"
_cell_formula_units_Z 32
_cell_length_a 8.956493
_cell_length_b 21.561398
_cell_length_c 15.350129
_cell_angle_alpha 90.000000
_cell_angle_beta 30.681724
_cell_angle_gamma 90.000000
_cell_volume 1512.605926
_symmetry_space_group_name_H-M "P 2/M"
_symmetry_group_IT_number 10
_symmetry_cell_setting 'monoclinic'
loop_
_space_group_symop_operation_xyz
x,y,z
-x,y,-z
-x,-y,-z
x,-y,z
loop_
_atom_site_type_symbol
_atom_site_label
_atom_site_fract_x
_atom_site_fract_y
_atom_site_fract_z
Si Si1 0.728729 0.757766 0.810739
Si Si2 0.701404 0.571443 0.813061
Si Si3 0.828268 0.144961 0.178333
Si Si4 0.171902 0.103361 0.177810
Si Si5 0.222436 0.070877 0.465584
Si Si6 0.175789 0.290549 0.822900
Si Si7 0.155800 0.659375 0.658395
Si Si8 0.336903 0.325882 0.306888
O O1 0.776292 0.829681 0.802354
O O2 0.610770 0.736715 0.776269
O O3 0.025630 0.719392 0.674754
O O4 0.500000 0.737479 0.000000
O O5 0.718629 0.500000 0.777687
O O6 0.591686 0.616217 0.791115
O O7 0.013930 0.599882 0.685037
O O8 0.500000 0.575965 0.000000
O O9 0.509196 0.113639 0.329871
O O10 0.798204 0.218265 0.215377
O O11 0.013634 0.114341 0.164335
O O12 0.000000 0.139391 0.000000
O O13 0.957588 0.070520 0.353484
O O14 0.500000 0.076803 0.000000
O O15 0.000000 0.091172 0.500000
O O16 0.313772 0.000000 0.399368
O O17 0.035615 0.329906 0.816563
O O18 0.481255 0.320730 0.697058
O O19 0.000000 0.293517 0.000000
O O20 0.500000 0.659097 0.500000
O O21 0.000000 0.330261 0.500000
#
# Coordination Sequence:
#
# PCOD9152399 Si02
#       8
#     4   4   4   4   4   4   4   4
#     4  10  21  37  59  86 125 167 203 247 306 390
#     4  10  22  43  65  81 114 172 222 254 304 387
#     4  11  25  41  66 102 136 177 223 275 339 405
#     4  11  24  41  69  99 133 179 222 275 333 403
#     4  11  27  48  70  96 132 178 226 284 336 397
#     4  11  22  35  58  91 128 157 197 261 323 382
#     4  11  21  36  58  90 126 155 199 254 317 374
#     4  11  23  36  58  92 122 161 200 259 322 373
#
# _framework density 21.155540999999999
#
# number of rings (size 3 to 8) (size 9 to 14) (size 15 to 20)
#    0.000    1.250    1.250    5.625   10.500    2.000 
#    0.000    0.625    0.000    2.250    0.000    0.000 
#    0.000    0.000    0.000    0.000    0.000    0.000 
#
# Total GULP energy -178851.503948 kJ/mol
# GULP energy per Si atom -5589.109498 kJ/mol
# Density = 2.110739 g / cm^3
# Si number density = 21.155541 Si / 1000 Ang^3
#
#
#
# Elastic Constant Matrix: (Units=GPa)
#
#
# Indices 1 2 3 4 5 6 
#
# 1 122.8896 19.0439 13.9413 0.0000 5.0902 0.0000
# 2 19.0439 69.2324 27.1841 0.0000 -1.6066 0.0000
# 3 13.9413 27.1841 93.1052 0.0000 -10.4734 0.0000
# 4 0.0000 0.0000 0.0000 22.2094 0.0000 3.7561
# 5 5.0902 -1.6066 -10.4734 0.0000 42.2353 0.0000
# 6 0.0000 0.0000 0.0000 3.7561 0.0000 22.3455
#
#
#
# Elastic Compliance Matrix: (Units=1/GPa)
#
#
# Indices 1 2 3 4 5 6 
#
# 1 0.008608 -0.002071 -0.000833 0.000000 -0.001323 0.000000
# 2 -0.002071 0.016827 -0.004632 0.000000 -0.000259 0.000000
# 3 -0.000833 -0.004632 0.012559 0.000000 0.003039 0.000000
# 4 0.000000 0.000000 0.000000 0.046343 0.000000 -0.007790
# 5 -0.001323 -0.000259 0.003039 0.000000 0.024580 0.000000
# 6 0.000000 0.000000 0.000000 -0.007790 0.000000 0.046061
#
#
# Mechanical properties :
#
#
# Convention : Reuss Voigt Hill
#
# Bulk Modulus (GPa) = 43.62731 45.06288 44.34509
# Shear Modulus (GPa) = 28.13874 32.36190 30.25032
#
# Velocity S-wave (km/s) = 3.65099 3.91540 3.78550
# Velocity P-wave (km/s) = 6.20000 6.46432 6.33354
#
# Compressibility (1/GPa) = 0.02292142
#
# Stress axis : x y z
#
# Youngs Moduli (GPa) = 116.17561 59.42985 79.62136
#
# Poissons Ratio (x) = 0.12310 0.06632
# Poissons Ratio (y) = 0.24064 0.36879
# Poissons Ratio (z) = 0.09676 0.27527
#
# Static dielectric constant tensor:
#      x y z
#    x 1.770490 0.000000 -0.010170 
#    y 0.000000 1.728200 0.000000 
#    z -0.010170 0.000000 1.852210 
# 
# From -- ./inp_files/30610.got.cif
#   From: 2010.05.17/outbox.cif.g08.bks.cpg/sg10_16_cif.got.tgz:30610.got - 2010.06.03 11:33:40.
