data_PCOD9152547
_publ_section_title
;
Structure prediction by ZEFSAII (Michael W. Deem and Ramdas Pophale) SiO2 
 PCOD9152547
Probable space group: P 2/M
;
_chemical_formula_sum "Si O2"
_cell_formula_units_Z 17
_cell_length_a 6.246967
_cell_length_b 15.044387
_cell_length_c 11.111186
_cell_angle_alpha 90.000000
_cell_angle_beta 119.397494
_cell_angle_gamma 90.000000
_cell_volume 909.786693
_symmetry_space_group_name_H-M "P 2/M"
_symmetry_group_IT_number 10
_symmetry_cell_setting 'monoclinic'
loop_
_space_group_symop_operation_xyz
x,y,z
-x,y,-z
-x,-y,-z
x,-y,z
loop_
_atom_site_type_symbol
_atom_site_label
_atom_site_fract_x
_atom_site_fract_y
_atom_site_fract_z
Si Si1 0.000000 0.150133 0.000000
Si Si2 0.742790 0.747659 0.139277
Si Si3 0.109993 0.657092 0.398378
Si Si4 0.515452 0.099234 0.242973
Si Si5 0.500000 0.500000 0.500000
Si Si6 0.500000 0.814680 0.500000
O O1 0.755862 0.099096 0.891664
O O2 0.076032 0.210181 0.908282
O O3 0.664224 0.825142 0.211521
O O4 0.881468 0.670004 0.246519
O O5 0.500000 0.719536 0.000000
O O6 0.293023 0.578113 0.417466
O O7 0.264369 0.749194 0.438080
O O8 0.000000 0.641931 0.500000
O O9 0.498237 0.127820 0.377625
O O10 0.621891 0.000000 0.260461
#
# Coordination Sequence:
#
# PCOD9152547 Si02
#       6
#     2   4   4   4   1   2
#     4  10  21  38  56  83 120 176 204 247 290 336
#     4  10  22  38  62  87 120 166 201 245 296 351
#     4  11  21  43  64  90 120 149 198 242 306 367
#     4  11  22  36  55  89 124 164 214 248 286 338
#     4  10  26  36  72  96 112 148 190 246 308 376
#     4  11  21  37  61  88 118 168 195 251 301 347
#
# _framework density 18.685700000000001
#
# number of rings (size 3 to 8) (size 9 to 14) (size 15 to 20)
#    0.000    1.412    4.706    1.059    0.000    5.176 
#    0.000    1.765    0.000    2.118    0.000    0.000 
#    0.000    0.000    0.000    0.000    0.000    0.000 
#
# Total GULP energy -94647.338984 kJ/mol
# GULP energy per Si atom -5567.490528 kJ/mol
# Density = 1.864317 g / cm^3
# Si number density = 18.685700 Si / 1000 Ang^3
#
#
#
# Elastic Constant Matrix: (Units=GPa)
#
#
# Indices 1 2 3 4 5 6 
#
# 1 63.7650 30.8801 33.1732 0.0000 -0.3763 0.0000
# 2 30.8801 101.7889 65.1642 0.0000 14.2619 0.0000
# 3 33.1732 65.1642 120.6552 0.0000 -6.1405 0.0000
# 4 0.0000 0.0000 0.0000 5.8901 0.0000 7.9124
# 5 -0.3763 14.2619 -6.1405 0.0000 34.2172 0.0000
# 6 0.0000 0.0000 0.0000 7.9124 0.0000 5.2556
#
#
#
# Elastic Compliance Matrix: (Units=1/GPa)
#
#
# Indices 1 2 3 4 5 6 
#
# 1 0.019242 -0.004112 -0.002999 0.000000 0.001387 0.000000
# 2 -0.004112 0.018276 -0.009214 0.000000 -0.009316 0.000000
# 3 -0.002999 -0.009214 0.014414 0.000000 0.006394 0.000000
# 4 0.000000 0.000000 0.000000 -0.166052 0.000000 0.249995
# 5 0.001387 -0.009316 0.006394 0.000000 0.034271 0.000000
# 6 0.000000 0.000000 0.000000 0.249995 0.000000 -0.186100
#
#
# Mechanical properties :
#
#
# Convention : Reuss Voigt Hill
#
# Bulk Modulus (GPa) = 51.86108 60.51602 56.18855
# Shear Modulus (GPa) = -22.03903 19.53867 -1.25018
#
# Velocity S-wave (km/s) = -3.43805 3.23716 -0.81885
# Velocity P-wave (km/s) = 3.47195 6.81387 5.40755
#
# Compressibility (1/GPa) = 0.01928228
#
# Stress axis : x y z
#
# Youngs Moduli (GPa) = 51.96862 54.71710 69.37468
#
# Poissons Ratio (x) = 0.22500 0.20806
# Poissons Ratio (y) = 0.21370 0.63922
# Poissons Ratio (z) = 0.15586 0.50417
#
# Static dielectric constant tensor:
#      x y z
#    x 1.648810 0.000000 0.016850 
#    y 0.000000 1.606340 0.000000 
#    z 0.016850 0.000000 1.659830 
# 
# From -- ./inp_files/38915.got.cif
#   From: 2010.05.17/outbox.cif.g08.bks.cpg/sg10_20_cif.got.tgz:38915.got - 2010.06.03 11:33:40.
