data_PCOD9152133
_publ_section_title
;
Structure prediction by ZEFSAII (Michael W. Deem and Ramdas Pophale) SiO2 
 PCOD9152133
Probable space group: P 2/M
;
_chemical_formula_sum "Si O2"
_cell_formula_units_Z 32
_cell_length_a 7.864684
_cell_length_b 15.028992
_cell_length_c 12.545730
_cell_angle_alpha 90.000000
_cell_angle_beta 81.779200
_cell_angle_gamma 90.000000
_cell_volume 1467.646081
_symmetry_space_group_name_H-M "P 2/M"
_symmetry_group_IT_number 10
_symmetry_cell_setting 'monoclinic'
loop_
_space_group_symop_operation_xyz
x,y,z
-x,y,-z
-x,-y,-z
x,-y,z
loop_
_atom_site_type_symbol
_atom_site_label
_atom_site_fract_x
_atom_site_fract_y
_atom_site_fract_z
Si Si1 0.300000 0.399579 0.046532
Si Si2 0.101907 0.095908 0.602276
Si Si3 0.097128 0.285682 0.664393
Si Si4 0.851528 0.260979 0.093996
Si Si5 0.710346 0.707951 0.731153
Si Si6 0.692494 0.904204 0.027895
Si Si7 0.223025 0.903203 0.216390
Si Si8 0.426906 0.399308 0.625618
O O1 0.235534 0.500000 0.068783
O O2 0.275785 0.340928 0.155153
O O3 0.500000 0.402715 0.000000
O O4 0.216657 0.351178 0.952684
O O5 0.176928 0.195038 0.606711
O O6 0.000000 0.095279 0.500000
O O7 0.958761 0.095451 0.707946
O O8 0.197500 0.000000 0.599650
O O9 0.089686 0.272519 0.792144
O O10 0.232471 0.363958 0.635787
O O11 0.895833 0.301047 0.653499
O O12 0.717311 0.180663 0.098583
O O13 0.000000 0.233699 0.000000
O O14 0.685449 0.813561 0.752693
O O15 0.551014 0.663639 0.684415
O O16 0.799397 0.897968 0.908461
O O17 0.728992 0.000000 0.076060
O O18 0.500000 0.903916 0.000000
O O19 0.307512 0.000000 0.231108
O O20 0.500000 0.400183 0.500000
O O21 0.432448 0.500000 0.669038
#
# Coordination Sequence:
#
# PCOD9152133 Si02
#       8
#     4   4   4   4   4   4   4   4
#     4  11  23  39  62  89 125 174 218 265 326 384
#     4   9  19  38  65  96 129 167 214 264 322 389
#     4  11  25  41  70 100 131 175 221 270 326 396
#     4  12  22  39  57  94 131 163 214 266 315 384
#     4  11  22  44  69  95 132 176 218 265 330 397
#     4  10  21  36  58  87 127 175 216 256 310 377
#     4   9  18  34  61  95 128 168 213 259 313 382
#     4  11  28  49  69  98 129 165 221 285 337 390
#
# _framework density 21.803623000000002
#
# number of rings (size 3 to 8) (size 9 to 14) (size 15 to 20)
#    0.000    1.500    2.500    2.250    5.250    3.500 
#    0.000    1.875    0.000    0.750    0.000    0.000 
#    0.000    0.000    0.000    0.000    0.000    0.000 
#
# Total GULP energy -178648.942861 kJ/mol
# GULP energy per Si atom -5582.779464 kJ/mol
# Density = 2.175400 g / cm^3
# Si number density = 21.803623 Si / 1000 Ang^3
#
#
#
# Elastic Constant Matrix: (Units=GPa)
#
#
# Indices 1 2 3 4 5 6 
#
# 1 59.0216 35.8500 -0.1309 0.0000 -5.7973 0.0000
# 2 35.8500 186.5786 4.8775 0.0000 12.6130 0.0000
# 3 -0.1309 4.8775 29.9462 0.0000 0.1544 0.0000
# 4 0.0000 0.0000 0.0000 83.1741 0.0000 48.4038
# 5 -5.7973 12.6130 0.1544 0.0000 25.2659 0.0000
# 6 0.0000 0.0000 0.0000 48.4038 0.0000 60.1331
#
#
#
# Elastic Compliance Matrix: (Units=1/GPa)
#
#
# Indices 1 2 3 4 5 6 
#
# 1 0.020275 -0.004378 0.000766 0.000000 0.006833 0.000000
# 2 -0.004378 0.006516 -0.001058 0.000000 -0.004251 0.000000
# 3 0.000766 -0.001058 0.033566 0.000000 0.000499 0.000000
# 4 0.000000 0.000000 0.000000 0.022618 0.000000 -0.018207
# 5 0.006833 -0.004251 0.000499 0.000000 0.043266 0.000000
# 6 0.000000 0.000000 0.000000 -0.018207 0.000000 0.031285
#
#
# Mechanical properties :
#
#
# Convention : Reuss Voigt Hill
#
# Bulk Modulus (GPa) = 19.60106 39.63771 29.61938
# Shear Modulus (GPa) = 27.19289 49.37794 38.28541
#
# Velocity S-wave (km/s) = 3.53536 4.76401 4.19492
# Velocity P-wave (km/s) = 5.06699 6.96276 6.08910
#
# Compressibility (1/GPa) = 0.05101766
#
# Stress axis : x y z
#
# Youngs Moduli (GPa) = 49.32242 153.47228 29.79166
#
# Poissons Ratio (x) = 0.67184 -0.02283
# Poissons Ratio (y) = 0.21591 0.03153
# Poissons Ratio (z) = -0.03780 0.16245
#
# Static dielectric constant tensor:
#      x y z
#    x 1.852900 0.000000 -0.023100 
#    y 0.000000 1.868160 0.000000 
#    z -0.023100 0.000000 1.730270 
# 
# From -- ./inp_files/42975.got.cif
#   From: 2010.05.17/outbox.cif.g08.bks.cpg/sg10_22_cif.got.tgz:42975.got - 2010.06.03 11:33:40.
