data_PCOD9152093
_publ_section_title
;
Structure prediction by ZEFSAII (Michael W. Deem and Ramdas Pophale) SiO2 
 PCOD9152093
Probable space group: P 2/M
;
_chemical_formula_sum "Si O2"
_cell_formula_units_Z 22
_cell_length_a 5.023796
_cell_length_b 13.893460
_cell_length_c 14.191150
_cell_angle_alpha 90.000000
_cell_angle_beta 89.176943
_cell_angle_gamma 90.000000
_cell_volume 990.410396
_symmetry_space_group_name_H-M "P 2/M"
_symmetry_group_IT_number 10
_symmetry_cell_setting 'monoclinic'
loop_
_space_group_symop_operation_xyz
x,y,z
-x,y,-z
-x,-y,-z
x,-y,z
loop_
_atom_site_type_symbol
_atom_site_label
_atom_site_fract_x
_atom_site_fract_y
_atom_site_fract_z
Si Si1 0.500000 0.241857 0.000000
Si Si2 0.143224 0.887812 0.897066
Si Si3 0.091625 0.195339 0.701970
Si Si4 0.810145 0.391946 0.886460
Si Si5 0.595694 0.111464 0.605429
Si Si6 0.686053 0.608194 0.241405
O O1 0.592174 0.173018 0.083793
O O2 0.272855 0.311968 0.039453
O O3 0.010340 0.836054 0.808584
O O4 0.187673 0.000000 0.876146
O O5 0.000000 0.883808 0.000000
O O6 0.339299 0.128322 0.671902
O O7 0.841074 0.176504 0.636953
O O8 0.210223 0.303061 0.697893
O O9 0.759223 0.500000 0.923238
O O10 0.109587 0.388698 0.847777
O O11 0.609848 0.378530 0.798341
O O12 0.500000 0.132122 0.500000
O O13 0.682177 0.000000 0.610018
O O14 0.705889 0.500000 0.281969
#
# Coordination Sequence:
#
# PCOD9152093 Si02
#       6
#     2   4   4   4   4   4
#     4  12  22  36  54  80 124 168 218 268 304 368
#     4  11  25  39  56  87 130 177 219 258 305 381
#     4  12  23  43  70  95 129 175 212 262 328 383
#     4  10  21  36  57  83 120 165 218 270 314 357
#     4  11  25  45  71 101 128 159 213 275 329 383
#     4  10  21  39  60  91 124 162 211 263 314 380
#
# _framework density 22.213013
#
# number of rings (size 3 to 8) (size 9 to 14) (size 15 to 20)
#    0.000    1.091    1.818    4.909    2.545    1.455 
#    0.000    2.727    0.000    3.273    0.000    0.000 
#    0.000    0.000    0.000    0.000    0.000    0.000 
#
# Total GULP energy -123121.316959 kJ/mol
# GULP energy per Si atom -5596.423498 kJ/mol
# Density = 2.216246 g / cm^3
# Si number density = 22.213013 Si / 1000 Ang^3
#
#
#
# Elastic Constant Matrix: (Units=GPa)
#
#
# Indices 1 2 3 4 5 6 
#
# 1 50.0806 -4.6147 14.2425 0.0000 18.2698 0.0000
# 2 -4.6147 136.1211 51.7432 0.0000 19.9592 0.0000
# 3 14.2425 51.7432 88.1215 0.0000 22.0919 0.0000
# 4 0.0000 0.0000 0.0000 17.2183 0.0000 9.1976
# 5 18.2698 19.9592 22.0919 0.0000 29.6654 0.0000
# 6 0.0000 0.0000 0.0000 9.1976 0.0000 18.5175
#
#
#
# Elastic Compliance Matrix: (Units=1/GPa)
#
#
# Indices 1 2 3 4 5 6 
#
# 1 0.027809 0.004621 -0.002625 0.000000 -0.018281 0.000000
# 2 0.004621 0.010410 -0.005398 0.000000 -0.005830 0.000000
# 3 -0.002625 -0.005398 0.016754 0.000000 -0.007228 0.000000
# 4 0.000000 0.000000 0.000000 0.079052 0.000000 -0.039265
# 5 -0.018281 -0.005830 -0.007228 0.000000 0.054273 0.000000
# 6 0.000000 0.000000 0.000000 -0.039265 0.000000 0.073506
#
#
# Mechanical properties :
#
#
# Convention : Reuss Voigt Hill
#
# Bulk Modulus (GPa) = 20.76005 44.11837 32.43921
# Shear Modulus (GPa) = 17.56458 27.27705 22.42081
#
# Velocity S-wave (km/s) = 2.81505 3.50805 3.18048
# Velocity P-wave (km/s) = 4.46455 6.02604 5.30308
#
# Compressibility (1/GPa) = 0.04816944
#
# Stress axis : x y z
#
# Youngs Moduli (GPa) = 35.95931 96.06415 59.68816
#
# Poissons Ratio (x) = -0.44392 0.15669
# Poissons Ratio (y) = -0.16617 0.32218
# Poissons Ratio (z) = 0.09440 0.51852
#
# Static dielectric constant tensor:
#      x y z
#    x 1.842000 0.000000 -0.004550 
#    y 0.000000 1.836660 0.000000 
#    z -0.004550 0.000000 1.816800 
# 
# From -- ./inp_files/59114.got.cif
#   From: 2010.05.17/outbox.cif.g08.bks.cpg/sg10_30_cif.got.tgz:59114.got - 2010.06.03 11:33:40.
