data_PCOD9152851
_publ_section_title
;
Structure prediction by ZEFSAII (Michael W. Deem and Ramdas Pophale) SiO2 
 PCOD9152851
Probable space group: P 2/M
;
_chemical_formula_sum "Si O2"
_cell_formula_units_Z 28
_cell_length_a 16.392560
_cell_length_b 11.018901
_cell_length_c 9.495291
_cell_angle_alpha 90.000000
_cell_angle_beta 53.251810
_cell_angle_gamma 90.000000
_cell_volume 1374.275157
_symmetry_space_group_name_H-M "P 2/M"
_symmetry_group_IT_number 10
_symmetry_cell_setting 'monoclinic'
loop_
_space_group_symop_operation_xyz
x,y,z
-x,y,-z
-x,-y,-z
x,-y,z
loop_
_atom_site_type_symbol
_atom_site_label
_atom_site_fract_x
_atom_site_fract_y
_atom_site_fract_z
Si Si1 0.400532 0.000000 0.299111
Si Si2 0.595208 0.363079 0.212787
Si Si3 0.107684 0.140053 0.808306
Si Si4 0.385382 0.736974 0.326708
Si Si5 0.740987 0.360248 0.312100
Si Si6 0.105561 0.860340 0.474151
Si Si7 0.631279 0.000000 0.006773
Si Si8 0.708802 0.749295 0.868303
O O1 0.355091 0.125153 0.400018
O O2 0.521980 0.000000 0.193818
O O3 0.386390 0.000000 0.144509
O O4 0.556888 0.500000 0.260662
O O5 0.499916 0.285919 0.258002
O O6 0.645376 0.331390 0.309127
O O7 0.686683 0.352231 0.005403
O O8 0.177461 0.252411 0.786931
O O9 0.093483 0.156160 0.653942
O O10 0.856682 0.000000 0.584661
O O11 0.000000 0.147244 0.000000
O O12 0.306814 0.648613 0.482952
O O13 0.373438 0.731306 0.171434
O O14 0.774172 0.500000 0.249247
O O15 0.185945 0.768718 0.321588
O O16 0.000000 0.850180 0.500000
O O17 0.145744 0.000000 0.791251
O O18 0.689227 0.124835 0.972510
#
# Coordination Sequence:
#
# PCOD9152851 Si02
#       8
#     2   4   4   4   4   4   2   4
#     4   9  18  30  56  87 122 156 200 254 311 352
#     4  11  25  41  57  85 128 169 210 258 302 364
#     4  10  23  45  70  97 125 158 208 262 311 370
#     4  11  21  38  63  90 123 166 213 255 307 369
#     4  11  25  44  64  88 127 175 209 249 318 376
#     4  10  21  38  65  97 127 157 194 254 323 374
#     4   9  16  32  52  86 121 158 191 241 315 372
#     4  11  20  36  62  90 122 160 205 255 307 370
#
# _framework density 20.374378
#
# number of rings (size 3 to 8) (size 9 to 14) (size 15 to 20)
#    0.000    1.571    3.571    1.286    3.000    3.143 
#    2.571    0.714    0.000    0.857    0.000    0.000 
#    0.000    0.000    0.000    0.000    0.000    0.000 
#
# Total GULP energy -156232.313572 kJ/mol
# GULP energy per Si atom -5579.725485 kJ/mol
# Density = 2.032801 g / cm^3
# Si number density = 20.374378 Si / 1000 Ang^3
#
#
#
# Elastic Constant Matrix: (Units=GPa)
#
#
# Indices 1 2 3 4 5 6 
#
# 1 57.9764 31.6921 1.9748 0.0000 -2.7940 0.0000
# 2 31.6921 83.2480 7.8700 0.0000 -2.7436 0.0000
# 3 1.9748 7.8700 58.1253 0.0000 -12.6541 0.0000
# 4 0.0000 0.0000 0.0000 32.8111 0.0000 -20.0855
# 5 -2.7940 -2.7436 -12.6541 0.0000 23.7976 0.0000
# 6 0.0000 0.0000 0.0000 -20.0855 0.0000 59.3539
#
#
#
# Elastic Compliance Matrix: (Units=1/GPa)
#
#
# Indices 1 2 3 4 5 6 
#
# 1 0.021878 -0.008340 0.000832 0.000000 0.002050 0.000000
# 2 -0.008340 0.015355 -0.001836 0.000000 -0.000185 0.000000
# 3 0.000832 -0.001836 0.019678 0.000000 0.010349 0.000000
# 4 0.000000 0.000000 0.000000 0.038441 0.000000 0.013008
# 5 0.002050 -0.000185 0.010349 0.000000 0.047744 0.000000
# 6 0.000000 0.000000 0.000000 0.013008 0.000000 0.021250
#
#
# Mechanical properties :
#
#
# Convention : Reuss Voigt Hill
#
# Bulk Modulus (GPa) = 26.16254 31.38041 28.77148
# Shear Modulus (GPa) = 25.53984 33.71338 29.62661
#
# Velocity S-wave (km/s) = 3.54436 4.07221 3.81742
# Velocity P-wave (km/s) = 5.44231 6.12747 5.79502
#
# Compressibility (1/GPa) = 0.03822259
#
# Stress axis : x y z
#
# Youngs Moduli (GPa) = 45.70868 65.12669 50.81915
#
# Poissons Ratio (x) = 0.54315 -0.04229
# Poissons Ratio (y) = 0.38120 0.09330
# Poissons Ratio (z) = -0.03803 0.11957
#
# Static dielectric constant tensor:
#      x y z
#    x 1.724260 0.000000 -0.010780 
#    y 0.000000 1.740270 0.000000 
#    z -0.010780 0.000000 1.720470 
# 
# From -- ./inp_files/28520.got.cif
#   From: 2010.05.17/outbox.cif.g08.bks.cpg/sg10_15_cif.got.tgz:28520.got - 2010.06.03 11:33:40.
