data_PCOD9152265
_publ_section_title
;
Structure prediction by ZEFSAII (Michael W. Deem and Ramdas Pophale) SiO2 
 PCOD9152265
Probable space group: P 2/M
;
_chemical_formula_sum "Si O2"
_cell_formula_units_Z 32
_cell_length_a 11.908066
_cell_length_b 8.875865
_cell_length_c 29.048292
_cell_angle_alpha 90.000000
_cell_angle_beta 31.664873
_cell_angle_gamma 90.000000
_cell_volume 1611.723022
_symmetry_space_group_name_H-M "P 2/M"
_symmetry_group_IT_number 10
_symmetry_cell_setting 'monoclinic'
loop_
_space_group_symop_operation_xyz
x,y,z
-x,y,-z
-x,-y,-z
x,-y,z
loop_
_atom_site_type_symbol
_atom_site_label
_atom_site_fract_x
_atom_site_fract_y
_atom_site_fract_z
Si Si1 0.027657 0.180279 0.221769
Si Si2 0.601390 0.183068 0.842973
Si Si3 0.858565 0.177716 0.663176
Si Si4 0.242668 0.327318 0.480496
Si Si5 0.639763 0.324194 0.407909
Si Si6 0.407979 0.174742 0.337112
Si Si7 0.107860 0.817483 0.011231
Si Si8 0.868361 0.321091 0.182252
O O1 0.258812 0.225695 0.161387
O O2 0.848023 0.231436 0.321377
O O3 0.970908 0.254486 0.193013
O O4 0.021040 0.000000 0.219463
O O5 0.732704 0.231451 0.752032
O O6 0.355810 0.231807 0.926898
O O7 0.597095 0.000000 0.843084
O O8 0.704226 0.191855 0.672894
O O9 0.071028 0.268604 0.577000
O O10 0.910516 0.000000 0.650648
O O11 0.196309 0.500000 0.484521
O O12 0.476033 0.320078 0.422289
O O13 0.249333 0.225309 0.432986
O O14 0.500000 0.269365 0.500000
O O15 0.696962 0.500000 0.396672
O O16 0.620520 0.273280 0.266544
O O17 0.466734 0.000000 0.322887
O O18 0.099700 0.000000 0.017760
O O19 0.000000 0.777267 0.000000
O O20 0.982136 0.747417 0.097749
O O21 0.886805 0.500000 0.176463
#
# Coordination Sequence:
#
# PCOD9152265 Si02
#       8
#     4   4   4   4   4   4   4   4
#     4  11  22  38  62  89 119 159 207 255 301 356
#     4   9  20  39  63  92 121 152 199 254 301 353
#     4  10  21  38  60  87 120 157 201 252 303 360
#     4  11  22  35  54  84 122 162 202 248 302 362
#     4  10  21  37  56  81 119 165 208 252 303 359
#     4  11  22  38  61  87 117 159 207 253 303 362
#     4  10  21  42  71  97 123 158 201 249 304 366
#     4  12  25  41  62  90 126 162 201 254 311 370
#
# _framework density 19.854528999999999
#
# number of rings (size 3 to 8) (size 9 to 14) (size 15 to 20)
#    0.000    1.500    1.250    4.125    0.000    6.000 
#    0.000    5.000    0.000    0.000    0.000    0.000 
#    0.000    0.000    0.000    0.000    0.000    0.000 
#
# Total GULP energy -178907.329589 kJ/mol
# GULP energy per Si atom -5590.854050 kJ/mol
# Density = 1.980934 g / cm^3
# Si number density = 19.854529 Si / 1000 Ang^3
#
#
#
# Elastic Constant Matrix: (Units=GPa)
#
#
# Indices 1 2 3 4 5 6 
#
# 1 65.1619 31.1734 32.2365 0.0000 -7.0234 0.0000
# 2 31.1734 54.6107 22.4286 0.0000 -4.2127 0.0000
# 3 32.2365 22.4286 107.7712 0.0000 -7.0116 0.0000
# 4 0.0000 0.0000 0.0000 -53.6370 0.0000 15.6565
# 5 -7.0234 -4.2127 -7.0116 0.0000 35.1929 0.0000
# 6 0.0000 0.0000 0.0000 15.6565 0.0000 5.2283
#
#
#
# Elastic Compliance Matrix: (Units=1/GPa)
#
#
# Indices 1 2 3 4 5 6 
#
# 1 0.023167 -0.011216 -0.004440 0.000000 0.002396 0.000000
# 2 -0.011216 0.025541 -0.001932 0.000000 0.000434 0.000000
# 3 -0.004440 -0.001932 0.011080 0.000000 0.001090 0.000000
# 4 0.000000 0.000000 0.000000 -0.009948 0.000000 0.029790
# 5 0.002396 0.000434 0.001090 0.000000 0.029162 0.000000
# 6 0.000000 0.000000 0.000000 0.029790 0.000000 0.102058
#
#
# Mechanical properties :
#
#
# Convention : Reuss Voigt Hill
#
# Bulk Modulus (GPa) = 40.63067 44.35786 42.49426
# Shear Modulus (GPa) = 22.27775 6.80384 14.54080
#
# Velocity S-wave (km/s) = 3.35333 1.85318 2.70916
# Velocity P-wave (km/s) = 5.95833 5.19317 5.58886
#
# Compressibility (1/GPa) = 0.02461195
#
# Stress axis : x y z
#
# Youngs Moduli (GPa) = 43.16532 39.15278 90.25347
#
# Poissons Ratio (x) = 0.43914 0.40068
# Poissons Ratio (y) = 0.48415 0.17439
# Poissons Ratio (z) = 0.19163 0.07565
#
# Static dielectric constant tensor:
#      x y z
#    x 1.703660 0.000000 -0.005480 
#    y 0.000000 1.668740 0.000000 
#    z -0.005480 0.000000 1.679500 
# 
# From -- ./inp_files/94994.got.cif
#   From: 2010.05.17/outbox.cif.g08.bks.cpg/sg10_48_cif.got.tgz:94994.got - 2010.06.03 11:33:40.
