data_PCOD9152383
_publ_section_title
;
Structure prediction by ZEFSAII (Michael W. Deem and Ramdas Pophale) SiO2 
 PCOD9152383
Probable space group: P 2/M
;
_chemical_formula_sum "Si O2"
_cell_formula_units_Z 18
_cell_length_a 20.522635
_cell_length_b 10.026334
_cell_length_c 9.472743
_cell_angle_alpha 90.000000
_cell_angle_beta 149.476082
_cell_angle_gamma 90.000000
_cell_volume 989.982574
_symmetry_space_group_name_H-M "P 2/M"
_symmetry_group_IT_number 10
_symmetry_cell_setting 'monoclinic'
loop_
_space_group_symop_operation_xyz
x,y,z
-x,y,-z
-x,-y,-z
x,-y,z
loop_
_atom_site_type_symbol
_atom_site_label
_atom_site_fract_x
_atom_site_fract_y
_atom_site_fract_z
Si Si1 0.782776 0.000000 0.788638
Si Si2 0.147762 0.255516 0.256906
Si Si3 0.325491 0.500000 0.542283
Si Si4 0.279368 0.215566 0.808420
Si Si5 0.614315 0.500000 0.008849
Si Si6 0.849445 0.000000 0.237023
Si Si7 0.490759 0.000000 0.149740
O O1 0.846221 0.128068 0.833234
O O2 0.632498 0.000000 0.473202
O O3 0.794036 0.000000 0.976867
O O4 0.237732 0.370015 0.358944
O O5 0.208655 0.219259 0.523831
O O6 0.000000 0.298759 0.000000
O O7 0.459441 0.500000 0.707487
O O8 0.360719 0.500000 0.775136
O O9 0.194942 0.130774 0.759558
O O10 0.318826 0.365716 0.922025
O O11 0.409826 0.130150 0.039544
O O12 0.000000 0.000000 0.500000
O O13 0.500000 0.000000 0.000000
#
# Coordination Sequence:
#
# PCOD9152383 Si02
#       7
#     2   4   2   4   2   2   2
#     4  12  22  34  60  83 111 152 190 236 284 328
#     4  11  20  34  55  85 113 147 190 232 281 339
#     4   9  19  32  55  85 113 142 176 242 289 333
#     4  10  21  37  59  83 114 150 189 237 283 337
#     4   9  18  34  58  83 109 145 191 228 293 336
#     4  11  24  42  56  81 119 157 191 229 278 338
#     4  11  19  35  58  86 114 142 188 236 289 331
#
# _framework density 18.182138999999999
#
# number of rings (size 3 to 8) (size 9 to 14) (size 15 to 20)
#    0.000    1.556    2.222    4.000    3.111    1.778 
#    0.000    1.667    0.000    2.667    0.000    0.000 
#    0.000    0.000    0.000    0.000    0.000    0.000 
#
# Total GULP energy -100497.727378 kJ/mol
# GULP energy per Si atom -5583.207077 kJ/mol
# Density = 1.814076 g / cm^3
# Si number density = 18.182139 Si / 1000 Ang^3
#
#
#
# Elastic Constant Matrix: (Units=GPa)
#
#
# Indices 1 2 3 4 5 6 
#
# 1 100.0959 58.7335 23.8652 0.0000 9.4327 0.0000
# 2 58.7335 157.1229 5.3320 0.0000 4.7638 0.0000
# 3 23.8652 5.3320 46.6424 0.0000 3.5514 0.0000
# 4 0.0000 0.0000 0.0000 4.3404 0.0000 11.0571
# 5 9.4327 4.7638 3.5514 0.0000 37.0753 0.0000
# 6 0.0000 0.0000 0.0000 11.0571 0.0000 4.3068
#
#
#
# Elastic Compliance Matrix: (Units=1/GPa)
#
#
# Indices 1 2 3 4 5 6 
#
# 1 0.014960 -0.005284 -0.006862 0.000000 -0.002470 0.000000
# 2 -0.005284 0.008277 0.001749 0.000000 0.000113 0.000000
# 3 -0.006862 0.001749 0.024816 0.000000 -0.000856 0.000000
# 4 0.000000 0.000000 0.000000 -0.041585 0.000000 0.106763
# 5 -0.002470 0.000113 -0.000856 0.000000 0.027668 0.000000
# 6 0.000000 0.000000 0.000000 0.106763 0.000000 -0.041909
#
#
# Mechanical properties :
#
#
# Convention : Reuss Voigt Hill
#
# Bulk Modulus (GPa) = 36.68691 53.30252 44.99472
# Shear Modulus (GPa) = 226.15672 23.53986 124.84829
#
# Velocity S-wave (km/s) = 11.16486 3.60206 8.29545
# Velocity P-wave (km/s) = 13.65381 6.83222 10.79597
#
# Compressibility (1/GPa) = 0.02725768
#
# Stress axis : x y z
#
# Youngs Moduli (GPa) = 66.84460 120.81679 40.29632
#
# Poissons Ratio (x) = 0.63844 0.27653
# Poissons Ratio (y) = 0.35323 -0.07048
# Poissons Ratio (z) = 0.45871 -0.21131
#
# Static dielectric constant tensor:
#      x y z
#    x 1.591130 0.000000 0.011340 
#    y 0.000000 1.637350 0.000000 
#    z 0.011340 0.000000 1.600210 
# 
# From -- ./inp_files/33642.got.cif
#   From: 2010.05.17/outbox.cif.g08.bks.cpg/sg10_17_cif.got.tgz:33642.got - 2010.06.03 11:33:40.
