data_PCOD9152378
_publ_section_title
;
Structure prediction by ZEFSAII (Michael W. Deem and Ramdas Pophale) SiO2 
 PCOD9152378
Probable space group: P 2/M
;
_chemical_formula_sum "Si O2"
_cell_formula_units_Z 32
_cell_length_a 18.658677
_cell_length_b 14.128000
_cell_length_c 6.318937
_cell_angle_alpha 90.000000
_cell_angle_beta 92.716222
_cell_angle_gamma 90.000000
_cell_volume 1663.862192
_symmetry_space_group_name_H-M "P 2/M"
_symmetry_group_IT_number 10
_symmetry_cell_setting 'monoclinic'
loop_
_space_group_symop_operation_xyz
x,y,z
-x,y,-z
-x,-y,-z
x,-y,z
loop_
_atom_site_type_symbol
_atom_site_label
_atom_site_fract_x
_atom_site_fract_y
_atom_site_fract_z
Si Si1 0.971869 0.113369 0.744761
Si Si2 0.834792 0.762960 0.779663
Si Si3 0.675016 0.783427 0.866035
Si Si4 0.420287 0.280076 0.540757
Si Si5 0.830558 0.604212 0.433827
Si Si6 0.426415 0.894935 0.858204
Si Si7 0.680415 0.394131 0.173664
Si Si8 0.081736 0.608837 0.940656
O O1 0.892757 0.157370 0.738446
O O2 0.000000 0.140966 0.500000
O O3 0.975487 0.000000 0.743865
O O4 0.000000 0.138977 0.000000
O O5 0.757730 0.803985 0.829262
O O6 0.823049 0.692681 0.582488
O O7 0.869373 0.690622 0.954325
O O8 0.625528 0.760205 0.659578
O O9 0.638262 0.865883 0.996079
O O10 0.674850 0.685628 0.996769
O O11 0.500000 0.315649 0.500000
O O12 0.431066 0.189369 0.692643
O O13 0.373149 0.359793 0.649788
O O14 0.830489 0.500000 0.538226
O O15 0.761569 0.604947 0.271629
O O16 0.902967 0.612963 0.307088
O O17 0.416267 0.000000 0.765412
O O18 0.500000 0.894771 0.000000
O O19 0.662879 0.500000 0.097722
O O20 0.101104 0.500000 0.003712
O O21 0.000000 0.623477 0.000000
#
# Coordination Sequence:
#
# PCOD9152378 Si02
#       8
#     4   4   4   4   4   4   4   4
#     4  10  25  48  71  97 131 173 221 274 333 399
#     4  12  23  36  66  91 124 165 215 260 325 379
#     4  11  23  39  60  91 126 158 207 260 311 371
#     4  11  22  40  62  91 126 158 201 261 306 372
#     4  10  21  37  58  90 127 162 207 259 314 377
#     4  10  22  41  66  91 118 156 198 250 322 391
#     4  10  22  39  60  87 124 170 212 254 308 369
#     4  10  22  38  57  89 128 163 206 259 313 377
#
# _framework density 19.232362999999999
#
# number of rings (size 3 to 8) (size 9 to 14) (size 15 to 20)
#    0.000    1.500    3.750    0.750    3.500    2.500 
#    0.000    2.500    0.000    0.000    0.000    0.000 
#    0.000    0.000    0.000    0.000    0.000    0.000 
#
# Total GULP energy -178263.782508 kJ/mol
# GULP energy per Si atom -5570.743203 kJ/mol
# Density = 1.918859 g / cm^3
# Si number density = 19.232363 Si / 1000 Ang^3
#
#
#
# Elastic Constant Matrix: (Units=GPa)
#
#
# Indices 1 2 3 4 5 6 
#
# 1 116.4144 11.2568 24.9495 0.0000 -27.9338 0.0000
# 2 11.2568 42.9380 3.4935 0.0000 -5.5499 0.0000
# 3 24.9495 3.4935 53.7861 0.0000 -4.6536 0.0000
# 4 0.0000 0.0000 0.0000 4.4410 0.0000 -1.7723
# 5 -27.9338 -5.5499 -4.6536 0.0000 32.4067 0.0000
# 6 0.0000 0.0000 0.0000 -1.7723 0.0000 25.3959
#
#
#
# Elastic Compliance Matrix: (Units=1/GPa)
#
#
# Indices 1 2 3 4 5 6 
#
# 1 0.011993 -0.001550 -0.004649 0.000000 0.009404 0.000000
# 2 -0.001550 0.024095 -0.000612 0.000000 0.002702 0.000000
# 3 -0.004649 -0.000612 0.020690 0.000000 -0.001141 0.000000
# 4 0.000000 0.000000 0.000000 0.231625 0.000000 0.016164
# 5 0.009404 0.002702 -0.001141 0.000000 0.039263 0.000000
# 6 0.000000 0.000000 0.000000 0.016164 0.000000 0.040504
#
#
# Mechanical properties :
#
#
# Convention : Reuss Voigt Hill
#
# Bulk Modulus (GPa) = 23.17221 32.50425 27.83823
# Shear Modulus (GPa) = 12.62061 24.01130 18.31596
#
# Velocity S-wave (km/s) = 2.56445 3.53722 3.08937
# Velocity P-wave (km/s) = 4.56544 5.79828 5.21840
#
# Compressibility (1/GPa) = 0.04315513
#
# Stress axis : x y z
#
# Youngs Moduli (GPa) = 83.38339 41.50260 48.33356
#
# Poissons Ratio (x) = 0.06434 0.22469
# Poissons Ratio (y) = 0.12927 0.02958
# Poissons Ratio (z) = 0.38762 0.02540
#
# Static dielectric constant tensor:
#      x y z
#    x 1.629870 0.000000 -0.035580 
#    y 0.000000 1.633390 0.000000 
#    z -0.035580 0.000000 1.740540 
# 
# From -- ./inp_files/11417.got.cif
#   From: 2010.05.17/outbox.cif.g08.bks.cpg/sg10_6_cif.got.tgz:11417.got - 2010.06.03 11:33:40.
