data_PCOD9152605
_publ_section_title
;
Structure prediction by ZEFSAII (Michael W. Deem and Ramdas Pophale) SiO2 
 PCOD9152605
Probable space group: P 2/M
;
_chemical_formula_sum "Si O2"
_cell_formula_units_Z 20
_cell_length_a 7.346437
_cell_length_b 8.666294
_cell_length_c 22.575624
_cell_angle_alpha 90.000000
_cell_angle_beta 49.014032
_cell_angle_gamma 90.000000
_cell_volume 1084.981263
_symmetry_space_group_name_H-M "P 2/M"
_symmetry_group_IT_number 10
_symmetry_cell_setting 'monoclinic'
loop_
_space_group_symop_operation_xyz
x,y,z
-x,y,-z
-x,-y,-z
x,-y,z
loop_
_atom_site_type_symbol
_atom_site_label
_atom_site_fract_x
_atom_site_fract_y
_atom_site_fract_z
Si Si1 0.953273 0.183336 0.917387
Si Si2 0.212080 0.685656 0.500409
Si Si3 0.356349 0.316389 0.916408
Si Si4 0.080109 0.684077 0.205535
Si Si5 0.743040 0.815837 0.379607
O O1 0.978660 0.250435 0.846624
O O2 0.187108 0.229389 0.905871
O O3 0.923208 0.000000 0.922481
O O4 0.731100 0.259576 0.000501
O O5 0.225740 0.500000 0.499626
O O6 0.473196 0.751360 0.426411
O O7 0.170393 0.748642 0.575619
O O8 0.000000 0.729078 0.500000
O O9 0.313948 0.500000 0.921169
O O10 0.636002 0.285547 0.845556
O O11 0.042516 0.500000 0.214506
O O12 0.918705 0.761651 0.290172
O O13 0.733185 0.000000 0.385445
#
# Coordination Sequence:
#
# PCOD9152605 Si02
#       5
#     4   4   4   4   4
#     4  11  22  36  57  84 115 149 188 238 289 336
#     4  10  21  40  65  87 113 151 188 224 273 336
#     4  10  21  38  59  81 110 152 197 236 278 334
#     4  11  23  39  59  82 113 152 192 234 280 334
#     4  11  23  38  59  88 119 147 183 234 283 332
#
# _framework density 18.433499000000001
#
# number of rings (size 3 to 8) (size 9 to 14) (size 15 to 20)
#    0.000    1.400    0.000    8.400    0.000    8.800 
#    0.000    2.000    0.000    0.000    0.000    0.000 
#    0.000    0.000    0.000    0.000    0.000    0.000 
#
# Total GULP energy -111816.877360 kJ/mol
# GULP energy per Si atom -5590.843868 kJ/mol
# Density = 1.839154 g / cm^3
# Si number density = 18.433499 Si / 1000 Ang^3
#
#
#
# Elastic Constant Matrix: (Units=GPa)
#
#
# Indices 1 2 3 4 5 6 
#
# 1 137.6631 59.1988 89.6844 0.0000 18.6059 0.0000
# 2 59.1988 110.2261 65.3474 0.0000 7.8303 0.0000
# 3 89.6844 65.3474 181.3073 0.0000 20.0460 0.0000
# 4 0.0000 0.0000 0.0000 30.1855 0.0000 50.9947
# 5 18.6059 7.8303 20.0460 0.0000 23.5036 0.0000
# 6 0.0000 0.0000 0.0000 50.9947 0.0000 -89.4511
#
#
#
# Elastic Compliance Matrix: (Units=1/GPa)
#
#
# Indices 1 2 3 4 5 6 
#
# 1 0.012259 -0.003767 -0.004165 0.000000 -0.004897 0.000000
# 2 -0.003767 0.012697 -0.002843 0.000000 0.001177 0.000000
# 3 -0.004165 -0.002843 0.008978 0.000000 -0.003413 0.000000
# 4 0.000000 0.000000 0.000000 0.016876 0.000000 0.009621
# 5 -0.004897 0.001177 -0.003413 0.000000 0.048942 0.000000
# 6 0.000000 0.000000 0.000000 0.009621 0.000000 -0.005695
#
#
# Mechanical properties :
#
#
# Convention : Reuss Voigt Hill
#
# Bulk Modulus (GPa) = 80.74763 95.29531 88.02147
# Shear Modulus (GPa) = 41.75850 7.17864 24.46857
#
# Velocity S-wave (km/s) = 4.76474 1.97555 3.64730
# Velocity P-wave (km/s) = 8.61222 7.55068 8.09886
#
# Compressibility (1/GPa) = 0.01238426
#
# Stress axis : x y z
#
# Youngs Moduli (GPa) = 81.57084 78.75646 111.38616
#
# Poissons Ratio (x) = 0.29667 0.46391
# Poissons Ratio (y) = 0.30728 0.31669
# Poissons Ratio (z) = 0.33974 0.22392
#
# Static dielectric constant tensor:
#      x y z
#    x 1.626880 0.000000 -0.005170 
#    y 0.000000 1.613110 0.000000 
#    z -0.005170 0.000000 1.605580 
# 
# From -- ./inp_files/87680.got.cif
#   From: 2010.05.17/outbox.cif.g08.bks.cpg/sg10_44_cif.got.tgz:87680.got - 2010.06.03 11:33:40.
