data_PCOD9152421
_publ_section_title
;
Structure prediction by ZEFSAII (Michael W. Deem and Ramdas Pophale) SiO2 
 PCOD9152421
Probable space group: P 2/M
;
_chemical_formula_sum "Si O2"
_cell_formula_units_Z 20
_cell_length_a 11.154779
_cell_length_b 8.066840
_cell_length_c 19.291619
_cell_angle_alpha 90.000000
_cell_angle_beta 150.000229
_cell_angle_gamma 90.000000
_cell_volume 867.960752
_symmetry_space_group_name_H-M "P 2/M"
_symmetry_group_IT_number 10
_symmetry_cell_setting 'monoclinic'
loop_
_space_group_symop_operation_xyz
x,y,z
-x,y,-z
-x,-y,-z
x,-y,z
loop_
_atom_site_type_symbol
_atom_site_label
_atom_site_fract_x
_atom_site_fract_y
_atom_site_fract_z
Si Si1 0.003124 0.804215 0.843990
Si Si2 0.525704 0.804215 0.684846
Si Si3 0.517795 0.695651 0.085898
Si Si4 0.222098 0.695649 0.653998
Si Si5 0.751169 0.310650 0.583726
O O1 0.777102 0.746510 0.777105
O O2 0.932861 0.772244 0.728335
O O3 0.030930 0.000000 0.868666
O O4 0.252062 0.716063 0.983904
O O5 0.447582 0.716061 0.715743
O O6 0.319268 0.772229 0.523800
O O7 0.544111 0.000000 0.706386
O O8 0.569974 0.500000 0.104519
O O9 0.709187 0.765693 0.236396
O O10 0.500000 0.770113 0.000000
O O11 0.173598 0.500000 0.639060
O O12 0.000000 0.770117 0.500000
O O13 0.500000 0.311494 0.500000
O O14 0.825749 0.500000 0.608589
#
# Coordination Sequence:
#
# PCOD9152421 Si02
#       5
#     4   4   4   4   4
#     4  10  21  37  59  90 126 161 202 252 307 367
#     4  10  21  37  59  90 126 161 202 252 307 367
#     4  10  23  42  63  89 121 160 206 255 308 367
#     4  10  23  42  63  89 121 160 206 255 308 367
#     4   9  17  31  55  87 121 159 200 243 296 355
#
# _framework density 23.042518000000001
#
# number of rings (size 3 to 8) (size 9 to 14) (size 15 to 20)
#    0.000    2.200    0.000    1.800    2.800    7.200 
#    0.000    4.000    0.000    0.000    0.000    0.000 
#    0.000    0.000    0.000    0.000    0.000    0.000 
#
# Total GULP energy -111761.579513 kJ/mol
# GULP energy per Si atom -5588.078976 kJ/mol
# Density = 2.299007 g / cm^3
# Si number density = 23.042518 Si / 1000 Ang^3
#
#
#
# Elastic Constant Matrix: (Units=GPa)
#
#
# Indices 1 2 3 4 5 6 
#
# 1 99.2124 -5.4527 61.9799 0.0000 -12.8660 0.0000
# 2 -5.4527 19.1912 1.8267 0.0000 -3.7412 0.0000
# 3 61.9799 1.8267 161.1376 0.0000 -18.9925 0.0000
# 4 0.0000 0.0000 0.0000 15.2399 0.0000 -2.1493
# 5 -12.8660 -3.7412 -18.9925 0.0000 34.2769 0.0000
# 6 0.0000 0.0000 0.0000 -2.1493 0.0000 11.0523
#
#
#
# Elastic Compliance Matrix: (Units=1/GPa)
#
#
# Indices 1 2 3 4 5 6 
#
# 1 0.013895 0.005006 -0.005052 0.000000 0.002963 0.000000
# 2 0.005006 0.055045 -0.001733 0.000000 0.006927 0.000000
# 3 -0.005052 -0.001733 0.008477 0.000000 0.002611 0.000000
# 4 0.000000 0.000000 0.000000 0.067468 0.000000 0.013120
# 5 0.002963 0.006927 0.002611 0.000000 0.032489 0.000000
# 6 0.000000 0.000000 0.000000 0.013120 0.000000 0.093031
#
#
# Mechanical properties :
#
#
# Convention : Reuss Voigt Hill
#
# Bulk Modulus (GPa) = 13.53942 44.02766 28.78354
# Shear Modulus (GPa) = 16.74586 26.85964 21.80275
#
# Velocity S-wave (km/s) = 2.69873 3.41787 3.07937
# Velocity P-wave (km/s) = 3.94962 5.89274 5.01617
#
# Compressibility (1/GPa) = 0.07385842
#
# Stress axis : x y z
#
# Youngs Moduli (GPa) = 71.96909 18.16696 117.97279
#
# Poissons Ratio (x) = -0.09095 0.59601
# Poissons Ratio (y) = -0.36030 0.20447
# Poissons Ratio (z) = 0.36359 0.03149
#
# Static dielectric constant tensor:
#      x y z
#    x 1.899390 0.000000 0.008930 
#    y 0.000000 1.797680 0.000000 
#    z 0.008930 0.000000 1.882030 
# 
# From -- ./inp_files/76251.got.cif
#   From: 2010.05.17/outbox.cif.g08.bks.cpg/sg10_39_cif.got.tgz:76251.got - 2010.06.03 11:33:40.
