data_PCOD9152884
_publ_section_title
;
Structure prediction by ZEFSAII (Michael W. Deem and Ramdas Pophale) SiO2 
 PCOD9152884
Probable space group: P 2/M
;
_chemical_formula_sum "Si O2"
_cell_formula_units_Z 26
_cell_length_a 15.315397
_cell_length_b 15.511423
_cell_length_c 9.995944
_cell_angle_alpha 90.000000
_cell_angle_beta 144.542070
_cell_angle_gamma 90.000000
_cell_volume 1377.559428
_symmetry_space_group_name_H-M "P 2/M"
_symmetry_group_IT_number 10
_symmetry_cell_setting 'monoclinic'
loop_
_space_group_symop_operation_xyz
x,y,z
-x,y,-z
-x,-y,-z
x,-y,z
loop_
_atom_site_type_symbol
_atom_site_label
_atom_site_fract_x
_atom_site_fract_y
_atom_site_fract_z
Si Si1 0.563291 0.790457 0.715226
Si Si2 0.832460 0.500000 0.084073
Si Si3 0.819586 0.500000 0.773689
Si Si4 0.137482 0.692427 0.844703
Si Si5 0.818455 0.254897 0.401143
Si Si6 0.564628 0.500000 0.932380
Si Si7 0.639306 0.901414 0.071157
Si Si8 0.642468 0.349364 0.413964
O O1 0.500000 0.831473 0.500000
O O2 0.428548 0.725781 0.586981
O O3 0.718228 0.733441 0.900413
O O4 0.592732 0.856796 0.873054
O O5 0.906901 0.594050 0.175418
O O6 0.749959 0.500000 0.836713
O O7 0.735480 0.500000 0.098930
O O8 0.763747 0.413256 0.631290
O O9 0.000000 0.500000 0.000000
O O10 0.175700 0.696700 0.734333
O O11 0.984987 0.746488 0.670824
O O12 0.761855 0.160123 0.293035
O O13 0.707813 0.305693 0.361942
O O14 0.495204 0.413778 0.784656
O O15 0.500000 0.500000 0.000000
O O16 0.687383 0.000000 0.111075
O O17 0.500000 0.900507 0.000000
#
# Coordination Sequence:
#
# PCOD9152884 Si02
#       8
#     4   2   2   4   4   2   4   4
#     4  11  22  38  60  91 121 159 200 244 301 362
#     4  12  20  36  56  75 124 165 201 249 284 344
#     4  11  25  38  52  80 121 171 214 243 291 350
#     4  10  22  36  59  86 125 160 202 248 303 344
#     4  10  21  39  59  89 118 152 198 255 306 359
#     4  11  23  32  52  83 110 154 201 251 288 323
#     4  10  21  40  68  93 115 149 195 249 308 373
#     4  11  22  35  57  80 116 158 208 243 283 345
#
# _framework density 18.873958999999999
#
# number of rings (size 3 to 8) (size 9 to 14) (size 15 to 20)
#    0.000    1.385    3.077    2.769    2.154    3.385 
#    0.000    6.154    0.000    0.000    0.000    2.154 
#    0.000    0.000    0.000    0.000    0.000    0.000 
#
# Total GULP energy -144997.941219 kJ/mol
# GULP energy per Si atom -5576.843893 kJ/mol
# Density = 1.883100 g / cm^3
# Si number density = 18.873959 Si / 1000 Ang^3
#
#
#
# Elastic Constant Matrix: (Units=GPa)
#
#
# Indices 1 2 3 4 5 6 
#
# 1 36.0717 30.4585 15.5161 0.0000 0.3674 0.0000
# 2 30.4585 152.7097 54.8355 0.0000 0.9742 0.0000
# 3 15.5161 54.8355 84.8720 0.0000 9.7563 0.0000
# 4 0.0000 0.0000 0.0000 405.6979 0.0000 -24.7130
# 5 0.3674 0.9742 9.7563 0.0000 27.3175 0.0000
# 6 0.0000 0.0000 0.0000 -24.7130 0.0000 20.1727
#
#
#
# Elastic Compliance Matrix: (Units=1/GPa)
#
#
# Indices 1 2 3 4 5 6 
#
# 1 0.033709 -0.005844 -0.002459 0.000000 0.000633 0.000000
# 2 -0.005844 0.009619 -0.005335 0.000000 0.001641 0.000000
# 3 -0.002459 -0.005335 0.016324 0.000000 -0.005607 0.000000
# 4 0.000000 0.000000 0.000000 0.002664 0.000000 0.003263
# 5 0.000633 0.001641 -0.005607 0.000000 0.038542 0.000000
# 6 0.000000 0.000000 0.000000 0.003263 0.000000 0.053570
#
#
# Mechanical properties :
#
#
# Convention : Reuss Voigt Hill
#
# Bulk Modulus (GPa) = 30.88901 52.80818 41.84860
# Shear Modulus (GPa) = 25.97454 102.16050 64.06752
#
# Velocity S-wave (km/s) = 3.71376 7.36514 5.83255
# Velocity P-wave (km/s) = 5.89837 10.01834 8.22064
#
# Compressibility (1/GPa) = 0.03237397
#
# Stress axis : x y z
#
# Youngs Moduli (GPa) = 29.66582 103.95707 61.26079
#
# Poissons Ratio (x) = 0.60755 0.15067
# Poissons Ratio (y) = 0.17337 0.32684
# Poissons Ratio (z) = 0.07296 0.55464
#
# Static dielectric constant tensor:
#      x y z
#    x 2.177880 0.000000 0.025840 
#    y 0.000000 1.631100 0.000000 
#    z 0.025840 0.000000 1.694280 
# 
# From -- ./inp_files/29863.got.cif
#   From: 2010.05.17/outbox.cif.g08.bks.cpg/sg10_15_cif.got.tgz:29863.got - 2010.06.03 11:33:40.
