data_PCOD9152227
_publ_section_title
;
Structure prediction by ZEFSAII (Michael W. Deem and Ramdas Pophale) SiO2 
 PCOD9152227
Probable space group: P 2/M
;
_chemical_formula_sum "Si O2"
_cell_formula_units_Z 24
_cell_length_a 12.927117
_cell_length_b 11.667199
_cell_length_c 21.121290
_cell_angle_alpha 90.000000
_cell_angle_beta 158.283715
_cell_angle_gamma 90.000000
_cell_volume 1178.699655
_symmetry_space_group_name_H-M "P 2/M"
_symmetry_group_IT_number 10
_symmetry_cell_setting 'monoclinic'
loop_
_space_group_symop_operation_xyz
x,y,z
-x,y,-z
-x,-y,-z
x,-y,z
loop_
_atom_site_type_symbol
_atom_site_label
_atom_site_fract_x
_atom_site_fract_y
_atom_site_fract_z
Si Si1 0.441985 0.372018 0.284750
Si Si2 0.061235 0.296165 0.603486
Si Si3 0.160253 0.871087 0.917447
Si Si4 0.660253 0.371087 0.917446
Si Si5 0.561234 0.203834 0.603486
Si Si6 0.058018 0.872018 0.715252
O O1 0.382765 0.500000 0.271955
O O2 0.303162 0.355065 0.137267
O O3 0.363733 0.287691 0.296489
O O4 0.774974 0.357206 0.461471
O O5 0.327635 0.374576 0.742238
O O6 0.000000 0.238387 0.500000
O O7 0.136271 0.212309 0.703513
O O8 0.827634 0.874576 0.742238
O O9 0.196839 0.855065 0.862735
O O10 0.270150 0.000000 0.997519
O O11 0.250000 0.750000 0.000000
O O12 0.770150 0.500000 0.997519
O O13 0.500000 0.261612 0.500000
O O14 0.274972 0.142795 0.461470
O O15 0.117238 0.000000 0.728047
#
# Coordination Sequence:
#
# PCOD9152227 Si02
#       6
#     4   4   4   4   4   4
#     4   9  18  34  56  79 104 138 178 220 266 313
#     4   9  18  34  55  79 104 134 177 222 264 312
#     4  10  21  37  55  77 109 145 178 215 263 317
#     4  10  21  37  55  77 109 145 178 215 263 317
#     4   9  18  34  55  79 104 134 177 222 264 312
#     4   9  18  34  56  79 104 138 178 220 266 313
#
# _framework density 20.361419999999999
#
# number of rings (size 3 to 8) (size 9 to 14) (size 15 to 20)
#    0.000    2.667    0.000    1.000    0.000    7.333 
#    0.000   20.000    0.000    0.000    0.000    0.000 
#    0.000    0.000    0.000    0.000    0.000    0.000 
#
# Total GULP energy -133677.485555 kJ/mol
# GULP energy per Si atom -5569.895231 kJ/mol
# Density = 2.031508 g / cm^3
# Si number density = 20.361420 Si / 1000 Ang^3
#
#
#
# Elastic Constant Matrix: (Units=GPa)
#
#
# Indices 1 2 3 4 5 6 
#
# 1 115.8034 50.9780 20.0018 0.0000 -0.8706 0.0000
# 2 50.9780 160.1283 48.8885 0.0000 -35.4533 0.0000
# 3 20.0018 48.8885 44.8484 0.0000 -5.7116 0.0000
# 4 0.0000 0.0000 0.0000 20.2172 0.0000 -11.3517
# 5 -0.8706 -35.4533 -5.7116 0.0000 32.8757 0.0000
# 6 0.0000 0.0000 0.0000 -11.3517 0.0000 9.4823
#
#
#
# Elastic Compliance Matrix: (Units=1/GPa)
#
#
# Indices 1 2 3 4 5 6 
#
# 1 0.010520 -0.004024 -0.000842 0.000000 -0.004207 0.000000
# 2 -0.004024 0.013998 -0.011817 0.000000 0.012936 0.000000
# 3 -0.000842 -0.011817 0.034696 0.000000 -0.006738 0.000000
# 4 0.000000 0.000000 0.000000 0.150886 0.000000 0.180633
# 5 -0.004207 0.012936 -0.006738 0.000000 0.043085 0.000000
# 6 0.000000 0.000000 0.000000 0.180633 0.000000 0.321704
#
#
# Mechanical properties :
#
#
# Convention : Reuss Voigt Hill
#
# Bulk Modulus (GPa) = 38.68482 62.27964 50.48223
# Shear Modulus (GPa) = 8.10543 25.90917 17.00730
#
# Velocity S-wave (km/s) = 1.99735 3.57103 2.89324
# Velocity P-wave (km/s) = 4.93554 6.90337 6.00067
#
# Compressibility (1/GPa) = 0.02584993
#
# Stress axis : x y z
#
# Youngs Moduli (GPa) = 95.05405 71.43998 28.82189
#
# Poissons Ratio (x) = 0.28745 0.02425
# Poissons Ratio (y) = 0.38247 0.34058
# Poissons Ratio (z) = 0.07999 0.84419
#
# Static dielectric constant tensor:
#      x y z
#    x 1.704830 0.000000 0.032430 
#    y 0.000000 1.709330 0.000000 
#    z 0.032430 0.000000 1.786800 
# 
# From -- ./inp_files/53583.got.cif
#   From: 2010.05.17/outbox.cif.g08.bks.cpg/sg10_27_cif.got.tgz:53583.got - 2010.06.03 11:33:40.
