data_PCOD9152854
_publ_section_title
;
Structure prediction by ZEFSAII (Michael W. Deem and Ramdas Pophale) SiO2 
 PCOD9152854
Probable space group: P 2/M
;
_chemical_formula_sum "Si O2"
_cell_formula_units_Z 32
_cell_length_a 24.437046
_cell_length_b 14.614677
_cell_length_c 9.379556
_cell_angle_alpha 90.000000
_cell_angle_beta 29.345567
_cell_angle_gamma 90.000000
_cell_volume 1641.661106
_symmetry_space_group_name_H-M "P 2/M"
_symmetry_group_IT_number 10
_symmetry_cell_setting 'monoclinic'
loop_
_space_group_symop_operation_xyz
x,y,z
-x,y,-z
-x,-y,-z
x,-y,z
loop_
_atom_site_type_symbol
_atom_site_label
_atom_site_fract_x
_atom_site_fract_y
_atom_site_fract_z
Si Si1 0.891540 0.691136 0.145970
Si Si2 0.743929 0.602121 0.266733
Si Si3 0.694316 0.714337 0.821402
Si Si4 0.018967 0.780125 0.623365
Si Si5 0.588199 0.897952 0.429204
Si Si6 0.540046 0.261649 0.755912
Si Si7 0.767064 0.105383 0.794038
Si Si8 0.173327 0.392127 0.244593
O O1 0.844762 0.611915 0.149833
O O2 0.788752 0.709041 0.485642
O O3 0.000000 0.675087 0.000000
O O4 0.921154 0.770800 0.962916
O O5 0.698339 0.500000 0.374667
O O6 0.645869 0.672216 0.525821
O O7 0.789258 0.619292 0.004218
O O8 0.697294 0.820794 0.862061
O O9 0.733074 0.648912 0.862419
O O10 0.570169 0.689411 0.056329
O O11 0.110282 0.851411 0.473937
O O12 0.071412 0.677362 0.502752
O O13 0.000000 0.802353 0.500000
O O14 0.500000 0.887271 0.500000
O O15 0.572597 0.820367 0.578926
O O16 0.571674 0.000000 0.525319
O O17 0.709294 0.892359 0.080394
O O18 0.500000 0.227214 0.000000
O O19 0.764315 0.000000 0.751081
O O20 0.151318 0.500000 0.320189
#
# Coordination Sequence:
#
# PCOD9152854 Si02
#       8
#     4   4   4   4   4   4   4   4
#     4  12  23  42  63  91 125 166 215 259 314 373
#     4  11  26  43  63  95 128 167 214 263 317 376
#     4  11  23  41  62  95 125 171 207 258 316 380
#     4  11  22  39  64  86 124 166 211 266 313 369
#     4  10  21  38  66  96 121 160 214 260 308 372
#     4  12  24  41  65  91 135 170 207 258 326 379
#     4  10  21  39  64  94 126 162 209 261 317 379
#     4  10  22  40  63  92 122 159 211 260 314 371
#
# _framework density 19.492453000000001
#
# number of rings (size 3 to 8) (size 9 to 14) (size 15 to 20)
#    0.000    1.125    6.250    1.500    0.000    2.750 
#    0.000    2.500    0.000    0.000    0.000    0.000 
#    0.000    0.000    0.000    0.000    0.000    0.000 
#
# Total GULP energy -178530.192954 kJ/mol
# GULP energy per Si atom -5579.068530 kJ/mol
# Density = 1.944809 g / cm^3
# Si number density = 19.492453 Si / 1000 Ang^3
#
#
#
# Elastic Constant Matrix: (Units=GPa)
#
#
# Indices 1 2 3 4 5 6 
#
# 1 84.1304 13.7358 20.1041 0.0000 7.0966 0.0000
# 2 13.7358 91.1497 37.9747 0.0000 11.5708 0.0000
# 3 20.1041 37.9747 78.0055 0.0000 8.5057 0.0000
# 4 0.0000 0.0000 0.0000 -3.6216 0.0000 -10.2754
# 5 7.0966 11.5708 8.5057 0.0000 31.3396 0.0000
# 6 0.0000 0.0000 0.0000 -10.2754 0.0000 6.7224
#
#
#
# Elastic Compliance Matrix: (Units=1/GPa)
#
#
# Indices 1 2 3 4 5 6 
#
# 1 0.012812 -0.000497 -0.002848 0.000000 -0.001945 0.000000
# 2 -0.000497 0.014134 -0.006385 0.000000 -0.003373 0.000000
# 3 -0.002848 -0.006385 0.016833 0.000000 -0.001566 0.000000
# 4 0.000000 0.000000 0.000000 -0.051739 0.000000 -0.079084
# 5 -0.001945 -0.003373 -0.001566 0.000000 0.034019 0.000000
# 6 0.000000 0.000000 0.000000 -0.079084 0.000000 0.027874
#
#
# Mechanical properties :
#
#
# Convention : Reuss Voigt Hill
#
# Bulk Modulus (GPa) = 41.12055 44.10166 42.61110
# Shear Modulus (GPa) = 61.35032 18.98614 40.16823
#
# Velocity S-wave (km/s) = 5.61625 3.12432 4.54443
# Velocity P-wave (km/s) = 7.94970 5.97405 7.03161
#
# Compressibility (1/GPa) = 0.02431874
#
# Stress axis : x y z
#
# Youngs Moduli (GPa) = 78.05134 70.75075 59.40851
#
# Poissons Ratio (x) = 0.03519 0.16918
# Poissons Ratio (y) = 0.03882 0.37931
# Poissons Ratio (z) = 0.22228 0.45173
#
# Static dielectric constant tensor:
#      x y z
#    x 1.718720 0.000000 -0.005000 
#    y 0.000000 1.659520 0.000000 
#    z -0.005000 0.000000 1.703410 
# 
# From -- ./inp_files/36333.got.cif
#   From: 2010.05.17/outbox.cif.g08.bks.cpg/sg10_19_cif.got.tgz:36333.got - 2010.06.03 11:33:40.
