data_PCOD9152841
_publ_section_title
;
Structure prediction by ZEFSAII (Michael W. Deem and Ramdas Pophale) SiO2 
 PCOD9152841
Probable space group: P 2/M
;
_chemical_formula_sum "Si O2"
_cell_formula_units_Z 24
_cell_length_a 19.407835
_cell_length_b 13.461992
_cell_length_c 10.883292
_cell_angle_alpha 90.000000
_cell_angle_beta 155.019893
_cell_angle_gamma 90.000000
_cell_volume 1200.802135
_symmetry_space_group_name_H-M "P 2/M"
_symmetry_group_IT_number 10
_symmetry_cell_setting 'monoclinic'
loop_
_space_group_symop_operation_xyz
x,y,z
-x,y,-z
-x,-y,-z
x,-y,z
loop_
_atom_site_type_symbol
_atom_site_label
_atom_site_fract_x
_atom_site_fract_y
_atom_site_fract_z
Si Si1 0.989663 0.106682 0.130146
Si Si2 0.916029 0.385575 0.202060
Si Si3 0.749568 0.306422 0.167490
Si Si4 0.660727 0.884397 0.175051
Si Si5 0.439277 0.387675 0.765223
Si Si6 0.153529 0.696384 0.158156
O O1 0.171755 0.123729 0.475322
O O2 0.931980 0.000000 0.086205
O O3 0.871414 0.199658 0.954099
O O4 0.000000 0.099552 0.000000
O O5 0.914659 0.500000 0.241152
O O6 0.817783 0.318194 0.140520
O O7 0.100832 0.343403 0.504809
O O8 0.846743 0.380768 0.953192
O O9 0.685516 0.198971 0.110010
O O10 0.599642 0.380565 0.942095
O O11 0.650707 0.000000 0.115727
O O12 0.500000 0.867800 0.000000
O O13 0.372490 0.500000 0.661176
O O14 0.308454 0.314265 0.495471
O O15 0.500000 0.361789 0.000000
O O16 0.000000 0.682287 0.000000
#
# Coordination Sequence:
#
# PCOD9152841 Si02
#       6
#     4   4   4   4   4   4
#     4   9  19  36  58  89 124 159 202 253 315 372
#     4  11  23  41  63  87 124 169 215 262 313 379
#     4  11  22  39  60  88 125 167 207 250 315 375
#     4  10  21  38  64  97 129 163 211 265 315 373
#     4  11  24  39  60  89 121 159 207 267 320 374
#     4  11  23  39  62  91 122 161 213 261 322 375
#
# _framework density 19.986639
#
# number of rings (size 3 to 8) (size 9 to 14) (size 15 to 20)
#    0.000    1.500    1.667    4.000    7.000    3.333 
#    0.000    4.167    0.000    0.500    0.000    2.333 
#    0.000    0.000    0.000    0.000    0.000    0.000 
#
# Total GULP energy -133878.902086 kJ/mol
# GULP energy per Si atom -5578.287587 kJ/mol
# Density = 1.994115 g / cm^3
# Si number density = 19.986639 Si / 1000 Ang^3
#
#
#
# Elastic Constant Matrix: (Units=GPa)
#
#
# Indices 1 2 3 4 5 6 
#
# 1 66.5816 43.8288 35.5473 0.0000 -2.2983 0.0000
# 2 43.8288 154.4126 36.3469 0.0000 2.9422 0.0000
# 3 35.5473 36.3469 108.3306 0.0000 1.7801 0.0000
# 4 0.0000 0.0000 0.0000 21.4667 0.0000 3.6761
# 5 -2.2983 2.9422 1.7801 0.0000 31.6233 0.0000
# 6 0.0000 0.0000 0.0000 3.6761 0.0000 25.8018
#
#
#
# Elastic Compliance Matrix: (Units=1/GPa)
#
#
# Indices 1 2 3 4 5 6 
#
# 1 0.021100 -0.004771 -0.005361 0.000000 0.002279 0.000000
# 2 -0.004771 0.008119 -0.001141 0.000000 -0.001038 0.000000
# 3 -0.005361 -0.001141 0.011388 0.000000 -0.000924 0.000000
# 4 0.000000 0.000000 0.000000 0.047749 0.000000 -0.006803
# 5 0.002279 -0.001038 -0.000924 0.000000 0.031936 0.000000
# 6 0.000000 0.000000 0.000000 -0.006803 0.000000 0.039726
#
#
# Mechanical properties :
#
#
# Convention : Reuss Voigt Hill
#
# Bulk Modulus (GPa) = 55.36603 62.30787 58.83695
# Shear Modulus (GPa) = 26.51330 30.01850 28.26590
#
# Velocity S-wave (km/s) = 3.64614 3.87968 3.76472
# Velocity P-wave (km/s) = 6.74444 7.16321 6.95698
#
# Compressibility (1/GPa) = 0.01806161
#
# Stress axis : x y z
#
# Youngs Moduli (GPa) = 47.39280 123.17142 87.81041
#
# Poissons Ratio (x) = 0.58762 0.47071
# Poissons Ratio (y) = 0.22610 0.10023
# Poissons Ratio (z) = 0.25405 0.14060
#
# Static dielectric constant tensor:
#      x y z
#    x 1.695270 0.000000 -0.004090 
#    y 0.000000 1.843070 0.000000 
#    z -0.004090 0.000000 1.710610 
# 
# From -- ./inp_files/56058.got.cif
#   From: 2010.05.17/outbox.cif.g08.bks.cpg/sg10_29_cif.got.tgz:56058.got - 2010.06.03 11:33:40.
