data_PCOD9152775
_publ_section_title
;
Structure prediction by ZEFSAII (Michael W. Deem and Ramdas Pophale) SiO2 
 PCOD9152775
Probable space group: P 2/M
;
_chemical_formula_sum "Si O2"
_cell_formula_units_Z 19
_cell_length_a 9.470835
_cell_length_b 23.770376
_cell_length_c 8.178068
_cell_angle_alpha 90.000000
_cell_angle_beta 32.428161
_cell_angle_gamma 90.000000
_cell_volume 987.269313
_symmetry_space_group_name_H-M "P 2/M"
_symmetry_group_IT_number 10
_symmetry_cell_setting 'monoclinic'
loop_
_space_group_symop_operation_xyz
x,y,z
-x,y,-z
-x,-y,-z
x,-y,z
loop_
_atom_site_type_symbol
_atom_site_label
_atom_site_fract_x
_atom_site_fract_y
_atom_site_fract_z
Si Si1 0.000000 0.000000 0.500000
Si Si2 0.629342 0.165299 0.551237
Si Si3 0.244209 0.500000 0.638372
Si Si4 0.257963 0.402436 0.359317
Si Si5 0.880337 0.115502 0.781668
Si Si6 0.741101 0.726368 0.641849
O O1 0.133396 0.050303 0.255938
O O2 0.500000 0.166938 0.500000
O O3 0.718907 0.226839 0.524014
O O4 0.890257 0.126820 0.310634
O O5 0.399122 0.140205 0.892765
O O6 0.500000 0.500000 0.500000
O O7 0.245803 0.446014 0.518389
O O8 0.000000 0.500000 0.000000
O O9 0.276403 0.337945 0.402711
O O10 0.000000 0.407649 0.500000
O O11 0.500000 0.413483 0.000000
O O12 0.000000 0.143852 0.500000
O O13 0.000000 0.730209 0.500000
O O14 0.500000 0.735631 0.000000
#
# Coordination Sequence:
#
# PCOD9152775 Si02
#       6
#     1   4   2   4   4   4
#     4   8  24  42  70  86 112 158 222 236 288 342
#     4  12  23  37  59  94 125 154 188 250 314 356
#     4  12  24  38  60  92 128 164 202 250 320 364
#     4  10  21  40  63  86 117 162 214 254 294 354
#     4  10  22  41  65  83 115 158 207 237 285 359
#     4  10  21  38  62  88 116 160 209 249 293 362
#
# _framework density 19.245000000000001
#
# number of rings (size 3 to 8) (size 9 to 14) (size 15 to 20)
#    0.632    0.842    0.000    6.316    0.000    2.526 
#    0.000    5.263    0.000    0.000    0.000    0.000 
#    0.000    0.000    0.000    0.000    0.000    0.000 
#
# Total GULP energy -105833.849709 kJ/mol
# GULP energy per Si atom -5570.202616 kJ/mol
# Density = 1.920120 g / cm^3
# Si number density = 19.245000 Si / 1000 Ang^3
#
#
#
# Elastic Constant Matrix: (Units=GPa)
#
#
# Indices 1 2 3 4 5 6 
#
# 1 88.3711 47.1537 26.4970 0.0000 -1.2273 0.0000
# 2 47.1537 151.1274 42.2579 0.0000 22.1851 0.0000
# 3 26.4970 42.2579 130.7705 0.0000 -12.8322 0.0000
# 4 0.0000 0.0000 0.0000 8.8651 0.0000 3.0509
# 5 -1.2273 22.1851 -12.8322 0.0000 30.7925 0.0000
# 6 0.0000 0.0000 0.0000 3.0509 0.0000 1.9345
#
#
#
# Elastic Compliance Matrix: (Units=1/GPa)
#
#
# Indices 1 2 3 4 5 6 
#
# 1 0.014146 -0.004637 -0.001027 0.000000 0.003477 0.000000
# 2 -0.004637 0.010292 -0.003266 0.000000 -0.008961 0.000000
# 3 -0.001027 -0.003266 0.009527 0.000000 0.006282 0.000000
# 4 0.000000 0.000000 0.000000 0.246693 0.000000 -0.389054
# 5 0.003477 -0.008961 0.006282 0.000000 0.041688 0.000000
# 6 0.000000 0.000000 0.000000 -0.389054 0.000000 1.130490
#
#
# Mechanical properties :
#
#
# Convention : Reuss Voigt Hill
#
# Bulk Modulus (GPa) = 62.08706 66.89845 64.49275
# Shear Modulus (GPa) = 3.38739 25.27580 14.33159
#
# Velocity S-wave (km/s) = 1.32814 3.62798 2.73186
# Velocity P-wave (km/s) = 5.88926 7.23785 6.59810
#
# Compressibility (1/GPa) = 0.01610642
#
# Stress axis : x y z
#
# Youngs Moduli (GPa) = 70.68942 97.15904 104.96768
#
# Poissons Ratio (x) = 0.45054 0.10777
# Poissons Ratio (y) = 0.32780 0.34279
# Poissons Ratio (z) = 0.07258 0.31729
#
# Static dielectric constant tensor:
#      x y z
#    x 1.678130 0.000000 -0.006550 
#    y 0.000000 1.676700 0.000000 
#    z -0.006550 0.000000 1.654190 
# 
# From -- ./inp_files/20606.got.cif
#   From: 2010.05.17/outbox.cif.g08.bks.cpg/sg10_11_cif.got.tgz:20606.got - 2010.06.03 11:33:40.
