data_PCOD9152576
_publ_section_title
;
Structure prediction by ZEFSAII (Michael W. Deem and Ramdas Pophale) SiO2 
 PCOD9152576
Probable space group: P 2/M
;
_chemical_formula_sum "Si O2"
_cell_formula_units_Z 16
_cell_length_a 5.266997
_cell_length_b 22.938222
_cell_length_c 4.995500
_cell_angle_alpha 90.000000
_cell_angle_beta 92.867548
_cell_angle_gamma 90.000000
_cell_volume 602.778349
_symmetry_space_group_name_H-M "P 2/M"
_symmetry_group_IT_number 10
_symmetry_cell_setting 'monoclinic'
loop_
_space_group_symop_operation_xyz
x,y,z
-x,y,-z
-x,-y,-z
x,-y,z
loop_
_atom_site_type_symbol
_atom_site_label
_atom_site_fract_x
_atom_site_fract_y
_atom_site_fract_z
Si Si1 0.318240 0.000000 0.735062
Si Si2 0.757901 0.500000 0.187606
Si Si3 0.236378 0.128190 0.822101
Si Si4 0.757843 0.251314 0.188382
Si Si5 0.242068 0.375625 0.812338
O O1 0.500000 0.000000 0.500000
O O2 0.188162 0.937037 0.714477
O O3 0.500000 0.000000 0.000000
O O4 0.500000 0.500000 0.000000
O O5 0.759913 0.437813 0.338514
O O6 0.000000 0.500000 0.000000
O O7 0.246081 0.188994 0.657821
O O8 0.500000 0.125072 0.000000
O O9 0.000000 0.137282 0.000000
O O10 0.759086 0.313464 0.339322
O O11 0.500000 0.250361 0.000000
O O12 0.000000 0.253309 0.000000
O O13 0.500000 0.375343 0.000000
O O14 0.000000 0.376011 0.000000
#
# Coordination Sequence:
#
# PCOD9152576 Si02
#       5
#     2   2   4   4   4
#     4  10  21  38  58  82 110 142 178 220 266 318
#     4   8  12  16  22  34  58  90 129 172 218 268
#     4   9  17  31  49  71  97 128 165 208 254 305
#     4   8  13  21  35  53  76 106 145 188 234 284
#     4   8  12  17  25  40  62  94 133 176 222 272
#
# _framework density 26.543755999999998
#
# number of rings (size 3 to 8) (size 9 to 14) (size 15 to 20)
#    0.000    3.500    0.000    0.375    0.000    0.000 
#    0.000   10.000    0.000    0.000    0.000    0.000 
#    0.000    0.000    0.000    1.125    0.000    6.750 
#
# Total GULP energy -89209.517638 kJ/mol
# GULP energy per Si atom -5575.594852 kJ/mol
# Density = 2.648334 g / cm^3
# Si number density = 26.543756 Si / 1000 Ang^3
#
#
#
# Elastic Constant Matrix: (Units=GPa)
#
#
# Indices 1 2 3 4 5 6 
#
# 1 224.3495 -20.6441 42.7890 0.0000 17.1746 0.0000
# 2 -20.6441 429.3027 6.9130 0.0000 -0.0914 0.0000
# 3 42.7890 6.9130 52.9842 0.0000 14.3380 0.0000
# 4 0.0000 0.0000 0.0000 -80.3225 0.0000 -30.2773
# 5 17.1746 -0.0914 14.3380 0.0000 65.0263 0.0000
# 6 0.0000 0.0000 0.0000 -30.2773 0.0000 16.7836
#
#
#
# Elastic Compliance Matrix: (Units=1/GPa)
#
#
# Indices 1 2 3 4 5 6 
#
# 1 0.005328 0.000324 -0.004216 0.000000 -0.000477 0.000000
# 2 0.000324 0.002354 -0.000581 0.000000 0.000046 0.000000
# 3 -0.004216 -0.000581 0.023452 0.000000 -0.004058 0.000000
# 4 0.000000 0.000000 0.000000 -0.007411 0.000000 -0.013369
# 5 -0.000477 0.000046 -0.004058 0.000000 0.016399 0.000000
# 6 0.000000 0.000000 0.000000 -0.013369 0.000000 0.035465
#
#
# Mechanical properties :
#
#
# Convention : Reuss Voigt Hill
#
# Bulk Modulus (GPa) = 45.06886 84.97247 65.02066
# Shear Modulus (GPa) = 54.38896 45.46935 49.92915
#
# Velocity S-wave (km/s) = 4.53153 4.14333 4.34177
# Velocity P-wave (km/s) = 6.66301 7.41426 7.04865
#
# Compressibility (1/GPa) = 0.02218827
#
# Stress axis : x y z
#
# Youngs Moduli (GPa) = 187.69784 424.75333 42.63995
#
# Poissons Ratio (x) = -0.13761 0.17976
# Poissons Ratio (y) = -0.06081 0.02478
# Poissons Ratio (z) = 0.79128 0.24688
#
# Static dielectric constant tensor:
#      x y z
#    x 2.090950 0.000000 -0.055310 
#    y 0.000000 1.992560 0.000000 
#    z -0.055310 0.000000 1.969050 
# 
# From -- ./inp_files/1610.got.cif
#   From: 2010.05.17/outbox.cif.g08.bks.cpg/sg10_1_cif.got.tgz:1610.got - 2010.06.03 11:33:40.
