data_PCOD9152424
_publ_section_title
;
Structure prediction by ZEFSAII (Michael W. Deem and Ramdas Pophale) SiO2 
 PCOD9152424
Probable space group: P 2/M
;
_chemical_formula_sum "Si O2"
_cell_formula_units_Z 16
_cell_length_a 19.899868
_cell_length_b 8.139864
_cell_length_c 5.074562
_cell_angle_alpha 90.000000
_cell_angle_beta 98.967729
_cell_angle_gamma 90.000000
_cell_volume 811.941064
_symmetry_space_group_name_H-M "P 2/M"
_symmetry_group_IT_number 10
_symmetry_cell_setting 'monoclinic'
loop_
_space_group_symop_operation_xyz
x,y,z
-x,y,-z
-x,-y,-z
x,-y,z
loop_
_atom_site_type_symbol
_atom_site_label
_atom_site_fract_x
_atom_site_fract_y
_atom_site_fract_z
Si Si1 0.861955 0.181626 0.567829
Si Si2 0.930778 0.689417 0.088892
Si Si3 0.450716 0.313375 0.219139
Si Si4 0.354110 0.000000 0.223345
Si Si5 0.264844 0.000000 0.669886
O O1 0.875107 0.297674 0.822356
O O2 0.882142 0.000000 0.678630
O O3 0.784445 0.154625 0.424731
O O4 0.905950 0.225426 0.339219
O O5 0.943371 0.500000 0.165844
O O6 0.000000 0.755753 0.000000
O O7 0.500000 0.302198 0.500000
O O8 0.421161 0.500000 0.194371
O O9 0.397440 0.164851 0.197711
O O10 0.500000 0.294580 0.000000
O O11 0.326956 0.000000 0.505053
O O12 0.290843 0.000000 0.982679
#
# Coordination Sequence:
#
# PCOD9152424 Si02
#       5
#     4   4   4   2   2
#     4  10  22  40  58  80 117 154 191 244 297 338
#     4  11  22  37  59  88 116 146 192 248 308 368
#     4  10  21  37  59  91 123 150 190 240 295 351
#     4  12  20  39  64  84 119 158 199 242 287 338
#     4  10  24  39  57  82 114 152 199 242 267 356
#
# _framework density 19.705862
#
# number of rings (size 3 to 8) (size 9 to 14) (size 15 to 20)
#    0.750    0.750    0.000    6.000    0.000    5.000 
#    0.000    7.500    0.000    0.000    0.000    0.000 
#    0.000    0.000    0.000    0.000    0.000    0.000 
#
# Total GULP energy -89267.778593 kJ/mol
# GULP energy per Si atom -5579.236162 kJ/mol
# Density = 1.966101 g / cm^3
# Si number density = 19.705862 Si / 1000 Ang^3
#
#
#
# Elastic Constant Matrix: (Units=GPa)
#
#
# Indices 1 2 3 4 5 6 
#
# 1 42.4504 28.3945 -13.8025 0.0000 -4.1297 0.0000
# 2 28.3945 78.3410 -13.1057 0.0000 -2.0895 0.0000
# 3 -13.8025 -13.1057 64.6962 0.0000 -5.0234 0.0000
# 4 0.0000 0.0000 0.0000 31.2883 0.0000 19.2915
# 5 -4.1297 -2.0895 -5.0234 0.0000 36.6836 0.0000
# 6 0.0000 0.0000 0.0000 19.2915 0.0000 4.8983
#
#
#
# Elastic Compliance Matrix: (Units=1/GPa)
#
#
# Indices 1 2 3 4 5 6 
#
# 1 0.032926 -0.010981 0.005093 0.000000 0.003779 0.000000
# 2 -0.010981 0.016921 0.001075 0.000000 -0.000125 0.000000
# 3 0.005093 0.001075 0.016991 0.000000 0.002961 0.000000
# 4 0.000000 0.000000 0.000000 -0.022377 0.000000 0.088129
# 5 0.003779 -0.000125 0.002961 0.000000 0.028084 0.000000
# 6 0.000000 0.000000 0.000000 0.088129 0.000000 -0.142933
#
#
# Mechanical properties :
#
#
# Convention : Reuss Voigt Hill
#
# Bulk Modulus (GPa) = 17.47828 20.94002 19.20915
# Shear Modulus (GPa) = -119.92557 26.84078 -46.54240
#
# Velocity S-wave (km/s) = -7.80961 3.69463 -4.86516
# Velocity P-wave (km/s) = 8.51064 5.37119 4.66805
#
# Compressibility (1/GPa) = 0.05721386
#
# Stress axis : x y z
#
# Youngs Moduli (GPa) = 30.37151 59.09720 58.85372
#
# Poissons Ratio (x) = 0.64894 -0.29977
# Poissons Ratio (y) = 0.33351 -0.06329
# Poissons Ratio (z) = -0.15469 -0.06355
#
# Static dielectric constant tensor:
#      x y z
#    x 1.690660 0.000000 0.025040 
#    y 0.000000 1.708330 0.000000 
#    z 0.025040 0.000000 1.647630 
# 
# From -- ./inp_files/10407.got.cif
#   From: 2010.05.17/outbox.cif.g08.bks.cpg/sg10_6_cif.got.tgz:10407.got - 2010.06.03 11:33:40.
