data_PCOD9152793
_publ_section_title
;
Structure prediction by ZEFSAII (Michael W. Deem and Ramdas Pophale) SiO2 
 PCOD9152793
Probable space group: P 2/M
;
_chemical_formula_sum "Si O2"
_cell_formula_units_Z 19
_cell_length_a 11.528199
_cell_length_b 11.922592
_cell_length_c 7.822152
_cell_angle_alpha 90.000000
_cell_angle_beta 118.908702
_cell_angle_gamma 90.000000
_cell_volume 941.153655
_symmetry_space_group_name_H-M "P 2/M"
_symmetry_group_IT_number 10
_symmetry_cell_setting 'monoclinic'
loop_
_space_group_symop_operation_xyz
x,y,z
-x,y,-z
-x,-y,-z
x,-y,z
loop_
_atom_site_type_symbol
_atom_site_label
_atom_site_fract_x
_atom_site_fract_y
_atom_site_fract_z
Si Si1 0.062223 0.811484 0.217511
Si Si2 0.825935 0.701905 0.237574
Si Si3 0.500000 0.769668 0.500000
Si Si4 0.000000 0.500000 0.500000
Si Si5 0.306582 0.124102 0.617577
Si Si6 0.751504 0.368744 0.806604
O O1 0.182176 0.873403 0.396341
O O2 0.127239 0.693357 0.202313
O O3 0.944480 0.784986 0.263348
O O4 0.000000 0.862600 0.000000
O O5 0.724034 0.776457 0.271984
O O6 0.888282 0.599223 0.385701
O O7 0.768629 0.653493 0.020049
O O8 0.562732 0.845673 0.396264
O O9 0.381598 0.691290 0.349661
O O10 0.314948 0.000000 0.700632
O O11 0.753402 0.500000 0.770628
#
# Coordination Sequence:
#
# PCOD9152793 Si02
#       6
#     4   4   2   1   4   4
#     4   9  20  35  58  91 123 150 196 235 303 360
#     4  11  22  36  61  96 121 160 189 238 307 362
#     4  10  24  44  60  84 112 159 217 252 302 334
#     4  12  20  36  60  94 140 144 188 240 300 380
#     4  11  23  42  62  83 119 161 208 253 293 351
#     4  10  21  38  62  90 125 158 199 242 294 361
#
# _framework density 20.187989000000002
#
# number of rings (size 3 to 8) (size 9 to 14) (size 15 to 20)
#    0.000    1.684    3.158    0.632    1.474    4.211 
#    1.895   11.579    0.000    0.000    0.000    0.000 
#    0.000    0.000    0.000    0.000    0.000    0.000 
#
# Total GULP energy -105876.533119 kJ/mol
# GULP energy per Si atom -5572.449112 kJ/mol
# Density = 2.014204 g / cm^3
# Si number density = 20.187989 Si / 1000 Ang^3
#
#
#
# Elastic Constant Matrix: (Units=GPa)
#
#
# Indices 1 2 3 4 5 6 
#
# 1 98.6999 13.6757 -15.5656 0.0000 -9.7948 0.0000
# 2 13.6757 110.5281 -9.6873 0.0000 -10.9929 0.0000
# 3 -15.5656 -9.6873 27.0683 0.0000 1.6309 0.0000
# 4 0.0000 0.0000 0.0000 2.6765 0.0000 -1.3341
# 5 -9.7948 -10.9929 1.6309 0.0000 31.7235 0.0000
# 6 0.0000 0.0000 0.0000 -1.3341 0.0000 1.4048
#
#
#
# Elastic Compliance Matrix: (Units=1/GPa)
#
#
# Indices 1 2 3 4 5 6 
#
# 1 0.011493 -0.000576 0.006221 0.000000 0.003029 0.000000
# 2 -0.000576 0.009678 0.002950 0.000000 0.003024 0.000000
# 3 0.006221 0.002950 0.041528 0.000000 0.000808 0.000000
# 4 0.000000 0.000000 0.000000 0.709476 0.000000 0.673769
# 5 0.003029 0.003024 0.000808 0.000000 0.033464 0.000000
# 6 0.000000 0.000000 0.000000 0.673769 0.000000 1.351682
#
#
# Mechanical properties :
#
#
# Convention : Reuss Voigt Hill
#
# Bulk Modulus (GPa) = 12.51720 23.68245 18.09982
# Shear Modulus (GPa) = 2.30759 23.68586 12.99673
#
# Velocity S-wave (km/s) = 1.07030 3.42901 2.54004
# Velocity P-wave (km/s) = 2.78229 5.23774 4.19375
#
# Compressibility (1/GPa) = 0.07989006
#
# Stress axis : x y z
#
# Youngs Moduli (GPa) = 87.00859 103.32640 24.08018
#
# Poissons Ratio (x) = 0.05947 -0.14979
# Poissons Ratio (y) = 0.05008 -0.07105
# Poissons Ratio (z) = -0.54125 -0.30486
#
# Static dielectric constant tensor:
#      x y z
#    x 1.698740 0.000000 -0.012450 
#    y 0.000000 1.682100 0.000000 
#    z -0.012450 0.000000 1.756190 
# 
# From -- ./inp_files/23677.got.cif
#   From: 2010.05.17/outbox.cif.g08.bks.cpg/sg10_12_cif.got.tgz:23677.got - 2010.06.03 11:33:40.
