data_PCOD9152267
_publ_section_title
;
Structure prediction by ZEFSAII (Michael W. Deem and Ramdas Pophale) SiO2 
 PCOD9152267
Probable space group: P 2/M
;
_chemical_formula_sum "Si O2"
_cell_formula_units_Z 32
_cell_length_a 27.626630
_cell_length_b 7.924786
_cell_length_c 21.583376
_cell_angle_alpha 90.000000
_cell_angle_beta 160.320972
_cell_angle_gamma 90.000000
_cell_volume 1591.267698
_symmetry_space_group_name_H-M "P 2/M"
_symmetry_group_IT_number 10
_symmetry_cell_setting 'monoclinic'
loop_
_space_group_symop_operation_xyz
x,y,z
-x,y,-z
-x,-y,-z
x,-y,z
loop_
_atom_site_type_symbol
_atom_site_label
_atom_site_fract_x
_atom_site_fract_y
_atom_site_fract_z
Si Si1 0.454649 0.294947 0.014270
Si Si2 0.044758 0.293670 0.955717
Si Si3 0.987392 0.302546 0.222226
Si Si4 0.309799 0.200060 0.600505
Si Si5 0.219800 0.803057 0.920836
Si Si6 0.465076 0.797470 0.663480
Si Si7 0.774305 0.297530 0.712383
Si Si8 0.845894 0.697828 0.295367
O O1 0.455062 0.500000 0.017309
O O2 0.569891 0.232563 0.203017
O O3 0.500000 0.243784 0.000000
O O4 0.295742 0.232475 0.841419
O O5 0.041988 0.500000 0.950714
O O6 0.172871 0.240626 0.156197
O O7 0.052326 0.235679 0.894229
O O8 0.896573 0.239155 0.810680
O O9 0.950155 0.500000 0.180150
O O10 0.901656 0.214951 0.173767
O O11 0.158541 0.283127 0.434653
O O12 0.371816 0.265208 0.609723
O O13 0.285012 0.000000 0.565111
O O14 0.178297 0.713031 0.807165
O O15 0.238434 0.000000 0.927421
O O16 0.371641 0.738001 0.131024
O O17 0.380907 0.751510 0.499795
O O18 0.467974 0.000000 0.670330
O O19 0.781636 0.500000 0.721773
O O20 0.850475 0.500000 0.318081
O O21 0.000000 0.773030 0.500000
#
# Coordination Sequence:
#
# PCOD9152267 Si02
#       8
#     4   4   4   4   4   4   4   4
#     4  10  22  39  60  88 119 150 189 238 287 336
#     4   8  16  31  53  84 116 144 183 241 292 338
#     4  11  22  38  60  87 116 151 194 242 293 343
#     4  11  22  38  59  86 118 153 193 239 288 341
#     4  11  24  42  59  82 118 158 195 236 285 344
#     4  10  21  37  56  82 117 152 192 235 281 337
#     4   9  16  31  57  84 111 146 190 237 289 339
#     4  10  22  40  61  86 116 152 193 235 283 340
#
# _framework density 20.109753000000001
#
# number of rings (size 3 to 8) (size 9 to 14) (size 15 to 20)
#    0.000    2.000    2.500    1.875    1.750    2.000 
#    0.000    3.125    0.000    3.750    0.000    0.000 
#    0.000    0.000    0.000    0.000    0.000    0.000 
#
# Total GULP energy -178677.270324 kJ/mol
# GULP energy per Si atom -5583.664698 kJ/mol
# Density = 2.006398 g / cm^3
# Si number density = 20.109753 Si / 1000 Ang^3
#
#
#
# Elastic Constant Matrix: (Units=GPa)
#
#
# Indices 1 2 3 4 5 6 
#
# 1 96.9665 -6.7121 56.0626 0.0000 5.6027 0.0000
# 2 -6.7121 18.2169 -8.4148 0.0000 1.2542 0.0000
# 3 56.0626 -8.4148 159.5944 0.0000 -5.2714 0.0000
# 4 0.0000 0.0000 0.0000 31.0205 0.0000 -10.1037
# 5 5.6027 1.2542 -5.2714 0.0000 30.0528 0.0000
# 6 0.0000 0.0000 0.0000 -10.1037 0.0000 11.2463
#
#
#
# Elastic Compliance Matrix: (Units=1/GPa)
#
#
# Indices 1 2 3 4 5 6 
#
# 1 0.013421 0.003026 -0.004669 0.000000 -0.003447 0.000000
# 2 0.003026 0.057048 0.001859 0.000000 -0.002619 0.000000
# 3 -0.004669 0.001859 0.008077 0.000000 0.002210 0.000000
# 4 0.000000 0.000000 0.000000 0.045572 0.000000 0.040942
# 5 -0.003447 -0.002619 0.002210 0.000000 0.034414 0.000000
# 6 0.000000 0.000000 0.000000 0.040942 0.000000 0.125701
#
#
# Mechanical properties :
#
#
# Convention : Reuss Voigt Hill
#
# Bulk Modulus (GPa) = 12.66200 39.62767 26.14483
# Shear Modulus (GPa) = 16.12239 30.05338 23.08788
#
# Velocity S-wave (km/s) = 2.83454 3.87003 3.39203
# Velocity P-wave (km/s) = 4.12588 6.30222 5.32639
#
# Compressibility (1/GPa) = 0.07897646
#
# Stress axis : x y z
#
# Youngs Moduli (GPa) = 74.51124 17.52914 123.80942
#
# Poissons Ratio (x) = -0.05304 0.57804
# Poissons Ratio (y) = -0.22545 -0.23011
# Poissons Ratio (z) = 0.34788 -0.03258
#
# Static dielectric constant tensor:
#      x y z
#    x 1.686400 0.000000 -0.003030 
#    y 0.000000 1.721210 0.000000 
#    z -0.003030 0.000000 1.710400 
# 
# From -- ./inp_files/86977.got.cif
#   From: 2010.05.17/outbox.cif.g08.bks.cpg/sg10_44_cif.got.tgz:86977.got - 2010.06.03 11:33:40.
