data_PCOD9152255
_publ_section_title
;
Structure prediction by ZEFSAII (Michael W. Deem and Ramdas Pophale) SiO2 
 PCOD9152255
Probable space group: P 2/M
;
_chemical_formula_sum "Si O2"
_cell_formula_units_Z 24
_cell_length_a 20.862791
_cell_length_b 8.168130
_cell_length_c 7.483092
_cell_angle_alpha 90.000000
_cell_angle_beta 122.642086
_cell_angle_gamma 90.000000
_cell_volume 1073.784981
_symmetry_space_group_name_H-M "P 2/M"
_symmetry_group_IT_number 10
_symmetry_cell_setting 'monoclinic'
loop_
_space_group_symop_operation_xyz
x,y,z
-x,y,-z
-x,-y,-z
x,-y,z
loop_
_atom_site_type_symbol
_atom_site_label
_atom_site_fract_x
_atom_site_fract_y
_atom_site_fract_z
Si Si1 0.672090 0.322379 0.799088
Si Si2 0.589226 0.000000 0.098691
Si Si3 0.328620 0.677301 0.781274
Si Si4 0.165699 0.189994 0.463041
Si Si5 0.000404 0.800110 0.209071
Si Si6 0.589332 0.000000 0.670005
Si Si7 0.164783 0.810003 0.028600
O O1 0.652534 0.500000 0.692276
O O2 0.762267 0.291232 0.918777
O O3 0.629093 0.164471 0.658198
O O4 0.653399 0.327930 0.981156
O O5 0.628633 0.164455 0.230178
O O6 0.500000 0.000000 0.000000
O O7 0.601320 0.000000 0.902497
O O8 0.348863 0.500000 0.734707
O O9 0.238498 0.707829 0.628333
O O10 0.082930 0.249009 0.405819
O O11 0.162545 0.190295 0.241830
O O12 0.176664 0.000000 0.535348
O O13 0.000310 0.000000 0.213395
O O14 0.000000 0.750868 0.000000
O O15 0.918342 0.750528 0.160871
O O16 0.500000 0.000000 0.500000
O O17 0.175187 0.000000 0.988005
#
# Coordination Sequence:
#
# PCOD9152255 Si02
#       7
#     4   2   4   4   4   2   4
#     4  10  21  37  56  79 109 143 175 211 260 315
#     4  10  22  40  60  81 106 135 169 212 263 318
#     4  10  21  37  56  79 109 143 175 211 260 315
#     4   9  16  29  52  79 107 141 182 224 264 307
#     4   7  12  24  44  73 106 139 177 222 265 302
#     4  10  22  40  60  81 106 135 169 212 263 318
#     4   9  16  29  52  79 107 141 182 224 264 307
#
# _framework density 22.350842
#
# number of rings (size 3 to 8) (size 9 to 14) (size 15 to 20)
#    0.000    2.833    1.667    2.000    0.000    2.667 
#    0.000    1.667    0.000    8.000    0.000    0.000 
#    0.000    0.000    0.000    0.000    0.000    0.000 
#
# Total GULP energy -133926.538089 kJ/mol
# GULP energy per Si atom -5580.272420 kJ/mol
# Density = 2.229997 g / cm^3
# Si number density = 22.350842 Si / 1000 Ang^3
#
#
#
# Elastic Constant Matrix: (Units=GPa)
#
#
# Indices 1 2 3 4 5 6 
#
# 1 60.6397 59.8260 44.3656 0.0000 28.3856 0.0000
# 2 59.8260 170.8694 43.4766 0.0000 37.4252 0.0000
# 3 44.3656 43.4766 37.8656 0.0000 10.0283 0.0000
# 4 0.0000 0.0000 0.0000 -6.6653 0.0000 -1.5643
# 5 28.3856 37.4252 10.0283 0.0000 55.7743 0.0000
# 6 0.0000 0.0000 0.0000 -1.5643 0.0000 -7.8026
#
#
#
# Elastic Compliance Matrix: (Units=1/GPa)
#
#
# Indices 1 2 3 4 5 6 
#
# 1 0.290463 -0.002069 -0.314123 0.000000 -0.089959 0.000000
# 2 -0.002069 0.009247 -0.007171 0.000000 -0.003863 0.000000
# 3 -0.314123 -0.007171 0.377027 0.000000 0.096891 0.000000
# 4 0.000000 0.000000 0.000000 -0.157437 0.000000 0.031564
# 5 -0.089959 -0.003863 0.096891 0.000000 0.048884 0.000000
# 6 0.000000 0.000000 0.000000 0.031564 0.000000 -0.134491
#
#
# Mechanical properties :
#
#
# Convention : Reuss Voigt Hill
#
# Bulk Modulus (GPa) = 33.31999 62.74569 48.03284
# Shear Modulus (GPa) = 4.58538 16.37504 10.48021
#
# Velocity S-wave (km/s) = 1.43388 2.70966 2.16775
# Velocity P-wave (km/s) = 4.20493 6.15822 5.27281
#
# Compressibility (1/GPa) = 0.03001202
#
# Stress axis : x y z
#
# Youngs Moduli (GPa) = 3.44279 108.13864 2.65233
#
# Poissons Ratio (x) = 0.22370 0.83316
# Poissons Ratio (y) = 0.00712 0.01902
# Poissons Ratio (z) = 1.08146 0.77545
#
# Static dielectric constant tensor:
#      x y z
#    x 1.822140 0.000000 -0.028100 
#    y 0.000000 1.844260 0.000000 
#    z -0.028100 0.000000 1.832690 
# 
# From -- ./inp_files/34024.got.cif
#   From: 2010.05.17/outbox.cif.g08.bks.cpg/sg10_18_cif.got.tgz:34024.got - 2010.06.03 11:33:40.
