data_PCOD9152195
_publ_section_title
;
Structure prediction by ZEFSAII (Michael W. Deem and Ramdas Pophale) SiO2 
 PCOD9152195
Probable space group: P 2/M
;
_chemical_formula_sum "Si O2"
_cell_formula_units_Z 19
_cell_length_a 5.308011
_cell_length_b 22.577261
_cell_length_c 8.145721
_cell_angle_alpha 90.000000
_cell_angle_beta 60.387639
_cell_angle_gamma 90.000000
_cell_volume 848.684779
_symmetry_space_group_name_H-M "P 2/M"
_symmetry_group_IT_number 10
_symmetry_cell_setting 'monoclinic'
loop_
_space_group_symop_operation_xyz
x,y,z
-x,y,-z
-x,-y,-z
x,-y,z
loop_
_atom_site_type_symbol
_atom_site_label
_atom_site_fract_x
_atom_site_fract_y
_atom_site_fract_z
Si Si1 0.000000 0.500000 0.000000
Si Si2 0.691879 0.611783 0.269701
Si Si3 0.340623 0.186891 0.222511
Si Si4 0.153479 0.872159 0.775682
Si Si5 0.843713 0.000000 0.373300
Si Si6 0.191191 0.322751 0.274959
O O1 0.842651 0.551915 0.163391
O O2 0.500000 0.605779 0.500000
O O3 0.459672 0.632759 0.208661
O O4 0.952828 0.659259 0.215942
O O5 0.520293 0.150396 0.299861
O O6 0.330379 0.257598 0.233751
O O7 0.011843 0.166740 0.305090
O O8 0.500000 0.171777 0.000000
O O9 0.095940 0.939767 0.743915
O O10 0.000000 0.862160 0.000000
O O11 0.500000 0.000000 0.500000
O O12 0.000000 0.000000 0.500000
O O13 0.000000 0.326879 0.500000
#
# Coordination Sequence:
#
# PCOD9152195 Si02
#       6
#     1   4   4   4   2   4
#     4  12  26  42  72  92 124 178 210 260 320 360
#     4  10  24  42  62  94 128 164 215 259 318 382
#     4  10  21  36  63  91 121 156 215 255 308 382
#     4  10  22  41  60  89 123 168 204 261 318 376
#     4  12  25  40  61  90 124 162 214 264 309 378
#     4  10  22  41  62  90 130 165 198 262 321 368
#
# _framework density 22.387584
#
# number of rings (size 3 to 8) (size 9 to 14) (size 15 to 20)
#    0.000    1.684    0.000    3.158    2.947    4.211 
#    0.000    7.368    0.000    0.000    0.000    0.000 
#    0.000    0.000    0.000    0.000    0.000    0.000 
#
# Total GULP energy -105849.799394 kJ/mol
# GULP energy per Si atom -5571.042073 kJ/mol
# Density = 2.233663 g / cm^3
# Si number density = 22.387584 Si / 1000 Ang^3
#
#
#
# Elastic Constant Matrix: (Units=GPa)
#
#
# Indices 1 2 3 4 5 6 
#
# 1 172.9890 44.9804 43.2656 0.0000 10.8601 0.0000
# 2 44.9804 115.6582 -4.3368 0.0000 14.7555 0.0000
# 3 43.2656 -4.3368 74.4827 0.0000 3.4000 0.0000
# 4 0.0000 0.0000 0.0000 31.4840 0.0000 -5.3598
# 5 10.8601 14.7555 3.4000 0.0000 20.5166 0.0000
# 6 0.0000 0.0000 0.0000 -5.3598 0.0000 -38.9231
#
#
#
# Elastic Compliance Matrix: (Units=1/GPa)
#
#
# Indices 1 2 3 4 5 6 
#
# 1 0.007818 -0.003068 -0.004667 0.000000 -0.001159 0.000000
# 2 -0.003068 0.010780 0.002710 0.000000 -0.006578 0.000000
# 3 -0.004667 0.002710 0.016395 0.000000 -0.002195 0.000000
# 4 0.000000 0.000000 0.000000 0.031035 0.000000 -0.004274
# 5 -0.001159 -0.006578 -0.002195 0.000000 0.054449 0.000000
# 6 0.000000 0.000000 0.000000 -0.004274 0.000000 -0.025103
#
#
# Mechanical properties :
#
#
# Convention : Reuss Voigt Hill
#
# Bulk Modulus (GPa) = 40.09078 58.99424 49.54251
# Shear Modulus (GPa) = 43.96018 21.23020 32.59519
#
# Velocity S-wave (km/s) = 4.43606 3.08279 3.81983
# Velocity P-wave (km/s) = 6.64715 6.25140 6.45231
#
# Compressibility (1/GPa) = 0.02494339
#
# Stress axis : x y z
#
# Youngs Moduli (GPa) = 127.90194 92.76317 60.99375
#
# Poissons Ratio (x) = 0.28458 0.28468
# Poissons Ratio (y) = 0.39238 -0.16529
# Poissons Ratio (z) = 0.59696 -0.25139
#
# Static dielectric constant tensor:
#      x y z
#    x 1.860900 0.000000 0.039190 
#    y 0.000000 1.572810 0.000000 
#    z 0.039190 0.000000 1.898840 
# 
# From -- ./inp_files/15140.got.cif
#   From: 2010.05.17/outbox.cif.g08.bks.cpg/sg10_8_cif.got.tgz:15140.got - 2010.06.03 11:33:40.
