data_PCOD9152628
_publ_section_title
;
Structure prediction by ZEFSAII (Michael W. Deem and Ramdas Pophale) SiO2 
 PCOD9152628
Probable space group: P 2/M
;
_chemical_formula_sum "Si O2"
_cell_formula_units_Z 25
_cell_length_a 14.032354
_cell_length_b 7.503457
_cell_length_c 13.630625
_cell_angle_alpha 90.000000
_cell_angle_beta 129.453422
_cell_angle_gamma 90.000000
_cell_volume 1108.165310
_symmetry_space_group_name_H-M "P 2/M"
_symmetry_group_IT_number 10
_symmetry_cell_setting 'monoclinic'
loop_
_space_group_symop_operation_xyz
x,y,z
-x,y,-z
-x,-y,-z
x,-y,z
loop_
_atom_site_type_symbol
_atom_site_label
_atom_site_fract_x
_atom_site_fract_y
_atom_site_fract_z
Si Si1 0.671762 0.297022 0.064347
Si Si2 0.511316 0.714268 0.216642
Si Si3 0.418527 0.706865 0.362259
Si Si4 0.000000 0.500000 0.500000
Si Si5 0.115151 0.215321 0.942951
Si Si6 0.147363 0.785663 0.192839
Si Si7 0.782134 0.199384 0.342198
O O1 0.644562 0.500000 0.078237
O O2 0.781331 0.298506 0.056121
O O3 0.729507 0.203472 0.196218
O O4 0.555341 0.221177 0.927163
O O5 0.497981 0.500000 0.202205
O O6 0.439451 0.781224 0.266583
O O7 0.655490 0.758995 0.318504
O O8 0.500000 0.792355 0.500000
O O9 0.455693 0.500000 0.377148
O O10 0.278975 0.714434 0.307827
O O11 0.110182 0.343723 0.575466
O O12 0.974411 0.271437 0.828471
O O13 0.123650 0.000000 0.939983
O O14 0.133639 0.262043 0.069023
O O15 0.150162 0.000000 0.198785
O O16 0.825030 0.000000 0.394517
#
# Coordination Sequence:
#
# PCOD9152628 Si02
#       7
#     4   4   4   1   4   4   4
#     4  11  21  38  66 101 136 172 219 286 343 390
#     4  10  21  41  66  96 137 174 218 287 342 387
#     4  10  21  38  59  87 125 172 221 267 321 388
#     4  12  26  56  70  94 142 170 218 286 308 410
#     4   9  18  33  55  86 125 164 208 269 336 389
#     4   9  18  34  54  80 121 167 212 272 326 382
#     4  12  26  46  75 102 131 180 222 268 343 404
#
# _framework density 22.559812999999998
#
# number of rings (size 3 to 8) (size 9 to 14) (size 15 to 20)
#    0.000    1.760    3.200    2.160    0.000    4.800 
#    2.880    1.600    0.000    0.000    0.000    0.000 
#    0.000    0.000    0.000    0.000    0.000    0.000 
#
# Total GULP energy -139364.595368 kJ/mol
# GULP energy per Si atom -5574.583815 kJ/mol
# Density = 2.250847 g / cm^3
# Si number density = 22.559813 Si / 1000 Ang^3
#
#
#
# Elastic Constant Matrix: (Units=GPa)
#
#
# Indices 1 2 3 4 5 6 
#
# 1 79.5500 8.8711 30.2872 0.0000 36.1072 0.0000
# 2 8.8711 101.3081 17.3268 0.0000 10.6957 0.0000
# 3 30.2872 17.3268 91.0287 0.0000 38.5426 0.0000
# 4 0.0000 0.0000 0.0000 -1.0774 0.0000 5.3564
# 5 36.1072 10.6957 38.5426 0.0000 38.3967 0.0000
# 6 0.0000 0.0000 0.0000 5.3564 0.0000 23.2684
#
#
#
# Elastic Compliance Matrix: (Units=1/GPa)
#
#
# Indices 1 2 3 4 5 6 
#
# 1 0.022264 0.000100 0.002521 0.000000 -0.023495 0.000000
# 2 0.000100 0.010257 -0.001280 0.000000 -0.001666 0.000000
# 3 0.002521 -0.001280 0.019554 0.000000 -0.021643 0.000000
# 4 0.000000 0.000000 0.000000 -0.432819 0.000000 0.099635
# 5 -0.023495 -0.001666 -0.021643 0.000000 0.070327 0.000000
# 6 0.000000 0.000000 0.000000 0.099635 0.000000 0.020041
#
#
# Mechanical properties :
#
#
# Convention : Reuss Voigt Hill
#
# Bulk Modulus (GPa) = 18.26249 42.76188 30.51218
# Shear Modulus (GPa) = -18.19467 26.47765 4.14149
#
# Velocity S-wave (km/s) = -2.84299 3.42959 1.35638
# Velocity P-wave (km/s) = 1.63220 5.88888 4.00093
#
# Compressibility (1/GPa) = 0.05475706
#
# Stress axis : x y z
#
# Youngs Moduli (GPa) = 44.91581 97.49460 51.14004
#
# Poissons Ratio (x) = -0.00972 -0.12895
# Poissons Ratio (y) = -0.00448 0.06547
# Poissons Ratio (z) = -0.11325 0.12481
#
# Static dielectric constant tensor:
#      x y z
#    x 1.847070 0.000000 -0.002650 
#    y 0.000000 1.831610 0.000000 
#    z -0.002650 0.000000 1.853710 
# 
# From -- ./inp_files/66711.got.cif
#   From: 2010.05.17/outbox.cif.g08.bks.cpg/sg10_34_cif.got.tgz:66711.got - 2010.06.03 11:33:40.
