data_PCOD9152880
_publ_section_title
;
Structure prediction by ZEFSAII (Michael W. Deem and Ramdas Pophale) SiO2 
 PCOD9152880
Probable space group: P 2/M
;
_chemical_formula_sum "Si O2"
_cell_formula_units_Z 20
_cell_length_a 12.102141
_cell_length_b 7.533716
_cell_length_c 9.632813
_cell_angle_alpha 90.000000
_cell_angle_beta 106.528965
_cell_angle_gamma 90.000000
_cell_volume 841.969680
_symmetry_space_group_name_H-M "P 2/M"
_symmetry_group_IT_number 10
_symmetry_cell_setting 'monoclinic'
loop_
_space_group_symop_operation_xyz
x,y,z
-x,y,-z
-x,-y,-z
x,-y,z
loop_
_atom_site_type_symbol
_atom_site_label
_atom_site_fract_x
_atom_site_fract_y
_atom_site_fract_z
Si Si1 0.610991 0.793349 0.617601
Si Si2 0.942253 0.701836 0.116540
Si Si3 0.857765 0.791114 0.611305
Si Si4 0.778289 0.715030 0.284367
Si Si5 0.481701 0.714530 0.835858
O O1 0.500000 0.712615 0.500000
O O2 0.734804 0.718686 0.622177
O O3 0.579414 0.780664 0.767229
O O4 0.617027 0.000000 0.577788
O O5 0.909493 0.500000 0.064541
O O6 0.039526 0.699328 0.270380
O O7 0.832748 0.780306 0.158777
O O8 0.000000 0.784551 0.000000
O O9 0.852502 0.770848 0.443813
O O10 0.867914 0.000000 0.647974
O O11 0.779271 0.500000 0.279972
O O12 0.646121 0.772663 0.256751
O O13 0.484575 0.500000 0.832900
O O14 0.500000 0.770791 0.000000
#
# Coordination Sequence:
#
# PCOD9152880 Si02
#       5
#     4   4   4   4   4
#     4  10  21  39  59  84 119 154 191 233 285 346
#     4  10  23  41  62  86 116 153 191 238 294 346
#     4  11  23  39  61  87 116 153 196 240 283 339
#     4  10  21  39  60  86 117 152 194 237 289 346
#     4  10  22  37  59  90 120 150 191 241 287 340
#
# _framework density 23.753824000000002
#
# number of rings (size 3 to 8) (size 9 to 14) (size 15 to 20)
#    0.000    1.800    2.000    1.200    2.800    6.000 
#    0.000    0.000    0.000    0.000    0.000    0.000 
#    0.000    0.000    0.000    0.000    0.000    0.000 
#
# Total GULP energy -111821.732583 kJ/mol
# GULP energy per Si atom -5591.086629 kJ/mol
# Density = 2.369976 g / cm^3
# Si number density = 23.753824 Si / 1000 Ang^3
#
#
#
# Elastic Constant Matrix: (Units=GPa)
#
#
# Indices 1 2 3 4 5 6 
#
# 1 76.6204 -1.4320 5.9192 0.0000 -30.7658 0.0000
# 2 -1.4320 71.1763 -11.8212 0.0000 0.4205 0.0000
# 3 5.9192 -11.8212 102.1000 0.0000 -28.3245 0.0000
# 4 0.0000 0.0000 0.0000 14.7440 0.0000 -7.8186
# 5 -30.7658 0.4205 -28.3245 0.0000 51.7234 0.0000
# 6 0.0000 0.0000 0.0000 -7.8186 0.0000 1.7998
#
#
#
# Elastic Compliance Matrix: (Units=1/GPa)
#
#
# Indices 1 2 3 4 5 6 
#
# 1 0.017593 0.000668 0.002310 0.000000 0.011724 0.000000
# 2 0.000668 0.014389 0.002010 0.000000 0.001382 0.000000
# 3 0.002310 0.002010 0.012109 0.000000 0.007989 0.000000
# 4 0.000000 0.000000 0.000000 -0.052025 0.000000 -0.226008
# 5 0.011724 0.001382 0.007989 0.000000 0.030671 0.000000
# 6 0.000000 0.000000 0.000000 -0.226008 0.000000 -0.426198
#
#
# Mechanical properties :
#
#
# Convention : Reuss Voigt Hill
#
# Bulk Modulus (GPa) = 18.49496 26.13652 22.31574
# Shear Modulus (GPa) = -12.64493 30.80213 9.07860
#
# Velocity S-wave (km/s) = -2.30974 3.60491 1.95710
# Velocity P-wave (km/s) = 0.83056 5.32486 3.81077
#
# Compressibility (1/GPa) = 0.05406877
#
# Stress axis : x y z
#
# Youngs Moduli (GPa) = 56.84064 69.49841 82.57998
#
# Poissons Ratio (x) = -0.04645 -0.19075
# Poissons Ratio (y) = -0.03799 -0.16602
# Poissons Ratio (z) = -0.13130 -0.13972
#
# Static dielectric constant tensor:
#      x y z
#    x 1.907970 0.000000 -0.018990 
#    y 0.000000 1.901670 0.000000 
#    z -0.018990 0.000000 1.871710 
# 
# From -- ./inp_files/22095.got.cif
#   From: 2010.05.17/outbox.cif.g08.bks.cpg/sg10_12_cif.got.tgz:22095.got - 2010.06.03 11:33:40.
