data_PCOD9152678
_publ_section_title
;
Structure prediction by ZEFSAII (Michael W. Deem and Ramdas Pophale) SiO2 
 PCOD9152678
Probable space group: P 2/M
;
_chemical_formula_sum "Si O2"
_cell_formula_units_Z 28
_cell_length_a 9.235065
_cell_length_b 13.551779
_cell_length_c 15.083946
_cell_angle_alpha 90.000000
_cell_angle_beta 128.900678
_cell_angle_gamma 90.000000
_cell_volume 1469.137334
_symmetry_space_group_name_H-M "P 2/M"
_symmetry_group_IT_number 10
_symmetry_cell_setting 'monoclinic'
loop_
_space_group_symop_operation_xyz
x,y,z
-x,y,-z
-x,-y,-z
x,-y,z
loop_
_atom_site_type_symbol
_atom_site_label
_atom_site_fract_x
_atom_site_fract_y
_atom_site_fract_z
Si Si1 0.101393 0.114850 0.124329
Si Si2 0.692292 0.386890 0.019355
Si Si3 0.508118 0.384318 0.766523
Si Si4 0.506922 0.113182 0.339037
Si Si5 0.177684 0.228244 0.631820
Si Si6 0.377495 0.311290 0.376930
Si Si7 0.026820 0.751726 0.766060
O O1 0.032492 0.164339 0.187637
O O2 0.325006 0.121591 0.205896
O O3 0.052689 0.000000 0.110150
O O4 0.000000 0.159300 0.000000
O O5 0.761371 0.500000 0.040892
O O6 0.637144 0.353086 0.899020
O O7 0.500000 0.387136 0.000000
O O8 0.833901 0.319153 0.127285
O O9 0.468417 0.500000 0.763600
O O10 0.318308 0.321528 0.690126
O O11 0.609959 0.364772 0.712683
O O12 0.694933 0.141414 0.360245
O O13 0.465631 0.201802 0.391979
O O14 0.511615 0.000000 0.374498
O O15 0.111393 0.210371 0.706687
O O16 0.000000 0.244536 0.500000
O O17 0.500000 0.360070 0.500000
O O18 0.167058 0.303005 0.328153
#
# Coordination Sequence:
#
# PCOD9152678 Si02
#       7
#     4   4   4   4   4   4   4
#     4   9  20  37  58  86 119 152 190 234 287 354
#     4  10  21  38  60  88 118 148 193 241 289 354
#     4  10  22  41  61  82 117 157 191 239 295 344
#     4   9  20  39  60  82 117 157 192 235 288 338
#     4  11  23  39  58  87 119 151 197 242 283 347
#     4  10  22  40  59  87 120 153 198 241 281 345
#     4  11  22  34  63  88 115 156 189 241 300 334
#
# _framework density 19.058803999999999
#
# number of rings (size 3 to 8) (size 9 to 14) (size 15 to 20)
#    0.000    2.000    1.429    1.714    6.000    2.286 
#    0.000    5.714    0.000    3.000    0.000    0.000 
#    0.000    0.000    0.000    0.000    0.000    0.000 
#
# Total GULP energy -156200.545011 kJ/mol
# GULP energy per Si atom -5578.590893 kJ/mol
# Density = 1.901543 g / cm^3
# Si number density = 19.058804 Si / 1000 Ang^3
#
#
#
# Elastic Constant Matrix: (Units=GPa)
#
#
# Indices 1 2 3 4 5 6 
#
# 1 74.8713 3.2238 26.4241 0.0000 9.3560 0.0000
# 2 3.2238 48.7556 22.1699 0.0000 7.6193 0.0000
# 3 26.4241 22.1699 112.4005 0.0000 -2.9717 0.0000
# 4 0.0000 0.0000 0.0000 4.8509 0.0000 -4.7251
# 5 9.3560 7.6193 -2.9717 0.0000 29.8129 0.0000
# 6 0.0000 0.0000 0.0000 -4.7251 0.0000 5.7529
#
#
#
# Elastic Compliance Matrix: (Units=1/GPa)
#
#
# Indices 1 2 3 4 5 6 
#
# 1 0.015451 0.001747 -0.004128 0.000000 -0.005707 0.000000
# 2 0.001747 0.023940 -0.005323 0.000000 -0.007197 0.000000
# 3 -0.004128 -0.005323 0.011016 0.000000 0.003754 0.000000
# 4 0.000000 0.000000 0.000000 1.031023 0.000000 0.846824
# 5 -0.005707 -0.007197 0.003754 0.000000 0.037547 0.000000
# 6 0.000000 0.000000 0.000000 0.846824 0.000000 0.869357
#
#
# Mechanical properties :
#
#
# Convention : Reuss Voigt Hill
#
# Bulk Modulus (GPa) = 28.57129 37.74033 33.15581
# Shear Modulus (GPa) = 2.48089 20.36399 11.42244
#
# Velocity S-wave (km/s) = 1.14216 3.27231 2.45077
# Velocity P-wave (km/s) = 4.09427 5.84144 5.04408
#
# Compressibility (1/GPa) = 0.03500017
#
# Stress axis : x y z
#
# Youngs Moduli (GPa) = 64.72079 41.77082 90.77443
#
# Poissons Ratio (x) = -0.07298 0.37470
# Poissons Ratio (y) = -0.11308 0.48319
# Poissons Ratio (z) = 0.26716 0.22235
#
# Static dielectric constant tensor:
#      x y z
#    x 1.645810 0.000000 -0.003500 
#    y 0.000000 1.672800 0.000000 
#    z -0.003500 0.000000 1.677750 
# 
# From -- ./inp_files/61907.got.cif
#   From: 2010.05.17/outbox.cif.g08.bks.cpg/sg10_31_cif.got.tgz:61907.got - 2010.06.03 11:33:40.
