data_PCOD9152661
_publ_section_title
;
Structure prediction by ZEFSAII (Michael W. Deem and Ramdas Pophale) SiO2 
 PCOD9152661
Probable space group: P 2/M
;
_chemical_formula_sum "Si O2"
_cell_formula_units_Z 14
_cell_length_a 5.402808
_cell_length_b 20.043866
_cell_length_c 7.079471
_cell_angle_alpha 90.000000
_cell_angle_beta 48.738266
_cell_angle_gamma 90.000000
_cell_volume 576.300680
_symmetry_space_group_name_H-M "P 2/M"
_symmetry_group_IT_number 10
_symmetry_cell_setting 'monoclinic'
loop_
_space_group_symop_operation_xyz
x,y,z
-x,y,-z
-x,-y,-z
x,-y,z
loop_
_atom_site_type_symbol
_atom_site_label
_atom_site_fract_x
_atom_site_fract_y
_atom_site_fract_z
Si Si1 0.385199 0.000000 0.838318
Si Si2 0.391079 0.571384 0.834649
Si Si3 0.609130 0.857080 0.725300
Si Si4 0.608556 0.714461 0.725442
O O1 0.504628 0.928893 0.700413
O O2 0.500000 0.000000 0.000000
O O3 0.000000 0.000000 0.000000
O O4 0.528309 0.500000 0.692336
O O5 0.499944 0.642941 0.702015
O O6 0.500000 0.572183 0.000000
O O7 0.000000 0.569664 0.000000
O O8 0.471504 0.785812 0.720646
O O9 0.000000 0.854823 0.500000
O O10 0.500000 0.858001 0.000000
O O11 0.000000 0.716020 0.500000
O O12 0.500000 0.713769 0.000000
#
# Coordination Sequence:
#
# PCOD9152661 Si02
#       4
#     2   4   4   4
#     4  10  21  38  60  86 116 152 192 236 286 340
#     4   9  18  34  56  82 113 149 189 234 284 338
#     4   9  18  35  57  83 114 149 189 234 284 338
#     4   9  18  34  57  83 113 149 189 234 284 338
#
# _framework density 24.292874999999999
#
# number of rings (size 3 to 8) (size 9 to 14) (size 15 to 20)
#    0.000    2.857    0.000    0.429    0.000    1.714 
#    0.000   17.143    0.000   46.286    0.000    0.000 
#    0.000    0.000    0.000    0.000    0.000    0.000 
#
# Total GULP energy -78024.678154 kJ/mol
# GULP energy per Si atom -5573.191297 kJ/mol
# Density = 2.423758 g / cm^3
# Si number density = 24.292875 Si / 1000 Ang^3
#
#
#
# Elastic Constant Matrix: (Units=GPa)
#
#
# Indices 1 2 3 4 5 6 
#
# 1 122.2027 29.1533 48.3363 0.0000 19.7924 0.0000
# 2 29.1533 395.6865 29.5043 0.0000 -16.7073 0.0000
# 3 48.3363 29.5043 139.6892 0.0000 14.6429 0.0000
# 4 0.0000 0.0000 0.0000 9.9553 0.0000 -53.7890
# 5 19.7924 -16.7073 14.6429 0.0000 56.3821 0.0000
# 6 0.0000 0.0000 0.0000 -53.7890 0.0000 -33.0545
#
#
#
# Elastic Compliance Matrix: (Units=1/GPa)
#
#
# Indices 1 2 3 4 5 6 
#
# 1 0.010002 -0.000635 -0.003021 0.000000 -0.002914 0.000000
# 2 -0.000635 0.002656 -0.000460 0.000000 0.001129 0.000000
# 3 -0.003021 -0.000460 0.008434 0.000000 -0.001266 0.000000
# 4 0.000000 0.000000 0.000000 0.010258 0.000000 -0.016693
# 5 -0.002914 0.001129 -0.001266 0.000000 0.019423 0.000000
# 6 0.000000 0.000000 0.000000 -0.016693 0.000000 -0.003089
#
#
# Mechanical properties :
#
#
# Convention : Reuss Voigt Hill
#
# Bulk Modulus (GPa) = 77.75919 96.84071 87.29995
# Shear Modulus (GPa) = 83.05539 43.36221 63.20880
#
# Velocity S-wave (km/s) = 5.85350 4.22948 5.10646
# Velocity P-wave (km/s) = 8.81834 7.98760 8.41323
#
# Compressibility (1/GPa) = 0.01286022
#
# Stress axis : x y z
#
# Youngs Moduli (GPa) = 99.98394 376.50965 118.56751
#
# Poissons Ratio (x) = 0.23896 0.35823
# Poissons Ratio (y) = 0.06346 0.05451
# Poissons Ratio (z) = 0.30208 0.17310
#
# Static dielectric constant tensor:
#      x y z
#    x 1.845980 0.000000 -0.039510 
#    y 0.000000 2.087110 0.000000 
#    z -0.039510 0.000000 1.830260 
# 
# From -- ./inp_files/1057.got.cif
#   From: 2010.05.17/outbox.cif.g08.bks.cpg/sg10_1_cif.got.tgz:1057.got - 2010.06.03 11:33:40.
