data_PCOD9152157
_publ_section_title
;
Structure prediction by ZEFSAII (Michael W. Deem and Ramdas Pophale) SiO2 
 PCOD9152157
Probable space group: P 2/M
;
_chemical_formula_sum "Si O2"
_cell_formula_units_Z 28
_cell_length_a 9.633600
_cell_length_b 14.198392
_cell_length_c 22.075301
_cell_angle_alpha 90.000000
_cell_angle_beta 148.983027
_cell_angle_gamma 90.000000
_cell_volume 1555.921869
_symmetry_space_group_name_H-M "P 2/M"
_symmetry_group_IT_number 10
_symmetry_cell_setting 'monoclinic'
loop_
_space_group_symop_operation_xyz
x,y,z
-x,y,-z
-x,-y,-z
x,-y,z
loop_
_atom_site_type_symbol
_atom_site_label
_atom_site_fract_x
_atom_site_fract_y
_atom_site_fract_z
Si Si1 0.731680 0.888597 0.363654
Si Si2 0.217891 0.888872 0.256600
Si Si3 0.722985 0.389567 0.863781
Si Si4 0.774332 0.729095 0.640451
Si Si5 0.698254 0.212533 0.021236
Si Si6 0.042948 0.609947 0.179582
Si Si7 0.318921 0.753382 0.768175
O O1 0.478985 0.871165 0.313030
O O2 0.716863 0.830716 0.296793
O O3 0.000000 0.862097 0.500000
O O4 0.741016 0.000000 0.354179
O O5 0.230889 0.825625 0.322001
O O6 0.961910 0.851692 0.123037
O O7 0.199024 0.000000 0.262529
O O8 0.699890 0.500000 0.869386
O O9 0.766281 0.378969 0.808008
O O10 0.465397 0.335298 0.791925
O O11 0.000000 0.355371 0.000000
O O12 0.500000 0.718860 0.500000
O O13 0.818430 0.647937 0.707525
O O14 0.036929 0.730952 0.695584
O O15 0.796705 0.318893 0.073835
O O16 0.500000 0.180477 0.000000
O O17 0.531308 0.211460 0.897655
O O18 0.967192 0.500000 0.155443
#
# Coordination Sequence:
#
# PCOD9152157 Si02
#       7
#     4   4   4   4   4   4   4
#     4  10  23  42  62  86 116 157 205 243 286 345
#     4  10  22  40  61  84 120 158 191 243 297 348
#     4  10  21  36  59  90 119 151 189 233 290 354
#     4  11  24  41  60  86 117 156 204 242 288 346
#     4  11  21  38  55  94 123 153 191 235 302 358
#     4  10  21  39  61  85 121 158 192 239 294 348
#     4  12  22  36  63  91 118 154 193 248 295 345
#
# _framework density 17.995761999999999
#
# number of rings (size 3 to 8) (size 9 to 14) (size 15 to 20)
#    0.000    1.429    4.286    2.571    0.000    2.857 
#    0.000    1.429    0.000    2.143    0.000    0.000 
#    0.000    0.000    0.000    0.000    0.000    0.000 
#
# Total GULP energy -156347.509972 kJ/mol
# GULP energy per Si atom -5583.839642 kJ/mol
# Density = 1.795480 g / cm^3
# Si number density = 17.995762 Si / 1000 Ang^3
#
#
#
# Elastic Constant Matrix: (Units=GPa)
#
#
# Indices 1 2 3 4 5 6 
#
# 1 112.2259 51.4373 79.5078 0.0000 5.6424 0.0000
# 2 51.4373 71.7849 52.6245 0.0000 -0.4205 0.0000
# 3 79.5078 52.6245 161.3464 0.0000 4.2547 0.0000
# 4 0.0000 0.0000 0.0000 41.2155 0.0000 19.1700
# 5 5.6424 -0.4205 4.2547 0.0000 26.3155 0.0000
# 6 0.0000 0.0000 0.0000 19.1700 0.0000 40.2137
#
#
#
# Elastic Compliance Matrix: (Units=1/GPa)
#
#
# Indices 1 2 3 4 5 6 
#
# 1 0.016556 -0.007823 -0.005534 0.000000 -0.002780 0.000000
# 2 -0.007823 0.022046 -0.003404 0.000000 0.002580 0.000000
# 3 -0.005534 -0.003404 0.010048 0.000000 -0.000492 0.000000
# 4 0.000000 0.000000 0.000000 0.031175 0.000000 -0.014861
# 5 -0.002780 0.002580 -0.000492 0.000000 0.038717 0.000000
# 6 0.000000 0.000000 0.000000 -0.014861 0.000000 0.031952
#
#
# Mechanical properties :
#
#
# Convention : Reuss Voigt Hill
#
# Bulk Modulus (GPa) = 66.09475 79.16624 72.63050
# Shear Modulus (GPa) = 26.44685 32.33480 29.39083
#
# Velocity S-wave (km/s) = 3.83772 4.24347 4.04568
# Velocity P-wave (km/s) = 7.51300 8.25206 7.89118
#
# Compressibility (1/GPa) = 0.01512979
#
# Stress axis : x y z
#
# Youngs Moduli (GPa) = 60.39952 45.35908 99.52370
#
# Poissons Ratio (x) = 0.35484 0.55074
# Poissons Ratio (y) = 0.47251 0.33874
# Poissons Ratio (z) = 0.33424 0.15438
#
# Static dielectric constant tensor:
#      x y z
#    x 1.608090 0.000000 -0.002460 
#    y 0.000000 1.612600 0.000000 
#    z -0.002460 0.000000 1.604520 
# 
# From -- ./inp_files/29602.got.cif
#   From: 2010.05.17/outbox.cif.g08.bks.cpg/sg10_15_cif.got.tgz:29602.got - 2010.06.03 11:33:40.
