data_PCOD9152499
_publ_section_title
;
Structure prediction by ZEFSAII (Michael W. Deem and Ramdas Pophale) SiO2 
 PCOD9152499
Probable space group: P 2/M
;
_chemical_formula_sum "Si O2"
_cell_formula_units_Z 32
_cell_length_a 23.035129
_cell_length_b 8.864246
_cell_length_c 15.157446
_cell_angle_alpha 90.000000
_cell_angle_beta 148.170226
_cell_angle_gamma 90.000000
_cell_volume 1632.286701
_symmetry_space_group_name_H-M "P 2/M"
_symmetry_group_IT_number 10
_symmetry_cell_setting 'monoclinic'
loop_
_space_group_symop_operation_xyz
x,y,z
-x,y,-z
-x,-y,-z
x,-y,z
loop_
_atom_site_type_symbol
_atom_site_label
_atom_site_fract_x
_atom_site_fract_y
_atom_site_fract_z
Si Si1 0.752557 0.180449 0.503148
Si Si2 0.038714 0.329267 0.652268
Si Si3 0.782564 0.318220 0.872145
Si Si4 0.744539 0.821796 0.124581
Si Si5 0.362851 0.318735 0.482224
Si Si6 0.007266 0.818561 0.112413
Si Si7 0.613314 0.318946 0.806294
Si Si8 0.201018 0.318716 0.616950
O O1 0.667788 0.240366 0.466025
O O2 0.737493 0.254457 0.388250
O O3 0.874295 0.224541 0.695896
O O4 0.747831 0.000000 0.490513
O O5 0.067755 0.500000 0.718879
O O6 0.145427 0.226246 0.787464
O O7 0.000000 0.339089 0.500000
O O8 0.928786 0.274105 0.558512
O O9 0.789222 0.500000 0.881447
O O10 0.722706 0.271247 0.703907
O O11 0.701898 0.272025 0.847144
O O12 0.904488 0.251594 0.031429
O O13 0.754664 0.745733 0.233631
O O14 0.740061 0.000000 0.128521
O O15 0.644236 0.758451 0.938087
O O16 0.353925 0.500000 0.480536
O O17 0.488365 0.284924 0.617612
O O18 0.998525 0.000000 0.104196
O O19 0.000000 0.771748 0.000000
O O20 0.622053 0.500000 0.827771
O O21 0.203462 0.500000 0.623245
#
# Coordination Sequence:
#
# PCOD9152499 Si02
#       8
#     4   4   4   4   4   4   4   4
#     4  11  23  38  59  87 123 160 197 241 293 352
#     4   8  16  32  53  77 108 147 187 231 283 339
#     4  10  21  37  62  91 117 151 198 247 293 346
#     4  11  22  36  56  85 119 153 195 243 293 350
#     4  10  21  40  63  86 115 154 201 248 294 348
#     4  10  21  38  57  84 124 163 191 232 295 355
#     4  10  22  40  61  86 118 155 197 248 300 345
#     4  10  21  38  60  84 115 155 199 242 292 350
#
# _framework density 19.604400999999999
#
# number of rings (size 3 to 8) (size 9 to 14) (size 15 to 20)
#    0.000    2.000    1.250    3.000    1.750    6.500 
#    0.000    0.625    0.000    6.000    0.000    0.000 
#    0.000    0.000    0.000    0.000    0.000    0.000 
#
# Total GULP energy -178767.885076 kJ/mol
# GULP energy per Si atom -5586.496409 kJ/mol
# Density = 1.955978 g / cm^3
# Si number density = 19.604401 Si / 1000 Ang^3
#
#
#
# Elastic Constant Matrix: (Units=GPa)
#
#
# Indices 1 2 3 4 5 6 
#
# 1 105.4735 19.7849 9.2480 0.0000 -1.2370 0.0000
# 2 19.7849 27.1375 11.7749 0.0000 2.0166 0.0000
# 3 9.2480 11.7749 38.0606 0.0000 3.3566 0.0000
# 4 0.0000 0.0000 0.0000 20.1283 0.0000 -7.2517
# 5 -1.2370 2.0166 3.3566 0.0000 30.2083 0.0000
# 6 0.0000 0.0000 0.0000 -7.2517 0.0000 -96.1437
#
#
#
# Elastic Compliance Matrix: (Units=1/GPa)
#
#
# Indices 1 2 3 4 5 6 
#
# 1 0.011015 -0.007977 -0.000298 0.000000 0.001017 0.000000
# 2 -0.007977 0.048398 -0.012847 0.000000 -0.002130 0.000000
# 3 -0.000298 -0.012847 0.030546 0.000000 -0.002549 0.000000
# 4 0.000000 0.000000 0.000000 0.048367 0.000000 -0.003648
# 5 0.001017 -0.002130 -0.002549 0.000000 0.033570 0.000000
# 6 0.000000 0.000000 0.000000 -0.003648 0.000000 -0.010126
#
#
# Mechanical properties :
#
#
# Convention : Reuss Voigt Hill
#
# Bulk Modulus (GPa) = 20.95805 28.03191 24.49498
# Shear Modulus (GPa) = 22.73563 -0.50382 11.11590
#
# Velocity S-wave (km/s) = 3.40916 -0.50750 2.38378
# Velocity P-wave (km/s) = 5.11959 3.73984 4.48311
#
# Compressibility (1/GPa) = 0.04771436
#
# Stress axis : x y z
#
# Youngs Moduli (GPa) = 90.78123 20.66219 32.73801
#
# Poissons Ratio (x) = 0.16482 0.00977
# Poissons Ratio (y) = 0.72417 0.42058
# Poissons Ratio (z) = 0.02708 0.26544
#
# Static dielectric constant tensor:
#      x y z
#    x 1.688790 0.000000 -0.004340 
#    y 0.000000 1.653530 0.000000 
#    z -0.004340 0.000000 1.689500 
# 
# From -- ./inp_files/71683.got.cif
#   From: 2010.05.17/outbox.cif.g08.bks.cpg/sg10_36_cif.got.tgz:71683.got - 2010.06.03 11:33:40.
