data_PCOD9152375
_publ_section_title
;
Structure prediction by ZEFSAII (Michael W. Deem and Ramdas Pophale) SiO2 
 PCOD9152375
Probable space group: P 2/M
;
_chemical_formula_sum "Si O2"
_cell_formula_units_Z 28
_cell_length_a 22.561818
_cell_length_b 13.204162
_cell_length_c 9.893475
_cell_angle_alpha 90.000000
_cell_angle_beta 152.745613
_cell_angle_gamma 90.000000
_cell_volume 1349.721784
_symmetry_space_group_name_H-M "P 2/M"
_symmetry_group_IT_number 10
_symmetry_cell_setting 'monoclinic'
loop_
_space_group_symop_operation_xyz
x,y,z
-x,y,-z
-x,-y,-z
x,-y,z
loop_
_atom_site_type_symbol
_atom_site_label
_atom_site_fract_x
_atom_site_fract_y
_atom_site_fract_z
Si Si1 0.353231 0.735856 0.674996
Si Si2 0.702530 0.613067 0.705207
Si Si3 0.895945 0.828228 0.892478
Si Si4 0.277161 0.617119 0.781856
Si Si5 0.638301 0.251949 0.805232
Si Si6 0.027510 0.612655 0.847727
Si Si7 0.129142 0.118602 0.842667
O O1 0.341665 0.687341 0.502920
O O2 0.246930 0.824943 0.461309
O O3 0.309690 0.651066 0.695355
O O4 0.500000 0.766517 0.000000
O O5 0.666265 0.500000 0.593692
O O6 0.640424 0.648015 0.716726
O O7 0.859564 0.617062 0.036332
O O8 0.935762 0.709722 0.990232
O O9 0.890874 0.867694 0.036163
O O10 0.000000 0.874319 0.000000
O O11 0.317555 0.500000 0.886911
O O12 0.122155 0.621146 0.494094
O O13 0.339234 0.704203 0.000653
O O14 0.500000 0.201120 0.500000
O O15 0.752576 0.182981 0.977464
O O16 0.044772 0.500000 0.944824
O O17 0.000000 0.149725 0.500000
O O18 0.151423 0.000000 0.861787
#
# Coordination Sequence:
#
# PCOD9152375 Si02
#       7
#     4   4   4   4   4   4   4
#     4  11  22  36  57  89 130 179 216 248 300 368
#     4  10  21  37  58  87 130 178 220 257 305 366
#     4  11  21  41  68  97 125 165 204 266 319 375
#     4  11  23  35  57  94 136 175 220 261 298 365
#     4  12  25  40  63  93 129 173 213 261 319 376
#     4   9  18  33  55  88 125 166 209 248 299 361
#     4  11  26  49  74  96 120 155 210 274 335 391
#
# _framework density 20.745016
#
# number of rings (size 3 to 8) (size 9 to 14) (size 15 to 20)
#    0.000    1.286    4.286    2.571    0.000    4.857 
#    0.000    2.143    0.000    0.429    0.000    0.000 
#    0.000    0.000    0.000    0.000    0.000    0.000 
#
# Total GULP energy -156264.456407 kJ/mol
# GULP energy per Si atom -5580.873443 kJ/mol
# Density = 2.069780 g / cm^3
# Si number density = 20.745016 Si / 1000 Ang^3
#
#
#
# Elastic Constant Matrix: (Units=GPa)
#
#
# Indices 1 2 3 4 5 6 
#
# 1 58.9762 18.1882 25.3419 0.0000 10.0253 0.0000
# 2 18.1882 33.9695 33.3724 0.0000 7.3107 0.0000
# 3 25.3419 33.3724 124.7170 0.0000 30.7078 0.0000
# 4 0.0000 0.0000 0.0000 1.4157 0.0000 5.1473
# 5 10.0253 7.3107 30.7078 0.0000 32.8572 0.0000
# 6 0.0000 0.0000 0.0000 5.1473 0.0000 -1.0355
#
#
#
# Elastic Compliance Matrix: (Units=1/GPa)
#
#
# Indices 1 2 3 4 5 6 
#
# 1 0.020863 -0.009630 -0.000809 0.000000 -0.003467 0.000000
# 2 -0.009630 0.044434 -0.010680 0.000000 0.003033 0.000000
# 3 -0.000809 -0.010680 0.013501 0.000000 -0.009995 0.000000
# 4 0.000000 0.000000 0.000000 0.037035 0.000000 0.184091
# 5 -0.003467 0.003033 -0.009995 0.000000 0.040159 0.000000
# 6 0.000000 0.000000 0.000000 0.184091 0.000000 -0.050631
#
#
# Mechanical properties :
#
#
# Convention : Reuss Voigt Hill
#
# Bulk Modulus (GPa) = 27.35166 41.27420 34.31293
# Shear Modulus (GPa) = 31.29210 16.03147 23.66179
#
# Velocity S-wave (km/s) = 3.88805 2.78292 3.38094
# Velocity P-wave (km/s) = 5.77661 5.50139 5.64068
#
# Compressibility (1/GPa) = 0.03656085
#
# Stress axis : x y z
#
# Youngs Moduli (GPa) = 47.93244 22.50547 74.06754
#
# Poissons Ratio (x) = 0.21672 0.05990
# Poissons Ratio (y) = 0.46158 0.79103
# Poissons Ratio (z) = 0.03876 0.24035
#
# Static dielectric constant tensor:
#      x y z
#    x 1.747630 0.000000 0.039140 
#    y 0.000000 1.721100 0.000000 
#    z 0.039140 0.000000 1.793260 
# 
# From -- ./inp_files/35286.got.cif
#   From: 2010.05.17/outbox.cif.g08.bks.cpg/sg10_18_cif.got.tgz:35286.got - 2010.06.03 11:33:40.
