data_PCOD9152846
_publ_section_title
;
Structure prediction by ZEFSAII (Michael W. Deem and Ramdas Pophale) SiO2 
 PCOD9152846
Probable space group: P 2/M
;
_chemical_formula_sum "Si O2"
_cell_formula_units_Z 24
_cell_length_a 5.485296
_cell_length_b 13.232968
_cell_length_c 14.505984
_cell_angle_alpha 90.000000
_cell_angle_beta 84.764049
_cell_angle_gamma 90.000000
_cell_volume 1048.548606
_symmetry_space_group_name_H-M "P 2/M"
_symmetry_group_IT_number 10
_symmetry_cell_setting 'monoclinic'
loop_
_space_group_symop_operation_xyz
x,y,z
-x,y,-z
-x,-y,-z
x,-y,z
loop_
_atom_site_type_symbol
_atom_site_label
_atom_site_fract_x
_atom_site_fract_y
_atom_site_fract_z
Si Si1 0.726230 0.615427 0.245203
Si Si2 0.228138 0.500000 0.060671
Si Si3 0.912013 0.224185 0.676528
Si Si4 0.063951 0.000000 0.274888
Si Si5 0.500000 0.843223 0.000000
Si Si6 0.325862 0.390160 0.417515
Si Si7 0.353092 0.700895 0.142209
Si Si8 0.401657 0.000000 0.846757
O O1 0.817557 0.500000 0.236582
O O2 0.490268 0.605781 0.320251
O O3 0.627851 0.660896 0.152663
O O4 0.881339 0.701933 0.289428
O O5 0.213965 0.598004 0.126448
O O6 0.500000 0.500000 0.000000
O O7 0.000000 0.500000 0.000000
O O8 0.823302 0.287020 0.590799
O O9 0.716835 0.233855 0.766636
O O10 0.962258 0.105228 0.667335
O O11 0.334812 0.000000 0.216097
O O12 0.836256 0.000000 0.210336
O O13 0.310770 0.769706 0.055616
O O14 0.603730 0.907354 0.080841
O O15 0.500000 0.385211 0.500000
O O16 0.193245 0.500000 0.424482
#
# Coordination Sequence:
#
# PCOD9152846 Si02
#       8
#     4   2   4   2   2   4   4   2
#     4  10  21  38  65  94 131 172 219 266 335 407
#     4  12  28  40  56  88 129 172 219 272 334 402
#     4  11  24  39  66  94 128 178 218 277 333 398
#     4  12  26  47  69  95 132 174 236 283 339 389
#     4  11  22  43  64  86 128 169 232 281 344 380
#     4   9  20  41  68 103 137 167 211 266 330 407
#     4  11  23  40  58  90 128 172 220 275 335 404
#     4  11  26  46  66  92 121 175 237 297 330 386
#
# _framework density 22.888783
#
# number of rings (size 3 to 8) (size 9 to 14) (size 15 to 20)
#    0.000    1.333    3.333    1.500    7.000    3.333 
#    3.000    2.917    0.000    1.000    0.000    0.000 
#    0.000    0.000    0.000    0.000    0.000    0.000 
#
# Total GULP energy -133847.293757 kJ/mol
# GULP energy per Si atom -5576.970573 kJ/mol
# Density = 2.283669 g / cm^3
# Si number density = 22.888783 Si / 1000 Ang^3
#
#
#
# Elastic Constant Matrix: (Units=GPa)
#
#
# Indices 1 2 3 4 5 6 
#
# 1 77.0928 36.7982 18.7379 0.0000 11.1587 0.0000
# 2 36.7982 229.5516 37.5625 0.0000 18.3923 0.0000
# 3 18.7379 37.5625 63.5446 0.0000 12.3661 0.0000
# 4 0.0000 0.0000 0.0000 6.9896 0.0000 -15.1514
# 5 11.1587 18.3923 12.3661 0.0000 41.0495 0.0000
# 6 0.0000 0.0000 0.0000 -15.1514 0.0000 -4.1855
#
#
#
# Elastic Compliance Matrix: (Units=1/GPa)
#
#
# Indices 1 2 3 4 5 6 
#
# 1 0.014840 -0.001713 -0.002898 0.000000 -0.002394 0.000000
# 2 -0.001713 0.005096 -0.002287 0.000000 -0.001128 0.000000
# 3 -0.002898 -0.002287 0.018686 0.000000 -0.003817 0.000000
# 4 0.000000 0.000000 0.000000 0.016171 0.000000 -0.058540
# 5 -0.002394 -0.001128 -0.003817 0.000000 0.026667 0.000000
# 6 0.000000 0.000000 0.000000 -0.058540 0.000000 -0.027006
#
#
# Mechanical properties :
#
#
# Convention : Reuss Voigt Hill
#
# Bulk Modulus (GPa) = 40.28066 61.82068 51.05067
# Shear Modulus (GPa) = 65.33776 27.24341 46.29059
#
# Velocity S-wave (km/s) = 5.34862 3.45375 4.50200
# Velocity P-wave (km/s) = 7.46862 6.55532 7.02682
#
# Compressibility (1/GPa) = 0.02482581
#
# Stress axis : x y z
#
# Youngs Moduli (GPa) = 67.38667 196.24683 53.51515
#
# Poissons Ratio (x) = 0.33616 0.15506
# Poissons Ratio (y) = 0.11543 0.12241
# Poissons Ratio (z) = 0.19526 0.44890
#
# Static dielectric constant tensor:
#      x y z
#    x 1.998420 0.000000 -0.012500 
#    y 0.000000 1.906000 0.000000 
#    z -0.012500 0.000000 1.852750 
# 
# From -- ./inp_files/59108.got.cif
#   From: 2010.05.17/outbox.cif.g08.bks.cpg/sg10_30_cif.got.tgz:59108.got - 2010.06.03 11:33:40.
