data_PCOD9152633
_publ_section_title
;
Structure prediction by ZEFSAII (Michael W. Deem and Ramdas Pophale) SiO2 
 PCOD9152633
Probable space group: P 2/M
;
_chemical_formula_sum "Si O2"
_cell_formula_units_Z 20
_cell_length_a 13.034960
_cell_length_b 13.371199
_cell_length_c 10.974468
_cell_angle_alpha 90.000000
_cell_angle_beta 25.723245
_cell_angle_gamma 90.000000
_cell_volume 830.190759
_symmetry_space_group_name_H-M "P 2/M"
_symmetry_group_IT_number 10
_symmetry_cell_setting 'monoclinic'
loop_
_space_group_symop_operation_xyz
x,y,z
-x,y,-z
-x,-y,-z
x,-y,z
loop_
_atom_site_type_symbol
_atom_site_label
_atom_site_fract_x
_atom_site_fract_y
_atom_site_fract_z
Si Si1 0.777171 0.387852 0.085542
Si Si2 0.143159 0.389287 0.470667
Si Si3 0.264775 0.112751 0.163301
Si Si4 0.250697 0.812749 0.718472
Si Si5 0.532692 0.266971 0.742437
O O1 0.770004 0.500000 0.146903
O O2 0.985340 0.385458 0.762408
O O3 0.778110 0.294631 0.178161
O O4 0.549575 0.363415 0.246010
O O5 0.249459 0.500000 0.350503
O O6 0.334515 0.304985 0.282212
O O7 0.000000 0.375798 0.500000
O O8 0.000000 0.127097 0.500000
O O9 0.264579 0.000000 0.111536
O O10 0.500000 0.114442 0.000000
O O11 0.314495 0.197240 0.010112
O O12 0.500000 0.855806 0.500000
O O13 0.294703 0.793509 0.529669
O O14 0.000000 0.866247 0.000000
#
# Coordination Sequence:
#
# PCOD9152633 Si02
#       5
#     4   4   4   4   4
#     4  10  22  37  57  90 133 181 226 269 315 381
#     4  10  22  37  56  91 136 182 230 271 323 390
#     4  10  25  46  70  99 129 165 216 278 345 415
#     4  10  21  38  59  91 126 172 222 272 313 378
#     4  11  23  37  67  91 129 172 223 277 338 387
#
# _framework density 24.090848000000001
#
# number of rings (size 3 to 8) (size 9 to 14) (size 15 to 20)
#    0.000    1.800    2.000    0.600    5.600    4.800 
#    0.000    3.000    0.000    7.800    0.000    0.000 
#    0.000    0.000    0.000    0.000    0.000    0.000 
#
# Total GULP energy -111735.640007 kJ/mol
# GULP energy per Si atom -5586.782000 kJ/mol
# Density = 2.403602 g / cm^3
# Si number density = 24.090848 Si / 1000 Ang^3
#
#
#
# Elastic Constant Matrix: (Units=GPa)
#
#
# Indices 1 2 3 4 5 6 
#
# 1 72.7507 19.0425 34.9139 0.0000 -4.5393 0.0000
# 2 19.0425 75.4703 23.6869 0.0000 2.3743 0.0000
# 3 34.9139 23.6869 160.5800 0.0000 -3.3681 0.0000
# 4 0.0000 0.0000 0.0000 22.7854 0.0000 1.7933
# 5 -4.5393 2.3743 -3.3681 0.0000 46.6999 0.0000
# 6 0.0000 0.0000 0.0000 1.7933 0.0000 0.2609
#
#
#
# Elastic Compliance Matrix: (Units=1/GPa)
#
#
# Indices 1 2 3 4 5 6 
#
# 1 0.016111 -0.003170 -0.003004 0.000000 0.001511 0.000000
# 2 -0.003170 0.014551 -0.001481 0.000000 -0.001155 0.000000
# 3 -0.003004 -0.001481 0.007105 0.000000 0.000296 0.000000
# 4 0.000000 0.000000 0.000000 0.095633 0.000000 -0.657463
# 5 0.001511 -0.001155 0.000296 0.000000 0.021640 0.000000
# 6 0.000000 0.000000 0.000000 -0.657463 0.000000 8.353519
#
#
# Mechanical properties :
#
#
# Convention : Reuss Voigt Hill
#
# Bulk Modulus (GPa) = 44.52836 51.56529 48.04683
# Shear Modulus (GPa) = 0.58607 29.35975 14.97291
#
# Velocity S-wave (km/s) = 0.49377 3.49479 2.49573
# Velocity P-wave (km/s) = 4.34151 6.14294 5.31904
#
# Compressibility (1/GPa) = 0.02245760
#
# Stress axis : x y z
#
# Youngs Moduli (GPa) = 62.06927 68.72211 140.74160
#
# Poissons Ratio (x) = 0.21784 0.42274
# Poissons Ratio (y) = 0.19675 0.20850
# Poissons Ratio (z) = 0.18643 0.10181
#
# Static dielectric constant tensor:
#      x y z
#    x 1.943270 0.000000 -0.028270 
#    y 0.000000 1.888820 0.000000 
#    z -0.028270 0.000000 1.991100 
# 
# From -- ./inp_files/47578.got.cif
#   From: 2010.05.17/outbox.cif.g08.bks.cpg/sg10_24_cif.got.tgz:47578.got - 2010.06.03 11:33:40.
