data_PCOD9152397
_publ_section_title
;
Structure prediction by ZEFSAII (Michael W. Deem and Ramdas Pophale) SiO2 
 PCOD9152397
Probable space group: P 2/M
;
_chemical_formula_sum "Si O2"
_cell_formula_units_Z 32
_cell_length_a 5.741829
_cell_length_b 14.306548
_cell_length_c 19.117151
_cell_angle_alpha 90.000000
_cell_angle_beta 83.341445
_cell_angle_gamma 90.000000
_cell_volume 1559.800110
_symmetry_space_group_name_H-M "P 2/M"
_symmetry_group_IT_number 10
_symmetry_cell_setting 'monoclinic'
loop_
_space_group_symop_operation_xyz
x,y,z
-x,y,-z
-x,-y,-z
x,-y,z
loop_
_atom_site_type_symbol
_atom_site_label
_atom_site_fract_x
_atom_site_fract_y
_atom_site_fract_z
Si Si1 0.465646 0.395094 0.085254
Si Si2 0.646637 0.896568 0.328515
Si Si3 0.032306 0.213035 0.781155
Si Si4 0.966022 0.701363 0.083995
Si Si5 0.310963 0.265071 0.314599
Si Si6 0.762975 0.108042 0.478004
Si Si7 0.717159 0.606356 0.292236
Si Si8 0.995555 0.606542 0.416463
O O1 0.465525 0.500000 0.113778
O O2 0.202117 0.353506 0.101818
O O3 0.706673 0.345170 0.102220
O O4 0.500000 0.398668 0.000000
O O5 0.802977 0.864494 0.258281
O O6 0.463582 0.814025 0.345495
O O7 0.798299 0.896082 0.393651
O O8 0.545540 0.000000 0.323735
O O9 0.123027 0.315854 0.751184
O O10 0.032488 0.211068 0.864025
O O11 0.787293 0.212333 0.749895
O O12 0.000000 0.717497 0.000000
O O13 0.461235 0.354514 0.285485
O O14 0.137211 0.310014 0.376157
O O15 0.500000 0.147163 0.500000
O O16 0.000000 0.151688 0.500000
O O17 0.750316 0.000000 0.505831
O O18 0.759109 0.500000 0.268828
O O19 0.761626 0.609938 0.375388
O O20 0.088744 0.500000 0.400176
O O21 0.000000 0.616510 0.500000
#
# Coordination Sequence:
#
# PCOD9152397 Si02
#       8
#     4   4   4   4   4   4   4   4
#     4   9  18  33  54  85 123 161 202 243 292 361
#     4  10  23  42  62  83 115 158 198 251 317 374
#     4  10  23  39  57  85 117 151 201 248 298 374
#     4  10  21  37  59  86 121 163 202 251 308 361
#     4  10  21  38  55  85 113 149 199 254 297 366
#     4   9  19  37  60  87 116 148 191 240 298 368
#     4   9  19  36  55  79 113 153 195 243 296 350
#     4   9  18  35  57  81 114 156 200 246 297 349
#
# _framework density 20.515447999999999
#
# number of rings (size 3 to 8) (size 9 to 14) (size 15 to 20)
#    0.000    2.500    0.000    0.750    5.250    4.000 
#    6.750    1.875    0.000    0.750    0.000    0.875 
#    0.000    0.000    0.000    0.000    0.000    0.000 
#
# Total GULP energy -178161.733592 kJ/mol
# GULP energy per Si atom -5567.554175 kJ/mol
# Density = 2.046875 g / cm^3
# Si number density = 20.515448 Si / 1000 Ang^3
#
#
#
# Elastic Constant Matrix: (Units=GPa)
#
#
# Indices 1 2 3 4 5 6 
#
# 1 93.8503 5.1324 21.8760 0.0000 8.5128 0.0000
# 2 5.1324 51.4214 9.5983 0.0000 1.1540 0.0000
# 3 21.8760 9.5983 92.1040 0.0000 8.6261 0.0000
# 4 0.0000 0.0000 0.0000 19.5341 0.0000 5.2878
# 5 8.5128 1.1540 8.6261 0.0000 20.6878 0.0000
# 6 0.0000 0.0000 0.0000 5.2878 0.0000 -4.5429
#
#
#
# Elastic Compliance Matrix: (Units=1/GPa)
#
#
# Indices 1 2 3 4 5 6 
#
# 1 0.011574 -0.000636 -0.002331 0.000000 -0.003755 0.000000
# 2 -0.000636 0.019869 -0.001915 0.000000 -0.000048 0.000000
# 3 -0.002331 -0.001915 0.011978 0.000000 -0.003929 0.000000
# 4 0.000000 0.000000 0.000000 0.038927 0.000000 0.045310
# 5 -0.003755 -0.000048 -0.003929 0.000000 0.051524 0.000000
# 6 0.000000 0.000000 0.000000 0.045310 0.000000 -0.167384
#
#
# Mechanical properties :
#
#
# Convention : Reuss Voigt Hill
#
# Bulk Modulus (GPa) = 29.71084 34.50990 32.11037
# Shear Modulus (GPa) = -399.09342 20.52038 -189.28652
#
# Velocity S-wave (km/s) = -13.96264 3.16609 -9.61591
# Velocity P-wave (km/s) = 15.66611 5.49758 10.37313
#
# Compressibility (1/GPa) = 0.03365775
#
# Stress axis : x y z
#
# Youngs Moduli (GPa) = 86.40048 50.32922 83.48324
#
# Poissons Ratio (x) = 0.03200 0.19460
# Poissons Ratio (y) = 0.05494 0.15988
# Poissons Ratio (z) = 0.20140 0.09638
#
# Static dielectric constant tensor:
#      x y z
#    x 1.853030 0.000000 0.008940 
#    y 0.000000 1.718090 0.000000 
#    z 0.008940 0.000000 1.764510 
# 
# From -- ./inp_files/73550.got.cif
#   From: 2010.05.17/outbox.cif.g08.bks.cpg/sg10_37_cif.got.tgz:73550.got - 2010.06.03 11:33:40.
