data_PCOD9152094
_publ_section_title
;
Structure prediction by ZEFSAII (Michael W. Deem and Ramdas Pophale) SiO2 
 PCOD9152094
Probable space group: P 2/M
;
_chemical_formula_sum "Si O2"
_cell_formula_units_Z 32
_cell_length_a 16.406927
_cell_length_b 13.896749
_cell_length_c 9.621487
_cell_angle_alpha 90.000000
_cell_angle_beta 118.480084
_cell_angle_gamma 90.000000
_cell_volume 1928.248902
_symmetry_space_group_name_H-M "P 2/M"
_symmetry_group_IT_number 10
_symmetry_cell_setting 'monoclinic'
loop_
_space_group_symop_operation_xyz
x,y,z
-x,y,-z
-x,-y,-z
x,-y,z
loop_
_atom_site_type_symbol
_atom_site_label
_atom_site_fract_x
_atom_site_fract_y
_atom_site_fract_z
Si Si1 0.904123 0.615338 0.838449
Si Si2 0.746858 0.614883 0.188775
Si Si3 0.579741 0.888525 0.368268
Si Si4 0.573594 0.721480 0.173658
Si Si5 0.459473 0.385549 0.319199
Si Si6 0.916620 0.615904 0.528704
Si Si7 0.364258 0.888184 0.267565
Si Si8 0.257985 0.701888 0.110824
O O1 0.882885 0.500000 0.823465
O O2 0.915591 0.647609 0.687745
O O3 0.821449 0.671936 0.846319
O O4 0.000000 0.628367 0.000000
O O5 0.743419 0.500000 0.160730
O O6 0.648777 0.655118 0.160200
O O7 0.821447 0.633833 0.369967
O O8 0.772499 0.668739 0.067319
O O9 0.616651 0.812666 0.287605
O O10 0.468071 0.872972 0.290586
O O11 0.622664 0.873223 0.556020
O O12 0.594293 0.000000 0.342467
O O13 0.518668 0.660808 0.244488
O O14 0.500000 0.756045 0.000000
O O15 0.500000 0.352016 0.500000
O O16 0.467777 0.500000 0.318440
O O17 0.352726 0.355921 0.220492
O O18 0.928191 0.500000 0.545774
O O19 0.000000 0.653407 0.500000
O O20 0.291290 0.812354 0.148585
O O21 0.340004 0.000000 0.224561
#
# Coordination Sequence:
#
# PCOD9152094 Si02
#       8
#     4   4   4   4   4   4   4   4
#     4  10  21  36  57  84 110 139 182 231 268 316
#     4  11  23  35  50  75 113 153 183 218 266 323
#     4   9  18  34  54  75 103 140 185 234 280 316
#     4  12  22  34  49  74 110 150 184 220 264 322
#     4  11  23  34  48  72 107 148 186 223 258 314
#     4   9  19  36  55  76 105 142 177 218 270 318
#     4   9  18  34  56  79 103 136 182 237 282 321
#     4  12  21  35  56  79 106 143 188 227 272 326
#
# _framework density 16.595368000000001
#
# number of rings (size 3 to 8) (size 9 to 14) (size 15 to 20)
#    0.000    1.625    2.500    3.750    3.500    2.750 
#    0.000    0.625    0.000    0.375    0.000    0.000 
#    0.000    2.500    0.000    0.000    0.000    0.000 
#
# Total GULP energy -178642.638898 kJ/mol
# GULP energy per Si atom -5582.582466 kJ/mol
# Density = 1.655760 g / cm^3
# Si number density = 16.595368 Si / 1000 Ang^3
#
#
#
# Elastic Constant Matrix: (Units=GPa)
#
#
# Indices 1 2 3 4 5 6 
#
# 1 79.6406 19.8611 34.4346 0.0000 -15.0805 0.0000
# 2 19.8611 84.1932 36.5641 0.0000 -5.6671 0.0000
# 3 34.4346 36.5641 94.6340 0.0000 -21.5336 0.0000
# 4 0.0000 0.0000 0.0000 25.5836 0.0000 1.6995
# 5 -15.0805 -5.6671 -21.5336 0.0000 23.0564 0.0000
# 6 0.0000 0.0000 0.0000 1.6995 0.0000 -11.7638
#
#
#
# Elastic Compliance Matrix: (Units=1/GPa)
#
#
# Indices 1 2 3 4 5 6 
#
# 1 0.015776 -0.001724 -0.003585 0.000000 0.006547 0.000000
# 2 -0.001724 0.014540 -0.005631 0.000000 -0.002813 0.000000
# 3 -0.003585 -0.005631 0.016760 0.000000 0.011925 0.000000
# 4 0.000000 0.000000 0.000000 0.038716 0.000000 0.005593
# 5 0.006547 -0.002813 0.011925 0.000000 0.058100 0.000000
# 6 0.000000 0.000000 0.000000 0.005593 0.000000 -0.084199
#
#
# Mechanical properties :
#
#
# Convention : Reuss Voigt Hill
#
# Bulk Modulus (GPa) = 39.68566 48.90972 44.29769
# Shear Modulus (GPa) = 55.57312 18.54910 37.06111
#
# Velocity S-wave (km/s) = 5.79308 3.34687 4.73082
# Velocity P-wave (km/s) = 8.28927 6.66868 7.52274
#
# Compressibility (1/GPa) = 0.02519802
#
# Stress axis : x y z
#
# Youngs Moduli (GPa) = 63.38752 68.77511 59.66483
#
# Poissons Ratio (x) = 0.11858 0.21387
# Poissons Ratio (y) = 0.10929 0.33595
# Poissons Ratio (z) = 0.22721 0.38724
#
# Static dielectric constant tensor:
#      x y z
#    x 1.543980 0.000000 -0.012190 
#    y 0.000000 1.556450 0.000000 
#    z -0.012190 0.000000 1.574210 
# 
# From -- ./inp_files/29564.got.cif
#   From: 2010.05.17/outbox.cif.g08.bks.cpg/sg10_15_cif.got.tgz:29564.got - 2010.06.03 11:33:40.
