data_PCOD9152277
_publ_section_title
;
Structure prediction by ZEFSAII (Michael W. Deem and Ramdas Pophale) SiO2 
 PCOD9152277
Probable space group: P 2/M
;
_chemical_formula_sum "Si O2"
_cell_formula_units_Z 28
_cell_length_a 15.257221
_cell_length_b 12.683438
_cell_length_c 8.845539
_cell_angle_alpha 90.000000
_cell_angle_beta 56.252680
_cell_angle_gamma 90.000000
_cell_volume 1423.300767
_symmetry_space_group_name_H-M "P 2/M"
_symmetry_group_IT_number 10
_symmetry_cell_setting 'monoclinic'
loop_
_space_group_symop_operation_xyz
x,y,z
-x,y,-z
-x,-y,-z
x,-y,z
loop_
_atom_site_type_symbol
_atom_site_label
_atom_site_fract_x
_atom_site_fract_y
_atom_site_fract_z
Si Si1 0.245466 0.876856 0.585734
Si Si2 0.172695 0.124358 0.999069
Si Si3 0.872528 0.500000 0.433492
Si Si4 0.477400 0.381325 0.685841
Si Si5 0.880382 0.500000 0.793321
Si Si6 0.695780 0.669551 0.606695
Si Si7 0.277103 0.309363 0.060842
Si Si8 0.972811 0.873941 0.362426
O O1 0.318233 0.782233 0.462518
O O2 0.145582 0.857750 0.572683
O O3 0.278928 0.000000 0.539753
O O4 0.207249 0.859307 0.793919
O O5 0.238824 0.194292 0.050071
O O6 0.052774 0.156584 0.153130
O O7 0.184588 0.000000 0.017377
O O8 0.879885 0.500000 0.609845
O O9 0.799429 0.601197 0.458382
O O10 0.997019 0.500000 0.268007
O O11 0.500000 0.331971 0.500000
O O12 0.438054 0.500000 0.693797
O O13 0.586710 0.386549 0.671009
O O14 0.385976 0.328663 0.869853
O O15 0.811634 0.396280 0.901652
O O16 0.706471 0.681846 0.776083
O O17 0.000000 0.825661 0.500000
O O18 0.985053 0.000000 0.363371
#
# Coordination Sequence:
#
# PCOD9152277 Si02
#       8
#     4   4   2   4   2   4   4   4
#     4  10  21  37  56  83 122 162 199 244 302 362
#     4  10  21  37  56  83 122 162 199 244 302 362
#     4   9  20  37  57  88 126 159 191 240 303 356
#     4  11  23  41  64  87 118 157 203 251 299 358
#     4   9  20  37  57  88 126 159 191 240 303 356
#     4  11  22  38  64  91 120 157 203 253 298 355
#     4  11  22  38  64  91 120 157 203 253 298 355
#     4   9  17  31  53  80 111 154 205 247 287 344
#
# _framework density 19.672581000000001
#
# number of rings (size 3 to 8) (size 9 to 14) (size 15 to 20)
#    0.000    1.857    1.429    2.571    2.000    4.000 
#    0.000    0.714    0.000    7.714    0.000    0.000 
#    0.000    0.000    0.000    0.000    0.000    0.000 
#
# Total GULP energy -156090.641749 kJ/mol
# GULP energy per Si atom -5574.665777 kJ/mol
# Density = 1.962781 g / cm^3
# Si number density = 19.672581 Si / 1000 Ang^3
#
#
#
# Elastic Constant Matrix: (Units=GPa)
#
#
# Indices 1 2 3 4 5 6 
#
# 1 65.9859 4.0756 19.5097 0.0000 -5.9343 0.0000
# 2 4.0756 57.8958 38.1192 0.0000 -1.4288 0.0000
# 3 19.5097 38.1192 66.4807 0.0000 -8.8320 0.0000
# 4 0.0000 0.0000 0.0000 11.8368 0.0000 4.0202
# 5 -5.9343 -1.4288 -8.8320 0.0000 31.6736 0.0000
# 6 0.0000 0.0000 0.0000 4.0202 0.0000 21.3865
#
#
#
# Elastic Compliance Matrix: (Units=1/GPa)
#
#
# Indices 1 2 3 4 5 6 
#
# 1 0.017057 0.003216 -0.006652 0.000000 0.001486 0.000000
# 2 0.003216 0.028692 -0.017803 0.000000 -0.003067 0.000000
# 3 -0.006652 -0.017803 0.027966 0.000000 0.005749 0.000000
# 4 0.000000 0.000000 0.000000 0.090244 0.000000 -0.016964
# 5 0.001486 -0.003067 0.005749 0.000000 0.033315 0.000000
# 6 0.000000 0.000000 0.000000 -0.016964 0.000000 0.049947
#
#
# Mechanical properties :
#
#
# Convention : Reuss Voigt Hill
#
# Bulk Modulus (GPa) = 32.01432 34.86351 33.43892
# Shear Modulus (GPa) = 16.66053 21.55656 19.10854
#
# Velocity S-wave (km/s) = 2.91330 3.31383 3.12000
# Velocity P-wave (km/s) = 5.25598 5.69230 5.47848
#
# Compressibility (1/GPa) = 0.03123602
#
# Stress axis : x y z
#
# Youngs Moduli (GPa) = 58.62864 34.85311 35.75817
#
# Poissons Ratio (x) = -0.11207 0.23786
# Poissons Ratio (y) = -0.18853 0.63659
# Poissons Ratio (z) = 0.38999 0.62048
#
# Static dielectric constant tensor:
#      x y z
#    x 1.704990 0.000000 -0.027010 
#    y 0.000000 1.717030 0.000000 
#    z -0.027010 0.000000 1.711600 
# 
# From -- ./inp_files/28515.got.cif
#   From: 2010.05.17/outbox.cif.g08.bks.cpg/sg10_15_cif.got.tgz:28515.got - 2010.06.03 11:33:40.
