data_PCOD9152518
_publ_section_title
;
Structure prediction by ZEFSAII (Michael W. Deem and Ramdas Pophale) SiO2 
 PCOD9152518
Probable space group: P 2/M
;
_chemical_formula_sum "Si O2"
_cell_formula_units_Z 28
_cell_length_a 5.605426
_cell_length_b 12.706589
_cell_length_c 18.558958
_cell_angle_alpha 90.000000
_cell_angle_beta 110.055445
_cell_angle_gamma 90.000000
_cell_volume 1241.720403
_symmetry_space_group_name_H-M "P 2/M"
_symmetry_group_IT_number 10
_symmetry_cell_setting 'monoclinic'
loop_
_space_group_symop_operation_xyz
x,y,z
-x,y,-z
-x,-y,-z
x,-y,z
loop_
_atom_site_type_symbol
_atom_site_label
_atom_site_fract_x
_atom_site_fract_y
_atom_site_fract_z
Si Si1 0.314866 0.000000 0.706497
Si Si2 0.244241 0.617868 0.933669
Si Si3 0.913169 0.309854 0.682023
Si Si4 0.898493 0.820697 0.416492
Si Si5 0.413085 0.386388 0.574255
Si Si6 0.135822 0.228970 0.164429
Si Si7 0.083845 0.000000 0.197042
Si Si8 0.583866 0.614112 0.213572
O O1 0.252211 0.898915 0.650741
O O2 0.618310 0.000000 0.748599
O O3 0.128603 0.000000 0.759230
O O4 0.178842 0.500000 0.953058
O O5 0.309889 0.607978 0.856224
O O6 0.016639 0.700377 0.908796
O O7 0.500000 0.652671 0.000000
O O8 0.664000 0.379619 0.650097
O O9 0.936457 0.249553 0.759599
O O10 0.890161 0.227495 0.614639
O O11 0.178013 0.372890 0.708247
O O12 0.745715 0.717878 0.426641
O O13 0.000000 0.872130 0.500000
O O14 0.500000 0.384506 0.500000
O O15 0.283580 0.500000 0.571849
O O16 0.072880 0.106880 0.149183
O O17 0.415309 0.280670 0.195061
O O18 0.451469 0.500000 0.212488
#
# Coordination Sequence:
#
# PCOD9152518 Si02
#       8
#     2   4   4   4   4   4   2   4
#     4  12  27  48  74 100 128 178 232 309 359 412
#     4   9  20  40  68 105 145 178 215 269 335 404
#     4  11  21  39  60  89 128 166 225 280 340 413
#     4  12  25  43  64  92 123 169 227 293 361 423
#     4  11  24  40  60  88 127 173 218 276 352 428
#     4  11  23  40  66  96 131 179 225 280 332 410
#     4  12  26  46  74  99 137 179 238 289 356 404
#     4  10  21  37  64  97 130 174 222 272 332 404
#
# _framework density 22.549358999999999
#
# number of rings (size 3 to 8) (size 9 to 14) (size 15 to 20)
#    0.000    1.143    2.857    3.643    2.000    4.857 
#    0.000    3.571    0.000    0.857    0.000    0.000 
#    0.000    0.000    0.000    0.000    0.000    0.000 
#
# Total GULP energy -156286.955199 kJ/mol
# GULP energy per Si atom -5581.676971 kJ/mol
# Density = 2.249804 g / cm^3
# Si number density = 22.549359 Si / 1000 Ang^3
#
#
#
# Elastic Constant Matrix: (Units=GPa)
#
#
# Indices 1 2 3 4 5 6 
#
# 1 67.3000 17.6510 10.2325 0.0000 10.2346 0.0000
# 2 17.6510 111.6811 -8.6398 0.0000 12.7987 0.0000
# 3 10.2325 -8.6398 64.5602 0.0000 23.6833 0.0000
# 4 0.0000 0.0000 0.0000 2.1189 0.0000 -4.9565
# 5 10.2346 12.7987 23.6833 0.0000 39.9125 0.0000
# 6 0.0000 0.0000 0.0000 -4.9565 0.0000 15.8230
#
#
#
# Elastic Compliance Matrix: (Units=1/GPa)
#
#
# Indices 1 2 3 4 5 6 
#
# 1 0.016149 -0.002478 -0.002126 0.000000 -0.002085 0.000000
# 2 -0.002478 0.010150 0.003466 0.000000 -0.004676 0.000000
# 3 -0.002126 0.003466 0.021089 0.000000 -0.013080 0.000000
# 4 0.000000 0.000000 0.000000 1.765853 0.000000 0.553144
# 5 -0.002085 -0.004676 -0.013080 0.000000 0.034850 0.000000
# 6 0.000000 0.000000 0.000000 0.553144 0.000000 0.236469
#
#
# Mechanical properties :
#
#
# Convention : Reuss Voigt Hill
#
# Bulk Modulus (GPa) = 22.16718 31.33652 26.75185
# Shear Modulus (GPa) = 2.37883 26.52403 14.45143
#
# Velocity S-wave (km/s) = 1.02822 3.43339 2.53431
# Velocity P-wave (km/s) = 3.35582 5.44469 4.52251
#
# Compressibility (1/GPa) = 0.04511174
#
# Stress axis : x y z
#
# Youngs Moduli (GPa) = 61.92304 98.52436 47.41893
#
# Poissons Ratio (x) = 0.24414 0.10083
# Poissons Ratio (y) = 0.15344 -0.16438
# Poissons Ratio (z) = 0.13167 -0.34153
#
# Static dielectric constant tensor:
#      x y z
#    x 1.904580 0.000000 -0.012260 
#    y 0.000000 1.908750 0.000000 
#    z -0.012260 0.000000 1.825630 
# 
# From -- ./inp_files/81231.got.cif
#   From: 2010.05.17/outbox.cif.g08.bks.cpg/sg10_41_cif.got.tgz:81231.got - 2010.06.03 11:33:40.
