data_PCOD9152339
_publ_section_title
;
Structure prediction by ZEFSAII (Michael W. Deem and Ramdas Pophale) SiO2 
 PCOD9152339
Probable space group: P 2/M
;
_chemical_formula_sum "Si O2"
_cell_formula_units_Z 28
_cell_length_a 9.145348
_cell_length_b 12.572161
_cell_length_c 14.941693
_cell_angle_alpha 90.000000
_cell_angle_beta 67.205036
_cell_angle_gamma 90.000000
_cell_volume 1583.771337
_symmetry_space_group_name_H-M "P 2/M"
_symmetry_group_IT_number 10
_symmetry_cell_setting 'monoclinic'
loop_
_space_group_symop_operation_xyz
x,y,z
-x,y,-z
-x,-y,-z
x,-y,z
loop_
_atom_site_type_symbol
_atom_site_label
_atom_site_fract_x
_atom_site_fract_y
_atom_site_fract_z
Si Si1 0.814158 0.500000 0.565464
Si Si2 0.667885 0.500000 0.412687
Si Si3 0.284493 0.288088 0.709249
Si Si4 0.181194 0.875297 0.578876
Si Si5 0.624559 0.681635 0.719859
Si Si6 0.804825 0.123463 0.630427
Si Si7 0.000728 0.372388 0.107254
Si Si8 0.348976 0.623104 0.085332
O O1 0.771387 0.500000 0.473666
O O2 0.733051 0.602252 0.633436
O O3 0.000000 0.500000 0.500000
O O4 0.500000 0.500000 0.500000
O O5 0.701138 0.396887 0.348336
O O6 0.248052 0.196738 0.643640
O O7 0.454268 0.287006 0.718962
O O8 0.139360 0.305566 0.812645
O O9 0.235757 0.848232 0.464172
O O10 0.990798 0.866194 0.610483
O O11 0.217851 0.000000 0.586266
O O12 0.714402 0.792440 0.711022
O O13 0.613295 0.627432 0.818869
O O14 0.762973 0.000000 0.652209
O O15 0.978459 0.500000 0.132027
O O16 0.172483 0.336722 0.104571
O O17 0.000000 0.360897 0.000000
O O18 0.340448 0.500000 0.056873
O O19 0.500000 0.674038 0.000000
#
# Coordination Sequence:
#
# PCOD9152339 Si02
#       8
#     2   2   4   4   4   4   4   4
#     4  12  28  36  53  80 119 156 193 230 279 340
#     4  12  24  40  49  80 123 156 187 228 283 332
#     4  12  23  36  58  82 118 153 189 232 285 343
#     4   9  20  38  59  82 111 150 196 239 282 333
#     4  12  23  37  56  85 115 153 191 233 283 339
#     4   9  20  38  58  81 111 150 196 241 281 331
#     4  10  21  37  58  83 112 150 189 234 285 339
#     4  10  21  37  58  82 113 148 192 236 280 337
#
# _framework density 17.679320000000001
#
# number of rings (size 3 to 8) (size 9 to 14) (size 15 to 20)
#    0.000    1.429    2.857    3.429    6.000    1.714 
#    0.000    1.429    0.000    0.857    0.000    0.000 
#    0.000    0.000    0.000    0.000    0.000    0.000 
#
# Total GULP energy -155966.135467 kJ/mol
# GULP energy per Si atom -5570.219124 kJ/mol
# Density = 1.763908 g / cm^3
# Si number density = 17.679320 Si / 1000 Ang^3
#
#
#
# Elastic Constant Matrix: (Units=GPa)
#
#
# Indices 1 2 3 4 5 6 
#
# 1 95.9425 21.3826 6.0878 0.0000 -6.3563 0.0000
# 2 21.3826 61.8025 16.8874 0.0000 -4.3719 0.0000
# 3 6.0878 16.8874 31.0948 0.0000 -12.8867 0.0000
# 4 0.0000 0.0000 0.0000 13.7591 0.0000 13.9468
# 5 -6.3563 -4.3719 -12.8867 0.0000 32.0843 0.0000
# 6 0.0000 0.0000 0.0000 13.9468 0.0000 17.6073
#
#
#
# Elastic Compliance Matrix: (Units=1/GPa)
#
#
# Indices 1 2 3 4 5 6 
#
# 1 0.011403 -0.004018 0.000790 0.000000 0.002029 0.000000
# 2 -0.004018 0.020509 -0.011425 0.000000 -0.002590 0.000000
# 3 0.000790 -0.011425 0.045144 0.000000 0.016732 0.000000
# 4 0.000000 0.000000 0.000000 0.368755 0.000000 -0.292091
# 5 0.002029 -0.002590 0.016732 0.000000 0.037937 0.000000
# 6 0.000000 0.000000 0.000000 -0.292091 0.000000 0.288160
#
#
# Mechanical properties :
#
#
# Convention : Reuss Voigt Hill
#
# Bulk Modulus (GPa) = 20.94195 30.83949 25.89072
# Shear Modulus (GPa) = 6.11897 22.32228 14.22063
#
# Velocity S-wave (km/s) = 1.86242 3.55719 2.83921
# Velocity P-wave (km/s) = 4.06152 5.86116 5.04228
#
# Compressibility (1/GPa) = 0.04775104
#
# Stress axis : x y z
#
# Youngs Moduli (GPa) = 87.69957 48.75842 22.15120
#
# Poissons Ratio (x) = 0.19589 -0.01751
# Poissons Ratio (y) = 0.35234 0.25309
# Poissons Ratio (z) = -0.06931 0.55708
#
# Static dielectric constant tensor:
#      x y z
#    x 1.579210 0.000000 0.000980 
#    y 0.000000 1.589270 0.000000 
#    z 0.000980 0.000000 1.588900 
# 
# From -- ./inp_files/61159.got.cif
#   From: 2010.05.17/outbox.cif.g08.bks.cpg/sg10_31_cif.got.tgz:61159.got - 2010.06.03 11:33:40.
