data_PCOD9152870
_publ_section_title
;
Structure prediction by ZEFSAII (Michael W. Deem and Ramdas Pophale) SiO2 
 PCOD9152870
Probable space group: P 2/M
;
_chemical_formula_sum "Si O2"
_cell_formula_units_Z 26
_cell_length_a 24.411103
_cell_length_b 7.508053
_cell_length_c 9.858410
_cell_angle_alpha 90.000000
_cell_angle_beta 142.282758
_cell_angle_gamma 90.000000
_cell_volume 1105.366548
_symmetry_space_group_name_H-M "P 2/M"
_symmetry_group_IT_number 10
_symmetry_cell_setting 'monoclinic'
loop_
_space_group_symop_operation_xyz
x,y,z
-x,y,-z
-x,-y,-z
x,-y,z
loop_
_atom_site_type_symbol
_atom_site_label
_atom_site_fract_x
_atom_site_fract_y
_atom_site_fract_z
Si Si1 0.022294 0.703545 0.688339
Si Si2 0.137493 0.792609 0.436155
Si Si3 0.154595 0.715639 0.171697
Si Si4 0.659163 0.218420 0.116651
Si Si5 0.500000 0.752685 0.000000
Si Si6 0.354628 0.709289 0.513748
Si Si7 0.602552 0.214478 0.704740
O O1 0.051484 0.500000 0.717126
O O2 0.000000 0.788031 0.500000
O O3 0.933055 0.701444 0.604002
O O4 0.099483 0.783305 0.934476
O O5 0.111399 0.771587 0.228427
O O6 0.239837 0.728607 0.649204
O O7 0.137586 0.000000 0.473743
O O8 0.154462 0.500000 0.167369
O O9 0.257807 0.773409 0.372483
O O10 0.649894 0.000000 0.113558
O O11 0.584167 0.302378 0.067630
O O12 0.643444 0.266858 0.928961
O O13 0.564692 0.810702 0.253105
O O14 0.368406 0.500000 0.574285
O O15 0.354340 0.723512 0.350777
O O16 0.500000 0.274927 0.500000
O O17 0.604129 0.000000 0.704631
#
# Coordination Sequence:
#
# PCOD9152870 Si02
#       7
#     4   4   4   4   2   4   4
#     4  10  23  43  66  89 119 161 205 245 299 367
#     4  11  23  40  63  94 124 154 200 254 305 353
#     4  10  22  42  63  87 121 159 201 245 297 363
#     4  10  22  38  60  90 122 160 204 247 297 359
#     4  12  20  40  62  86 125 166 199 246 293 362
#     4  11  24  39  59  91 122 155 200 252 300 348
#     4  10  21  39  59  82 116 162 205 244 296 361
#
# _framework density 23.521609000000002
#
# number of rings (size 3 to 8) (size 9 to 14) (size 15 to 20)
#    0.000    1.538    3.077    1.385    2.154    4.308 
#    0.000    0.769    0.000    0.000    0.000    0.000 
#    0.000    0.000    0.000    0.000    0.000    0.000 
#
# Total GULP energy -145111.107694 kJ/mol
# GULP energy per Si atom -5581.196450 kJ/mol
# Density = 2.346807 g / cm^3
# Si number density = 23.521609 Si / 1000 Ang^3
#
#
#
# Elastic Constant Matrix: (Units=GPa)
#
#
# Indices 1 2 3 4 5 6 
#
# 1 80.5688 -5.6599 22.1646 0.0000 -10.5509 0.0000
# 2 -5.6599 79.4240 7.9058 0.0000 2.2819 0.0000
# 3 22.1646 7.9058 155.0950 0.0000 -8.6309 0.0000
# 4 0.0000 0.0000 0.0000 -16.4012 0.0000 -32.7056
# 5 -10.5509 2.2819 -8.6309 0.0000 55.4936 0.0000
# 6 0.0000 0.0000 0.0000 -32.7056 0.0000 -2.8827
#
#
#
# Elastic Compliance Matrix: (Units=1/GPa)
#
#
# Indices 1 2 3 4 5 6 
#
# 1 0.013277 0.001065 -0.001830 0.000000 0.002196 0.000000
# 2 0.001065 0.012762 -0.000828 0.000000 -0.000451 0.000000
# 3 -0.001830 -0.000828 0.006793 0.000000 0.000743 0.000000
# 4 0.000000 0.000000 0.000000 0.002820 0.000000 -0.031990
# 5 0.002196 -0.000451 0.000743 0.000000 0.018572 0.000000
# 6 0.000000 0.000000 0.000000 -0.031990 0.000000 0.016042
#
#
# Mechanical properties :
#
#
# Convention : Reuss Voigt Hill
#
# Bulk Modulus (GPa) = 33.72951 40.43429 37.08190
# Shear Modulus (GPa) = 60.00055 26.62043 43.31049
#
# Velocity S-wave (km/s) = 5.05609 3.36779 4.29570
# Velocity P-wave (km/s) = 6.96106 5.68773 6.35636
#
# Compressibility (1/GPa) = 0.02964763
#
# Stress axis : x y z
#
# Youngs Moduli (GPa) = 75.31540 78.35806 147.21795
#
# Poissons Ratio (x) = -0.08347 0.26935
# Poissons Ratio (y) = -0.08023 0.12187
# Poissons Ratio (z) = 0.13779 0.06487
#
# Static dielectric constant tensor:
#      x y z
#    x 1.857650 0.000000 -0.024760 
#    y 0.000000 1.977970 0.000000 
#    z -0.024760 0.000000 1.876600 
# 
# From -- ./inp_files/34281.got.cif
#   From: 2010.05.17/outbox.cif.g08.bks.cpg/sg10_18_cif.got.tgz:34281.got - 2010.06.03 11:33:40.
