data_PCOD9152204
_publ_section_title
;
Structure prediction by ZEFSAII (Michael W. Deem and Ramdas Pophale) SiO2 
 PCOD9152204
Probable space group: P 2/M
;
_chemical_formula_sum "Si O2"
_cell_formula_units_Z 20
_cell_length_a 14.131701
_cell_length_b 7.860761
_cell_length_c 8.186715
_cell_angle_alpha 90.000000
_cell_angle_beta 81.067679
_cell_angle_gamma 90.000000
_cell_volume 898.399644
_symmetry_space_group_name_H-M "P 2/M"
_symmetry_group_IT_number 10
_symmetry_cell_setting 'monoclinic'
loop_
_space_group_symop_operation_xyz
x,y,z
-x,y,-z
-x,-y,-z
x,-y,z
loop_
_atom_site_type_symbol
_atom_site_label
_atom_site_fract_x
_atom_site_fract_y
_atom_site_fract_z
Si Si1 0.774499 0.811001 0.614719
Si Si2 0.333921 0.306364 0.658042
Si Si3 0.950574 0.704955 0.760882
Si Si4 0.351627 0.000000 0.131045
Si Si5 0.861598 0.293395 0.131289
Si Si6 0.447654 0.000000 0.749659
O O1 0.715915 0.696178 0.506428
O O2 0.881734 0.761729 0.634425
O O3 0.774816 0.000000 0.539343
O O4 0.713661 0.839347 0.798026
O O5 0.363041 0.500000 0.689496
O O6 0.245773 0.247206 0.797054
O O7 0.416052 0.168096 0.660596
O O8 0.952112 0.500000 0.754384
O O9 0.059964 0.763601 0.755428
O O10 0.899420 0.759176 0.944176
O O11 0.441597 0.000000 0.230657
O O12 0.391653 0.000000 0.938955
O O13 0.863638 0.500000 0.131995
#
# Coordination Sequence:
#
# PCOD9152204 Si02
#       6
#     4   4   4   2   4   2
#     4  10  21  37  53  84 117 155 185 232 291 343
#     4  11  22  38  61  89 121 155 193 235 288 351
#     4   9  16  33  56  80 115 153 198 241 281 334
#     4   9  23  41  66  81 120 147 185 252 298 335
#     4   8  17  32  54  83 114 154 196 242 284 327
#     4  11  21  45  66  87 110 151 191 246 298 341
#
# _framework density 22.261806
#
# number of rings (size 3 to 8) (size 9 to 14) (size 15 to 20)
#    0.600    1.800    1.000    3.000    0.000    2.400 
#    1.800   11.000    0.000    0.000    0.000    0.000 
#    0.000    0.000    0.000    0.000    0.000    0.000 
#
# Total GULP energy -111599.063323 kJ/mol
# GULP energy per Si atom -5579.953166 kJ/mol
# Density = 2.221114 g / cm^3
# Si number density = 22.261806 Si / 1000 Ang^3
#
#
#
# Elastic Constant Matrix: (Units=GPa)
#
#
# Indices 1 2 3 4 5 6 
#
# 1 94.5605 39.2217 14.1006 0.0000 34.2986 0.0000
# 2 39.2217 78.1814 10.1245 0.0000 17.5619 0.0000
# 3 14.1006 10.1245 71.5801 0.0000 14.9581 0.0000
# 4 0.0000 0.0000 0.0000 27.2384 0.0000 12.2980
# 5 34.2986 17.5619 14.9581 0.0000 42.6093 0.0000
# 6 0.0000 0.0000 0.0000 12.2980 0.0000 26.1609
#
#
#
# Elastic Compliance Matrix: (Units=1/GPa)
#
#
# Indices 1 2 3 4 5 6 
#
# 1 0.017219 -0.006079 -0.000172 0.000000 -0.011295 0.000000
# 2 -0.006079 0.016289 -0.000784 0.000000 -0.001545 0.000000
# 3 -0.000172 -0.000784 0.015128 0.000000 -0.004850 0.000000
# 4 0.000000 0.000000 0.000000 0.046604 0.000000 -0.021908
# 5 -0.011295 -0.001545 -0.004850 0.000000 0.034900 0.000000
# 6 0.000000 0.000000 0.000000 -0.021908 0.000000 0.048524
#
#
# Mechanical properties :
#
#
# Convention : Reuss Voigt Hill
#
# Bulk Modulus (GPa) = 28.92867 41.24616 35.08741
# Shear Modulus (GPa) = 24.47899 31.26006 27.86952
#
# Velocity S-wave (km/s) = 3.31961 3.75133 3.54206
# Velocity P-wave (km/s) = 5.26461 6.10994 5.70296
#
# Compressibility (1/GPa) = 0.03456778
#
# Stress axis : x y z
#
# Youngs Moduli (GPa) = 58.07506 61.39096 66.10052
#
# Poissons Ratio (x) = 0.37320 0.01136
# Poissons Ratio (y) = 0.35304 0.05179
# Poissons Ratio (z) = 0.00998 0.04810
#
# Static dielectric constant tensor:
#      x y z
#    x 1.797450 0.000000 -0.027010 
#    y 0.000000 1.801240 0.000000 
#    z -0.027010 0.000000 1.871540 
# 
# From -- ./inp_files/26952.got.cif
#   From: 2010.05.17/outbox.cif.g08.bks.cpg/sg10_14_cif.got.tgz:26952.got - 2010.06.03 11:33:40.
