data_PCOD9152537
_publ_section_title
;
Structure prediction by ZEFSAII (Michael W. Deem and Ramdas Pophale) SiO2 
 PCOD9152537
Probable space group: P 2/M
;
_chemical_formula_sum "Si O2"
_cell_formula_units_Z 26
_cell_length_a 21.231201
_cell_length_b 12.239280
_cell_length_c 10.149189
_cell_angle_alpha 90.000000
_cell_angle_beta 149.720293
_cell_angle_gamma 90.000000
_cell_volume 1329.790991
_symmetry_space_group_name_H-M "P 2/M"
_symmetry_group_IT_number 10
_symmetry_cell_setting 'monoclinic'
loop_
_space_group_symop_operation_xyz
x,y,z
-x,y,-z
-x,-y,-z
x,-y,z
loop_
_atom_site_type_symbol
_atom_site_label
_atom_site_fract_x
_atom_site_fract_y
_atom_site_fract_z
Si Si1 0.458316 0.121820 0.272575
Si Si2 0.860397 0.763253 0.689852
Si Si3 0.821629 0.369305 0.069197
Si Si4 0.901921 0.000000 0.657199
Si Si5 0.106917 0.369086 0.510282
Si Si6 0.821018 0.000000 0.927872
Si Si7 0.313347 0.228306 0.383192
Si Si8 0.783574 0.000000 0.160733
O O1 0.500000 0.133023 0.500000
O O2 0.538044 0.209722 0.337689
O O3 0.499532 0.000000 0.301946
O O4 0.309901 0.105086 0.001222
O O5 0.852331 0.890457 0.634988
O O6 0.845716 0.693201 0.531439
O O7 0.757967 0.735294 0.614499
O O8 0.000000 0.744438 0.000000
O O9 0.809338 0.500000 0.034103
O O10 0.822382 0.343410 0.225762
O O11 0.960744 0.339028 0.268726
O O12 0.721784 0.307826 0.800077
O O13 0.865386 0.000000 0.437545
O O14 0.051894 0.000000 0.925464
O O15 0.111430 0.500000 0.500604
O O16 0.746309 0.110270 0.760993
O O17 0.845756 0.000000 0.130162
#
# Coordination Sequence:
#
# PCOD9152537 Si02
#       8
#     4   4   4   2   4   2   4   2
#     4   9  17  36  57  78 104 146 199 238 270 310
#     4  12  23  35  49  84 122 163 177 223 288 345
#     4   9  19  34  56  83 112 149 191 240 281 330
#     4  12  25  34  51  83 133 146 182 219 287 363
#     4   9  19  37  54  77 118 157 191 227 280 342
#     4  12  19  34  56  88 112 153 174 233 285 329
#     4  12  20  34  60  81 118 150 195 226 280 338
#     4  10  21  38  55  81 107 153 202 231 276 328
#
# _framework density 19.551943999999999
#
# number of rings (size 3 to 8) (size 9 to 14) (size 15 to 20)
#    0.462    1.077    5.385    1.846    2.154    0.923 
#    0.000    1.538    0.000    0.462    0.000    1.077 
#    0.000    4.923    0.000    0.000    0.000    0.000 
#
# Total GULP energy -145118.462379 kJ/mol
# GULP energy per Si atom -5581.479322 kJ/mol
# Density = 1.950744 g / cm^3
# Si number density = 19.551944 Si / 1000 Ang^3
#
#
#
# Elastic Constant Matrix: (Units=GPa)
#
#
# Indices 1 2 3 4 5 6 
#
# 1 84.4587 27.3279 27.2314 0.0000 -21.7989 0.0000
# 2 27.3279 49.9389 22.0465 0.0000 -9.2186 0.0000
# 3 27.2314 22.0465 33.0085 0.0000 -16.9166 0.0000
# 4 0.0000 0.0000 0.0000 15.8168 0.0000 -4.1709
# 5 -21.7989 -9.2186 -16.9166 0.0000 31.0951 0.0000
# 6 0.0000 0.0000 0.0000 -4.1709 0.0000 21.3787
#
#
#
# Elastic Compliance Matrix: (Units=1/GPa)
#
#
# Indices 1 2 3 4 5 6 
#
# 1 0.017708 -0.004989 -0.007865 0.000000 0.006656 0.000000
# 2 -0.004989 0.029960 -0.018213 0.000000 -0.004524 0.000000
# 3 -0.007865 -0.018213 0.060116 0.000000 0.021791 0.000000
# 4 0.000000 0.000000 0.000000 0.066653 0.000000 0.013004
# 5 0.006656 -0.004524 0.021791 0.000000 0.047339 0.000000
# 6 0.000000 0.000000 0.000000 0.013004 0.000000 0.049313
#
#
# Mechanical properties :
#
#
# Convention : Reuss Voigt Hill
#
# Bulk Modulus (GPa) = 21.90597 35.62418 28.76507
# Shear Modulus (GPa) = 14.34960 19.71149 17.03055
#
# Velocity S-wave (km/s) = 2.71204 3.17860 2.95454
# Velocity P-wave (km/s) = 4.58641 5.63304 5.13645
#
# Compressibility (1/GPa) = 0.04564966
#
# Stress axis : x y z
#
# Youngs Moduli (GPa) = 56.47013 33.37778 16.63441
#
# Poissons Ratio (x) = 0.16654 0.13084
# Poissons Ratio (y) = 0.28176 0.30296
# Poissons Ratio (z) = 0.44417 0.60790
#
# Static dielectric constant tensor:
#      x y z
#    x 1.697910 0.000000 0.013170 
#    y 0.000000 1.681210 0.000000 
#    z 0.013170 0.000000 1.690520 
# 
# From -- ./inp_files/34931.got.cif
#   From: 2010.05.17/outbox.cif.g08.bks.cpg/sg10_18_cif.got.tgz:34931.got - 2010.06.03 11:33:40.
