data_PCOD9152470
_publ_section_title
;
Structure prediction by ZEFSAII (Michael W. Deem and Ramdas Pophale) SiO2 
 PCOD9152470
Probable space group: P 2/M
;
_chemical_formula_sum "Si O2"
_cell_formula_units_Z 24
_cell_length_a 16.658158
_cell_length_b 10.491147
_cell_length_c 23.032559
_cell_angle_alpha 90.000000
_cell_angle_beta 18.073602
_cell_angle_gamma 90.000000
_cell_volume 1248.785314
_symmetry_space_group_name_H-M "P 2/M"
_symmetry_group_IT_number 10
_symmetry_cell_setting 'monoclinic'
loop_
_space_group_symop_operation_xyz
x,y,z
-x,y,-z
-x,-y,-z
x,-y,z
loop_
_atom_site_type_symbol
_atom_site_label
_atom_site_fract_x
_atom_site_fract_y
_atom_site_fract_z
Si Si1 0.858940 0.357295 0.739693
Si Si2 0.561612 0.358689 0.697499
Si Si3 0.784550 0.148697 0.886923
Si Si4 0.843884 0.856491 0.047709
Si Si5 0.717825 0.748587 0.712737
Si Si6 0.214455 0.151380 0.683170
O O1 0.787292 0.500000 0.808702
O O2 0.767911 0.244614 0.844330
O O3 0.765592 0.333293 0.737990
O O4 0.169247 0.351688 0.521808
O O5 0.449577 0.500000 0.767762
O O6 0.374917 0.248587 0.804568
O O7 0.627481 0.333681 0.719811
O O8 0.032015 0.193210 0.755292
O O9 0.816383 0.000000 0.848160
O O10 0.521845 0.160443 0.105689
O O11 0.735484 0.000000 0.115705
O O12 0.000000 0.851030 0.000000
O O13 0.042406 0.834396 0.858802
O O14 0.000000 0.805057 0.500000
O O15 0.500000 0.205973 0.500000
O O16 0.249835 0.000000 0.648136
#
# Coordination Sequence:
#
# PCOD9152470 Si02
#       6
#     4   4   4   4   4   4
#     4  10  23  40  60  87 121 161 203 242 291 358
#     4  10  21  39  62  88 119 156 201 251 298 345
#     4  11  23  39  61  91 123 156 198 245 298 354
#     4  10  21  37  61  89 117 153 199 243 297 361
#     4  10  21  39  62  87 118 159 202 245 296 355
#     4   9  19  37  59  85 118 154 192 238 291 353
#
# _framework density 19.218675999999999
#
# number of rings (size 3 to 8) (size 9 to 14) (size 15 to 20)
#    0.000    2.000    1.667    1.000    2.333    6.667 
#    0.000    3.333    0.000    1.000    0.000    0.000 
#    0.000    0.000    0.000    0.000    0.000    0.000 
#
# Total GULP energy -133868.148335 kJ/mol
# GULP energy per Si atom -5577.839514 kJ/mol
# Density = 1.917493 g / cm^3
# Si number density = 19.218676 Si / 1000 Ang^3
#
#
#
# Elastic Constant Matrix: (Units=GPa)
#
#
# Indices 1 2 3 4 5 6 
#
# 1 77.6617 36.5116 40.0343 0.0000 5.8406 0.0000
# 2 36.5116 110.3499 72.4301 0.0000 2.3920 0.0000
# 3 40.0343 72.4301 95.7676 0.0000 -20.2263 0.0000
# 4 0.0000 0.0000 0.0000 -5.8425 0.0000 17.6598
# 5 5.8406 2.3920 -20.2263 0.0000 29.5058 0.0000
# 6 0.0000 0.0000 0.0000 17.6598 0.0000 0.6894
#
#
#
# Elastic Compliance Matrix: (Units=1/GPa)
#
#
# Indices 1 2 3 4 5 6 
#
# 1 0.019050 0.001672 -0.011755 0.000000 -0.011964 0.000000
# 2 0.001672 0.023311 -0.021981 0.000000 -0.017288 0.000000
# 3 -0.011755 -0.021981 0.038409 0.000000 0.030438 0.000000
# 4 0.000000 0.000000 0.000000 -0.002182 0.000000 0.055904
# 5 -0.011964 -0.017288 0.030438 0.000000 0.058527 0.000000
# 6 0.000000 0.000000 0.000000 0.055904 0.000000 0.018495
#
#
# Mechanical properties :
#
#
# Convention : Reuss Voigt Hill
#
# Bulk Modulus (GPa) = 60.08829 64.63682 62.36256
# Shear Modulus (GPa) = 22.19424 13.85740 18.02582
#
# Velocity S-wave (km/s) = 3.40196 2.68813 3.06589
# Velocity P-wave (km/s) = 6.83846 6.58331 6.71210
#
# Compressibility (1/GPa) = 0.01664218
#
# Stress axis : x y z
#
# Youngs Moduli (GPa) = 52.49422 42.89811 26.03585
#
# Poissons Ratio (x) = -0.07171 0.30604
# Poissons Ratio (y) = -0.08776 0.57228
# Poissons Ratio (z) = 0.61705 0.94293
#
# Static dielectric constant tensor:
#      x y z
#    x 1.672930 0.000000 -0.019660 
#    y 0.000000 1.654490 0.000000 
#    z -0.019660 0.000000 1.699450 
# 
# From -- ./inp_files/80120.got.cif
#   From: 2010.05.17/outbox.cif.g08.bks.cpg/sg10_41_cif.got.tgz:80120.got - 2010.06.03 11:33:40.
