data_PCOD9152145
_publ_section_title
;
Structure prediction by ZEFSAII (Michael W. Deem and Ramdas Pophale) SiO2 
 PCOD9152145
Probable space group: P 2/M
;
_chemical_formula_sum "Si O2"
_cell_formula_units_Z 26
_cell_length_a 19.005014
_cell_length_b 8.309188
_cell_length_c 8.835035
_cell_angle_alpha 90.000000
_cell_angle_beta 120.434622
_cell_angle_gamma 90.000000
_cell_volume 1202.948310
_symmetry_space_group_name_H-M "P 2/M"
_symmetry_group_IT_number 10
_symmetry_cell_setting 'monoclinic'
loop_
_space_group_symop_operation_xyz
x,y,z
-x,y,-z
-x,-y,-z
x,-y,z
loop_
_atom_site_type_symbol
_atom_site_label
_atom_site_fract_x
_atom_site_fract_y
_atom_site_fract_z
Si Si1 0.500000 0.746750 0.000000
Si Si2 0.496948 0.000000 0.733176
Si Si3 0.952853 0.186265 0.807400
Si Si4 0.265684 0.689933 0.127748
Si Si5 0.681553 0.674865 0.158427
Si Si6 0.095294 0.687349 0.784437
Si Si7 0.645531 0.000000 0.655306
Si Si8 0.830625 0.188436 0.446954
O O1 0.587623 0.665729 0.097103
O O2 0.497504 0.850353 0.149309
O O3 0.574432 0.000000 0.706463
O O4 0.410386 0.000000 0.554324
O O5 0.869853 0.254004 0.644929
O O6 0.019471 0.202779 0.746961
O O7 0.936754 0.000000 0.831495
O O8 0.000000 0.265076 0.000000
O O9 0.279021 0.500000 0.187304
O O10 0.301234 0.836112 0.266951
O O11 0.307701 0.712043 0.007589
O O12 0.169814 0.711616 0.984492
O O13 0.720785 0.500000 0.223152
O O14 0.734125 0.792218 0.319275
O O15 0.071196 0.500000 0.762660
O O16 0.129440 0.729488 0.656440
O O17 0.850696 0.000000 0.462604
#
# Coordination Sequence:
#
# PCOD9152145 Si02
#       8
#     2   2   4   4   4   4   2   4
#     4  11  21  40  60  88 120 156 192 259 289 362
#     4  10  24  36  62  92 114 150 218 231 303 371
#     4  10  22  40  57  83 119 154 191 241 299 355
#     4   9  20  37  60  92 122 156 204 249 297 356
#     4  10  21  37  60  88 118 155 197 245 305 358
#     4  10  21  36  59  87 114 153 199 241 288 350
#     4  11  20  42  62  90 118 168 195 256 303 354
#     4  10  21  36  60  88 112 150 200 246 289 348
#
# _framework density 21.613565000000001
#
# number of rings (size 3 to 8) (size 9 to 14) (size 15 to 20)
#    0.000    2.000    1.538    2.538    7.538    3.385 
#    2.769    3.077    0.000    0.000    0.000    0.000 
#    0.000    0.000    0.000    0.000    0.000    0.000 
#
# Total GULP energy -145018.898496 kJ/mol
# GULP energy per Si atom -5577.649942 kJ/mol
# Density = 2.156437 g / cm^3
# Si number density = 21.613565 Si / 1000 Ang^3
#
#
#
# Elastic Constant Matrix: (Units=GPa)
#
#
# Indices 1 2 3 4 5 6 
#
# 1 45.0783 -8.9366 4.2611 0.0000 16.2132 0.0000
# 2 -8.9366 77.8072 51.8659 0.0000 11.9548 0.0000
# 3 4.2611 51.8659 136.2142 0.0000 16.3806 0.0000
# 4 0.0000 0.0000 0.0000 -0.3994 0.0000 15.0175
# 5 16.2132 11.9548 16.3806 0.0000 23.2326 0.0000
# 6 0.0000 0.0000 0.0000 15.0175 0.0000 -0.3795
#
#
#
# Elastic Compliance Matrix: (Units=1/GPa)
#
#
# Indices 1 2 3 4 5 6 
#
# 1 0.033915 0.008869 -0.001140 0.000000 -0.027428 0.000000
# 2 0.008869 0.020012 -0.006463 0.000000 -0.011930 0.000000
# 3 -0.001140 -0.006463 0.010208 0.000000 -0.003076 0.000000
# 4 0.000000 0.000000 0.000000 0.001684 0.000000 0.066634
# 5 -0.027428 -0.011930 -0.003076 0.000000 0.070492 0.000000
# 6 0.000000 0.000000 0.000000 0.066634 0.000000 0.001772
#
#
# Mechanical properties :
#
#
# Convention : Reuss Voigt Hill
#
# Bulk Modulus (GPa) = 14.99963 39.27561 27.13762
# Shear Modulus (GPa) = 31.69132 18.61802 25.15467
#
# Velocity S-wave (km/s) = 3.83334 2.93815 3.41521
# Velocity P-wave (km/s) = 5.15245 5.45174 5.30421
#
# Compressibility (1/GPa) = 0.06666830
#
# Stress axis : x y z
#
# Youngs Moduli (GPa) = 29.48579 49.97006 97.96485
#
# Poissons Ratio (x) = -0.44319 0.11164
# Poissons Ratio (y) = -0.26151 0.63311
# Poissons Ratio (z) = 0.03360 0.32294
#
# Static dielectric constant tensor:
#      x y z
#    x 1.784860 0.000000 0.007340 
#    y 0.000000 1.780130 0.000000 
#    z 0.007340 0.000000 1.818510 
# 
# From -- ./inp_files/34338.got.cif
#   From: 2010.05.17/outbox.cif.g08.bks.cpg/sg10_18_cif.got.tgz:34338.got - 2010.06.03 11:33:40.
