data_PCOD9152414
_publ_section_title
;
Structure prediction by ZEFSAII (Michael W. Deem and Ramdas Pophale) SiO2 
 PCOD9152414
Probable space group: P 2/M
;
_chemical_formula_sum "Si O2"
_cell_formula_units_Z 28
_cell_length_a 18.911790
_cell_length_b 13.952526
_cell_length_c 9.592718
_cell_angle_alpha 90.000000
_cell_angle_beta 34.859400
_cell_angle_gamma 90.000000
_cell_volume 1446.746541
_symmetry_space_group_name_H-M "P 2/M"
_symmetry_group_IT_number 10
_symmetry_cell_setting 'monoclinic'
loop_
_space_group_symop_operation_xyz
x,y,z
-x,y,-z
-x,-y,-z
x,-y,z
loop_
_atom_site_type_symbol
_atom_site_label
_atom_site_fract_x
_atom_site_fract_y
_atom_site_fract_z
Si Si1 0.872788 0.691345 0.116492
Si Si2 0.094048 0.102727 0.974983
Si Si3 0.985167 0.390387 0.358358
Si Si4 0.906137 0.888081 0.534907
Si Si5 0.731184 0.718438 0.772806
Si Si6 0.559360 0.611474 0.253204
Si Si7 0.651124 0.391087 0.643614
O O1 0.775261 0.627115 0.354496
O O2 0.827907 0.801475 0.174575
O O3 0.000000 0.691388 0.000000
O O4 0.906267 0.655231 0.908424
O O5 0.997573 0.115520 0.256058
O O6 0.160051 0.000000 0.883819
O O7 0.000000 0.096389 0.000000
O O8 0.975268 0.500000 0.330016
O O9 0.857717 0.337526 0.535215
O O10 0.000000 0.386574 0.500000
O O11 0.782891 0.826047 0.709792
O O12 0.000000 0.848186 0.500000
O O13 0.877747 0.000000 0.611663
O O14 0.649241 0.687101 0.771263
O O15 0.667724 0.677938 0.015683
O O16 0.500000 0.637178 0.500000
O O17 0.601785 0.500000 0.195644
O O18 0.455688 0.615850 0.299679
O O19 0.648423 0.500000 0.707109
#
# Coordination Sequence:
#
# PCOD9152414 Si02
#       7
#     4   4   4   4   4   4   4
#     4  11  20  34  54  82 116 150 188 235 292 352
#     4   9  17  31  50  77 111 145 184 226 276 339
#     4  11  23  33  49  82 118 150 182 233 291 345
#     4  10  21  37  59  89 121 152 190 237 293 354
#     4  12  21  38  61  82 113 153 198 241 286 351
#     4  10  24  42  60  84 113 155 203 246 289 341
#     4  11  23  38  58  83 117 160 201 242 288 349
#
# _framework density 19.353770000000001
#
# number of rings (size 3 to 8) (size 9 to 14) (size 15 to 20)
#    0.000    1.429    2.857    3.429    2.000    1.714 
#    0.000    0.000    0.000    3.000    0.000    0.000 
#    0.000    0.000    0.000    0.000    0.000    0.000 
#
# Total GULP energy -156184.124978 kJ/mol
# GULP energy per Si atom -5578.004463 kJ/mol
# Density = 1.930972 g / cm^3
# Si number density = 19.353770 Si / 1000 Ang^3
#
#
#
# Elastic Constant Matrix: (Units=GPa)
#
#
# Indices 1 2 3 4 5 6 
#
# 1 48.2153 12.5268 27.5170 0.0000 12.3717 0.0000
# 2 12.5268 105.7781 11.0606 0.0000 -6.0110 0.0000
# 3 27.5170 11.0606 58.9880 0.0000 21.3348 0.0000
# 4 0.0000 0.0000 0.0000 -78.2388 0.0000 30.9654
# 5 12.3717 -6.0110 21.3348 0.0000 31.4102 0.0000
# 6 0.0000 0.0000 0.0000 30.9654 0.0000 2.5473
#
#
#
# Elastic Compliance Matrix: (Units=1/GPa)
#
#
# Indices 1 2 3 4 5 6 
#
# 1 0.029049 -0.002450 -0.011644 0.000000 -0.004001 0.000000
# 2 -0.002450 0.010259 -0.002439 0.000000 0.004585 0.000000
# 3 -0.011644 -0.002439 0.028306 0.000000 -0.015106 0.000000
# 4 0.000000 0.000000 0.000000 -0.002199 0.000000 0.026737
# 5 -0.004001 0.004585 -0.015106 0.000000 0.044551 0.000000
# 6 0.000000 0.000000 0.000000 0.026737 0.000000 0.067555
#
#
# Mechanical properties :
#
#
# Convention : Reuss Voigt Hill
#
# Bulk Modulus (GPa) = 28.94598 35.02113 31.98355
# Shear Modulus (GPa) = 22.51208 1.93555 12.22382
#
# Velocity S-wave (km/s) = 3.41425 1.00113 2.51589
# Velocity P-wave (km/s) = 5.52554 4.41258 5.00012
#
# Compressibility (1/GPa) = 0.03454711
#
# Stress axis : x y z
#
# Youngs Moduli (GPa) = 34.42449 97.47065 35.32875
#
# Poissons Ratio (x) = 0.23880 0.41138
# Poissons Ratio (y) = 0.08434 0.08617
# Poissons Ratio (z) = 0.40085 0.23775
#
# Static dielectric constant tensor:
#      x y z
#    x 1.733210 0.000000 0.014310 
#    y 0.000000 1.740090 0.000000 
#    z 0.014310 0.000000 1.654300 
# 
# From -- ./inp_files/32793.got.cif
#   From: 2010.05.17/outbox.cif.g08.bks.cpg/sg10_17_cif.got.tgz:32793.got - 2010.06.03 11:33:40.
