data_PCOD9152445
_publ_section_title
;
Structure prediction by ZEFSAII (Michael W. Deem and Ramdas Pophale) SiO2 
 PCOD9152445
Probable space group: P 2/M
;
_chemical_formula_sum "Si O2"
_cell_formula_units_Z 24
_cell_length_a 5.493543
_cell_length_b 9.668538
_cell_length_c 22.698094
_cell_angle_alpha 90.000000
_cell_angle_beta 59.731158
_cell_angle_gamma 90.000000
_cell_volume 1041.239070
_symmetry_space_group_name_H-M "P 2/M"
_symmetry_group_IT_number 10
_symmetry_cell_setting 'monoclinic'
loop_
_space_group_symop_operation_xyz
x,y,z
-x,y,-z
-x,-y,-z
x,-y,z
loop_
_atom_site_type_symbol
_atom_site_label
_atom_site_fract_x
_atom_site_fract_y
_atom_site_fract_z
Si Si1 0.624158 0.154068 0.785156
Si Si2 0.159061 0.339768 0.542571
Si Si3 0.810334 0.654098 0.854855
Si Si4 0.840938 0.839767 0.957430
Si Si5 0.810335 0.845902 0.354856
Si Si6 0.624159 0.654068 0.285156
O O1 0.606939 0.234467 0.848819
O O2 0.499998 0.249999 0.750000
O O3 0.945235 0.137024 0.723584
O O4 0.500916 0.000000 0.803155
O O5 0.500000 0.323589 0.500000
O O6 0.107211 0.500000 0.566630
O O7 0.067546 0.227621 0.602234
O O8 0.000000 0.318189 0.500000
O O9 0.694861 0.500000 0.880838
O O10 0.932454 0.727621 0.897766
O O11 0.054763 0.637025 0.776416
O O12 0.892784 0.000000 0.933371
O O13 0.500000 0.823586 0.000000
O O14 0.000000 0.818187 0.000000
O O15 0.606940 0.734467 0.348820
O O16 0.694861 0.000000 0.380838
O O17 0.500918 0.500000 0.303155
#
# Coordination Sequence:
#
# PCOD9152445 Si02
#       6
#     4   4   4   4   4   4
#     4  10  21  37  60  89 121 158 199 250 310 368
#     4  10  23  42  63  90 123 165 210 254 309 370
#     4  10  22  39  59  88 121 157 204 254 308 366
#     4  10  23  42  63  90 123 165 210 254 309 370
#     4  10  22  39  59  88 121 157 204 254 308 366
#     4  10  21  37  60  89 121 158 199 250 310 368
#
# _framework density 23.049461999999998
#
# number of rings (size 3 to 8) (size 9 to 14) (size 15 to 20)
#    0.000    2.000    0.000    2.000    4.667    5.333 
#    0.000    0.000    0.000    0.000    0.000    0.000 
#    0.000    0.000    0.000    0.000    0.000    0.000 
#
# Total GULP energy -133967.442984 kJ/mol
# GULP energy per Si atom -5581.976791 kJ/mol
# Density = 2.299700 g / cm^3
# Si number density = 23.049462 Si / 1000 Ang^3
#
#
#
# Elastic Constant Matrix: (Units=GPa)
#
#
# Indices 1 2 3 4 5 6 
#
# 1 95.5308 54.8891 31.1453 0.0000 25.9476 0.0000
# 2 54.8891 235.0327 62.7337 0.0000 57.2819 0.0000
# 3 31.1453 62.7337 81.8168 0.0000 18.9426 0.0000
# 4 0.0000 0.0000 0.0000 27.3488 0.0000 7.9258
# 5 25.9476 57.2819 18.9426 0.0000 52.2014 0.0000
# 6 0.0000 0.0000 0.0000 7.9258 0.0000 20.9451
#
#
#
# Elastic Compliance Matrix: (Units=1/GPa)
#
#
# Indices 1 2 3 4 5 6 
#
# 1 0.013339 -0.001279 -0.003152 0.000000 -0.004084 0.000000
# 2 -0.001279 0.006848 -0.003462 0.000000 -0.005622 0.000000
# 3 -0.003152 -0.003462 0.016195 0.000000 -0.000511 0.000000
# 4 0.000000 0.000000 0.000000 0.041068 0.000000 -0.015541
# 5 -0.004084 -0.005622 -0.000511 0.000000 0.027541 0.000000
# 6 0.000000 0.000000 0.000000 -0.015541 0.000000 0.053625
#
#
# Mechanical properties :
#
#
# Convention : Reuss Voigt Hill
#
# Bulk Modulus (GPa) = 48.55145 78.87962 63.71553
# Shear Modulus (GPa) = 27.58355 37.67320 32.62838
#
# Velocity S-wave (km/s) = 3.46310 4.04722 3.76650
# Velocity P-wave (km/s) = 6.09102 7.49241 6.82776
#
# Compressibility (1/GPa) = 0.02059671
#
# Stress axis : x y z
#
# Youngs Moduli (GPa) = 74.96640 146.03511 61.74672
#
# Poissons Ratio (x) = 0.18673 0.19463
# Poissons Ratio (y) = 0.09586 0.21377
# Poissons Ratio (z) = 0.23629 0.50558
#
# Static dielectric constant tensor:
#      x y z
#    x 1.935510 0.000000 -0.077600 
#    y 0.000000 1.921320 0.000000 
#    z -0.077600 0.000000 1.893630 
# 
# From -- ./inp_files/87336.got.cif
#   From: 2010.05.17/outbox.cif.g08.bks.cpg/sg10_44_cif.got.tgz:87336.got - 2010.06.03 11:33:40.
