data_PCOD9152752
_publ_section_title
;
Structure prediction by ZEFSAII (Michael W. Deem and Ramdas Pophale) SiO2 
 PCOD9152752
Probable space group: P 2/M
;
_chemical_formula_sum "Si O2"
_cell_formula_units_Z 28
_cell_length_a 12.098390
_cell_length_b 8.928740
_cell_length_c 15.353542
_cell_angle_alpha 90.000000
_cell_angle_beta 53.466415
_cell_angle_gamma 90.000000
_cell_volume 1332.651442
_symmetry_space_group_name_H-M "P 2/M"
_symmetry_group_IT_number 10
_symmetry_cell_setting 'monoclinic'
loop_
_space_group_symop_operation_xyz
x,y,z
-x,y,-z
-x,-y,-z
x,-y,z
loop_
_atom_site_type_symbol
_atom_site_label
_atom_site_fract_x
_atom_site_fract_y
_atom_site_fract_z
Si Si1 0.751731 0.675801 0.444492
Si Si2 0.089170 0.676040 0.797718
Si Si3 0.752596 0.821394 0.126742
Si Si4 0.291373 0.675482 0.218945
Si Si5 0.202367 0.820943 0.092483
Si Si6 0.469082 0.679590 0.308162
Si Si7 0.016569 0.165864 0.390009
O O1 0.780100 0.500000 0.451054
O O2 0.777857 0.691313 0.328861
O O3 0.614265 0.711042 0.563191
O O4 0.870821 0.780181 0.424897
O O5 0.058594 0.500000 0.818458
O O6 0.129345 0.745663 0.870975
O O7 0.953693 0.758126 0.823728
O O8 0.608657 0.770180 0.234823
O O9 0.769054 0.000000 0.122710
O O10 0.754897 0.772415 0.024803
O O11 0.311152 0.500000 0.194878
O O12 0.302618 0.760620 0.121362
O O13 0.380413 0.717726 0.262450
O O14 0.134678 0.714330 0.317191
O O15 0.201646 0.000000 0.093962
O O16 0.495292 0.500000 0.293961
O O17 0.000000 0.154532 0.500000
O O18 0.055222 0.000000 0.337927
#
# Coordination Sequence:
#
# PCOD9152752 Si02
#       7
#     4   4   4   4   4   4   4
#     4  10  21  38  61  91 125 160 200 250 306 361
#     4  11  23  40  67  96 121 157 205 257 310 364
#     4  11  26  45  63  85 122 167 208 257 311 364
#     4  11  22  37  62  93 124 161 203 253 308 362
#     4  11  24  42  64  92 124 159 203 258 316 366
#     4  10  23  42  63  89 125 166 206 248 299 369
#     4  11  21  32  54  90 127 163 200 247 304 364
#
# _framework density 21.010746000000001
#
# number of rings (size 3 to 8) (size 9 to 14) (size 15 to 20)
#    0.000    1.286    2.857    2.571    0.000    8.000 
#    0.000    5.714    0.000    0.000    0.000    0.000 
#    0.000    0.000    0.000    0.000    0.000    0.000 
#
# Total GULP energy -156341.564494 kJ/mol
# GULP energy per Si atom -5583.627303 kJ/mol
# Density = 2.096292 g / cm^3
# Si number density = 21.010746 Si / 1000 Ang^3
#
#
#
# Elastic Constant Matrix: (Units=GPa)
#
#
# Indices 1 2 3 4 5 6 
#
# 1 28.5474 24.0781 9.7930 0.0000 1.6757 0.0000
# 2 24.0781 43.9347 28.4882 0.0000 10.1082 0.0000
# 3 9.7930 28.4882 81.5823 0.0000 12.4071 0.0000
# 4 0.0000 0.0000 0.0000 49.1441 0.0000 23.1513
# 5 1.6757 10.1082 12.4071 0.0000 26.5356 0.0000
# 6 0.0000 0.0000 0.0000 23.1513 0.0000 19.6283
#
#
#
# Elastic Compliance Matrix: (Units=1/GPa)
#
#
# Indices 1 2 3 4 5 6 
#
# 1 0.069696 -0.044028 0.005519 0.000000 0.009790 0.000000
# 2 -0.044028 0.058456 -0.013095 0.000000 -0.013364 0.000000
# 3 0.005519 -0.013095 0.016646 0.000000 -0.003143 0.000000
# 4 0.000000 0.000000 0.000000 0.045793 0.000000 -0.054012
# 5 0.009790 -0.013364 -0.003143 0.000000 0.043628 0.000000
# 6 0.000000 0.000000 0.000000 -0.054012 0.000000 0.114654
#
#
# Mechanical properties :
#
#
# Convention : Reuss Voigt Hill
#
# Bulk Modulus (GPa) = 24.04359 30.97588 27.50974
# Shear Modulus (GPa) = 10.73093 25.17527 17.95310
#
# Velocity S-wave (km/s) = 2.26240 3.46527 2.92631
# Velocity P-wave (km/s) = 4.27702 5.54848 4.95372
#
# Compressibility (1/GPa) = 0.04159112
#
# Stress axis : x y z
#
# Youngs Moduli (GPa) = 14.34798 17.10692 60.07517
#
# Poissons Ratio (x) = 0.75318 -0.33157
# Poissons Ratio (y) = 0.63171 0.78669
# Poissons Ratio (z) = -0.07919 0.22402
#
# Static dielectric constant tensor:
#      x y z
#    x 1.733960 0.000000 0.034620 
#    y 0.000000 1.710870 0.000000 
#    z 0.034620 0.000000 1.821750 
# 
# From -- ./inp_files/50049.got.cif
#   From: 2010.05.17/outbox.cif.g08.bks.cpg/sg10_26_cif.got.tgz:50049.got - 2010.06.03 11:33:40.
