data_PCOD9152283
_publ_section_title
;
Structure prediction by ZEFSAII (Michael W. Deem and Ramdas Pophale) SiO2 
 PCOD9152283
Probable space group: P 2/M
;
_chemical_formula_sum "Si O2"
_cell_formula_units_Z 26
_cell_length_a 5.365840
_cell_length_b 22.990590
_cell_length_c 12.928012
_cell_angle_alpha 90.000000
_cell_angle_beta 126.561428
_cell_angle_gamma 90.000000
_cell_volume 1281.012537
_symmetry_space_group_name_H-M "P 2/M"
_symmetry_group_IT_number 10
_symmetry_cell_setting 'monoclinic'
loop_
_space_group_symop_operation_xyz
x,y,z
-x,y,-z
-x,-y,-z
x,-y,z
loop_
_atom_site_type_symbol
_atom_site_label
_atom_site_fract_x
_atom_site_fract_y
_atom_site_fract_z
Si Si1 0.786578 0.361686 0.346574
Si Si2 0.635212 0.429843 0.920328
Si Si3 0.036562 0.063203 0.386796
Si Si4 0.500000 0.118786 0.000000
Si Si5 0.293900 0.713915 0.350193
Si Si6 0.085939 0.840366 0.246310
Si Si7 0.324830 0.063946 0.151305
O O1 0.593072 0.406741 0.227163
O O2 0.520567 0.320993 0.330123
O O3 0.000000 0.381638 0.500000
O O4 0.016594 0.325951 0.327333
O O5 0.633294 0.500000 0.915409
O O6 0.500000 0.412426 0.000000
O O7 0.000000 0.411330 0.000000
O O8 0.695512 0.059398 0.255205
O O9 0.000000 0.068169 0.500000
O O10 0.164414 0.121917 0.367964
O O11 0.184935 0.000000 0.399064
O O12 0.289430 0.078466 0.021382
O O13 0.722417 0.156828 0.126593
O O14 0.500000 0.730122 0.500000
O O15 0.183247 0.774167 0.274508
O O16 0.243621 0.880109 0.198463
O O17 0.207653 0.000000 0.153784
#
# Coordination Sequence:
#
# PCOD9152283 Si02
#       7
#     4   4   4   2   4   4   4
#     4  10  22  44  66  97 132 179 230 272 315 378
#     4  10  21  40  68 106 146 182 220 267 326 381
#     4   9  20  35  54  82 110 138 185 248 316 392
#     4  10  23  40  52  78 110 140 191 252 308 394
#     4  10  24  41  65  90 126 167 217 267 318 374
#     4  11  23  37  58  80 110 152 198 250 316 377
#     4  10  21  37  57  78 105 141 185 246 320 388
#
# _framework density 20.296443
#
# number of rings (size 3 to 8) (size 9 to 14) (size 15 to 20)
#    0.000    2.000    0.000    2.077    6.462    3.385 
#    4.154    2.308    0.000    5.538    0.000    0.000 
#    0.000    0.000    0.000    0.000    0.000    0.000 
#
# Total GULP energy -144923.253424 kJ/mol
# GULP energy per Si atom -5573.971286 kJ/mol
# Density = 2.025025 g / cm^3
# Si number density = 20.296443 Si / 1000 Ang^3
#
#
#
# Elastic Constant Matrix: (Units=GPa)
#
#
# Indices 1 2 3 4 5 6 
#
# 1 107.8021 36.2211 35.4243 0.0000 4.3919 0.0000
# 2 36.2211 64.4386 52.7798 0.0000 6.9953 0.0000
# 3 35.4243 52.7798 117.2576 0.0000 6.3043 0.0000
# 4 0.0000 0.0000 0.0000 56.0295 0.0000 7.0521
# 5 4.3919 6.9953 6.3043 0.0000 37.1011 0.0000
# 6 0.0000 0.0000 0.0000 7.0521 0.0000 19.6611
#
#
#
# Elastic Compliance Matrix: (Units=1/GPa)
#
#
# Indices 1 2 3 4 5 6 
#
# 1 0.011496 -0.005716 -0.000893 0.000000 -0.000131 0.000000
# 2 -0.005716 0.027711 -0.010599 0.000000 -0.002747 0.000000
# 3 -0.000893 -0.010599 0.013580 0.000000 -0.000203 0.000000
# 4 0.000000 0.000000 0.000000 0.018692 0.000000 -0.006704
# 5 -0.000131 -0.002747 -0.000203 0.000000 0.027521 0.000000
# 6 0.000000 0.000000 0.000000 -0.006704 0.000000 0.053267
#
#
# Mechanical properties :
#
#
# Convention : Reuss Voigt Hill
#
# Bulk Modulus (GPa) = 54.43411 59.81653 57.12532
# Shear Modulus (GPa) = 25.93298 33.56320 29.74809
#
# Velocity S-wave (km/s) = 3.57839 4.07092 3.83257
# Velocity P-wave (km/s) = 6.62955 7.18554 6.91313
#
# Compressibility (1/GPa) = 0.01837084
#
# Stress axis : x y z
#
# Youngs Moduli (GPa) = 86.98975 36.08680 73.63999
#
# Poissons Ratio (x) = 0.20627 0.06576
# Poissons Ratio (y) = 0.49724 0.78048
# Poissons Ratio (z) = 0.07768 0.38247
#
# Static dielectric constant tensor:
#      x y z
#    x 1.828170 0.000000 0.045320 
#    y 0.000000 1.684780 0.000000 
#    z 0.045320 0.000000 1.808550 
# 
# From -- ./inp_files/7668.got.cif
#   From: 2010.05.17/outbox.cif.g08.bks.cpg/sg10_4_cif.got.tgz:7668.got - 2010.06.03 11:33:40.
