data_PCOD9152842
_publ_section_title
;
Structure prediction by ZEFSAII (Michael W. Deem and Ramdas Pophale) SiO2 
 PCOD9152842
Probable space group: P 2/M
;
_chemical_formula_sum "Si O2"
_cell_formula_units_Z 24
_cell_length_a 11.923805
_cell_length_b 13.075424
_cell_length_c 9.793035
_cell_angle_alpha 90.000000
_cell_angle_beta 139.960448
_cell_angle_gamma 90.000000
_cell_volume 982.228396
_symmetry_space_group_name_H-M "P 2/M"
_symmetry_group_IT_number 10
_symmetry_cell_setting 'monoclinic'
loop_
_space_group_symop_operation_xyz
x,y,z
-x,y,-z
-x,-y,-z
x,-y,z
loop_
_atom_site_type_symbol
_atom_site_label
_atom_site_fract_x
_atom_site_fract_y
_atom_site_fract_z
Si Si1 0.710004 0.174371 0.433299
Si Si2 0.794245 0.826837 0.811032
Si Si3 0.946154 0.259908 0.310638
Si Si4 0.556734 0.612431 0.211249
Si Si5 0.795075 0.615301 0.936977
Si Si6 0.343483 0.888269 0.020109
O O1 0.704823 0.142499 0.586884
O O2 0.669163 0.294252 0.370874
O O3 0.552047 0.120769 0.208008
O O4 0.912312 0.170191 0.581374
O O5 0.709924 0.871083 0.870027
O O6 0.779192 0.703050 0.808978
O O7 0.000000 0.852618 0.000000
O O8 0.933064 0.336743 0.172452
O O9 0.000000 0.313766 0.500000
O O10 0.761003 0.202498 0.150258
O O11 0.640033 0.500000 0.300648
O O12 0.500000 0.624662 0.000000
O O13 0.383945 0.612664 0.143773
O O14 0.831824 0.500000 0.926505
O O15 0.286881 0.000000 0.922759
#
# Coordination Sequence:
#
# PCOD9152842 Si02
#       6
#     4   4   4   4   4   4
#     4  12  23  41  70  95 128 174 213 266 332 377
#     4  11  22  44  64  95 132 168 213 272 322 382
#     4  11  24  44  69  95 132 173 214 268 318 383
#     4  10  21  38  64  97 132 173 219 259 308 381
#     4  10  21  40  63  95 137 175 213 261 316 377
#     4  11  26  46  68  97 128 163 217 274 330 394
#
# _framework density 24.434235000000001
#
# number of rings (size 3 to 8) (size 9 to 14) (size 15 to 20)
#    0.000    1.167    6.667    1.500    0.000    4.667 
#    0.000    2.500    0.000    0.000    0.000    0.000 
#    0.000    0.000    0.000    0.000    0.000    0.000 
#
# Total GULP energy -134265.950019 kJ/mol
# GULP energy per Si atom -5594.414584 kJ/mol
# Density = 2.437862 g / cm^3
# Si number density = 24.434235 Si / 1000 Ang^3
#
#
#
# Elastic Constant Matrix: (Units=GPa)
#
#
# Indices 1 2 3 4 5 6 
#
# 1 78.9449 -18.7607 0.6323 0.0000 17.0802 0.0000
# 2 -18.7607 96.9451 2.6491 0.0000 11.4704 0.0000
# 3 0.6323 2.6491 84.1365 0.0000 4.5650 0.0000
# 4 0.0000 0.0000 0.0000 5.8554 0.0000 1.4193
# 5 17.0802 11.4704 4.5650 0.0000 42.5683 0.0000
# 6 0.0000 0.0000 0.0000 1.4193 0.0000 5.0280
#
#
#
# Elastic Compliance Matrix: (Units=1/GPa)
#
#
# Indices 1 2 3 4 5 6 
#
# 1 0.015090 0.003754 0.000153 0.000000 -0.007083 0.000000
# 2 0.003754 0.011591 -0.000143 0.000000 -0.004614 0.000000
# 3 0.000153 -0.000143 0.011960 0.000000 -0.001305 0.000000
# 4 0.000000 0.000000 0.000000 0.183325 0.000000 -0.051747
# 5 -0.007083 -0.004614 -0.001305 0.000000 0.027717 0.000000
# 6 0.000000 0.000000 0.000000 -0.051747 0.000000 0.213492
#
#
# Mechanical properties :
#
#
# Convention : Reuss Voigt Hill
#
# Bulk Modulus (GPa) = 21.65931 25.45200 23.55565
# Shear Modulus (GPa) = 10.61488 29.05740 19.83614
#
# Velocity S-wave (km/s) = 2.08655 3.45223 2.85233
# Velocity P-wave (km/s) = 3.83256 5.13125 4.52870
#
# Compressibility (1/GPa) = 0.04616953
#
# Stress axis : x y z
#
# Youngs Moduli (GPa) = 66.26724 86.27020 83.61471
#
# Poissons Ratio (x) = -0.32387 -0.01277
# Poissons Ratio (y) = -0.24878 0.01194
# Poissons Ratio (z) = -0.01012 0.01232
#
# Static dielectric constant tensor:
#      x y z
#    x 2.001790 0.000000 0.030510 
#    y 0.000000 1.904880 0.000000 
#    z 0.030510 0.000000 1.939350 
# 
# From -- ./inp_files/51694.got.cif
#   From: 2010.05.17/outbox.cif.g08.bks.cpg/sg10_26_cif.got.tgz:51694.got - 2010.06.03 11:33:40.
