data_PCOD9152242
_publ_section_title
;
Structure prediction by ZEFSAII (Michael W. Deem and Ramdas Pophale) SiO2 
 PCOD9152242
Probable space group: P 2/M
;
_chemical_formula_sum "Si O2"
_cell_formula_units_Z 28
_cell_length_a 9.012637
_cell_length_b 12.826718
_cell_length_c 15.407210
_cell_angle_alpha 90.000000
_cell_angle_beta 72.993442
_cell_angle_gamma 90.000000
_cell_volume 1703.227040
_symmetry_space_group_name_H-M "P 2/M"
_symmetry_group_IT_number 10
_symmetry_cell_setting 'monoclinic'
loop_
_space_group_symop_operation_xyz
x,y,z
-x,y,-z
-x,-y,-z
x,-y,z
loop_
_atom_site_type_symbol
_atom_site_label
_atom_site_fract_x
_atom_site_fract_y
_atom_site_fract_z
Si Si1 0.878738 0.000000 0.599102
Si Si2 0.818931 0.203725 0.717407
Si Si3 0.771108 0.124026 0.103370
Si Si4 0.622117 0.377175 0.403001
Si Si5 0.025118 0.622825 0.596999
Si Si6 0.463662 0.796275 0.717407
Si Si7 0.125522 0.124026 0.103370
Si Si8 0.477840 0.000000 0.400898
O O1 0.891824 0.897161 0.656285
O O2 0.000000 0.000000 0.500000
O O3 0.705250 0.000000 0.589500
O O4 0.641799 0.212411 0.716403
O O5 0.826624 0.183459 0.818555
O O6 0.915216 0.304358 0.672456
O O7 0.645179 0.183459 0.181446
O O8 0.942829 0.138646 0.114342
O O9 0.737335 0.000000 0.112587
O O10 0.783571 0.153954 0.000000
O O11 0.500000 0.351609 0.500000
O O12 0.604690 0.500000 0.385608
O O13 0.795967 0.359941 0.408067
O O14 0.587672 0.304358 0.327544
O O15 0.990297 0.500000 0.614391
O O16 0.000000 0.648392 0.500000
O O17 0.451891 0.897161 0.656285
O O18 0.150079 0.000000 0.112587
O O19 0.500000 0.000000 0.500000
#
# Coordination Sequence:
#
# PCOD9152242 Si02
#       8
#     2   4   4   4   4   4   4   2
#     4  10  22  34  45  70 105 139 170 205 251 306
#     4  11  21  34  52  77 108 140 176 214 261 314
#     4   9  18  33  53  77 105 139 178 216 258 311
#     4  10  21  37  56  78 104 137 179 222 263 309
#     4  10  21  37  56  78 104 137 179 222 263 309
#     4  11  21  34  52  77 108 140 176 214 261 314
#     4   9  18  33  53  77 105 139 178 216 258 311
#     4  10  22  34  45  70 105 139 170 205 251 306
#
# _framework density 16.439381999999998
#
# number of rings (size 3 to 8) (size 9 to 14) (size 15 to 20)
#    0.000    2.000    1.429    3.429    0.000    6.857 
#    0.000    1.429    0.000    0.857    0.000    6.000 
#    0.000    0.000    0.000    0.000    0.000    0.000 
#
# Total GULP energy -156338.702063 kJ/mol
# GULP energy per Si atom -5583.525074 kJ/mol
# Density = 1.640197 g / cm^3
# Si number density = 16.439382 Si / 1000 Ang^3
#
#
#
# Elastic Constant Matrix: (Units=GPa)
#
#
# Indices 1 2 3 4 5 6 
#
# 1 65.6009 54.9207 71.2708 0.0000 8.4679 0.0000
# 2 54.9207 68.8456 72.1993 0.0000 1.8931 0.0000
# 3 71.2708 72.1993 156.6145 0.0000 1.5048 0.0000
# 4 0.0000 0.0000 0.0000 24.4997 0.0000 0.9220
# 5 8.4679 1.8931 1.5048 0.0000 35.0431 0.0000
# 6 0.0000 0.0000 0.0000 0.9220 0.0000 16.0947
#
#
#
# Elastic Compliance Matrix: (Units=1/GPa)
#
#
# Indices 1 2 3 4 5 6 
#
# 1 0.055368 -0.033978 -0.009425 0.000000 -0.011139 0.000000
# 2 -0.033978 0.049004 -0.007185 0.000000 0.005872 0.000000
# 3 -0.009425 -0.007185 0.013967 0.000000 0.002066 0.000000
# 4 0.000000 0.000000 0.000000 0.040905 0.000000 -0.002343
# 5 -0.011139 0.005872 0.002066 0.000000 0.030822 0.000000
# 6 0.000000 0.000000 0.000000 -0.002343 0.000000 0.062266
#
#
# Mechanical properties :
#
#
# Convention : Reuss Voigt Hill
#
# Bulk Modulus (GPa) = 58.26829 76.42695 67.34762
# Shear Modulus (GPa) = 13.91866 21.30552 17.61209
#
# Velocity S-wave (km/s) = 2.91291 3.60391 3.27668
# Velocity P-wave (km/s) = 6.84359 7.99429 7.44121
#
# Compressibility (1/GPa) = 0.01716199
#
# Stress axis : x y z
#
# Youngs Moduli (GPa) = 18.06103 20.40632 71.59878
#
# Poissons Ratio (x) = 0.69337 0.67484
# Poissons Ratio (y) = 0.61368 0.51443
# Poissons Ratio (z) = 0.17023 0.14662
#
# Static dielectric constant tensor:
#      x y z
#    x 1.544720 0.000000 -0.001500 
#    y 0.000000 1.539090 0.000000 
#    z -0.001500 0.000000 1.531020 
# 
# From -- ./inp_files/61155.got.cif
#   From: 2010.05.17/outbox.cif.g08.bks.cpg/sg10_31_cif.got.tgz:61155.got - 2010.06.03 11:33:40.
