data_PCOD9152592
_publ_section_title
;
Structure prediction by ZEFSAII (Michael W. Deem and Ramdas Pophale) SiO2 
 PCOD9152592
Probable space group: P 2/M
;
_chemical_formula_sum "Si O2"
_cell_formula_units_Z 19
_cell_length_a 5.249305
_cell_length_b 27.787691
_cell_length_c 5.020762
_cell_angle_alpha 90.000000
_cell_angle_beta 87.128182
_cell_angle_gamma 90.000000
_cell_volume 731.439044
_symmetry_space_group_name_H-M "P 2/M"
_symmetry_group_IT_number 10
_symmetry_cell_setting 'monoclinic'
loop_
_space_group_symop_operation_xyz
x,y,z
-x,y,-z
-x,-y,-z
x,-y,z
loop_
_atom_site_type_symbol
_atom_site_label
_atom_site_fract_x
_atom_site_fract_y
_atom_site_fract_z
Si Si1 0.743324 0.585313 0.187955
Si Si2 0.818772 0.000000 0.264825
Si Si3 0.742062 0.792599 0.188442
Si Si4 0.742224 0.690135 0.185860
Si Si5 0.263724 0.894212 0.822017
Si Si6 0.500000 0.500000 0.500000
O O1 0.699461 0.542323 0.391829
O O2 0.500000 0.582387 0.000000
O O3 0.744305 0.638209 0.324002
O O4 0.000000 0.580051 0.000000
O O5 0.687975 0.051965 0.285280
O O6 0.000000 0.000000 0.500000
O O7 0.000000 0.000000 0.000000
O O8 0.740545 0.741297 0.338744
O O9 0.500000 0.790912 0.000000
O O10 0.746021 0.844034 0.341500
O O11 0.000000 0.793430 0.000000
O O12 0.500000 0.689682 0.000000
O O13 0.000000 0.690562 0.000000
O O14 0.500000 0.886676 0.000000
O O15 0.000000 0.896810 0.000000
#
# Coordination Sequence:
#
# PCOD9152592 Si02
#       6
#     4   2   4   4   4   1
#     4  10  22  38  56  83 115 148 196 242 294 357
#     4  10  21  38  58  86 120 162 204 256 308 372
#     4   8  13  23  45  75 102 137 183 228 287 346
#     4   8  14  27  47  74 103 138 179 230 286 340
#     4   9  17  31  51  81 113 148 194 244 296 361
#     4  12  24  38  60  84 112 162 188 244 296 352
#
# _framework density 25.976189000000002
#
# number of rings (size 3 to 8) (size 9 to 14) (size 15 to 20)
#    0.000    2.947    0.000    0.947    0.000    1.684 
#    0.000    8.421    0.000    0.000   76.632    0.000 
#    0.000    0.000    0.000    0.000    0.000    0.000 
#
# Total GULP energy -105800.216027 kJ/mol
# GULP energy per Si atom -5568.432422 kJ/mol
# Density = 2.591707 g / cm^3
# Si number density = 25.976189 Si / 1000 Ang^3
#
#
#
# Elastic Constant Matrix: (Units=GPa)
#
#
# Indices 1 2 3 4 5 6 
#
# 1 216.6294 5.4229 43.3464 0.0000 -23.5913 0.0000
# 2 5.4229 396.7750 23.7284 0.0000 -20.3964 0.0000
# 3 43.3464 23.7284 51.8437 0.0000 -17.7106 0.0000
# 4 0.0000 0.0000 0.0000 -84.2791 0.0000 29.3183
# 5 -23.5913 -20.3964 -17.7106 0.0000 65.1923 0.0000
# 6 0.0000 0.0000 0.0000 29.3183 0.0000 5.3961
#
#
#
# Elastic Compliance Matrix: (Units=1/GPa)
#
#
# Indices 1 2 3 4 5 6 
#
# 1 0.005606 0.000237 -0.004494 0.000000 0.000882 0.000000
# 2 0.000237 0.002619 -0.001199 0.000000 0.000579 0.000000
# 3 -0.004494 -0.001199 0.025255 0.000000 0.004860 0.000000
# 4 0.000000 0.000000 0.000000 -0.004106 0.000000 0.022306
# 5 0.000882 0.000579 0.004860 0.000000 0.017160 0.000000
# 6 0.000000 0.000000 0.000000 0.022306 0.000000 0.064123
#
#
# Mechanical properties :
#
#
# Convention : Reuss Voigt Hill
#
# Bulk Modulus (GPa) = 44.31119 90.02708 67.16914
# Shear Modulus (GPa) = 38.73253 36.77856 37.75554
#
# Velocity S-wave (km/s) = 3.86564 3.76687 3.81657
# Velocity P-wave (km/s) = 6.08438 7.32474 6.73318
#
# Compressibility (1/GPa) = 0.02256766
#
# Stress axis : x y z
#
# Youngs Moduli (GPa) = 178.39498 381.88761 39.59575
#
# Poissons Ratio (x) = -0.09069 0.17795
# Poissons Ratio (y) = -0.04237 0.04748
# Poissons Ratio (z) = 0.80175 0.45793
#
# Static dielectric constant tensor:
#      x y z
#    x 1.919930 0.000000 0.009010 
#    y 0.000000 1.931670 0.000000 
#    z 0.009010 0.000000 1.959510 
# 
# From -- ./inp_files/2141.got.cif
#   From: 2010.05.17/outbox.cif.g08.bks.cpg/sg10_2_cif.got.tgz:2141.got - 2010.06.03 11:33:40.
