data_PCOD9152169
_publ_section_title
;
Structure prediction by ZEFSAII (Michael W. Deem and Ramdas Pophale) SiO2 
 PCOD9152169
Probable space group: P 2/M
;
_chemical_formula_sum "Si O2"
_cell_formula_units_Z 26
_cell_length_a 5.404347
_cell_length_b 21.928698
_cell_length_c 11.121798
_cell_angle_alpha 90.000000
_cell_angle_beta 104.535603
_cell_angle_gamma 90.000000
_cell_volume 1275.859305
_symmetry_space_group_name_H-M "P 2/M"
_symmetry_group_IT_number 10
_symmetry_cell_setting 'monoclinic'
loop_
_space_group_symop_operation_xyz
x,y,z
-x,y,-z
-x,-y,-z
x,-y,z
loop_
_atom_site_type_symbol
_atom_site_label
_atom_site_fract_x
_atom_site_fract_y
_atom_site_fract_z
Si Si1 0.258708 0.677333 0.883612
Si Si2 0.364481 0.220303 0.358438
Si Si3 0.194824 0.806104 0.782008
Si Si4 0.791435 0.933436 0.081107
Si Si5 0.000000 0.403195 0.500000
Si Si6 0.484072 0.352360 0.655198
Si Si7 0.068797 0.567833 0.234341
O O1 0.183583 0.749184 0.876885
O O2 0.337942 0.669829 0.755535
O O3 0.055057 0.621651 0.862515
O O4 0.500000 0.667434 0.000000
O O5 0.500000 0.204462 0.500000
O O6 0.554269 0.200370 0.272749
O O7 0.343535 0.293694 0.348732
O O8 0.075194 0.197747 0.319411
O O9 0.193971 0.872188 0.841103
O O10 0.838942 0.000000 0.146836
O O11 0.500000 0.934984 0.000000
O O12 0.000000 0.928871 0.000000
O O13 0.264875 0.366467 0.532040
O O14 0.982273 0.433367 0.365651
O O15 0.638466 0.411965 0.712909
O O16 0.033171 0.500000 0.180776
#
# Coordination Sequence:
#
# PCOD9152169 Si02
#       7
#     4   4   4   4   2   4   4
#     4  10  23  40  56  81 114 153 200 248 304 369
#     4  11  22  37  61  90 127 161 209 258 313 367
#     4  11  22  39  63  94 123 165 205 256 311 368
#     4  10  21  39  65  98 132 166 205 255 310 363
#     4  10  21  36  60  82 110 144 191 256 319 366
#     4  10  22  37  57  84 111 152 196 258 310 369
#     4  11  22  38  56  81 112 149 196 250 313 369
#
# _framework density 20.378423000000002
#
# number of rings (size 3 to 8) (size 9 to 14) (size 15 to 20)
#    0.000    1.538    1.538    3.462    4.308    5.846 
#    0.000    0.769    0.000    2.769    0.000    0.000 
#    0.000    0.000    0.000    0.000    0.000    0.000 
#
# Total GULP energy -144829.439223 kJ/mol
# GULP energy per Si atom -5570.363047 kJ/mol
# Density = 2.033204 g / cm^3
# Si number density = 20.378423 Si / 1000 Ang^3
#
#
#
# Elastic Constant Matrix: (Units=GPa)
#
#
# Indices 1 2 3 4 5 6 
#
# 1 68.7910 13.1905 -1.7280 0.0000 11.7728 0.0000
# 2 13.1905 153.4740 36.9423 0.0000 1.5060 0.0000
# 3 -1.7280 36.9423 65.8735 0.0000 28.5379 0.0000
# 4 0.0000 0.0000 0.0000 1.4397 0.0000 5.8197
# 5 11.7728 1.5060 28.5379 0.0000 34.6625 0.0000
# 6 0.0000 0.0000 0.0000 5.8197 0.0000 15.6112
#
#
#
# Elastic Compliance Matrix: (Units=1/GPa)
#
#
# Indices 1 2 3 4 5 6 
#
# 1 0.017336 -0.003135 0.007313 0.000000 -0.011773 0.000000
# 2 -0.003135 0.008675 -0.008153 0.000000 0.007400 0.000000
# 3 0.007313 -0.008153 0.032437 0.000000 -0.028835 0.000000
# 4 0.000000 0.000000 0.000000 -1.370315 0.000000 0.510836
# 5 -0.011773 0.007400 -0.028835 0.000000 0.056267 0.000000
# 6 0.000000 0.000000 0.000000 0.510836 0.000000 -0.126377
#
#
# Mechanical properties :
#
#
# Convention : Reuss Voigt Hill
#
# Bulk Modulus (GPa) = 19.80273 42.77201 31.28737
# Shear Modulus (GPa) = -3.68407 26.32494 11.32043
#
# Velocity S-wave (km/s) = -1.34601 3.59807 2.35948
# Velocity P-wave (km/s) = 2.70609 6.18837 4.77592
#
# Compressibility (1/GPa) = 0.05049808
#
# Stress axis : x y z
#
# Youngs Moduli (GPa) = 57.68231 115.27202 30.82911
#
# Poissons Ratio (x) = 0.36135 -0.22545
# Poissons Ratio (y) = 0.18082 0.25136
# Poissons Ratio (z) = -0.42183 0.93985
#
# Static dielectric constant tensor:
#      x y z
#    x 1.954040 0.000000 -0.019890 
#    y 0.000000 1.766970 0.000000 
#    z -0.019890 0.000000 1.736660 
# 
# From -- ./inp_files/39783.got.cif
#   From: 2010.05.17/outbox.cif.g08.bks.cpg/sg10_20_cif.got.tgz:39783.got - 2010.06.03 11:33:40.
