data_PCOD9152996
_publ_section_title
;
Structure prediction by ZEFSAII (Michael W. Deem and Ramdas Pophale) SiO2 
 PCOD9152996
Probable space group: P 2/M
;
_chemical_formula_sum "Si O2"
_cell_formula_units_Z 28
_cell_length_a 10.243559
_cell_length_b 7.986485
_cell_length_c 25.884234
_cell_angle_alpha 90.000000
_cell_angle_beta 39.812798
_cell_angle_gamma 90.000000
_cell_volume 1355.853242
_symmetry_space_group_name_H-M "P 2/M"
_symmetry_group_IT_number 10
_symmetry_cell_setting 'monoclinic'
loop_
_space_group_symop_operation_xyz
x,y,z
-x,y,-z
-x,-y,-z
x,-y,z
loop_
_atom_site_type_symbol
_atom_site_label
_atom_site_fract_x
_atom_site_fract_y
_atom_site_fract_z
Si Si1 0.941149 0.195883 0.757337
Si Si2 0.478972 0.201934 0.064735
Si Si3 0.768463 0.298264 0.066719
Si Si4 0.589639 0.195222 0.527549
Si Si5 0.024434 0.694995 0.367994
Si Si6 0.484725 0.705080 0.247905
Si Si7 0.323945 0.304721 0.702291
O O1 0.995204 0.288120 0.687927
O O2 0.120914 0.215502 0.743952
O O3 0.729385 0.261268 0.844965
O O4 0.918558 0.000000 0.751134
O O5 0.666236 0.251003 0.043831
O O6 0.466851 0.000000 0.066446
O O7 0.500000 0.264643 0.000000
O O8 0.773912 0.500000 0.068743
O O9 0.621990 0.238646 0.157765
O O10 0.000000 0.235931 0.000000
O O11 0.500000 0.259095 0.500000
O O12 0.832617 0.213456 0.451440
O O13 0.489935 0.285526 0.606461
O O14 0.531002 0.000000 0.549190
O O15 0.011283 0.500000 0.386501
O O16 0.249772 0.759345 0.313881
O O17 0.480691 0.500000 0.248296
O O18 0.585216 0.758206 0.271278
O O19 0.273950 0.500000 0.724154
#
# Coordination Sequence:
#
# PCOD9152996 Si02
#       7
#     4   4   4   4   4   4   4
#     4  11  22  38  59  87 121 157 200 248 294 344
#     4  10  23  41  60  87 124 161 200 245 294 352
#     4  10  21  39  63  90 122 157 198 247 297 349
#     4  11  23  39  59  87 125 156 193 247 297 347
#     4  11  21  38  65  88 115 157 200 242 297 357
#     4   9  21  40  59  88 123 154 194 247 297 349
#     4  11  23  39  62  89 119 156 200 244 297 357
#
# _framework density 20.651202000000001
#
# number of rings (size 3 to 8) (size 9 to 14) (size 15 to 20)
#    0.000    1.571    2.857    1.714    2.000    2.286 
#    0.000    7.143    0.000    0.000    0.000    0.000 
#    0.000    0.000    0.000    0.000    0.000    0.000 
#
# Total GULP energy -156519.767551 kJ/mol
# GULP energy per Si atom -5589.991698 kJ/mol
# Density = 2.060420 g / cm^3
# Si number density = 20.651202 Si / 1000 Ang^3
#
#
#
# Elastic Constant Matrix: (Units=GPa)
#
#
# Indices 1 2 3 4 5 6 
#
# 1 146.5710 -12.3016 45.8159 0.0000 -9.1643 0.0000
# 2 -12.3016 18.5236 -7.6810 0.0000 2.4403 0.0000
# 3 45.8159 -7.6810 94.6601 0.0000 -18.6735 0.0000
# 4 0.0000 0.0000 0.0000 10.9064 0.0000 1.8522
# 5 -9.1643 2.4403 -18.6735 0.0000 38.1655 0.0000
# 6 0.0000 0.0000 0.0000 1.8522 0.0000 21.8495
#
#
#
# Elastic Compliance Matrix: (Units=1/GPa)
#
#
# Indices 1 2 3 4 5 6 
#
# 1 0.008314 0.003991 -0.003715 0.000000 -0.000077 0.000000
# 2 0.003991 0.057858 0.002460 0.000000 -0.001538 0.000000
# 3 -0.003715 0.002460 0.013675 0.000000 0.005641 0.000000
# 4 0.000000 0.000000 0.000000 0.093029 0.000000 -0.007886
# 5 -0.000077 -0.001538 0.005641 0.000000 0.029042 0.000000
# 6 0.000000 0.000000 0.000000 -0.007886 0.000000 0.046436
#
#
# Mechanical properties :
#
#
# Convention : Reuss Voigt Hill
#
# Bulk Modulus (GPa) = 11.72085 34.60235 23.16160
# Shear Modulus (GPa) = 18.42827 29.77905 24.10366
#
# Velocity S-wave (km/s) = 2.99048 3.80149 3.42011
# Velocity P-wave (km/s) = 4.19665 6.00503 5.18036
#
# Compressibility (1/GPa) = 0.08531803
#
# Stress axis : x y z
#
# Youngs Moduli (GPa) = 120.27664 17.28365 73.12701
#
# Poissons Ratio (x) = -0.06898 0.27169
# Poissons Ratio (y) = -0.48002 -0.17988
# Poissons Ratio (z) = 0.44687 -0.04252
#
# Static dielectric constant tensor:
#      x y z
#    x 1.706860 0.000000 -0.008780 
#    y 0.000000 1.731700 0.000000 
#    z -0.008780 0.000000 1.718470 
# 
# From -- ./inp_files/91955.got.cif
#   From: 2010.05.17/outbox.cif.g08.bks.cpg/sg10_46_cif.got.tgz:91955.got - 2010.06.03 11:33:40.
