data_PCOD9152221
_publ_section_title
;
Structure prediction by ZEFSAII (Michael W. Deem and Ramdas Pophale) SiO2 
 PCOD9152221
Probable space group: P 2/M
;
_chemical_formula_sum "Si O2"
_cell_formula_units_Z 28
_cell_length_a 13.842056
_cell_length_b 14.871816
_cell_length_c 8.547220
_cell_angle_alpha 90.000000
_cell_angle_beta 72.016675
_cell_angle_gamma 90.000000
_cell_volume 1673.542945
_symmetry_space_group_name_H-M "P 2/M"
_symmetry_group_IT_number 10
_symmetry_cell_setting 'monoclinic'
loop_
_space_group_symop_operation_xyz
x,y,z
-x,y,-z
-x,-y,-z
x,-y,z
loop_
_atom_site_type_symbol
_atom_site_label
_atom_site_fract_x
_atom_site_fract_y
_atom_site_fract_z
Si Si1 0.303347 0.210467 0.410316
Si Si2 0.111060 0.104215 0.381876
Si Si3 0.500000 0.105110 0.187996
Si Si4 0.888939 0.104215 0.992936
Si Si5 0.381552 0.599646 0.749547
Si Si6 0.381551 0.400354 0.368902
Si Si7 0.303347 0.789533 0.786337
O O1 0.200468 0.166008 0.401299
O O2 0.399927 0.153999 0.302269
O O3 0.318634 0.313763 0.348753
O O4 0.304090 0.209106 0.597955
O O5 0.110769 0.107358 0.194616
O O6 0.000000 0.130091 0.500000
O O7 0.129235 0.000000 0.420949
O O8 0.600073 0.153998 0.202196
O O9 0.499999 0.000000 0.232895
O O10 0.500000 0.110293 0.000000
O O11 0.870763 0.000000 0.050184
O O12 0.799532 0.166009 0.101766
O O13 0.000000 0.130090 0.000000
O O14 0.348585 0.500000 0.818642
O O15 0.500000 0.611786 0.734835
O O16 0.379538 0.599026 0.560231
O O17 0.318635 0.686237 0.832613
O O18 0.348584 0.500000 0.332774
#
# Coordination Sequence:
#
# PCOD9152221 Si02
#       7
#     4   4   4   4   4   4   4
#     4  11  20  32  53  79 103 132 170 212 256 303
#     4  10  21  37  55  75 101 135 173 212 254 301
#     4  11  23  35  46  67 104 144 173 203 250 305
#     4  10  21  37  55  75 101 135 173 212 254 301
#     4   8  14  27  48  74 103 133 167 206 249 300
#     4   8  14  27  48  74 103 133 167 206 249 300
#     4  11  20  32  53  79 103 132 170 212 256 303
#
# _framework density 16.730972000000001
#
# number of rings (size 3 to 8) (size 9 to 14) (size 15 to 20)
#    0.000    2.143    1.429    3.857    0.000    6.286 
#    0.000    0.000    0.000    5.143    0.000    0.000 
#    0.000    0.000    0.000    0.000    0.000    0.000 
#
# Total GULP energy -156230.578014 kJ/mol
# GULP energy per Si atom -5579.663500 kJ/mol
# Density = 1.669289 g / cm^3
# Si number density = 16.730972 Si / 1000 Ang^3
#
#
#
# Elastic Constant Matrix: (Units=GPa)
#
#
# Indices 1 2 3 4 5 6 
#
# 1 132.1057 101.1807 31.3201 0.0000 -16.3356 0.0000
# 2 101.1807 168.6021 46.0631 0.0000 -24.6441 0.0000
# 3 31.3201 46.0631 50.6400 0.0000 -20.0883 0.0000
# 4 0.0000 0.0000 0.0000 7.3966 0.0000 -3.9270
# 5 -16.3356 -24.6441 -20.0883 0.0000 30.4471 0.0000
# 6 0.0000 0.0000 0.0000 -3.9270 0.0000 16.1768
#
#
#
# Elastic Compliance Matrix: (Units=1/GPa)
#
#
# Indices 1 2 3 4 5 6 
#
# 1 0.014079 -0.008069 -0.001303 0.000000 0.000163 0.000000
# 2 -0.008069 0.012631 -0.005636 0.000000 0.002176 0.000000
# 3 -0.001303 -0.005636 0.031957 0.000000 0.015823 0.000000
# 4 0.000000 0.000000 0.000000 0.155200 0.000000 0.037675
# 5 0.000163 0.002176 0.015823 0.000000 0.045133 0.000000
# 6 0.000000 0.000000 0.000000 0.037675 0.000000 0.070963
#
#
# Mechanical properties :
#
#
# Convention : Reuss Voigt Hill
#
# Bulk Modulus (GPa) = 34.90332 78.71950 56.81141
# Shear Modulus (GPa) = 13.53073 22.32303 17.92688
#
# Velocity S-wave (km/s) = 2.84689 3.65668 3.27690
# Velocity P-wave (km/s) = 5.63145 8.06106 6.95320
#
# Compressibility (1/GPa) = 0.02865057
#
# Stress axis : x y z
#
# Youngs Moduli (GPa) = 71.02742 79.16765 31.29241
#
# Poissons Ratio (x) = 0.63882 0.04078
# Poissons Ratio (y) = 0.57314 0.17636
# Poissons Ratio (z) = 0.09257 0.44617
#
# Static dielectric constant tensor:
#      x y z
#    x 1.527950 0.000000 0.016640 
#    y 0.000000 1.585470 0.000000 
#    z 0.016640 0.000000 1.565180 
# 
# From -- ./inp_files/24931.got.cif
#   From: 2010.05.17/outbox.cif.g08.bks.cpg/sg10_13_cif.got.tgz:24931.got - 2010.06.03 11:33:40.
