data_PCOD9152467
_publ_section_title
;
Structure prediction by ZEFSAII (Michael W. Deem and Ramdas Pophale) SiO2 
 PCOD9152467
Probable space group: P 2/M
;
_chemical_formula_sum "Si O2"
_cell_formula_units_Z 29
_cell_length_a 13.070752
_cell_length_b 9.578920
_cell_length_c 14.783486
_cell_angle_alpha 90.000000
_cell_angle_beta 127.080548
_cell_angle_gamma 90.000000
_cell_volume 1476.664523
_symmetry_space_group_name_H-M "P 2/M"
_symmetry_group_IT_number 10
_symmetry_cell_setting 'monoclinic'
loop_
_space_group_symop_operation_xyz
x,y,z
-x,y,-z
-x,-y,-z
x,-y,z
loop_
_atom_site_type_symbol
_atom_site_label
_atom_site_fract_x
_atom_site_fract_y
_atom_site_fract_z
Si Si1 0.548697 0.235289 0.896013
Si Si2 0.197674 0.841171 0.876664
Si Si3 0.579484 0.164212 0.711209
Si Si4 0.750636 0.338721 0.664420
Si Si5 0.978564 0.339675 0.089421
Si Si6 0.500000 0.500000 0.000000
Si Si7 0.255039 0.838147 0.714762
Si Si8 0.272188 0.163634 0.524593
O O1 0.600086 0.235890 0.820087
O O2 0.526594 0.378944 0.936712
O O3 0.408445 0.167365 0.811272
O O4 0.655077 0.157265 0.011984
O O5 0.193681 0.777475 0.773111
O O6 0.119613 0.749280 0.904885
O O7 0.149522 0.000000 0.849692
O O8 0.652815 0.248406 0.672770
O O9 0.427397 0.166287 0.610355
O O10 0.618171 0.000000 0.735987
O O11 0.707897 0.500000 0.630418
O O12 0.885407 0.339893 0.788208
O O13 0.769422 0.261080 0.579207
O O14 0.931986 0.500000 0.056989
O O15 0.000000 0.283831 0.000000
O O16 0.227103 0.783133 0.599552
O O17 0.217516 0.000000 0.692380
O O18 0.234813 0.000000 0.492694
#
# Coordination Sequence:
#
# PCOD9152467 Si02
#       8
#     4   4   4   4   4   1   4   4
#     4  11  21  35  53  86 122 152 190 223 281 342
#     4  11  21  35  60  87 111 145 194 245 283 326
#     4  10  21  37  61  87 115 153 192 235 286 338
#     4  11  23  39  57  85 115 149 190 240 290 340
#     4  10  24  43  59  77 110 152 190 233 288 345
#     4  12  24  32  50  88 124 170 186 216 286 360
#     4   9  18  36  58  84 115 149 185 232 284 336
#     4   9  19  37  60  84 115 152 186 225 284 347
#
# _framework density 19.638855
#
# number of rings (size 3 to 8) (size 9 to 14) (size 15 to 20)
#    0.000    1.793    1.379    3.724    1.931    4.690 
#    3.724    0.690    0.000    4.138    0.000    0.000 
#    0.000    0.000    0.000    0.000    0.000    0.000 
#
# Total GULP energy -161544.098329 kJ/mol
# GULP energy per Si atom -5570.486149 kJ/mol
# Density = 1.959416 g / cm^3
# Si number density = 19.638855 Si / 1000 Ang^3
#
#
#
# Elastic Constant Matrix: (Units=GPa)
#
#
# Indices 1 2 3 4 5 6 
#
# 1 93.6666 43.0684 43.7933 0.0000 -51.2453 0.0000
# 2 43.0684 94.5775 42.9595 0.0000 -26.6243 0.0000
# 3 43.7933 42.9595 100.8442 0.0000 -51.0217 0.0000
# 4 0.0000 0.0000 0.0000 8.1058 0.0000 -45.6573
# 5 -51.2453 -26.6243 -51.0217 0.0000 43.9074 0.0000
# 6 0.0000 0.0000 0.0000 -45.6573 0.0000 -3.6978
#
#
#
# Elastic Compliance Matrix: (Units=1/GPa)
#
#
# Indices 1 2 3 4 5 6 
#
# 1 0.041274 -0.009114 0.018285 0.000000 0.063893 0.000000
# 2 -0.009114 0.015354 -0.007897 0.000000 -0.010504 0.000000
# 3 0.018285 -0.007897 0.033281 0.000000 0.055226 0.000000
# 4 0.000000 0.000000 0.000000 0.001749 0.000000 -0.021592
# 5 0.063893 -0.010504 0.055226 0.000000 0.155151 0.000000
# 6 0.000000 0.000000 0.000000 -0.021592 0.000000 -0.003833
#
#
# Mechanical properties :
#
#
# Convention : Reuss Voigt Hill
#
# Bulk Modulus (GPa) = 10.81597 60.97009 35.89303
# Shear Modulus (GPa) = 18.43338 20.28088 19.35713
#
# Velocity S-wave (km/s) = 3.06701 3.21704 3.14292
# Velocity P-wave (km/s) = 4.24988 6.70165 5.61131
#
# Compressibility (1/GPa) = 0.09245590
#
# Stress axis : x y z
#
# Youngs Moduli (GPa) = 24.22846 65.12982 30.04683
#
# Poissons Ratio (x) = 0.59362 -0.54941
# Poissons Ratio (y) = 0.22083 0.23729
# Poissons Ratio (z) = -0.44302 0.51435
#
# Static dielectric constant tensor:
#      x y z
#    x 1.699620 0.000000 -0.020920 
#    y 0.000000 1.666080 0.000000 
#    z -0.020920 0.000000 1.708240 
# 
# From -- ./inp_files/63958.got.cif
#   From: 2010.05.17/outbox.cif.g08.bks.cpg/sg10_32_cif.got.tgz:63958.got - 2010.06.03 11:33:40.
