data_PCOD9152781
_publ_section_title
;
Structure prediction by ZEFSAII (Michael W. Deem and Ramdas Pophale) SiO2 
 PCOD9152781
Probable space group: P 2/M
;
_chemical_formula_sum "Si O2"
_cell_formula_units_Z 32
_cell_length_a 21.571220
_cell_length_b 8.399404
_cell_length_c 27.710534
_cell_angle_alpha 90.000000
_cell_angle_beta 19.647683
_cell_angle_gamma 90.000000
_cell_volume 1688.152140
_symmetry_space_group_name_H-M "P 2/M"
_symmetry_group_IT_number 10
_symmetry_cell_setting 'monoclinic'
loop_
_space_group_symop_operation_xyz
x,y,z
-x,y,-z
-x,-y,-z
x,-y,z
loop_
_atom_site_type_symbol
_atom_site_label
_atom_site_fract_x
_atom_site_fract_y
_atom_site_fract_z
Si Si1 0.289498 0.808068 0.153862
Si Si2 0.294907 0.308199 0.770212
Si Si3 0.625456 0.194008 0.665737
Si Si4 0.322992 0.809748 0.482291
Si Si5 0.086172 0.687680 0.207260
Si Si6 0.954126 0.692454 0.956085
Si Si7 0.998469 0.194648 0.445844
Si Si8 0.758348 0.809802 0.006602
O O1 0.181440 0.765035 0.184274
O O2 0.170563 0.752294 0.287086
O O3 0.296213 0.000000 0.151545
O O4 0.500000 0.748591 0.000000
O O5 0.303133 0.500000 0.764568
O O6 0.499673 0.241035 0.616988
O O7 0.152669 0.261250 0.832329
O O8 0.196877 0.258878 0.892601
O O9 0.636152 0.246506 0.602485
O O10 0.809613 0.243752 0.558366
O O11 0.440203 0.247025 0.828127
O O12 0.622295 0.000000 0.667616
O O13 0.126098 0.741683 0.641606
O O14 0.308862 0.000000 0.492370
O O15 0.092486 0.500000 0.209000
O O16 0.190303 0.736521 0.082194
O O17 0.949080 0.500000 0.956659
O O18 0.903091 0.764567 0.942231
O O19 0.000000 0.247828 0.500000
O O20 0.001243 0.000000 0.444113
O O21 0.752366 0.000000 0.005707
#
# Coordination Sequence:
#
# PCOD9152781 Si02
#       8
#     4   4   4   4   4   4   4   4
#     4  10  21  38  62  89 117 153 196 240 289 347
#     4   9  18  33  56  86 121 159 194 233 289 356
#     4   9  18  32  55  86 117 145 188 245 295 338
#     4  11  20  37  61  88 116 150 198 251 294 343
#     4  12  26  42  59  82 118 163 200 239 297 359
#     4   9  18  34  55  84 123 160 194 234 287 355
#     4   9  17  31  55  87 118 145 181 234 288 339
#     4  11  22  37  59  88 118 152 198 252 298 343
#
# _framework density 18.955639000000001
#
# number of rings (size 3 to 8) (size 9 to 14) (size 15 to 20)
#    0.000    2.000    2.500    2.625    1.750    0.750 
#    0.000    1.875    0.000    4.125    0.000    0.000 
#    0.000    0.000    0.000    0.000    0.000    0.000 
#
# Total GULP energy -178672.435300 kJ/mol
# GULP energy per Si atom -5583.513603 kJ/mol
# Density = 1.891249 g / cm^3
# Si number density = 18.955639 Si / 1000 Ang^3
#
#
#
# Elastic Constant Matrix: (Units=GPa)
#
#
# Indices 1 2 3 4 5 6 
#
# 1 82.2124 1.4927 50.8635 0.0000 0.3902 0.0000
# 2 1.4927 9.6538 13.3847 0.0000 1.2984 0.0000
# 3 50.8635 13.3847 129.9241 0.0000 -0.3251 0.0000
# 4 0.0000 0.0000 0.0000 21.2939 0.0000 -25.4076
# 5 0.3902 1.2984 -0.3251 0.0000 33.8971 0.0000
# 6 0.0000 0.0000 0.0000 -25.4076 0.0000 90.4100
#
#
#
# Elastic Compliance Matrix: (Units=1/GPa)
#
#
# Indices 1 2 3 4 5 6 
#
# 1 0.016511 0.007565 -0.007245 0.000000 -0.000549 0.000000
# 2 0.007565 0.125082 -0.015860 0.000000 -0.005030 0.000000
# 3 -0.007245 -0.015860 0.012169 0.000000 0.000808 0.000000
# 4 0.000000 0.000000 0.000000 0.070653 0.000000 0.019855
# 5 -0.000549 -0.005030 0.000808 0.000000 0.029708 0.000000
# 6 0.000000 0.000000 0.000000 0.019855 0.000000 0.016641
#
#
# Mechanical properties :
#
#
# Convention : Reuss Voigt Hill
#
# Bulk Modulus (GPa) = 8.15108 39.25247 23.70178
# Shear Modulus (GPa) = 14.58844 39.52348 27.05596
#
# Velocity S-wave (km/s) = 2.77719 4.57119 3.78210
# Velocity P-wave (km/s) = 3.82010 6.97234 5.62169
#
# Compressibility (1/GPa) = 0.12268314
#
# Stress axis : x y z
#
# Youngs Moduli (GPa) = 60.56585 7.99473 82.17688
#
# Poissons Ratio (x) = -0.06048 0.59533
# Poissons Ratio (y) = -0.45819 1.30334
# Poissons Ratio (z) = 0.43877 0.12680
#
# Static dielectric constant tensor:
#      x y z
#    x 1.636030 0.000000 -0.006990 
#    y 0.000000 1.649760 0.000000 
#    z -0.006990 0.000000 1.653830 
# 
# From -- ./inp_files/86793.got.cif
#   From: 2010.05.17/outbox.cif.g08.bks.cpg/sg10_44_cif.got.tgz:86793.got - 2010.06.03 11:33:40.
