data_PCOD9152249
_publ_section_title
;
Structure prediction by ZEFSAII (Michael W. Deem and Ramdas Pophale) SiO2 
 PCOD9152249
Probable space group: P 2/M
;
_chemical_formula_sum "Si O2"
_cell_formula_units_Z 32
_cell_length_a 30.283509
_cell_length_b 9.188107
_cell_length_c 11.651650
_cell_angle_alpha 90.000000
_cell_angle_beta 149.767152
_cell_angle_gamma 90.000000
_cell_volume 1632.421824
_symmetry_space_group_name_H-M "P 2/M"
_symmetry_group_IT_number 10
_symmetry_cell_setting 'monoclinic'
loop_
_space_group_symop_operation_xyz
x,y,z
-x,y,-z
-x,-y,-z
x,-y,z
loop_
_atom_site_type_symbol
_atom_site_label
_atom_site_fract_x
_atom_site_fract_y
_atom_site_fract_z
Si Si1 0.761783 0.829999 0.107952
Si Si2 0.930987 0.666976 0.447584
Si Si3 0.803905 0.671176 0.683998
Si Si4 0.173449 0.835358 0.483042
Si Si5 0.015776 0.170582 0.851586
Si Si6 0.364857 0.172815 0.637487
Si Si7 0.412812 0.327870 0.228128
Si Si8 0.541798 0.173665 0.908105
O O1 0.838225 0.743691 0.213346
O O2 0.790233 0.823319 0.306759
O O3 0.758909 0.000000 0.069229
O O4 0.668051 0.753675 0.892794
O O5 0.915169 0.500000 0.450100
O O6 0.000000 0.664204 0.500000
O O7 0.976985 0.761150 0.648992
O O8 0.808374 0.500000 0.707863
O O9 0.788106 0.718041 0.516419
O O10 0.724261 0.739113 0.576763
O O11 0.896658 0.744140 0.921572
O O12 0.068092 0.818584 0.252201
O O13 0.193225 0.000000 0.485822
O O14 0.035247 0.000000 0.883067
O O15 0.441371 0.207459 0.718379
O O16 0.348262 0.000000 0.593784
O O17 0.403754 0.202046 0.852651
O O18 0.500000 0.307782 0.500000
O O19 0.394594 0.500000 0.177829
O O20 0.427386 0.260072 0.134266
O O21 0.548922 0.000000 0.901419
#
# Coordination Sequence:
#
# PCOD9152249 Si02
#       8
#     4   4   4   4   4   4   4   4
#     4  10  21  38  62  88 112 148 198 240 277 338
#     4  10  21  39  62  87 116 149 184 233 291 343
#     4  12  23  32  49  82 117 150 186 225 279 342
#     4   9  19  35  55  79 109 145 185 232 281 329
#     4  10  21  37  56  78 109 149 191 233 276 329
#     4   9  19  37  59  83 112 147 187 235 291 347
#     4  11  24  40  58  85 121 157 191 242 305 350
#     4   9  19  38  63  85 108 144 192 241 288 347
#
# _framework density 19.602777
#
# number of rings (size 3 to 8) (size 9 to 14) (size 15 to 20)
#    0.000    2.000    0.000    5.250    0.000   10.500 
#    2.250    1.250    0.000    0.000    0.000    0.000 
#    0.000    0.000    0.000    0.000    0.000    0.000 
#
# Total GULP energy -178739.559291 kJ/mol
# GULP energy per Si atom -5585.611228 kJ/mol
# Density = 1.955816 g / cm^3
# Si number density = 19.602777 Si / 1000 Ang^3
#
#
#
# Elastic Constant Matrix: (Units=GPa)
#
#
# Indices 1 2 3 4 5 6 
#
# 1 58.5877 40.9247 17.7290 0.0000 25.8559 0.0000
# 2 40.9247 105.0211 48.0974 0.0000 35.1749 0.0000
# 3 17.7290 48.0974 72.3242 0.0000 35.9322 0.0000
# 4 0.0000 0.0000 0.0000 32.9762 0.0000 2.4875
# 5 25.8559 35.1749 35.9322 0.0000 31.1079 0.0000
# 6 0.0000 0.0000 0.0000 2.4875 0.0000 18.2743
#
#
#
# Elastic Compliance Matrix: (Units=1/GPa)
#
#
# Indices 1 2 3 4 5 6 
#
# 1 0.034549 -0.007967 0.015536 0.000000 -0.037653 0.000000
# 2 -0.007967 0.017601 -0.007402 0.000000 -0.004730 0.000000
# 3 0.015536 -0.007402 0.040359 0.000000 -0.051161 0.000000
# 4 0.000000 0.000000 0.000000 0.030640 0.000000 -0.004171
# 5 -0.037653 -0.004730 -0.051161 0.000000 0.127886 0.000000
# 6 0.000000 0.000000 0.000000 -0.004171 0.000000 0.055289
#
#
# Mechanical properties :
#
#
# Convention : Reuss Voigt Hill
#
# Bulk Modulus (GPa) = 10.77093 49.93725 30.35409
# Shear Modulus (GPa) = 14.83955 25.08379 19.96167
#
# Velocity S-wave (km/s) = 2.75437 3.58104 3.19456
# Velocity P-wave (km/s) = 3.95246 6.52904 5.39677
#
# Compressibility (1/GPa) = 0.09284250
#
# Stress axis : x y z
#
# Youngs Moduli (GPa) = 28.94399 56.81597 24.77779
#
# Poissons Ratio (x) = 0.45267 -0.38495
# Poissons Ratio (y) = 0.23060 0.18341
# Poissons Ratio (z) = -0.44968 0.42056
#
# Static dielectric constant tensor:
#      x y z
#    x 1.703490 0.000000 0.002400 
#    y 0.000000 1.656870 0.000000 
#    z 0.002400 0.000000 1.711560 
# 
# From -- ./inp_files/58332.got.cif
#   From: 2010.05.17/outbox.cif.g08.bks.cpg/sg10_30_cif.got.tgz:58332.got - 2010.06.03 11:33:40.
