data_PCOD9152575
_publ_section_title
;
Structure prediction by ZEFSAII (Michael W. Deem and Ramdas Pophale) SiO2 
 PCOD9152575
Probable space group: P 2/M
;
_chemical_formula_sum "Si O2"
_cell_formula_units_Z 18
_cell_length_a 5.268314
_cell_length_b 25.796456
_cell_length_c 4.927119
_cell_angle_alpha 90.000000
_cell_angle_beta 92.419707
_cell_angle_gamma 90.000000
_cell_volume 669.017295
_symmetry_space_group_name_H-M "P 2/M"
_symmetry_group_IT_number 10
_symmetry_cell_setting 'monoclinic'
loop_
_space_group_symop_operation_xyz
x,y,z
-x,y,-z
-x,-y,-z
x,-y,z
loop_
_atom_site_type_symbol
_atom_site_label
_atom_site_fract_x
_atom_site_fract_y
_atom_site_fract_z
Si Si1 0.243412 0.444715 0.310138
Si Si2 0.315390 0.000000 0.236206
Si Si3 0.243427 0.223640 0.309323
Si Si4 0.243371 0.665854 0.310078
Si Si5 0.762649 0.885750 0.679448
O O1 0.500000 0.444659 0.500000
O O2 0.241768 0.500000 0.157164
O O3 0.241948 0.389430 0.157109
O O4 0.000000 0.444780 0.500000
O O5 0.500000 0.000000 0.500000
O O6 0.186707 0.943935 0.215076
O O7 0.500000 0.000000 0.000000
O O8 0.500000 0.222702 0.500000
O O9 0.242880 0.278886 0.156225
O O10 0.248131 0.168216 0.153197
O O11 0.000000 0.225595 0.500000
O O12 0.500000 0.666144 0.500000
O O13 0.000000 0.665461 0.500000
O O14 0.500000 0.888707 0.500000
O O15 0.000000 0.877087 0.500000
#
# Coordination Sequence:
#
# PCOD9152575 Si02
#       5
#     4   2   4   4   4
#     4   8  12  16  21  30  48  76 112 155 202 252
#     4  10  21  38  58  82 110 142 178 218 264 314
#     4   8  13  21  35  53  75 102 136 179 226 276
#     4   8  12  17  25  39  58  84 120 163 210 260
#     4   9  17  31  49  71  97 127 162 203 250 300
#
# _framework density 26.905134
#
# number of rings (size 3 to 8) (size 9 to 14) (size 15 to 20)
#    0.000    3.556    0.000    0.333    0.000    0.000 
#    0.000    8.889    0.000    0.000    0.000    0.000 
#    0.000    0.000    0.000    0.000    0.000    1.111 
#
# Total GULP energy -100382.368164 kJ/mol
# GULP energy per Si atom -5576.798231 kJ/mol
# Density = 2.684390 g / cm^3
# Si number density = 26.905134 Si / 1000 Ang^3
#
#
#
# Elastic Constant Matrix: (Units=GPa)
#
#
# Indices 1 2 3 4 5 6 
#
# 1 239.7600 -22.4991 44.8169 0.0000 10.5482 0.0000
# 2 -22.4991 434.5829 6.4575 0.0000 2.8633 0.0000
# 3 44.8169 6.4575 50.5929 0.0000 0.9831 0.0000
# 4 0.0000 0.0000 0.0000 19.9626 0.0000 60.4763
# 5 10.5482 2.8633 0.9831 0.0000 67.5398 0.0000
# 6 0.0000 0.0000 0.0000 60.4763 0.0000 117.9448
#
#
#
# Elastic Compliance Matrix: (Units=1/GPa)
#
#
# Indices 1 2 3 4 5 6 
#
# 1 0.005082 0.000335 -0.004530 0.000000 -0.000742 0.000000
# 2 0.000335 0.002328 -0.000591 0.000000 -0.000142 0.000000
# 3 -0.004530 -0.000591 0.023846 0.000000 0.000385 0.000000
# 4 0.000000 0.000000 0.000000 -0.090524 0.000000 0.046417
# 5 -0.000742 -0.000142 0.000385 0.000000 0.014922 0.000000
# 6 0.000000 0.000000 0.000000 0.046417 0.000000 -0.015322
#
#
# Mechanical properties :
#
#
# Convention : Reuss Voigt Hill
#
# Bulk Modulus (GPa) = 46.11665 86.94293 66.52979
# Shear Modulus (GPa) = -116.63878 87.50014 -14.56932
#
# Velocity S-wave (km/s) = -6.59136 5.70897 -2.32955
# Velocity P-wave (km/s) = 6.38360 8.70869 4.18873
#
# Compressibility (1/GPa) = 0.02168414
#
# Stress axis : x y z
#
# Youngs Moduli (GPa) = 196.78491 429.52720 41.93516
#
# Poissons Ratio (x) = -0.14401 0.18996
# Poissons Ratio (y) = -0.06598 0.02480
# Poissons Ratio (z) = 0.89142 0.25402
#
# Static dielectric constant tensor:
#      x y z
#    x 1.861650 0.000000 0.136770 
#    y 0.000000 2.072270 0.000000 
#    z 0.136770 0.000000 1.821770 
# 
# From -- ./inp_files/2026.got.cif
#   From: 2010.05.17/outbox.cif.g08.bks.cpg/sg10_2_cif.got.tgz:2026.got - 2010.06.03 11:33:40.
