data_PCOD9152506
_publ_section_title
;
Structure prediction by ZEFSAII (Michael W. Deem and Ramdas Pophale) SiO2 
 PCOD9152506
Probable space group: P 2/M
;
_chemical_formula_sum "Si O2"
_cell_formula_units_Z 24
_cell_length_a 17.523819
_cell_length_b 7.753872
_cell_length_c 13.872486
_cell_angle_alpha 90.000000
_cell_angle_beta 143.714726
_cell_angle_gamma 90.000000
_cell_volume 1115.529505
_symmetry_space_group_name_H-M "P 2/M"
_symmetry_group_IT_number 10
_symmetry_cell_setting 'monoclinic'
loop_
_space_group_symop_operation_xyz
x,y,z
-x,y,-z
-x,-y,-z
x,-y,z
loop_
_atom_site_type_symbol
_atom_site_label
_atom_site_fract_x
_atom_site_fract_y
_atom_site_fract_z
Si Si1 0.261109 0.698846 0.411379
Si Si2 0.103502 0.711287 0.684771
Si Si3 0.978865 0.709607 0.184310
Si Si4 0.259756 0.797303 0.191110
Si Si5 0.389711 0.699895 0.954628
Si Si6 0.537800 0.199637 0.761042
O O1 0.270515 0.500000 0.452238
O O2 0.124042 0.767976 0.309144
O O3 0.259946 0.708326 0.294523
O O4 0.388881 0.788949 0.580484
O O5 0.105666 0.500000 0.688115
O O6 0.246268 0.774540 0.803871
O O7 0.000000 0.764797 0.500000
O O8 0.065127 0.763555 0.753770
O O9 0.977642 0.500000 0.178662
O O10 0.875545 0.773605 0.001319
O O11 0.371883 0.732529 0.233436
O O12 0.283160 0.000000 0.232802
O O13 0.376522 0.500000 0.910488
O O14 0.500000 0.780167 0.000000
O O15 0.433817 0.706674 0.110204
O O16 0.574317 0.000000 0.812808
#
# Coordination Sequence:
#
# PCOD9152506 Si02
#       6
#     4   4   4   4   4   4
#     4  11  24  38  60  91 120 153 202 251 294 350
#     4   9  18  34  59  88 118 149 185 239 296 344
#     4  10  21  38  61  89 120 154 196 245 298 353
#     4  11  23  40  61  85 119 160 202 242 295 360
#     4  10  21  37  63  92 117 151 198 245 294 350
#     4  11  24  41  60  85 122 162 199 241 297 356
#
# _framework density 21.514448000000002
#
# number of rings (size 3 to 8) (size 9 to 14) (size 15 to 20)
#    0.000    1.667    1.667    2.500    2.333    7.667 
#    0.000    0.000    0.000    1.000    0.000    0.000 
#    0.000    0.000    0.000    0.000    0.000    0.000 
#
# Total GULP energy -134192.356483 kJ/mol
# GULP energy per Si atom -5591.348187 kJ/mol
# Density = 2.146548 g / cm^3
# Si number density = 21.514448 Si / 1000 Ang^3
#
#
#
# Elastic Constant Matrix: (Units=GPa)
#
#
# Indices 1 2 3 4 5 6 
#
# 1 131.3316 -2.7048 58.7096 0.0000 34.1128 0.0000
# 2 -2.7048 35.5528 -12.8814 0.0000 4.9159 0.0000
# 3 58.7096 -12.8814 150.9029 0.0000 22.5495 0.0000
# 4 0.0000 0.0000 0.0000 93.6056 0.0000 -33.4729
# 5 34.1128 4.9159 22.5495 0.0000 41.3674 0.0000
# 6 0.0000 0.0000 0.0000 -33.4729 0.0000 21.9638
#
#
#
# Elastic Compliance Matrix: (Units=1/GPa)
#
#
# Indices 1 2 3 4 5 6 
#
# 1 0.010936 0.000742 -0.003082 0.000000 -0.007427 0.000000
# 2 0.000742 0.030151 0.003170 0.000000 -0.005923 0.000000
# 3 -0.003082 0.003170 0.008462 0.000000 -0.002448 0.000000
# 4 0.000000 0.000000 0.000000 0.023478 0.000000 0.035781
# 5 -0.007427 -0.005923 -0.002448 0.000000 0.032336 0.000000
# 6 0.000000 0.000000 0.000000 0.035781 0.000000 0.100060
#
#
# Mechanical properties :
#
#
# Convention : Reuss Voigt Hill
#
# Bulk Modulus (GPa) = 19.52697 44.89268 32.20983
# Shear Modulus (GPa) = 22.64152 49.69828 36.16990
#
# Velocity S-wave (km/s) = 3.24757 4.81146 4.10468
# Velocity P-wave (km/s) = 4.81230 7.19572 6.12114
#
# Compressibility (1/GPa) = 0.05121122
#
# Stress axis : x y z
#
# Youngs Moduli (GPa) = 91.43882 33.16614 118.17309
#
# Poissons Ratio (x) = -0.02462 0.36417
# Poissons Ratio (y) = -0.06788 -0.37462
# Poissons Ratio (z) = 0.28178 -0.10514
#
# Static dielectric constant tensor:
#      x y z
#    x 1.761520 0.000000 0.033300 
#    y 0.000000 1.749170 0.000000 
#    z 0.033300 0.000000 1.723970 
# 
# From -- ./inp_files/68775.got.cif
#   From: 2010.05.17/outbox.cif.g08.bks.cpg/sg10_35_cif.got.tgz:68775.got - 2010.06.03 11:33:40.
