data_PCOD9152798
_publ_section_title
;
Structure prediction by ZEFSAII (Michael W. Deem and Ramdas Pophale) SiO2 
 PCOD9152798
Probable space group: P 2/M
;
_chemical_formula_sum "Si O2"
_cell_formula_units_Z 24
_cell_length_a 15.315129
_cell_length_b 7.653270
_cell_length_c 14.710659
_cell_angle_alpha 90.000000
_cell_angle_beta 140.853769
_cell_angle_gamma 90.000000
_cell_volume 1088.521063
_symmetry_space_group_name_H-M "P 2/M"
_symmetry_group_IT_number 10
_symmetry_cell_setting 'monoclinic'
loop_
_space_group_symop_operation_xyz
x,y,z
-x,y,-z
-x,-y,-z
x,-y,z
loop_
_atom_site_type_symbol
_atom_site_label
_atom_site_fract_x
_atom_site_fract_y
_atom_site_fract_z
Si Si1 0.595640 0.212889 0.493676
Si Si2 0.611269 0.197349 0.826660
Si Si3 0.869431 0.202394 0.461922
Si Si4 0.309776 0.500000 0.767944
Si Si5 0.110755 0.297760 0.018133
Si Si6 0.903786 0.789074 0.699547
Si Si7 0.367643 0.500000 0.015333
O O1 0.500000 0.273755 0.500000
O O2 0.519453 0.259996 0.337813
O O3 0.755311 0.269015 0.620684
O O4 0.595729 0.000000 0.496268
O O5 0.651160 0.329556 0.938146
O O6 0.586672 0.000000 0.839022
O O7 0.744553 0.199445 0.868250
O O8 0.754804 0.330113 0.330382
O O9 0.906879 0.253069 0.595272
O O10 0.000000 0.215005 0.500000
O O11 0.823216 0.000000 0.426826
O O12 0.472088 0.500000 0.882680
O O13 0.281816 0.500000 0.853388
O O14 0.139083 0.500000 0.063776
O O15 0.031057 0.287088 0.858099
O O16 0.000000 0.225370 0.000000
O O17 0.911642 0.000000 0.713842
#
# Coordination Sequence:
#
# PCOD9152798 Si02
#       7
#     4   4   4   2   4   4   2
#     4   9  18  35  61  92 123 162 213 258 310 381
#     4  11  23  42  68  91 129 174 210 267 327 379
#     4  10  23  41  66  98 126 162 219 268 319 391
#     4  11  25  44  68  88 132 171 200 274 336 372
#     4  11  24  40  60  95 137 173 217 264 313 387
#     4  10  21  38  62  92 125 164 213 266 320 380
#     4  11  26  44  62  98 124 162 224 260 315 409
#
# _framework density 22.048264
#
# number of rings (size 3 to 8) (size 9 to 14) (size 15 to 20)
#    0.000    1.667    0.833    2.750    3.500    5.333 
#    1.500    2.083    0.000    0.000    0.000    0.000 
#    0.000    0.000    0.000    0.000    0.000    0.000 
#
# Total GULP energy -134278.986758 kJ/mol
# GULP energy per Si atom -5594.957782 kJ/mol
# Density = 2.199808 g / cm^3
# Si number density = 22.048264 Si / 1000 Ang^3
#
#
#
# Elastic Constant Matrix: (Units=GPa)
#
#
# Indices 1 2 3 4 5 6 
#
# 1 62.6589 11.2411 -4.7553 0.0000 -6.8389 0.0000
# 2 11.2411 64.4086 13.6013 0.0000 -8.5863 0.0000
# 3 -4.7553 13.6013 72.8339 0.0000 -0.0995 0.0000
# 4 0.0000 0.0000 0.0000 22.4799 0.0000 -6.8433
# 5 -6.8389 -8.5863 -0.0995 0.0000 42.1424 0.0000
# 6 0.0000 0.0000 0.0000 -6.8433 0.0000 -16.6485
#
#
#
# Elastic Compliance Matrix: (Units=1/GPa)
#
#
# Indices 1 2 3 4 5 6 
#
# 1 0.016858 -0.003011 0.001666 0.000000 0.002126 0.000000
# 2 -0.003011 0.017169 -0.003399 0.000000 0.003002 0.000000
# 3 0.001666 -0.003399 0.014473 0.000000 -0.000388 0.000000
# 4 0.000000 0.000000 0.000000 0.039537 0.000000 -0.016251
# 5 0.002126 0.003002 -0.000388 0.000000 0.024685 0.000000
# 6 0.000000 0.000000 0.000000 -0.016251 0.000000 -0.053385
#
#
# Mechanical properties :
#
#
# Convention : Reuss Voigt Hill
#
# Bulk Modulus (GPa) = 25.63245 26.67507 26.15376
# Shear Modulus (GPa) = 61.10410 21.58236 41.34323
#
# Velocity S-wave (km/s) = 5.27010 3.13208 4.33497
# Velocity P-wave (km/s) = 6.97731 5.02043 6.07814
#
# Compressibility (1/GPa) = 0.03901305
#
# Stress axis : x y z
#
# Youngs Moduli (GPa) = 59.31897 58.24405 69.09519
#
# Poissons Ratio (x) = 0.17534 -0.11510
# Poissons Ratio (y) = 0.17858 0.23483
# Poissons Ratio (z) = -0.09881 0.19795
#
# Static dielectric constant tensor:
#      x y z
#    x 1.844440 0.000000 -0.013880 
#    y 0.000000 1.812860 0.000000 
#    z -0.013880 0.000000 1.759810 
# 
# From -- ./inp_files/66721.got.cif
#   From: 2010.05.17/outbox.cif.g08.bks.cpg/sg10_34_cif.got.tgz:66721.got - 2010.06.03 11:33:40.
