data_PCOD9152444
_publ_section_title
;
Structure prediction by ZEFSAII (Michael W. Deem and Ramdas Pophale) SiO2 
 PCOD9152444
Probable space group: P 2/M
;
_chemical_formula_sum "Si O2"
_cell_formula_units_Z 29
_cell_length_a 5.374347
_cell_length_b 10.145134
_cell_length_c 25.739682
_cell_angle_alpha 90.000000
_cell_angle_beta 108.093136
_cell_angle_gamma 90.000000
_cell_volume 1334.021962
_symmetry_space_group_name_H-M "P 2/M"
_symmetry_group_IT_number 10
_symmetry_cell_setting 'monoclinic'
loop_
_space_group_symop_operation_xyz
x,y,z
-x,y,-z
-x,-y,-z
x,-y,z
loop_
_atom_site_type_symbol
_atom_site_label
_atom_site_fract_x
_atom_site_fract_y
_atom_site_fract_z
Si Si1 0.867589 0.283701 0.903021
Si Si2 0.942125 0.851546 0.254492
Si Si3 0.592047 0.649065 0.692138
Si Si4 0.790264 0.158524 0.528448
Si Si5 0.210968 0.146559 0.636635
Si Si6 0.423528 0.641556 0.799198
Si Si7 0.000000 0.500000 0.000000
Si Si8 0.417484 0.153796 0.936301
O O1 0.703813 0.342266 0.844447
O O2 0.664490 0.180035 0.915314
O O3 0.150841 0.229771 0.905779
O O4 0.916792 0.387453 0.951843
O O5 0.815686 0.866613 0.303349
O O6 0.745333 0.773509 0.204222
O O7 0.174906 0.749324 0.279644
O O8 0.015780 0.000000 0.241704
O O9 0.664473 0.500000 0.679734
O O10 0.406269 0.731729 0.641260
O O11 0.452512 0.633286 0.738997
O O12 0.500000 0.211552 0.500000
O O13 0.000000 0.207895 0.500000
O O14 0.930632 0.177086 0.592905
O O15 0.773293 0.000000 0.520588
O O16 0.297388 0.000000 0.622147
O O17 0.308483 0.500000 0.809875
O O18 0.356836 0.000000 0.933852
O O19 0.500000 0.196525 0.000000
#
# Coordination Sequence:
#
# PCOD9152444 Si02
#       8
#     4   4   4   4   4   4   1   4
#     4  12  25  43  68  95 126 163 206 259 309 372
#     4  10  21  37  60  89 120 155 204 257 313 372
#     4  10  21  38  60  85 118 161 207 253 313 376
#     4   9  18  31  53  88 125 160 204 259 319 373
#     4   9  19  35  58  86 119 158 206 261 312 367
#     4  10  23  42  59  87 119 160 201 256 311 374
#     4  12  24  46  66 102 124 166 216 260 304 382
#     4  11  24  44  66  92 124 161 203 249 307 371
#
# _framework density 21.738775
#
# number of rings (size 3 to 8) (size 9 to 14) (size 15 to 20)
#    0.000    1.793    2.069    1.241    3.862    4.414 
#    0.000    0.000    0.000    0.828    0.000    0.000 
#    0.000    0.000    0.000    0.000    0.000    0.000 
#
# Total GULP energy -161467.845302 kJ/mol
# GULP energy per Si atom -5567.856735 kJ/mol
# Density = 2.168930 g / cm^3
# Si number density = 21.738775 Si / 1000 Ang^3
#
#
#
# Elastic Constant Matrix: (Units=GPa)
#
#
# Indices 1 2 3 4 5 6 
#
# 1 61.6188 43.1224 26.1222 0.0000 26.1997 0.0000
# 2 43.1224 158.6747 42.6811 0.0000 35.1838 0.0000
# 3 26.1222 42.6811 109.3449 0.0000 31.4559 0.0000
# 4 0.0000 0.0000 0.0000 55.1243 0.0000 17.4070
# 5 26.1997 35.1838 31.4559 0.0000 37.2592 0.0000
# 6 0.0000 0.0000 0.0000 17.4070 0.0000 2.2464
#
#
#
# Elastic Compliance Matrix: (Units=1/GPa)
#
#
# Indices 1 2 3 4 5 6 
#
# 1 0.024723 -0.003557 -0.000638 0.000000 -0.013487 0.000000
# 2 -0.003557 0.008614 -0.001178 0.000000 -0.004639 0.000000
# 3 -0.000638 -0.001178 0.012295 0.000000 -0.008818 0.000000
# 4 0.000000 0.000000 0.000000 -0.012537 0.000000 0.097151
# 5 -0.013487 -0.004639 -0.008818 0.000000 0.048148 0.000000
# 6 0.000000 0.000000 0.000000 0.097151 0.000000 -0.307656
#
#
# Mechanical properties :
#
#
# Convention : Reuss Voigt Hill
#
# Bulk Modulus (GPa) = 28.66485 61.49887 45.08186
# Shear Modulus (GPa) = -24.50506 33.44018 4.46756
#
# Velocity S-wave (km/s) = -3.36110 3.92634 1.43512
# Velocity P-wave (km/s) = 1.35940 6.99330 4.85068
#
# Compressibility (1/GPa) = 0.03488594
#
# Stress axis : x y z
#
# Youngs Moduli (GPa) = 40.44824 116.08604 81.33696
#
# Poissons Ratio (x) = 0.41287 0.05189
# Poissons Ratio (y) = 0.14386 0.09584
# Poissons Ratio (z) = 0.02580 0.13679
#
# Static dielectric constant tensor:
#      x y z
#    x 1.834530 0.000000 -0.007970 
#    y 0.000000 1.824040 0.000000 
#    z -0.007970 0.000000 1.796620 
# 
# From -- ./inp_files/94370.got.cif
#   From: 2010.05.17/outbox.cif.g08.bks.cpg/sg10_48_cif.got.tgz:94370.got - 2010.06.03 11:33:40.
