data_PCOD9152496
_publ_section_title
;
Structure prediction by ZEFSAII (Michael W. Deem and Ramdas Pophale) SiO2 
 PCOD9152496
Probable space group: P 2/M
;
_chemical_formula_sum "Si O2"
_cell_formula_units_Z 24
_cell_length_a 8.344354
_cell_length_b 16.731273
_cell_length_c 13.955272
_cell_angle_alpha 90.000000
_cell_angle_beta 138.708260
_cell_angle_gamma 90.000000
_cell_volume 1285.682602
_symmetry_space_group_name_H-M "P 2/M"
_symmetry_group_IT_number 10
_symmetry_cell_setting 'monoclinic'
loop_
_space_group_symop_operation_xyz
x,y,z
-x,y,-z
-x,-y,-z
x,-y,z
loop_
_atom_site_type_symbol
_atom_site_label
_atom_site_fract_x
_atom_site_fract_y
_atom_site_fract_z
Si Si1 0.758841 0.095144 0.066114
Si Si2 0.124378 0.342515 0.399703
Si Si3 0.739019 0.791720 0.875653
Si Si4 0.289273 0.500000 0.142086
Si Si5 0.766072 0.500000 0.659292
Si Si6 0.384038 0.651496 0.718228
Si Si7 0.754660 0.822064 0.658624
O O1 0.755492 0.137213 0.960194
O O2 0.993175 0.127726 0.230387
O O3 0.780455 0.000000 0.065952
O O4 0.500000 0.113217 0.000000
O O5 0.117051 0.418900 0.327131
O O6 0.315759 0.352305 0.573853
O O7 0.189575 0.262738 0.369070
O O8 0.865103 0.343097 0.335518
O O9 0.527797 0.731647 0.805755
O O10 0.706541 0.814762 0.750606
O O11 0.000000 0.748456 0.000000
O O12 0.284450 0.500000 0.253174
O O13 0.442739 0.577200 0.178005
O O14 0.000000 0.500000 0.000000
O O15 0.500000 0.500000 0.500000
O O16 0.500000 0.853627 0.500000
#
# Coordination Sequence:
#
# PCOD9152496 Si02
#       7
#     4   4   4   2   2   4   4
#     4  10  23  44  66  90 124 165 202 242 306 377
#     4  11  22  36  62  88 119 159 206 252 304 362
#     4  10  21  37  62  88 120 161 198 246 301 365
#     4  12  25  39  57  85 122 159 207 260 303 349
#     4  12  21  39  59  81 114 160 205 248 292 355
#     4  11  21  38  58  88 121 158 205 253 305 358
#     4  11  21  38  63  95 125 154 206 256 302 359
#
# _framework density 18.667128000000002
#
# number of rings (size 3 to 8) (size 9 to 14) (size 15 to 20)
#    0.000    1.167    3.333    3.500    0.000    6.000 
#    0.000    5.000    0.000    2.000    0.000    0.000 
#    0.000    0.000    0.000    0.000    0.000    0.000 
#
# Total GULP energy -133822.954562 kJ/mol
# GULP energy per Si atom -5575.956440 kJ/mol
# Density = 1.862464 g / cm^3
# Si number density = 18.667128 Si / 1000 Ang^3
#
#
#
# Elastic Constant Matrix: (Units=GPa)
#
#
# Indices 1 2 3 4 5 6 
#
# 1 88.1003 40.5231 37.0569 0.0000 12.5383 0.0000
# 2 40.5231 90.9626 31.7439 0.0000 16.9503 0.0000
# 3 37.0569 31.7439 122.9439 0.0000 23.4590 0.0000
# 4 0.0000 0.0000 0.0000 30.5083 0.0000 2.7467
# 5 12.5383 16.9503 23.4590 0.0000 36.1823 0.0000
# 6 0.0000 0.0000 0.0000 2.7467 0.0000 31.5207
#
#
#
# Elastic Compliance Matrix: (Units=1/GPa)
#
#
# Indices 1 2 3 4 5 6 
#
# 1 0.015316 -0.005636 -0.003027 0.000000 -0.000705 0.000000
# 2 -0.005636 0.014728 -0.001324 0.000000 -0.004088 0.000000
# 3 -0.003027 -0.001324 0.010350 0.000000 -0.005041 0.000000
# 4 0.000000 0.000000 0.000000 0.033037 0.000000 -0.002879
# 5 -0.000705 -0.004088 -0.005041 0.000000 0.033066 0.000000
# 6 0.000000 0.000000 0.000000 -0.002879 0.000000 0.031976
#
#
# Mechanical properties :
#
#
# Convention : Reuss Voigt Hill
#
# Bulk Modulus (GPa) = 48.96869 57.85050 53.40959
# Shear Modulus (GPa) = 30.25649 32.48777 31.37213
#
# Velocity S-wave (km/s) = 4.03034 4.17630 4.10397
# Velocity P-wave (km/s) = 6.92443 7.36975 7.15056
#
# Compressibility (1/GPa) = 0.02042121
#
# Stress axis : x y z
#
# Youngs Moduli (GPa) = 65.28940 67.89766 96.61896
#
# Poissons Ratio (x) = 0.38265 0.29246
# Poissons Ratio (y) = 0.36795 0.12792
# Poissons Ratio (z) = 0.19763 0.08990
#
# Static dielectric constant tensor:
#      x y z
#    x 1.648730 0.000000 0.018200 
#    y 0.000000 1.642560 0.000000 
#    z 0.018200 0.000000 1.658410 
# 
# From -- ./inp_files/61979.got.cif
#   From: 2010.05.17/outbox.cif.g08.bks.cpg/sg10_31_cif.got.tgz:61979.got - 2010.06.03 11:33:40.
