data_PCOD9152972
_publ_section_title
;
Structure prediction by ZEFSAII (Michael W. Deem and Ramdas Pophale) SiO2 
 PCOD9152972
Probable space group: P 2/M
;
_chemical_formula_sum "Si O2"
_cell_formula_units_Z 24
_cell_length_a 12.404752
_cell_length_b 12.301660
_cell_length_c 8.376271
_cell_angle_alpha 90.000000
_cell_angle_beta 109.307185
_cell_angle_gamma 90.000000
_cell_volume 1206.323700
_symmetry_space_group_name_H-M "P 2/M"
_symmetry_group_IT_number 10
_symmetry_cell_setting 'monoclinic'
loop_
_space_group_symop_operation_xyz
x,y,z
-x,y,-z
-x,-y,-z
x,-y,z
loop_
_atom_site_type_symbol
_atom_site_label
_atom_site_fract_x
_atom_site_fract_y
_atom_site_fract_z
Si Si1 0.878167 0.763433 0.858418
Si Si2 0.886180 0.625724 0.541876
Si Si3 0.604603 0.000000 0.919189
Si Si4 0.306577 0.375795 0.103484
Si Si5 0.647074 0.376751 0.243621
Si Si6 0.473399 0.212481 0.309449
Si Si7 0.144725 0.000000 0.081310
O O1 0.875281 0.702398 0.689119
O O2 0.808460 0.691512 0.949981
O O3 0.833025 0.886261 0.820385
O O4 0.000000 0.770749 0.000000
O O5 0.897068 0.500000 0.601098
O O6 0.775734 0.630620 0.373424
O O7 0.000000 0.653684 0.500000
O O8 0.575655 0.111550 0.812349
O O9 0.500000 0.000000 0.000000
O O10 0.748040 0.000000 0.001274
O O11 0.290356 0.500000 0.140918
O O12 0.382668 0.310816 0.266492
O O13 0.357189 0.371319 0.950447
O O14 0.603987 0.500000 0.266636
O O15 0.579387 0.274360 0.279706
O O16 0.500000 0.176132 0.500000
O O17 0.000000 0.000000 0.000000
#
# Coordination Sequence:
#
# PCOD9152972 Si02
#       7
#     4   4   2   4   4   4   2
#     4  11  22  39  64  91 126 168 221 273 339 401
#     4  10  21  39  62  93 133 174 219 276 337 401
#     4  12  25  47  74  97 131 176 229 284 333 394
#     4  11  22  38  63  93 126 167 218 267 328 401
#     4  10  22  39  60  91 130 171 216 271 331 401
#     4  12  25  41  63  93 130 170 217 272 337 401
#     4  10  24  45  71  97 130 173 222 280 334 399
#
# _framework density 19.895157000000001
#
# number of rings (size 3 to 8) (size 9 to 14) (size 15 to 20)
#    0.000    1.167    1.667    4.750    0.000    6.667 
#    0.000    0.417    0.000    0.000    0.000    0.000 
#    0.000    0.000    0.000    0.000    0.000    0.000 
#
# Total GULP energy -133726.691182 kJ/mol
# GULP energy per Si atom -5571.945466 kJ/mol
# Density = 1.984987 g / cm^3
# Si number density = 19.895157 Si / 1000 Ang^3
#
#
#
# Elastic Constant Matrix: (Units=GPa)
#
#
# Indices 1 2 3 4 5 6 
#
# 1 108.8419 42.4816 5.8544 0.0000 1.1531 0.0000
# 2 42.4816 129.4871 12.4785 0.0000 -7.7843 0.0000
# 3 5.8544 12.4785 42.7527 0.0000 -2.0063 0.0000
# 4 0.0000 0.0000 0.0000 24.7008 0.0000 1.0490
# 5 1.1531 -7.7843 -2.0063 0.0000 25.3149 0.0000
# 6 0.0000 0.0000 0.0000 1.0490 0.0000 37.8698
#
#
#
# Elastic Compliance Matrix: (Units=1/GPa)
#
#
# Indices 1 2 3 4 5 6 
#
# 1 0.010609 -0.003529 -0.000498 0.000000 -0.001608 0.000000
# 2 -0.003529 0.009252 -0.002084 0.000000 0.002841 0.000000
# 3 -0.000498 -0.002084 0.024127 0.000000 0.001294 0.000000
# 4 0.000000 0.000000 0.000000 0.040532 0.000000 -0.001123
# 5 -0.001608 0.002841 0.001294 0.000000 0.040552 0.000000
# 6 0.000000 0.000000 0.000000 -0.001123 0.000000 0.026437
#
#
# Mechanical properties :
#
#
# Convention : Reuss Voigt Hill
#
# Bulk Modulus (GPa) = 31.48004 44.74565 38.11284
# Shear Modulus (GPa) = 28.68269 32.26157 30.47213
#
# Velocity S-wave (km/s) = 3.80108 4.03125 3.91786
# Velocity P-wave (km/s) = 5.92635 6.64888 6.29798
#
# Compressibility (1/GPa) = 0.03176616
#
# Stress axis : x y z
#
# Youngs Moduli (GPa) = 94.26013 108.08217 41.44649
#
# Poissons Ratio (x) = 0.38144 0.02065
# Poissons Ratio (y) = 0.33266 0.08637
# Poissons Ratio (z) = 0.04695 0.22524
#
# Static dielectric constant tensor:
#      x y z
#    x 1.883450 0.000000 0.042290 
#    y 0.000000 1.679730 0.000000 
#    z 0.042290 0.000000 1.673130 
# 
# From -- ./inp_files/24177.got.cif
#   From: 2010.05.17/outbox.cif.g08.bks.cpg/sg10_13_cif.got.tgz:24177.got - 2010.06.03 11:33:40.
