data_PCOD9152536
_publ_section_title
;
Structure prediction by ZEFSAII (Michael W. Deem and Ramdas Pophale) SiO2 
 PCOD9152536
Probable space group: P 2/M
;
_chemical_formula_sum "Si O2"
_cell_formula_units_Z 28
_cell_length_a 9.296621
_cell_length_b 19.049897
_cell_length_c 15.564538
_cell_angle_alpha 90.000000
_cell_angle_beta 33.315359
_cell_angle_gamma 90.000000
_cell_volume 1513.984979
_symmetry_space_group_name_H-M "P 2/M"
_symmetry_group_IT_number 10
_symmetry_cell_setting 'monoclinic'
loop_
_space_group_symop_operation_xyz
x,y,z
-x,y,-z
-x,-y,-z
x,-y,z
loop_
_atom_site_type_symbol
_atom_site_label
_atom_site_fract_x
_atom_site_fract_y
_atom_site_fract_z
Si Si1 0.685235 0.920450 0.160318
Si Si2 0.741727 0.079770 0.942459
Si Si3 0.942808 0.787295 0.280173
Si Si4 0.740087 0.652510 0.821773
Si Si5 0.299184 0.583574 0.524409
Si Si6 0.522843 0.207816 0.350189
Si Si7 0.690274 0.674531 0.651728
O O1 0.583751 0.868596 0.282979
O O2 0.595932 0.000000 0.219563
O O3 0.622760 0.898652 0.094098
O O4 0.000000 0.918917 0.000000
O O5 0.935756 0.138108 0.808134
O O6 0.854971 0.000000 0.895821
O O7 0.500000 0.075195 0.000000
O O8 0.736805 0.792547 0.461390
O O9 0.763621 0.765490 0.288212
O O10 0.160638 0.730252 0.198179
O O11 0.639114 0.650924 0.773985
O O12 0.004098 0.606445 0.695809
O O13 0.500000 0.629522 0.000000
O O14 0.500000 0.606145 0.500000
O O15 0.317541 0.500000 0.506660
O O16 0.351705 0.619983 0.405818
O O17 0.473182 0.258169 0.294717
O O18 0.000000 0.692040 0.500000
#
# Coordination Sequence:
#
# PCOD9152536 Si02
#       7
#     4   4   4   4   4   4   4
#     4  10  21  38  55  80 115 152 202 254 310 370
#     4  10  22  39  57  78 112 157 200 249 312 374
#     4  11  22  37  56  83 122 154 201 251 306 368
#     4  11  24  39  61  94 128 163 203 257 303 356
#     4  10  21  43  71  94 126 169 203 241 298 364
#     4  11  22  35  59  85 114 159 200 254 303 366
#     4  10  21  38  60  90 124 161 201 246 297 366
#
# _framework density 18.494239
#
# number of rings (size 3 to 8) (size 9 to 14) (size 15 to 20)
#    0.000    1.571    4.286    1.286    4.000    3.429 
#    0.000    3.571    0.000    4.714    0.000    0.000 
#    0.000    0.000    0.000    0.000    0.000    0.000 
#
# Total GULP energy -156187.612626 kJ/mol
# GULP energy per Si atom -5578.129022 kJ/mol
# Density = 1.845215 g / cm^3
# Si number density = 18.494239 Si / 1000 Ang^3
#
#
#
# Elastic Constant Matrix: (Units=GPa)
#
#
# Indices 1 2 3 4 5 6 
#
# 1 142.1511 31.1833 39.5267 0.0000 16.8128 0.0000
# 2 31.1833 69.6359 9.8659 0.0000 -3.9826 0.0000
# 3 39.5267 9.8659 58.5930 0.0000 8.3781 0.0000
# 4 0.0000 0.0000 0.0000 18.7854 0.0000 -3.3946
# 5 16.8128 -3.9826 8.3781 0.0000 17.8367 0.0000
# 6 0.0000 0.0000 0.0000 -3.3946 0.0000 21.9835
#
#
#
# Elastic Compliance Matrix: (Units=1/GPa)
#
#
# Indices 1 2 3 4 5 6 
#
# 1 0.010413 -0.004425 -0.005075 0.000000 -0.008419 0.000000
# 2 -0.004425 0.016980 -0.001085 0.000000 0.008472 0.000000
# 3 -0.005075 -0.001085 0.021466 0.000000 -0.005541 0.000000
# 4 0.000000 0.000000 0.000000 0.054761 0.000000 0.008456
# 5 -0.008419 0.008472 -0.005541 0.000000 0.068494 0.000000
# 6 0.000000 0.000000 0.000000 0.008456 0.000000 0.046794
#
#
# Mechanical properties :
#
#
# Convention : Reuss Voigt Hill
#
# Bulk Modulus (GPa) = 36.11829 47.94796 42.03313
# Shear Modulus (GPa) = 20.05542 24.37472 22.21507
#
# Velocity S-wave (km/s) = 3.29662 3.63431 3.46958
# Velocity P-wave (km/s) = 5.83628 6.60251 6.23118
#
# Compressibility (1/GPa) = 0.02768680
#
# Stress axis : x y z
#
# Youngs Moduli (GPa) = 96.03835 58.89163 46.58588
#
# Poissons Ratio (x) = 0.26061 0.23644
# Poissons Ratio (y) = 0.42499 0.05056
# Poissons Ratio (z) = 0.48743 0.06392
#
# Static dielectric constant tensor:
#      x y z
#    x 1.744290 0.000000 0.040470 
#    y 0.000000 1.653140 0.000000 
#    z 0.040470 0.000000 1.621240 
# 
# From -- ./inp_files/62328.got.cif
#   From: 2010.05.17/outbox.cif.g08.bks.cpg/sg10_32_cif.got.tgz:62328.got - 2010.06.03 11:33:40.
