data_PCOD9152405
_publ_section_title
;
Structure prediction by ZEFSAII (Michael W. Deem and Ramdas Pophale) SiO2 
 PCOD9152405
Probable space group: P 2/M
;
_chemical_formula_sum "Si O2"
_cell_formula_units_Z 28
_cell_length_a 23.762906
_cell_length_b 7.876294
_cell_length_c 15.730652
_cell_angle_alpha 90.000000
_cell_angle_beta 26.426157
_cell_angle_gamma 90.000000
_cell_volume 1310.301354
_symmetry_space_group_name_H-M "P 2/M"
_symmetry_group_IT_number 10
_symmetry_cell_setting 'monoclinic'
loop_
_space_group_symop_operation_xyz
x,y,z
-x,y,-z
-x,-y,-z
x,-y,z
loop_
_atom_site_type_symbol
_atom_site_label
_atom_site_fract_x
_atom_site_fract_y
_atom_site_fract_z
Si Si1 0.203382 0.000000 0.238604
Si Si2 0.418935 0.699300 0.689346
Si Si3 0.029406 0.000000 0.317379
Si Si4 0.629680 0.802468 0.526169
Si Si5 0.364439 0.694709 0.291841
Si Si6 0.665780 0.304328 0.854331
Si Si7 0.887051 0.793777 0.088557
Si Si8 0.870925 0.696581 0.920113
O O1 0.279675 0.829073 0.153838
O O2 0.148334 0.000000 0.219772
O O3 0.090818 0.000000 0.459321
O O4 0.500000 0.772420 0.500000
O O5 0.402506 0.500000 0.693253
O O6 0.503398 0.717716 0.659708
O O7 0.275069 0.761560 0.891174
O O8 0.039937 0.171284 0.248813
O O9 0.655358 0.783523 0.591665
O O10 0.752632 0.739055 0.309496
O O11 0.614388 0.000000 0.527770
O O12 0.322563 0.500000 0.358339
O O13 0.308489 0.756846 0.277686
O O14 0.515168 0.694003 0.072036
O O15 0.709670 0.500000 0.803947
O O16 0.885058 0.000000 0.081023
O O17 0.903304 0.709416 0.975586
O O18 0.000000 0.752784 0.000000
O O19 0.880506 0.500000 0.878215
#
# Coordination Sequence:
#
# PCOD9152405 Si02
#       8
#     2   4   2   4   4   4   4   4
#     4  11  26  45  70  88 122 173 202 264 322 373
#     4  10  21  37  59  87 124 163 206 261 314 368
#     4  11  28  48  62  94 128 158 215 269 313 370
#     4  11  23  33  58  97 128 169 215 258 315 378
#     4   9  20  38  59  92 135 161 199 268 317 370
#     4   9  21  41  66  95 125 165 210 258 321 384
#     4  10  22  42  62  89 134 176 216 264 304 365
#     4  11  24  43  69  95 125 170 214 262 320 375
#
# _framework density 21.369130999999999
#
# number of rings (size 3 to 8) (size 9 to 14) (size 15 to 20)
#    0.000    1.857    2.143    1.286    5.000    4.000 
#    0.000    2.857    0.000    0.000    0.000    0.000 
#    0.000    0.000    0.000    0.000    0.000    0.000 
#
# Total GULP energy -156403.338929 kJ/mol
# GULP energy per Si atom -5585.833533 kJ/mol
# Density = 2.132049 g / cm^3
# Si number density = 21.369131 Si / 1000 Ang^3
#
#
#
# Elastic Constant Matrix: (Units=GPa)
#
#
# Indices 1 2 3 4 5 6 
#
# 1 62.4072 15.9578 0.8361 0.0000 2.9985 0.0000
# 2 15.9578 62.6274 15.5425 0.0000 3.7366 0.0000
# 3 0.8361 15.5425 25.2404 0.0000 9.8207 0.0000
# 4 0.0000 0.0000 0.0000 9.6997 0.0000 0.5803
# 5 2.9985 3.7366 9.8207 0.0000 37.5798 0.0000
# 6 0.0000 0.0000 0.0000 0.5803 0.0000 29.7177
#
#
#
# Elastic Compliance Matrix: (Units=1/GPa)
#
#
# Indices 1 2 3 4 5 6 
#
# 1 0.017376 -0.005133 0.003257 0.000000 -0.001727 0.000000
# 2 -0.005133 0.020420 -0.013106 0.000000 0.001804 0.000000
# 3 0.003257 -0.013106 0.052515 0.000000 -0.012681 0.000000
# 4 0.000000 0.000000 0.000000 0.103216 0.000000 -0.002015
# 5 -0.001727 0.001804 -0.012681 0.000000 0.029882 0.000000
# 6 0.000000 0.000000 0.000000 -0.002015 0.000000 0.033689
#
#
# Mechanical properties :
#
#
# Convention : Reuss Voigt Hill
#
# Bulk Modulus (GPa) = 16.57069 23.88309 20.22689
# Shear Modulus (GPa) = 16.27715 23.26201 19.76958
#
# Velocity S-wave (km/s) = 2.76291 3.30294 3.04492
# Velocity P-wave (km/s) = 4.23669 5.07411 4.67419
#
# Compressibility (1/GPa) = 0.06034751
#
# Stress axis : x y z
#
# Youngs Moduli (GPa) = 57.55200 48.97090 19.04201
#
# Poissons Ratio (x) = 0.25135 -0.06202
# Poissons Ratio (y) = 0.29540 0.24957
# Poissons Ratio (z) = -0.18745 0.64183
#
# Static dielectric constant tensor:
#      x y z
#    x 1.762890 0.000000 0.001380 
#    y 0.000000 1.762120 0.000000 
#    z 0.001380 0.000000 1.782750 
# 
# From -- ./inp_files/70252.got.cif
#   From: 2010.05.17/outbox.cif.g08.bks.cpg/sg10_36_cif.got.tgz:70252.got - 2010.06.03 11:33:40.
