data_PCOD9152687
_publ_section_title
;
Structure prediction by ZEFSAII (Michael W. Deem and Ramdas Pophale) SiO2 
 PCOD9152687
Probable space group: P 2/M
;
_chemical_formula_sum "Si O2"
_cell_formula_units_Z 18
_cell_length_a 7.575785
_cell_length_b 11.556495
_cell_length_c 11.012020
_cell_angle_alpha 90.000000
_cell_angle_beta 101.416993
_cell_angle_gamma 90.000000
_cell_volume 945.020020
_symmetry_space_group_name_H-M "P 2/M"
_symmetry_group_IT_number 10
_symmetry_cell_setting 'monoclinic'
loop_
_space_group_symop_operation_xyz
x,y,z
-x,y,-z
-x,-y,-z
x,-y,z
loop_
_atom_site_type_symbol
_atom_site_label
_atom_site_fract_x
_atom_site_fract_y
_atom_site_fract_z
Si Si1 0.673749 0.866086 0.201944
Si Si2 0.625887 0.135970 0.633448
Si Si3 0.039529 0.500000 0.797521
Si Si4 0.708691 0.500000 0.932387
Si Si5 0.003479 0.265043 0.356006
Si Si6 0.500000 0.701858 0.000000
O O1 0.500179 0.851660 0.265672
O O2 0.850238 0.826551 0.297858
O O3 0.686169 0.000000 0.168464
O O4 0.645159 0.783773 0.082991
O O5 0.500000 0.162420 0.500000
O O6 0.802059 0.215420 0.656721
O O7 0.678880 0.000000 0.630868
O O8 0.043360 0.385033 0.717071
O O9 0.854515 0.500000 0.847930
O O10 0.192878 0.500000 0.922259
O O11 0.588957 0.615055 0.915245
O O12 0.000000 0.280816 0.500000
#
# Coordination Sequence:
#
# PCOD9152687 Si02
#       6
#     4   4   2   2   4   2
#     4  11  23  39  63  93 126 159 199 251 301 359
#     4  10  21  38  60  88 122 160 199 241 296 362
#     4  11  23  42  58  93 119 157 208 252 305 351
#     4  10  22  40  69  81 119 166 201 253 301 362
#     4  12  23  40  63  90 125 162 202 249 300 363
#     4  11  21  42  64  92 117 159 210 248 302 361
#
# _framework density 19.047215999999999
#
# number of rings (size 3 to 8) (size 9 to 14) (size 15 to 20)
#    0.000    1.111    4.444    2.667    0.000    0.889 
#    0.000    0.556    0.000    5.333    0.000    0.000 
#    0.000    0.000    0.000    0.000    0.000    0.000 
#
# Total GULP energy -100595.673610 kJ/mol
# GULP energy per Si atom -5588.648534 kJ/mol
# Density = 1.900386 g / cm^3
# Si number density = 19.047216 Si / 1000 Ang^3
#
#
#
# Elastic Constant Matrix: (Units=GPa)
#
#
# Indices 1 2 3 4 5 6 
#
# 1 76.1550 34.4938 -0.7815 0.0000 -3.2769 0.0000
# 2 34.4938 127.6857 24.8497 0.0000 2.3071 0.0000
# 3 -0.7815 24.8497 43.5663 0.0000 8.8625 0.0000
# 4 0.0000 0.0000 0.0000 18.6400 0.0000 4.1907
# 5 -3.2769 2.3071 8.8625 0.0000 21.9759 0.0000
# 6 0.0000 0.0000 0.0000 4.1907 0.0000 13.8905
#
#
#
# Elastic Compliance Matrix: (Units=1/GPa)
#
#
# Indices 1 2 3 4 5 6 
#
# 1 0.015354 -0.004684 0.002594 0.000000 0.001735 0.000000
# 2 -0.004684 0.010268 -0.006078 0.000000 0.000675 0.000000
# 3 0.002594 -0.006078 0.028605 0.000000 -0.010511 0.000000
# 4 0.000000 0.000000 0.000000 0.057552 0.000000 -0.017363
# 5 0.001735 0.000675 -0.010511 0.000000 0.049931 0.000000
# 6 0.000000 0.000000 0.000000 -0.017363 0.000000 0.077230
#
#
# Mechanical properties :
#
#
# Convention : Reuss Voigt Hill
#
# Bulk Modulus (GPa) = 26.39127 40.50343 33.44735
# Shear Modulus (GPa) = 18.66330 23.49097 21.07714
#
# Velocity S-wave (km/s) = 3.13364 3.51565 3.33013
# Velocity P-wave (km/s) = 5.19411 6.14741 5.69075
#
# Compressibility (1/GPa) = 0.03789132
#
# Stress axis : x y z
#
# Youngs Moduli (GPa) = 65.12969 97.39216 34.95889
#
# Poissons Ratio (x) = 0.45619 -0.09069
# Poissons Ratio (y) = 0.30507 0.21248
# Poissons Ratio (z) = -0.16896 0.59194
#
# Static dielectric constant tensor:
#      x y z
#    x 1.640260 0.000000 0.001070 
#    y 0.000000 1.636170 0.000000 
#    z 0.001070 0.000000 1.647510 
# 
# From -- ./inp_files/40837.got.cif
#   From: 2010.05.17/outbox.cif.g08.bks.cpg/sg10_21_cif.got.tgz:40837.got - 2010.06.03 11:33:40.
