data_PCOD9152839
_publ_section_title
;
Structure prediction by ZEFSAII (Michael W. Deem and Ramdas Pophale) SiO2 
 PCOD9152839
Probable space group: P 2/M
;
_chemical_formula_sum "Si O2"
_cell_formula_units_Z 24
_cell_length_a 19.265341
_cell_length_b 13.107465
_cell_length_c 13.814553
_cell_angle_alpha 90.000000
_cell_angle_beta 161.092374
_cell_angle_gamma 90.000000
_cell_volume 1130.408310
_symmetry_space_group_name_H-M "P 2/M"
_symmetry_group_IT_number 10
_symmetry_cell_setting 'monoclinic'
loop_
_space_group_symop_operation_xyz
x,y,z
-x,y,-z
-x,-y,-z
x,-y,z
loop_
_atom_site_type_symbol
_atom_site_label
_atom_site_fract_x
_atom_site_fract_y
_atom_site_fract_z
Si Si1 0.791710 0.121298 0.533662
Si Si2 0.127768 0.267647 0.079086
Si Si3 0.254461 0.737163 0.699671
Si Si4 0.357576 0.779744 0.048540
Si Si5 0.473753 0.110190 0.579615
Si Si6 0.839652 0.620683 0.078859
O O1 0.784541 0.161167 0.414391
O O2 0.577786 0.170968 0.298067
O O3 0.984734 0.176568 0.844335
O O4 0.800737 0.000000 0.550613
O O5 0.187024 0.338535 0.066618
O O6 0.324231 0.208924 0.386718
O O7 0.000000 0.318128 0.000000
O O8 0.074840 0.658421 0.425404
O O9 0.500000 0.702888 0.000000
O O10 0.233787 0.761645 0.785458
O O11 0.315848 0.862004 0.080027
O O12 0.326448 0.674716 0.066683
O O13 0.500000 0.101986 0.500000
O O14 0.387162 0.000000 0.497831
O O15 0.821894 0.500000 0.058345
#
# Coordination Sequence:
#
# PCOD9152839 Si02
#       6
#     4   4   4   4   4   4
#     4  10  21  38  64  95 131 169 203 250 310 371
#     4  11  22  40  65  92 128 161 212 260 307 372
#     4   9  22  41  65  93 124 156 207 263 308 372
#     4  11  21  38  61  92 125 161 207 252 302 370
#     4  11  22  37  62  94 132 168 201 246 306 379
#     4  11  25  45  66  88 120 164 213 268 322 364
#
# _framework density 21.231266999999999
#
# number of rings (size 3 to 8) (size 9 to 14) (size 15 to 20)
#    0.000    1.500    3.333    1.500    0.000    6.333 
#    0.000    9.167    0.000   11.000    0.000    0.000 
#    0.000    0.000    0.000    0.000    0.000    0.000 
#
# Total GULP energy -133685.799738 kJ/mol
# GULP energy per Si atom -5570.241656 kJ/mol
# Density = 2.118294 g / cm^3
# Si number density = 21.231267 Si / 1000 Ang^3
#
#
#
# Elastic Constant Matrix: (Units=GPa)
#
#
# Indices 1 2 3 4 5 6 
#
# 1 165.2176 67.2403 24.2703 0.0000 -41.8836 0.0000
# 2 67.2403 157.7014 43.6793 0.0000 -10.0743 0.0000
# 3 24.2703 43.6793 67.3114 0.0000 -4.5062 0.0000
# 4 0.0000 0.0000 0.0000 14.1282 0.0000 3.3853
# 5 -41.8836 -10.0743 -4.5062 0.0000 42.6779 0.0000
# 6 0.0000 0.0000 0.0000 3.3853 0.0000 11.8877
#
#
#
# Elastic Compliance Matrix: (Units=1/GPa)
#
#
# Indices 1 2 3 4 5 6 
#
# 1 0.009744 -0.003399 -0.000727 0.000000 0.008684 0.000000
# 2 -0.003399 0.008989 -0.004722 0.000000 -0.001712 0.000000
# 3 -0.000727 -0.004722 0.018189 0.000000 0.000093 0.000000
# 4 0.000000 0.000000 0.000000 0.075964 0.000000 -0.021633
# 5 0.008684 -0.001712 0.000093 0.000000 0.031559 0.000000
# 6 0.000000 0.000000 0.000000 -0.021633 0.000000 0.090281
#
#
# Mechanical properties :
#
#
# Convention : Reuss Voigt Hill
#
# Bulk Modulus (GPa) = 52.01093 73.40114 62.70604
# Shear Modulus (GPa) = 19.31781 30.74145 25.02963
#
# Velocity S-wave (km/s) = 3.01969 3.80930 3.43724
# Velocity P-wave (km/s) = 6.05876 7.34812 6.73437
#
# Compressibility (1/GPa) = 0.01922673
#
# Stress axis : x y z
#
# Youngs Moduli (GPa) = 102.62896 111.25071 54.97903
#
# Poissons Ratio (x) = 0.37809 0.03995
# Poissons Ratio (y) = 0.34879 0.25962
# Poissons Ratio (z) = 0.07457 0.52534
#
# Static dielectric constant tensor:
#      x y z
#    x 1.959440 0.000000 -0.053450 
#    y 0.000000 1.711510 0.000000 
#    z -0.053450 0.000000 1.967100 
# 
# From -- ./inp_files/70523.got.cif
#   From: 2010.05.17/outbox.cif.g08.bks.cpg/sg10_36_cif.got.tgz:70523.got - 2010.06.03 11:33:40.
