data_PCOD9152766
_publ_section_title
;
Structure prediction by ZEFSAII (Michael W. Deem and Ramdas Pophale) SiO2 
 PCOD9152766
Probable space group: P 2/M
;
_chemical_formula_sum "Si O2"
_cell_formula_units_Z 28
_cell_length_a 10.961711
_cell_length_b 15.604710
_cell_length_c 8.627476
_cell_angle_alpha 90.000000
_cell_angle_beta 110.841523
_cell_angle_gamma 90.000000
_cell_volume 1379.204780
_symmetry_space_group_name_H-M "P 2/M"
_symmetry_group_IT_number 10
_symmetry_cell_setting 'monoclinic'
loop_
_space_group_symop_operation_xyz
x,y,z
-x,y,-z
-x,-y,-z
x,-y,z
loop_
_atom_site_type_symbol
_atom_site_label
_atom_site_fract_x
_atom_site_fract_y
_atom_site_fract_z
Si Si1 0.645734 0.899869 0.138998
Si Si2 0.669792 0.735728 0.356345
Si Si3 0.476757 0.594263 0.172347
Si Si4 0.159166 0.902428 0.060529
Si Si5 0.841910 0.747001 0.725028
Si Si6 0.925751 0.662418 0.316198
Si Si7 0.833371 0.593349 0.954215
O O1 0.651945 0.831276 0.280842
O O2 0.660895 0.000000 0.192371
O O3 0.500000 0.890890 0.000000
O O4 0.761149 0.882264 0.063031
O O5 0.545646 0.674642 0.281896
O O6 0.725831 0.729946 0.553875
O O7 0.785614 0.695522 0.305428
O O8 0.525598 0.500000 0.248817
O O9 0.322399 0.596122 0.115116
O O10 0.500000 0.600268 0.000000
O O11 0.194418 0.833174 0.204077
O O12 0.196970 0.000000 0.114837
O O13 0.000000 0.899237 0.000000
O O14 0.865516 0.673616 0.862111
O O15 0.977879 0.740683 0.690654
O O16 0.000000 0.622624 0.500000
O O17 0.893983 0.604761 0.152447
O O18 0.867805 0.500000 0.904584
#
# Coordination Sequence:
#
# PCOD9152766 Si02
#       7
#     4   4   4   4   4   4   4
#     4  10  22  39  62  92 121 157 206 254 302 360
#     4  11  22  38  62  87 121 161 197 247 304 353
#     4  10  21  38  62  87 111 153 209 251 289 354
#     4  10  21  40  65  89 118 162 209 251 302 363
#     4  11  24  38  58  91 125 157 198 246 300 365
#     4  10  22  39  60  89 120 155 202 251 295 355
#     4  11  23  40  61  85 119 160 199 247 304 358
#
# _framework density 20.301552000000001
#
# number of rings (size 3 to 8) (size 9 to 14) (size 15 to 20)
#    0.000    1.571    1.429    3.429    2.000    3.143 
#    0.000    4.286    0.000    7.714    0.000    0.000 
#    0.000    0.000    0.000    0.000    0.000    0.000 
#
# Total GULP energy -156143.435796 kJ/mol
# GULP energy per Si atom -5576.551278 kJ/mol
# Density = 2.025534 g / cm^3
# Si number density = 20.301552 Si / 1000 Ang^3
#
#
#
# Elastic Constant Matrix: (Units=GPa)
#
#
# Indices 1 2 3 4 5 6 
#
# 1 91.7324 26.5576 22.8360 0.0000 14.4281 0.0000
# 2 26.5576 89.9113 72.0207 0.0000 2.0100 0.0000
# 3 22.8360 72.0207 114.9128 0.0000 5.8342 0.0000
# 4 0.0000 0.0000 0.0000 15.6672 0.0000 -14.3589
# 5 14.4281 2.0100 5.8342 0.0000 27.2019 0.0000
# 6 0.0000 0.0000 0.0000 -14.3589 0.0000 55.7939
#
#
#
# Elastic Compliance Matrix: (Units=1/GPa)
#
#
# Indices 1 2 3 4 5 6 
#
# 1 0.013015 -0.003804 0.000136 0.000000 -0.006651 0.000000
# 2 -0.003804 0.023497 -0.014139 0.000000 0.003314 0.000000
# 3 0.000136 -0.014139 0.017680 0.000000 -0.002819 0.000000
# 4 0.000000 0.000000 0.000000 0.083529 0.000000 0.021497
# 5 -0.006651 0.003314 -0.002819 0.000000 0.040650 0.000000
# 6 0.000000 0.000000 0.000000 0.021497 0.000000 0.023455
#
#
# Mechanical properties :
#
#
# Convention : Reuss Voigt Hill
#
# Bulk Modulus (GPa) = 53.83022 59.93168 56.88095
# Shear Modulus (GPa) = 20.52256 31.40875 25.96566
#
# Velocity S-wave (km/s) = 3.18289 3.93760 3.58019
# Velocity P-wave (km/s) = 6.33093 7.08927 6.72080
#
# Compressibility (1/GPa) = 0.01857693
#
# Stress axis : x y z
#
# Youngs Moduli (GPa) = 76.83421 42.55821 56.56134
#
# Poissons Ratio (x) = 0.16190 -0.00767
# Poissons Ratio (y) = 0.29229 0.79972
# Poissons Ratio (z) = -0.01041 0.60173
#
# Static dielectric constant tensor:
#      x y z
#    x 1.491160 0.000000 -0.100500 
#    y 0.000000 1.716630 0.000000 
#    z -0.100500 0.000000 1.673290 
# 
# From -- ./inp_files/25168.got.cif
#   From: 2010.05.17/outbox.cif.g08.bks.cpg/sg10_13_cif.got.tgz:25168.got - 2010.06.03 11:33:40.
