data_PCOD9152530
_publ_section_title
;
Structure prediction by ZEFSAII (Michael W. Deem and Ramdas Pophale) SiO2 
 PCOD9152530
Probable space group: P 2/M
;
_chemical_formula_sum "Si O2"
_cell_formula_units_Z 32
_cell_length_a 20.545607
_cell_length_b 7.590220
_cell_length_c 27.463912
_cell_angle_alpha 90.000000
_cell_angle_beta 18.019027
_cell_angle_gamma 90.000000
_cell_volume 1324.834787
_symmetry_space_group_name_H-M "P 2/M"
_symmetry_group_IT_number 10
_symmetry_cell_setting 'monoclinic'
loop_
_space_group_symop_operation_xyz
x,y,z
-x,y,-z
-x,-y,-z
x,-y,z
loop_
_atom_site_type_symbol
_atom_site_label
_atom_site_fract_x
_atom_site_fract_y
_atom_site_fract_z
Si Si1 0.624885 0.300959 0.091297
Si Si2 0.374614 0.715422 0.015408
Si Si3 0.097121 0.785760 0.859117
Si Si4 0.641252 0.295976 0.184893
Si Si5 0.464436 0.790475 0.407366
Si Si6 0.181043 0.287479 0.253289
Si Si7 0.733153 0.794392 0.359331
Si Si8 0.842714 0.205764 0.569907
O O1 0.712697 0.500000 0.029556
O O2 0.684636 0.221026 0.996463
O O3 0.658063 0.208543 0.119758
O O4 0.371742 0.308561 0.271706
O O5 0.375923 0.500000 0.012826
O O6 0.612101 0.768119 0.862590
O O7 0.223684 0.768875 0.167303
O O8 0.309190 0.723466 0.734516
O O9 0.116870 0.720047 0.789017
O O10 0.101103 0.000000 0.857414
O O11 0.876460 0.728468 0.037789
O O12 0.597160 0.500000 0.208244
O O13 0.469315 0.236430 0.346308
O O14 0.292805 0.719190 0.567876
O O15 0.463734 0.000000 0.415560
O O16 0.179178 0.500000 0.254958
O O17 0.968704 0.225359 0.429908
O O18 0.500000 0.789035 0.500000
O O19 0.792309 0.000000 0.321460
O O20 0.000000 0.266568 0.500000
O O21 0.794979 0.000000 0.611668
#
# Coordination Sequence:
#
# PCOD9152530 Si02
#       8
#     4   4   4   4   4   4   4   4
#     4  10  21  38  55  70  98 140 178 209 249 304
#     4   8  15  30  54  79  97 123 170 213 242 290
#     4   9  17  32  55  78  99 131 175 214 254 305
#     4  11  23  34  47  73 106 139 172 210 256 301
#     4   9  17  32  55  78 101 134 173 213 254 300
#     4   9  16  30  56  82  99 125 167 209 248 293
#     4   7  12  26  50  77  98 121 164 214 250 291
#     4  11  22  34  51  80 109 131 160 204 256 305
#
# _framework density 24.153956000000001
#
# number of rings (size 3 to 8) (size 9 to 14) (size 15 to 20)
#    0.000    2.750    1.250    3.375    0.000    3.500 
#    0.000    3.750    0.000    6.750    0.000    0.000 
#    0.000    0.000    0.000    0.000    0.000    0.000 
#
# Total GULP energy -178532.096645 kJ/mol
# GULP energy per Si atom -5579.128020 kJ/mol
# Density = 2.409898 g / cm^3
# Si number density = 24.153956 Si / 1000 Ang^3
#
#
#
# Elastic Constant Matrix: (Units=GPa)
#
#
# Indices 1 2 3 4 5 6 
#
# 1 111.1487 3.4867 23.8517 0.0000 47.8811 0.0000
# 2 3.4867 56.9421 -3.8602 0.0000 0.0673 0.0000
# 3 23.8517 -3.8602 76.1802 0.0000 40.3416 0.0000
# 4 0.0000 0.0000 0.0000 0.8569 0.0000 7.7537
# 5 47.8811 0.0673 40.3416 0.0000 52.6576 0.0000
# 6 0.0000 0.0000 0.0000 7.7537 0.0000 11.8878
#
#
#
# Elastic Compliance Matrix: (Units=1/GPa)
#
#
# Indices 1 2 3 4 5 6 
#
# 1 0.015654 -0.000641 0.004381 0.000000 -0.017590 0.000000
# 2 -0.000641 0.017693 0.001347 0.000000 -0.000472 0.000000
# 3 0.004381 0.001347 0.023446 0.000000 -0.021947 0.000000
# 4 0.000000 0.000000 0.000000 -0.238073 0.000000 0.155282
# 5 -0.017590 -0.000472 -0.021947 0.000000 0.051800 0.000000
# 6 0.000000 0.000000 0.000000 0.155282 0.000000 -0.017162
#
#
# Mechanical properties :
#
#
# Convention : Reuss Voigt Hill
#
# Bulk Modulus (GPa) = 14.93257 32.35860 23.64558
# Shear Modulus (GPa) = -37.17638 27.79999 -4.68820
#
# Velocity S-wave (km/s) = -3.92745 3.39625 -1.39470
# Velocity P-wave (km/s) = 3.79088 5.36705 2.68649
#
# Compressibility (1/GPa) = 0.06696771
#
# Stress axis : x y z
#
# Youngs Moduli (GPa) = 63.87970 56.52014 42.65170
#
# Poissons Ratio (x) = 0.03622 -0.18686
# Poissons Ratio (y) = 0.04093 -0.05745
# Poissons Ratio (z) = -0.27986 -0.07614
#
# Static dielectric constant tensor:
#      x y z
#    x 2.023580 0.000000 0.035080 
#    y 0.000000 1.902670 0.000000 
#    z 0.035080 0.000000 1.886280 
# 
# From -- ./inp_files/93659.got.cif
#   From: 2010.05.17/outbox.cif.g08.bks.cpg/sg10_47_cif.got.tgz:93659.got - 2010.06.03 11:33:40.
