data_PCOD9152754
_publ_section_title
;
Structure prediction by ZEFSAII (Michael W. Deem and Ramdas Pophale) SiO2 
 PCOD9152754
Probable space group: P 2/M
;
_chemical_formula_sum "Si O2"
_cell_formula_units_Z 20
_cell_length_a 5.372981
_cell_length_b 28.651035
_cell_length_c 5.465050
_cell_angle_alpha 90.000000
_cell_angle_beta 92.222121
_cell_angle_gamma 90.000000
_cell_volume 840.665174
_symmetry_space_group_name_H-M "P 2/M"
_symmetry_group_IT_number 10
_symmetry_cell_setting 'monoclinic'
loop_
_space_group_symop_operation_xyz
x,y,z
-x,y,-z
-x,-y,-z
x,-y,z
loop_
_atom_site_type_symbol
_atom_site_label
_atom_site_fract_x
_atom_site_fract_y
_atom_site_fract_z
Si Si1 0.331721 0.500000 0.243213
Si Si2 0.248452 0.357616 0.657776
Si Si3 0.000000 0.423777 0.000000
Si Si4 0.743891 0.950922 0.343002
Si Si5 0.345219 0.254235 0.741249
Si Si6 0.242696 0.845686 0.848964
O O1 0.500000 0.500000 0.500000
O O2 0.144261 0.543787 0.202219
O O3 0.500000 0.500000 0.000000
O O4 0.500000 0.361943 0.500000
O O5 0.215324 0.392142 0.884870
O O6 0.209489 0.303901 0.744991
O O7 0.000000 0.368258 0.500000
O O8 0.500000 0.953129 0.500000
O O9 0.741498 0.898260 0.248362
O O10 0.000000 0.953011 0.500000
O O11 0.740152 0.000000 0.189298
O O12 0.500000 0.258184 0.500000
O O13 0.218365 0.203390 0.705601
O O14 0.500000 0.253294 0.000000
O O15 0.500000 0.840862 0.000000
O O16 0.000000 0.846223 0.000000
#
# Coordination Sequence:
#
# PCOD9152754 Si02
#       6
#     2   4   2   4   4   4
#     4  11  30  55  85 120 166 218 270 330 404 470
#     4  11  29  48  80 117 160 208 263 325 397 468
#     4  11  30  50  84 120 168 206 277 332 392 484
#     4  10  21  38  61  91 129 180 242 307 375 447
#     4  10  25  48  73 109 152 197 252 312 379 460
#     4  11  24  40  65  96 137 188 243 305 375 452
#
# _framework density 23.790685
#
# number of rings (size 3 to 8) (size 9 to 14) (size 15 to 20)
#    0.000    1.400    0.000    1.800   12.600    7.200 
#    0.000    1.500    0.000    0.000    0.000    0.000 
#    0.000    0.000    0.000    0.000    0.000    0.000 
#
# Total GULP energy -111516.323089 kJ/mol
# GULP energy per Si atom -5575.816154 kJ/mol
# Density = 2.373654 g / cm^3
# Si number density = 23.790685 Si / 1000 Ang^3
#
#
#
# Elastic Constant Matrix: (Units=GPa)
#
#
# Indices 1 2 3 4 5 6 
#
# 1 159.8398 52.2199 45.2275 0.0000 -0.3298 0.0000
# 2 52.2199 273.8496 57.3854 0.0000 -11.2095 0.0000
# 3 45.2275 57.3854 101.3868 0.0000 8.5466 0.0000
# 4 0.0000 0.0000 0.0000 35.8236 0.0000 -11.7925
# 5 -0.3298 -11.2095 8.5466 0.0000 41.5418 0.0000
# 6 0.0000 0.0000 0.0000 -11.7925 0.0000 52.4653
#
#
#
# Elastic Compliance Matrix: (Units=1/GPa)
#
#
# Indices 1 2 3 4 5 6 
#
# 1 0.007321 -0.000778 -0.002862 0.000000 0.000437 0.000000
# 2 -0.000778 0.004337 -0.002245 0.000000 0.001626 0.000000
# 3 -0.002862 -0.002245 0.012683 0.000000 -0.003238 0.000000
# 4 0.000000 0.000000 0.000000 0.030145 0.000000 0.006776
# 5 0.000437 0.001626 -0.003238 0.000000 0.025180 0.000000
# 6 0.000000 0.000000 0.000000 0.006776 0.000000 0.020583
#
#
# Mechanical properties :
#
#
# Convention : Reuss Voigt Hill
#
# Bulk Modulus (GPa) = 79.54616 93.86020 86.70318
# Shear Modulus (GPa) = 43.02515 51.31570 47.17043
#
# Velocity S-wave (km/s) = 4.25724 4.64935 4.45761
# Velocity P-wave (km/s) = 7.59434 8.26802 7.93833
#
# Compressibility (1/GPa) = 0.01257132
#
# Stress axis : x y z
#
# Youngs Moduli (GPa) = 136.58666 230.57524 78.84336
#
# Poissons Ratio (x) = 0.17949 0.22567
# Poissons Ratio (y) = 0.10632 0.17697
# Poissons Ratio (z) = 0.39094 0.51754
#
# Static dielectric constant tensor:
#      x y z
#    x 1.842340 0.000000 0.016400 
#    y 0.000000 2.391050 0.000000 
#    z 0.016400 0.000000 1.987480 
# 
# From -- ./inp_files/2189.got.cif
#   From: 2010.05.17/outbox.cif.g08.bks.cpg/sg10_2_cif.got.tgz:2189.got - 2010.06.03 11:33:40.
