data_PCOD9152365
_publ_section_title
;
Structure prediction by ZEFSAII (Michael W. Deem and Ramdas Pophale) SiO2 
 PCOD9152365
Probable space group: P 2/M
;
_chemical_formula_sum "Si O2"
_cell_formula_units_Z 32
_cell_length_a 26.757104
_cell_length_b 8.729982
_cell_length_c 21.343382
_cell_angle_alpha 90.000000
_cell_angle_beta 159.234259
_cell_angle_gamma 90.000000
_cell_volume 1767.627113
_symmetry_space_group_name_H-M "P 2/M"
_symmetry_group_IT_number 10
_symmetry_cell_setting 'monoclinic'
loop_
_space_group_symop_operation_xyz
x,y,z
-x,y,-z
-x,-y,-z
x,-y,z
loop_
_atom_site_type_symbol
_atom_site_label
_atom_site_fract_x
_atom_site_fract_y
_atom_site_fract_z
Si Si1 0.154782 0.815595 0.342692
Si Si2 0.661783 0.815312 0.692828
Si Si3 0.846889 0.185865 0.030391
Si Si4 0.160385 0.321756 0.211395
Si Si5 0.569694 0.683292 0.015199
Si Si6 0.449817 0.184352 0.749021
Si Si7 0.733987 0.316687 0.028570
Si Si8 0.148756 0.183842 0.706021
O O1 0.168444 0.754427 0.288545
O O2 0.294952 0.769810 0.544407
O O3 0.006530 0.766674 0.199640
O O4 0.151435 0.000000 0.336588
O O5 0.500000 0.763245 0.500000
O O6 0.742809 0.757131 0.726871
O O7 0.663044 0.000000 0.693808
O O8 0.744212 0.767831 0.852593
O O9 0.796006 0.256145 0.036034
O O10 0.843245 0.000000 0.030966
O O11 0.197794 0.500000 0.260072
O O12 0.000000 0.309074 0.000000
O O13 0.578638 0.500000 0.017881
O O14 0.724275 0.754735 0.188111
O O15 0.500000 0.717475 0.000000
O O16 0.478831 0.753751 0.852405
O O17 0.460765 0.000000 0.760872
O O18 0.575920 0.252317 0.854519
O O19 0.731192 0.500000 0.026488
O O20 0.824469 0.255689 0.193998
O O21 0.000000 0.223204 0.500000
O O22 0.158394 0.000000 0.722948
#
# Coordination Sequence:
#
# PCOD9152365 Si02
#       8
#     4   4   4   4   4   4   4   4
#     4  10  22  39  61  84 109 149 194 236 284 336
#     4  10  22  39  61  86 111 148 195 238 283 336
#     4  10  21  39  59  82 115 149 191 242 281 331
#     4  11  23  38  58  85 117 149 184 233 290 344
#     4  10  21  37  58  86 120 153 186 228 282 340
#     4  10  21  38  60  85 112 147 194 237 278 333
#     4  11  23  38  58  84 118 155 187 228 285 342
#     4  10  21  38  61  87 114 149 194 238 278 327
#
# _framework density 18.103366999999999
#
# number of rings (size 3 to 8) (size 9 to 14) (size 15 to 20)
#    0.000    1.750    1.250    4.125    1.750    5.750 
#    0.000    3.750    0.000    0.000    0.000    0.000 
#    0.000    0.000    0.000    0.000    0.000    0.000 
#
# Total GULP energy -178747.406233 kJ/mol
# GULP energy per Si atom -5585.856445 kJ/mol
# Density = 1.806216 g / cm^3
# Si number density = 18.103367 Si / 1000 Ang^3
#
#
#
# Elastic Constant Matrix: (Units=GPa)
#
#
# Indices 1 2 3 4 5 6 
#
# 1 186.6037 56.1013 102.3589 0.0000 7.8743 0.0000
# 2 56.1013 48.7264 58.5592 0.0000 2.2229 0.0000
# 3 102.3589 58.5592 173.2230 0.0000 1.9348 0.0000
# 4 0.0000 0.0000 0.0000 3.4119 0.0000 -10.5163
# 5 7.8743 2.2229 1.9348 0.0000 11.7522 0.0000
# 6 0.0000 0.0000 0.0000 -10.5163 0.0000 68.3964
#
#
#
# Elastic Compliance Matrix: (Units=1/GPa)
#
#
# Indices 1 2 3 4 5 6 
#
# 1 0.009304 -0.006673 -0.003192 0.000000 -0.004446 0.000000
# 2 -0.006673 0.039604 -0.009429 0.000000 -0.001468 0.000000
# 3 -0.003192 -0.009429 0.010823 0.000000 0.002141 0.000000
# 4 0.000000 0.000000 0.000000 0.557118 0.000000 0.085660
# 5 -0.004446 -0.001468 0.002141 0.000000 0.087995 0.000000
# 6 0.000000 0.000000 0.000000 0.085660 0.000000 0.027791
#
#
# Mechanical properties :
#
#
# Convention : Reuss Voigt Hill
#
# Bulk Modulus (GPa) = 47.29746 93.62131 70.45939
# Shear Modulus (GPa) = 6.42450 29.48100 17.95275
#
# Velocity S-wave (km/s) = 1.88587 4.03982 3.15251
# Velocity P-wave (km/s) = 5.56103 8.57831 7.22885
#
# Compressibility (1/GPa) = 0.02114278
#
# Stress axis : x y z
#
# Youngs Moduli (GPa) = 107.48385 25.24984 92.39649
#
# Poissons Ratio (x) = 0.16848 0.29495
# Poissons Ratio (y) = 0.71720 0.87122
# Poissons Ratio (z) = 0.34312 0.23808
#
# Static dielectric constant tensor:
#      x y z
#    x 1.565850 0.000000 0.005070 
#    y 0.000000 1.607930 0.000000 
#    z 0.005070 0.000000 1.618950 
# 
# From -- ./inp_files/87058.got.cif
#   From: 2010.05.17/outbox.cif.g08.bks.cpg/sg10_44_cif.got.tgz:87058.got - 2010.06.03 11:33:40.
