data_PCOD9152945
_publ_section_title
;
Structure prediction by ZEFSAII (Michael W. Deem and Ramdas Pophale) SiO2 
 PCOD9152945
Probable space group: P 2/M
;
_chemical_formula_sum "Si O2"
_cell_formula_units_Z 24
_cell_length_a 8.313986
_cell_length_b 18.978883
_cell_length_c 8.765957
_cell_angle_alpha 90.000000
_cell_angle_beta 121.773297
_cell_angle_gamma 90.000000
_cell_volume 1175.895694
_symmetry_space_group_name_H-M "P 2/M"
_symmetry_group_IT_number 10
_symmetry_cell_setting 'monoclinic'
loop_
_space_group_symop_operation_xyz
x,y,z
-x,y,-z
-x,-y,-z
x,-y,z
loop_
_atom_site_type_symbol
_atom_site_label
_atom_site_fract_x
_atom_site_fract_y
_atom_site_fract_z
Si Si1 0.450326 0.081779 0.230914
Si Si2 0.187803 0.678600 0.994539
Si Si3 0.193185 0.083170 0.411481
Si Si4 0.131832 0.837974 0.912416
Si Si5 0.455898 0.578181 0.299461
Si Si6 0.155586 0.420194 0.690949
O O1 0.321012 0.085727 0.320562
O O2 0.659899 0.107987 0.383675
O O3 0.472218 0.000000 0.203768
O O4 0.322284 0.118403 0.039890
O O5 0.198876 0.757294 0.933795
O O6 0.176924 0.624979 0.850646
O O7 0.345943 0.646239 0.184314
O O8 0.000000 0.676694 0.000000
O O9 0.005862 0.129117 0.285417
O O10 0.145814 0.000000 0.411103
O O11 0.000000 0.841525 0.000000
O O12 0.500000 0.583933 0.500000
O O13 0.362429 0.500000 0.228654
O O14 0.648787 0.576424 0.301087
O O15 0.095295 0.500000 0.700293
O O16 0.000000 0.389286 0.500000
#
# Coordination Sequence:
#
# PCOD9152945 Si02
#       6
#     4   4   4   4   4   4
#     4   8  13  23  40  63  91 136 191 236 279 324
#     4  11  22  35  51  83 121 157 191 228 283 343
#     4   8  13  23  41  62  92 138 189 237 279 323
#     4   9  17  28  39  66 107 148 184 228 280 331
#     4  10  21  39  62  86 109 142 190 239 289 343
#     4  10  21  39  62  84 109 146 191 240 287 337
#
# _framework density 20.409973000000001
#
# number of rings (size 3 to 8) (size 9 to 14) (size 15 to 20)
#    0.000    2.667    0.000    3.500    0.000    6.000 
#   12.000    0.000    0.000    0.000    0.000    0.000 
#    0.000   13.333    0.000    4.000    0.000    4.667 
#
# Total GULP energy -133850.298777 kJ/mol
# GULP energy per Si atom -5577.095782 kJ/mol
# Density = 2.036352 g / cm^3
# Si number density = 20.409973 Si / 1000 Ang^3
#
#
#
# Elastic Constant Matrix: (Units=GPa)
#
#
# Indices 1 2 3 4 5 6 
#
# 1 36.4975 29.2545 28.3248 0.0000 5.6852 0.0000
# 2 29.2545 100.2299 77.9830 0.0000 21.9041 0.0000
# 3 28.3248 77.9830 138.6683 0.0000 30.7301 0.0000
# 4 0.0000 0.0000 0.0000 -1.7154 0.0000 30.0845
# 5 5.6852 21.9041 30.7301 0.0000 30.7938 0.0000
# 6 0.0000 0.0000 0.0000 30.0845 0.0000 -10.7311
#
#
#
# Elastic Compliance Matrix: (Units=1/GPa)
#
#
# Indices 1 2 3 4 5 6 
#
# 1 0.036441 -0.008827 -0.003056 0.000000 0.002600 0.000000
# 2 -0.008827 0.020161 -0.008626 0.000000 -0.004104 0.000000
# 3 -0.003056 -0.008626 0.014382 0.000000 -0.007653 0.000000
# 4 0.000000 0.000000 0.000000 0.012103 0.000000 0.033930
# 5 0.002600 -0.004104 -0.007653 0.000000 0.042550 0.000000
# 6 0.000000 0.000000 0.000000 0.033930 0.000000 0.001935
#
#
# Mechanical properties :
#
#
# Convention : Reuss Voigt Hill
#
# Bulk Modulus (GPa) = 33.36923 60.72449 47.04686
# Shear Modulus (GPa) = 27.99895 12.99170 20.49532
#
# Velocity S-wave (km/s) = 3.70784 2.52570 3.17232
# Velocity P-wave (km/s) = 5.89200 6.19052 6.04310
#
# Compressibility (1/GPa) = 0.02996773
#
# Stress axis : x y z
#
# Youngs Moduli (GPa) = 27.44179 49.59973 69.52903
#
# Poissons Ratio (x) = 0.43781 0.21247
# Poissons Ratio (y) = 0.24222 0.59974
# Poissons Ratio (z) = 0.08386 0.42784
#
# Static dielectric constant tensor:
#      x y z
#    x 1.724800 0.000000 0.014260 
#    y 0.000000 1.731770 0.000000 
#    z 0.014260 0.000000 1.747470 
# 
# From -- ./inp_files/20271.got.cif
#   From: 2010.05.17/outbox.cif.g08.bks.cpg/sg10_11_cif.got.tgz:20271.got - 2010.06.03 11:33:40.
