data_PCOD9152440
_publ_section_title
;
Structure prediction by ZEFSAII (Michael W. Deem and Ramdas Pophale) SiO2 
 PCOD9152440
Probable space group: P 2/M
;
_chemical_formula_sum "Si O2"
_cell_formula_units_Z 32
_cell_length_a 8.550067
_cell_length_b 22.257505
_cell_length_c 14.844432
_cell_angle_alpha 90.000000
_cell_angle_beta 32.587599
_cell_angle_gamma 90.000000
_cell_volume 1521.481250
_symmetry_space_group_name_H-M "P 2/M"
_symmetry_group_IT_number 10
_symmetry_cell_setting 'monoclinic'
loop_
_space_group_symop_operation_xyz
x,y,z
-x,y,-z
-x,-y,-z
x,-y,z
loop_
_atom_site_type_symbol
_atom_site_label
_atom_site_fract_x
_atom_site_fract_y
_atom_site_fract_z
Si Si1 0.594526 0.669724 0.352105
Si Si2 0.282378 0.658241 0.189796
Si Si3 0.171849 0.837106 0.011064
Si Si4 0.815121 0.301298 0.999944
Si Si5 0.372860 0.933856 0.163314
Si Si6 0.147103 0.570219 0.526796
Si Si7 0.859567 0.760167 0.471256
Si Si8 0.823751 0.874670 0.360423
O O1 0.500000 0.679939 0.500000
O O2 0.940805 0.672232 0.184800
O O3 0.440747 0.608727 0.394561
O O4 0.445549 0.724863 0.370220
O O5 0.085054 0.599502 0.291449
O O6 0.075586 0.713614 0.316438
O O7 0.500000 0.667074 0.000000
O O8 0.531615 0.658508 0.145566
O O9 0.259682 0.767830 0.985837
O O10 0.973323 0.857536 0.192150
O O11 0.451631 0.880683 0.873168
O O12 0.000000 0.840650 0.000000
O O13 0.000000 0.301032 0.000000
O O14 0.036610 0.919053 0.310887
O O15 0.418777 0.000000 0.181278
O O16 0.500000 0.934682 0.000000
O O17 0.193676 0.500000 0.519249
O O18 0.000000 0.578981 0.500000
O O19 0.808780 0.815991 0.430857
O O20 0.000000 0.774907 0.500000
O O21 0.500000 0.897443 0.500000
#
# Coordination Sequence:
#
# PCOD9152440 Si02
#       8
#     4   4   4   4   4   4   4   4
#     4  11  21  36  57  83 115 147 184 234 294 359
#     4  11  21  35  57  84 113 146 189 242 293 345
#     4  10  21  37  60  88 120 158 197 243 304 371
#     4  11  20  32  53  84 114 137 176 233 289 340
#     4   9  20  39  59  81 116 162 206 247 298 362
#     4  10  22  41  59  76 108 158 205 238 287 363
#     4  11  22  38  59  84 121 162 193 230 298 376
#     4  11  22  36  58  88 119 152 200 254 300 351
#
# _framework density 21.032135
#
# number of rings (size 3 to 8) (size 9 to 14) (size 15 to 20)
#    0.000    1.500    0.000    7.875    0.000    5.000 
#    0.000    0.625    0.000    4.875    0.000    0.000 
#    0.000    0.000    0.000    0.000    0.000    0.000 
#
# Total GULP energy -178777.244402 kJ/mol
# GULP energy per Si atom -5586.788888 kJ/mol
# Density = 2.098426 g / cm^3
# Si number density = 21.032135 Si / 1000 Ang^3
#
#
#
# Elastic Constant Matrix: (Units=GPa)
#
#
# Indices 1 2 3 4 5 6 
#
# 1 84.0192 34.0863 20.6689 0.0000 -14.1907 0.0000
# 2 34.0863 102.1489 25.6940 0.0000 -22.2110 0.0000
# 3 20.6689 25.6940 80.9657 0.0000 -17.6065 0.0000
# 4 0.0000 0.0000 0.0000 5.3869 0.0000 -0.7505
# 5 -14.1907 -22.2110 -17.6065 0.0000 50.4722 0.0000
# 6 0.0000 0.0000 0.0000 -0.7505 0.0000 27.9979
#
#
#
# Elastic Compliance Matrix: (Units=1/GPa)
#
#
# Indices 1 2 3 4 5 6 
#
# 1 0.014256 -0.003896 -0.002060 0.000000 0.001575 0.000000
# 2 -0.003896 0.012420 -0.002160 0.000000 0.003616 0.000000
# 3 -0.002060 -0.002160 0.014316 0.000000 0.003464 0.000000
# 4 0.000000 0.000000 0.000000 0.186330 0.000000 0.004994
# 5 0.001575 0.003616 0.003464 0.000000 0.023055 0.000000
# 6 0.000000 0.000000 0.000000 0.004994 0.000000 0.035851
#
#
# Mechanical properties :
#
#
# Convention : Reuss Voigt Hill
#
# Bulk Modulus (GPa) = 40.39239 47.55913 43.97576
# Shear Modulus (GPa) = 16.09204 29.21704 22.65454
#
# Velocity S-wave (km/s) = 2.76908 3.73119 3.28554
# Velocity P-wave (km/s) = 5.42867 6.42060 5.94536
#
# Compressibility (1/GPa) = 0.02475714
#
# Stress axis : x y z
#
# Youngs Moduli (GPa) = 70.14800 80.51850 69.85377
#
# Poissons Ratio (x) = 0.31373 0.14391
# Poissons Ratio (y) = 0.27332 0.15090
# Poissons Ratio (z) = 0.14452 0.17394
#
# Static dielectric constant tensor:
#      x y z
#    x 1.875060 0.000000 0.043730 
#    y 0.000000 1.724980 0.000000 
#    z 0.043730 0.000000 1.826760 
# 
# From -- ./inp_files/62685.got.cif
#   From: 2010.05.17/outbox.cif.g08.bks.cpg/sg10_32_cif.got.tgz:62685.got - 2010.06.03 11:33:40.
