data_PCOD9152415
_publ_section_title
;
Structure prediction by ZEFSAII (Michael W. Deem and Ramdas Pophale) SiO2 
 PCOD9152415
Probable space group: P 2/M
;
_chemical_formula_sum "Si O2"
_cell_formula_units_Z 32
_cell_length_a 12.108656
_cell_length_b 8.810105
_cell_length_c 14.249757
_cell_angle_alpha 90.000000
_cell_angle_beta 66.546497
_cell_angle_gamma 90.000000
_cell_volume 1394.554033
_symmetry_space_group_name_H-M "P 2/M"
_symmetry_group_IT_number 10
_symmetry_cell_setting 'monoclinic'
loop_
_space_group_symop_operation_xyz
x,y,z
-x,y,-z
-x,-y,-z
x,-y,z
loop_
_atom_site_type_symbol
_atom_site_label
_atom_site_fract_x
_atom_site_fract_y
_atom_site_fract_z
Si Si1 0.127356 0.818615 0.562594
Si Si2 0.657206 0.821763 0.833540
Si Si3 0.494575 0.821574 0.286507
Si Si4 0.996535 0.827021 0.115632
Si Si5 0.254444 0.323883 0.803694
Si Si6 0.374196 0.320094 0.494861
Si Si7 0.248219 0.674520 0.031841
Si Si8 0.878510 0.318344 0.646220
O O1 0.263838 0.500000 0.772474
O O2 0.252029 0.762425 0.566135
O O3 0.132704 0.759004 0.452791
O O4 0.005638 0.743640 0.643273
O O5 0.539153 0.795236 0.810727
O O6 0.343332 0.770060 0.059056
O O7 0.766376 0.732743 0.746693
O O8 0.684005 0.000000 0.819601
O O9 0.628026 0.767677 0.265783
O O10 0.401075 0.724321 0.378414
O O11 0.478914 0.000000 0.312153
O O12 0.871871 0.747329 0.183946
O O13 0.000712 0.000000 0.148674
O O14 0.115646 0.736328 0.102124
O O15 0.000000 0.831931 0.000000
O O16 0.257257 0.316093 0.916640
O O17 0.880716 0.000000 0.432958
O O18 0.500000 0.272299 0.500000
O O19 0.359805 0.500000 0.510985
O O20 0.259568 0.500000 0.055318
O O21 0.882875 0.500000 0.634642
#
# Coordination Sequence:
#
# PCOD9152415 Si02
#       8
#     4   4   4   4   4   4   4   4
#     4  11  21  37  62  90 120 154 196 243 298 359
#     4  11  23  39  59  87 123 161 202 252 305 358
#     4  11  24  41  63  88 119 159 202 248 303 361
#     4   9  17  33  58  84 113 150 193 243 298 353
#     4  10  21  38  61  88 122 161 206 251 298 357
#     4  11  24  43  66  91 121 157 200 248 301 361
#     4  10  21  37  59  89 122 161 203 250 303 356
#     4  11  21  36  61  89 119 156 198 245 297 356
#
# _framework density 22.946403
#
# number of rings (size 3 to 8) (size 9 to 14) (size 15 to 20)
#    0.000    1.500    1.250    5.250    0.000    6.000 
#    2.250    2.500    0.000    0.000    0.000    0.000 
#    0.000    0.000    0.000    0.000    0.000    0.000 
#
# Total GULP energy -179119.290969 kJ/mol
# GULP energy per Si atom -5597.477843 kJ/mol
# Density = 2.289418 g / cm^3
# Si number density = 22.946403 Si / 1000 Ang^3
#
#
#
# Elastic Constant Matrix: (Units=GPa)
#
#
# Indices 1 2 3 4 5 6 
#
# 1 96.1595 25.6780 21.8450 0.0000 -21.3961 0.0000
# 2 25.6780 102.3891 19.8599 0.0000 -13.1197 0.0000
# 3 21.8450 19.8599 58.5431 0.0000 -4.4702 0.0000
# 4 0.0000 0.0000 0.0000 3.0202 0.0000 20.0755
# 5 -21.3961 -13.1197 -4.4702 0.0000 30.7609 0.0000
# 6 0.0000 0.0000 0.0000 20.0755 0.0000 39.0834
#
#
#
# Elastic Compliance Matrix: (Units=1/GPa)
#
#
# Indices 1 2 3 4 5 6 
#
# 1 0.013523 -0.001592 -0.003882 0.000000 0.008163 0.000000
# 2 -0.001592 0.011149 -0.002942 0.000000 0.003220 0.000000
# 3 -0.003882 -0.002942 0.019442 0.000000 -0.001130 0.000000
# 4 0.000000 0.000000 0.000000 -0.137142 0.000000 0.070444
# 5 0.008163 0.003220 -0.001130 0.000000 0.039396 0.000000
# 6 0.000000 0.000000 0.000000 0.070444 0.000000 -0.010598
#
#
# Mechanical properties :
#
#
# Convention : Reuss Voigt Hill
#
# Bulk Modulus (GPa) = 36.65688 43.53972 40.09830
# Shear Modulus (GPa) = -130.53704 27.22016 -51.65844
#
# Velocity S-wave (km/s) = -7.55058 3.44793 -4.74990
# Velocity P-wave (km/s) = 7.74631 5.90480 3.54533
#
# Compressibility (1/GPa) = 0.02728001
#
# Stress axis : x y z
#
# Youngs Moduli (GPa) = 73.94892 89.69173 51.43517
#
# Poissons Ratio (x) = 0.14282 0.19970
# Poissons Ratio (y) = 0.11776 0.15133
# Poissons Ratio (z) = 0.28711 0.26389
#
# Static dielectric constant tensor:
#      x y z
#    x 1.903080 0.000000 0.073850 
#    y 0.000000 1.773780 0.000000 
#    z 0.073850 0.000000 1.900130 
# 
# From -- ./inp_files/88531.got.cif
#   From: 2010.05.17/outbox.cif.g08.bks.cpg/sg10_45_cif.got.tgz:88531.got - 2010.06.03 11:33:40.
