data_PCOD9152236
_publ_section_title
;
Structure prediction by ZEFSAII (Michael W. Deem and Ramdas Pophale) SiO2 
 PCOD9152236
Probable space group: P 2/M
;
_chemical_formula_sum "Si O2"
_cell_formula_units_Z 32
_cell_length_a 12.142053
_cell_length_b 16.809933
_cell_length_c 16.319371
_cell_angle_alpha 90.000000
_cell_angle_beta 30.763643
_cell_angle_gamma 90.000000
_cell_volume 1703.747437
_symmetry_space_group_name_H-M "P 2/M"
_symmetry_group_IT_number 10
_symmetry_cell_setting 'monoclinic'
loop_
_space_group_symop_operation_xyz
x,y,z
-x,y,-z
-x,-y,-z
x,-y,z
loop_
_atom_site_type_symbol
_atom_site_label
_atom_site_fract_x
_atom_site_fract_y
_atom_site_fract_z
Si Si1 0.805030 0.735152 0.187675
Si Si2 0.144746 0.911055 0.643267
Si Si3 0.560434 0.590913 0.057393
Si Si4 0.174346 0.915350 0.816632
Si Si5 0.042091 0.695928 0.204417
Si Si6 0.740881 0.832978 0.836403
Si Si7 0.246252 0.722834 0.330573
Si Si8 0.657337 0.748185 0.548646
O O1 0.738257 0.828092 0.222259
O O2 0.564423 0.701953 0.330448
O O3 0.909096 0.717644 0.208545
O O4 0.000000 0.717731 0.000000
O O5 0.096510 0.909653 0.771910
O O6 0.290986 0.833861 0.528341
O O7 0.926936 0.896652 0.731711
O O8 0.227938 0.000000 0.572697
O O9 0.536459 0.500000 0.099910
O O10 0.403065 0.651179 0.204866
O O11 0.500000 0.595875 0.000000
O O12 0.806299 0.620837 0.906856
O O13 0.296701 0.000000 0.741778
O O14 0.000000 0.921339 0.000000
O O15 0.205331 0.766011 0.128745
O O16 0.861513 0.694401 0.390381
O O17 0.756758 0.787791 0.739899
O O18 0.500000 0.863640 0.000000
O O19 0.329629 0.759565 0.362361
O O20 0.000000 0.695693 0.500000
#
# Coordination Sequence:
#
# PCOD9152236 Si02
#       8
#     4   4   4   4   4   4   4   4
#     4  11  22  35  59  87 115 154 207 255 291 357
#     4  10  21  37  55  84 123 161 207 257 305 354
#     4  11  22  38  64  96 124 153 191 243 306 363
#     4   9  18  32  52  79 117 154 194 252 310 347
#     4  11  19  39  57  86 121 152 194 243 296 361
#     4  11  20  35  61  84 111 162 200 250 297 353
#     4  12  20  38  61  89 122 158 197 248 293 360
#     4  11  23  36  60  88 116 163 208 245 298 356
#
# _framework density 18.782126999999999
#
# number of rings (size 3 to 8) (size 9 to 14) (size 15 to 20)
#    0.000    1.250    7.500    1.125    0.000    1.000 
#    0.000    3.125    0.000    4.875    0.000    0.000 
#    0.000    0.000    0.000    0.000    0.000    0.000 
#
# Total GULP energy -178165.488592 kJ/mol
# GULP energy per Si atom -5567.671519 kJ/mol
# Density = 1.873938 g / cm^3
# Si number density = 18.782127 Si / 1000 Ang^3
#
#
#
# Elastic Constant Matrix: (Units=GPa)
#
#
# Indices 1 2 3 4 5 6 
#
# 1 85.7102 2.1413 58.0750 0.0000 10.1949 0.0000
# 2 2.1413 56.0980 41.4633 0.0000 12.5159 0.0000
# 3 58.0750 41.4633 125.7723 0.0000 -14.4454 0.0000
# 4 0.0000 0.0000 0.0000 -98.3349 0.0000 -5.4348
# 5 10.1949 12.5159 -14.4454 0.0000 38.4124 0.0000
# 6 0.0000 0.0000 0.0000 -5.4348 0.0000 8.2320
#
#
#
# Elastic Compliance Matrix: (Units=1/GPa)
#
#
# Indices 1 2 3 4 5 6 
#
# 1 0.030271 0.022000 -0.024013 0.000000 -0.024233 0.000000
# 2 0.022000 0.045138 -0.028636 0.000000 -0.031315 0.000000
# 3 -0.024013 -0.028636 0.031650 0.000000 0.027606 0.000000
# 4 0.000000 0.000000 0.000000 -0.009811 0.000000 -0.006477
# 5 -0.024233 -0.031315 0.027606 0.000000 0.053049 0.000000
# 6 0.000000 0.000000 0.000000 -0.006477 0.000000 0.117201
#
#
# Mechanical properties :
#
#
# Convention : Reuss Voigt Hill
#
# Bulk Modulus (GPa) = 21.85299 52.32665 37.08982
# Shear Modulus (GPa) = 14.53282 0.72198 7.62740
#
# Velocity S-wave (km/s) = 2.78467 0.62067 2.01738
# Velocity P-wave (km/s) = 4.69035 5.33235 5.02162
#
# Compressibility (1/GPa) = 0.04576034
#
# Stress axis : x y z
#
# Youngs Moduli (GPa) = 33.03518 22.15433 31.59570
#
# Poissons Ratio (x) = -0.48739 0.75872
# Poissons Ratio (y) = -0.72677 0.90476
# Poissons Ratio (z) = 0.79328 0.63440
#
# Static dielectric constant tensor:
#      x y z
#    x 1.671960 0.000000 -0.006200 
#    y 0.000000 1.679780 0.000000 
#    z -0.006200 0.000000 1.683180 
# 
# From -- ./inp_files/65395.got.cif
#   From: 2010.05.17/outbox.cif.g08.bks.cpg/sg10_33_cif.got.tgz:65395.got - 2010.06.03 11:33:40.
