data_PCOD9152245
_publ_section_title
;
Structure prediction by ZEFSAII (Michael W. Deem and Ramdas Pophale) SiO2 
 PCOD9152245
Probable space group: P 2/M
;
_chemical_formula_sum "Si O2"
_cell_formula_units_Z 24
_cell_length_a 16.827337
_cell_length_b 7.634337
_cell_length_c 16.627253
_cell_angle_alpha 90.000000
_cell_angle_beta 151.496255
_cell_angle_gamma 90.000000
_cell_volume 1019.347832
_symmetry_space_group_name_H-M "P 2/M"
_symmetry_group_IT_number 10
_symmetry_cell_setting 'monoclinic'
loop_
_space_group_symop_operation_xyz
x,y,z
-x,y,-z
-x,-y,-z
x,-y,z
loop_
_atom_site_type_symbol
_atom_site_label
_atom_site_fract_x
_atom_site_fract_y
_atom_site_fract_z
Si Si1 0.944029 0.296612 0.243313
Si Si2 0.439837 0.298959 0.675290
Si Si3 0.638855 0.000000 0.511296
Si Si4 0.754020 0.000000 0.787726
Si Si5 0.208821 0.289946 0.607180
Si Si6 0.672071 0.798477 0.120093
Si Si7 0.827403 0.705697 0.972710
O O1 0.988060 0.500000 0.272452
O O2 0.766344 0.288034 0.130075
O O3 0.072899 0.221869 0.422682
O O4 0.931726 0.225942 0.142145
O O5 0.391047 0.500000 0.616865
O O6 0.382531 0.257335 0.714818
O O7 0.635731 0.285166 0.833586
O O8 0.347031 0.170547 0.531625
O O9 0.754377 0.000000 0.692040
O O10 0.443941 0.000000 0.366196
O O11 0.832095 0.829960 0.899792
O O12 0.185706 0.500000 0.596933
O O13 0.210823 0.210472 0.696889
O O14 0.641161 0.000000 0.070607
O O15 0.500000 0.718046 0.000000
O O16 0.863517 0.500000 0.988372
#
# Coordination Sequence:
#
# PCOD9152245 Si02
#       7
#     4   4   2   2   4   4   4
#     4  10  21  37  56  78 106 141 181 225 271 319
#     4   9  18  33  54  79 108 143 181 223 272 323
#     4   9  18  32  53  82 111 138 175 225 274 325
#     4   9  18  32  53  82 111 138 175 225 274 325
#     4  10  21  37  56  78 106 141 181 225 271 319
#     4  11  24  37  52  78 110 143 180 223 268 316
#     4   9  18  33  54  79 108 143 181 223 272 323
#
# _framework density 23.544467000000001
#
# number of rings (size 3 to 8) (size 9 to 14) (size 15 to 20)
#    0.000    2.333    0.000    2.000    2.333    6.000 
#    0.000    3.333    0.000    2.000    0.000    4.667 
#    0.000    0.000    0.000    0.000    0.000    0.000 
#
# Total GULP energy -134165.016057 kJ/mol
# GULP energy per Si atom -5590.209002 kJ/mol
# Density = 2.349088 g / cm^3
# Si number density = 23.544467 Si / 1000 Ang^3
#
#
#
# Elastic Constant Matrix: (Units=GPa)
#
#
# Indices 1 2 3 4 5 6 
#
# 1 70.4779 16.0566 22.6825 0.0000 -13.5775 0.0000
# 2 16.0566 78.3407 29.6991 0.0000 -23.0731 0.0000
# 3 22.6825 29.6991 115.1895 0.0000 -27.8304 0.0000
# 4 0.0000 0.0000 0.0000 16.0742 0.0000 -3.3315
# 5 -13.5775 -23.0731 -27.8304 0.0000 53.3885 0.0000
# 6 0.0000 0.0000 0.0000 -3.3315 0.0000 3.5591
#
#
#
# Elastic Compliance Matrix: (Units=1/GPa)
#
#
# Indices 1 2 3 4 5 6 
#
# 1 0.015685 -0.001790 -0.002117 0.000000 0.002112 0.000000
# 2 -0.001790 0.015526 -0.002448 0.000000 0.004979 0.000000
# 3 -0.002117 -0.002448 0.010690 0.000000 0.003976 0.000000
# 4 0.000000 0.000000 0.000000 0.077185 0.000000 0.072248
# 5 0.002112 0.004979 0.003976 0.000000 0.023492 0.000000
# 6 0.000000 0.000000 0.000000 0.072248 0.000000 0.348594
#
#
# Mechanical properties :
#
#
# Convention : Reuss Voigt Hill
#
# Bulk Modulus (GPa) = 34.25675 44.54271 39.39973
# Shear Modulus (GPa) = 9.73498 27.64237 18.68867
#
# Velocity S-wave (km/s) = 2.03561 3.43016 2.82043
# Velocity P-wave (km/s) = 4.48401 5.88622 5.23230
#
# Compressibility (1/GPa) = 0.02919133
#
# Stress axis : x y z
#
# Youngs Moduli (GPa) = 63.75594 64.40838 93.54595
#
# Poissons Ratio (x) = 0.11531 0.19801
# Poissons Ratio (y) = 0.11414 0.22896
# Poissons Ratio (z) = 0.13496 0.15765
#
# Static dielectric constant tensor:
#      x y z
#    x 1.858280 0.000000 0.064290 
#    y 0.000000 1.842010 0.000000 
#    z 0.064290 0.000000 1.952910 
# 
# From -- ./inp_files/38123.got.cif
#   From: 2010.05.17/outbox.cif.g08.bks.cpg/sg10_20_cif.got.tgz:38123.got - 2010.06.03 11:33:40.
