data_PCOD9152090
_publ_section_title
;
Structure prediction by ZEFSAII (Michael W. Deem and Ramdas Pophale) SiO2 
 PCOD9152090
Probable space group: P 2/M
;
_chemical_formula_sum "Si O2"
_cell_formula_units_Z 28
_cell_length_a 15.571635
_cell_length_b 21.835143
_cell_length_c 9.126708
_cell_angle_alpha 90.000000
_cell_angle_beta 150.886091
_cell_angle_gamma 90.000000
_cell_volume 1509.835527
_symmetry_space_group_name_H-M "P 2/M"
_symmetry_group_IT_number 10
_symmetry_cell_setting 'monoclinic'
loop_
_space_group_symop_operation_xyz
x,y,z
-x,y,-z
-x,-y,-z
x,-y,z
loop_
_atom_site_type_symbol
_atom_site_label
_atom_site_fract_x
_atom_site_fract_y
_atom_site_fract_z
Si Si1 0.715672 0.500000 0.005998
Si Si2 0.479141 0.371130 0.300238
Si Si3 0.472387 0.928504 0.288259
Si Si4 0.302056 0.068554 0.633177
Si Si5 0.186400 0.846430 0.699482
Si Si6 0.816866 0.702685 0.316487
Si Si7 0.840396 0.370800 0.654950
Si Si8 0.919675 0.500000 0.620551
O O1 0.802625 0.500000 0.297716
O O2 0.877295 0.500000 0.131359
O O3 0.598739 0.439774 0.813535
O O4 0.500000 0.350952 0.500000
O O5 0.661023 0.369620 0.481338
O O6 0.336546 0.330397 0.002683
O O7 0.500000 0.920142 0.500000
O O8 0.654833 0.919852 0.471562
O O9 0.418736 0.000000 0.181482
O O10 0.330829 0.881477 0.013160
O O11 0.190640 0.118706 0.550814
O O12 0.230941 0.000000 0.547626
O O13 0.500000 0.069641 0.000000
O O14 0.223135 0.774812 0.733689
O O15 0.000000 0.852775 0.500000
O O16 0.830278 0.672228 0.496674
O O17 0.000000 0.694080 0.500000
O O18 0.877363 0.439246 0.649267
O O19 0.000000 0.352950 0.000000
#
# Coordination Sequence:
#
# PCOD9152090 Si02
#       8
#     2   4   4   4   4   4   4   2
#     4  11  22  39  64  92 123 157 191 241 302 358
#     4  12  25  41  64  90 119 157 200 244 299 363
#     4   9  18  34  57  85 117 152 192 240 289 341
#     4   8  15  30  53  80 110 146 186 227 274 335
#     4  10  21  36  57  83 113 152 193 240 289 347
#     4  11  24  43  60  84 121 157 204 252 300 354
#     4  12  25  42  65  91 120 155 199 249 303 360
#     4  11  22  39  66  92 123 157 189 247 306 352
#
# _framework density 18.545065000000001
#
# number of rings (size 3 to 8) (size 9 to 14) (size 15 to 20)
#    0.000    1.571    1.429    5.143    0.000    5.714 
#    0.000    3.571    0.000    2.571    0.000    0.000 
#    0.000    0.000    0.000    0.000    0.000    0.000 
#
# Total GULP energy -156411.567350 kJ/mol
# GULP energy per Si atom -5586.127405 kJ/mol
# Density = 1.850286 g / cm^3
# Si number density = 18.545065 Si / 1000 Ang^3
#
#
#
# Elastic Constant Matrix: (Units=GPa)
#
#
# Indices 1 2 3 4 5 6 
#
# 1 173.9965 96.5429 72.5708 0.0000 -12.1707 0.0000
# 2 96.5429 156.4559 70.3871 0.0000 3.3126 0.0000
# 3 72.5708 70.3871 105.2061 0.0000 -5.5934 0.0000
# 4 0.0000 0.0000 0.0000 12.1935 0.0000 16.2530
# 5 -12.1707 3.3126 -5.5934 0.0000 34.5256 0.0000
# 6 0.0000 0.0000 0.0000 16.2530 0.0000 24.6975
#
#
#
# Elastic Compliance Matrix: (Units=1/GPa)
#
#
# Indices 1 2 3 4 5 6 
#
# 1 0.010098 -0.004651 -0.003673 0.000000 0.003411 0.000000
# 2 -0.004651 0.011409 -0.004610 0.000000 -0.003481 0.000000
# 3 -0.003673 -0.004610 0.015208 0.000000 0.001612 0.000000
# 4 0.000000 0.000000 0.000000 0.667685 0.000000 -0.439392
# 5 0.003411 -0.003481 0.001612 0.000000 0.030762 0.000000
# 6 0.000000 0.000000 0.000000 -0.439392 0.000000 0.329646
#
#
# Mechanical properties :
#
#
# Convention : Reuss Voigt Hill
#
# Bulk Modulus (GPa) = 92.17861 101.62891 96.90376
# Shear Modulus (GPa) = 4.56916 27.36052 15.96484
#
# Velocity S-wave (km/s) = 1.57136 3.84520 2.93724
# Velocity P-wave (km/s) = 7.28734 8.63910 7.99185
#
# Compressibility (1/GPa) = 0.01084850
#
# Stress axis : x y z
#
# Youngs Moduli (GPa) = 99.02539 87.64715 65.75317
#
# Poissons Ratio (x) = 0.40768 0.24148
# Poissons Ratio (y) = 0.46060 0.30312
# Poissons Ratio (z) = 0.36368 0.40405
#
# Static dielectric constant tensor:
#      x y z
#    x 1.658170 0.000000 -0.015770 
#    y 0.000000 1.621660 0.000000 
#    z -0.015770 0.000000 1.630970 
# 
# From -- ./inp_files/30525.got.cif
#   From: 2010.05.17/outbox.cif.g08.bks.cpg/sg10_16_cif.got.tgz:30525.got - 2010.06.03 11:33:40.
