data_PCOD9152981
_publ_section_title
;
Structure prediction by ZEFSAII (Michael W. Deem and Ramdas Pophale) SiO2 
 PCOD9152981
Probable space group: P 2/M
;
_chemical_formula_sum "Si O2"
_cell_formula_units_Z 26
_cell_length_a 17.168759
_cell_length_b 7.442018
_cell_length_c 7.994287
_cell_angle_alpha 90.000000
_cell_angle_beta 88.258601
_cell_angle_gamma 90.000000
_cell_volume 1020.960023
_symmetry_space_group_name_H-M "P 2/M"
_symmetry_group_IT_number 10
_symmetry_cell_setting 'monoclinic'
loop_
_space_group_symop_operation_xyz
x,y,z
-x,y,-z
-x,-y,-z
x,-y,z
loop_
_atom_site_type_symbol
_atom_site_label
_atom_site_fract_x
_atom_site_fract_y
_atom_site_fract_z
Si Si1 0.247267 0.200096 0.465195
Si Si2 0.882796 0.789114 0.095520
Si Si3 0.415490 0.218038 0.565566
Si Si4 0.969419 0.216064 0.731309
Si Si5 0.585646 0.782684 0.050586
Si Si6 0.747369 0.696368 0.892869
Si Si7 0.874824 0.500000 0.509867
O O1 0.336905 0.265912 0.473522
O O2 0.231505 0.184845 0.267115
O O3 0.188339 0.341903 0.543616
O O4 0.240931 0.000000 0.540662
O O5 0.943074 0.714144 0.228242
O O6 0.880535 0.000000 0.128567
O O7 0.924234 0.764074 0.911323
O O8 0.795857 0.728069 0.058643
O O9 0.500000 0.284032 0.500000
O O10 0.403758 0.268582 0.758234
O O11 0.419393 0.000000 0.555734
O O12 0.928140 0.341094 0.600435
O O13 0.969682 0.000000 0.691705
O O14 0.588879 0.000000 0.037209
O O15 0.500000 0.725750 0.000000
O O16 0.656814 0.710971 0.938595
O O17 0.769586 0.500000 0.827543
#
# Coordination Sequence:
#
# PCOD9152981 Si02
#       7
#     4   4   4   4   4   4   2
#     4  11  21  36  57  84 120 157 198 245 291 349
#     4   9  17  30  48  74 110 153 194 237 296 344
#     4   9  19  38  63  88 113 152 200 241 292 353
#     4   9  18  30  47  75 116 155 192 242 295 351
#     4  10  21  39  63  88 115 154 196 240 297 352
#     4  12  22  34  54  86 122 155 198 242 295 351
#     4  12  20  31  51  82 119 154 199 236 300 350
#
# _framework density 25.466228000000001
#
# number of rings (size 3 to 8) (size 9 to 14) (size 15 to 20)
#    0.000    1.846    2.308    3.692    1.077    3.385 
#    1.385    0.385    0.000    0.000    0.000    2.154 
#    0.000    6.154    0.000    0.000    0.000    0.000 
#
# Total GULP energy -145047.119077 kJ/mol
# GULP energy per Si atom -5578.735349 kJ/mol
# Density = 2.540827 g / cm^3
# Si number density = 25.466228 Si / 1000 Ang^3
#
#
#
# Elastic Constant Matrix: (Units=GPa)
#
#
# Indices 1 2 3 4 5 6 
#
# 1 169.2183 28.7916 35.3311 0.0000 26.2584 0.0000
# 2 28.7916 123.4387 -1.4399 0.0000 11.3855 0.0000
# 3 35.3311 -1.4399 85.8749 0.0000 18.2569 0.0000
# 4 0.0000 0.0000 0.0000 -83.9940 0.0000 33.2384
# 5 26.2584 11.3855 18.2569 0.0000 52.1773 0.0000
# 6 0.0000 0.0000 0.0000 33.2384 0.0000 38.5259
#
#
#
# Elastic Compliance Matrix: (Units=1/GPa)
#
#
# Indices 1 2 3 4 5 6 
#
# 1 0.007028 -0.001448 -0.002410 0.000000 -0.002378 0.000000
# 2 -0.001448 0.008591 0.001062 0.000000 -0.001518 0.000000
# 3 -0.002410 0.001062 0.013446 0.000000 -0.003724 0.000000
# 4 0.000000 0.000000 0.000000 -0.008875 0.000000 0.007657
# 5 -0.002378 -0.001518 -0.003724 0.000000 0.021996 0.000000
# 6 0.000000 0.000000 0.000000 0.007657 0.000000 0.019350
#
#
# Mechanical properties :
#
#
# Convention : Reuss Voigt Hill
#
# Bulk Modulus (GPa) = 42.60126 55.98861 49.29493
# Shear Modulus (GPa) = 66.70885 22.39844 44.55364
#
# Velocity S-wave (km/s) = 5.12366 2.96891 4.18726
# Velocity P-wave (km/s) = 7.19495 5.81255 6.54038
#
# Compressibility (1/GPa) = 0.02347349
#
# Stress axis : x y z
#
# Youngs Moduli (GPa) = 142.28589 116.39639 74.37175
#
# Poissons Ratio (x) = 0.16855 0.17926
# Poissons Ratio (y) = 0.20604 -0.07902
# Poissons Ratio (z) = 0.34296 -0.12367
#
# Static dielectric constant tensor:
#      x y z
#    x 2.055780 0.000000 -0.053360 
#    y 0.000000 2.040910 0.000000 
#    z -0.053360 0.000000 2.094310 
# 
# From -- ./inp_files/31640.got.cif
#   From: 2010.05.17/outbox.cif.g08.bks.cpg/sg10_16_cif.got.tgz:31640.got - 2010.06.03 11:33:40.
