data_PCOD9152000
_publ_section_title
;
Structure prediction by ZEFSAII (Michael W. Deem and Ramdas Pophale) SiO2 
 PCOD9152000
Probable space group: P 2/M
;
_chemical_formula_sum "Si O2"
_cell_formula_units_Z 32
_cell_length_a 19.038229
_cell_length_b 7.735537
_cell_length_c 10.955665
_cell_angle_alpha 90.000000
_cell_angle_beta 120.273005
_cell_angle_gamma 90.000000
_cell_volume 1393.429720
_symmetry_space_group_name_H-M "P 2/M"
_symmetry_group_IT_number 10
_symmetry_cell_setting 'monoclinic'
loop_
_space_group_symop_operation_xyz
x,y,z
-x,y,-z
-x,-y,-z
x,-y,z
loop_
_atom_site_type_symbol
_atom_site_label
_atom_site_fract_x
_atom_site_fract_y
_atom_site_fract_z
Si Si1 0.467490 0.199439 0.600624
Si Si2 0.451319 0.295496 0.074308
Si Si3 0.022546 0.208197 0.839611
Si Si4 0.869397 0.790119 0.574392
Si Si5 0.732187 0.289861 0.061688
Si Si6 0.178450 0.706962 0.108180
Si Si7 0.888590 0.202290 0.326175
Si Si8 0.282720 0.297148 0.426650
O O1 0.500000 0.275282 0.500000
O O2 0.503041 0.276931 0.756464
O O3 0.369986 0.211699 0.516174
O O4 0.493565 0.000000 0.625255
O O5 0.442055 0.500000 0.043749
O O6 0.500000 0.223347 0.000000
O O7 0.359640 0.226772 0.005242
O O8 0.068501 0.274560 0.756929
O O9 0.930430 0.268649 0.735612
O O10 0.019440 0.000000 0.836293
O O11 0.083574 0.251119 0.002803
O O12 0.905271 0.730703 0.475871
O O13 0.778673 0.724035 0.514678
O O14 0.866862 0.000000 0.570937
O O15 0.733642 0.500000 0.064480
O O16 0.792729 0.223186 0.218248
O O17 0.772312 0.233612 0.968758
O O18 0.182887 0.500000 0.118036
O O19 0.228404 0.775383 0.267383
O O20 0.910618 0.000000 0.346571
O O21 0.298636 0.500000 0.420350
#
# Coordination Sequence:
#
# PCOD9152000 Si02
#       8
#     4   4   4   4   4   4   4   4
#     4  11  25  44  66  92 122 158 203 254 304 362
#     4  10  22  39  61  91 125 161 200 247 302 363
#     4   9  18  34  57  82 110 149 193 236 285 344
#     4  10  21  36  54  81 117 152 189 236 289 344
#     4   9  18  34  56  81 111 145 186 235 285 340
#     4   9  19  36  56  79 108 146 192 240 285 336
#     4   9  18  33  55  81 111 150 192 233 281 341
#     4  11  24  40  60  84 114 153 194 238 291 351
#
# _framework density 22.964918999999998
#
# number of rings (size 3 to 8) (size 9 to 14) (size 15 to 20)
#    0.000    2.250    0.000    1.875    1.750    6.750 
#    0.000    5.000    0.000    3.750    0.000    0.000 
#    0.000    0.000    0.000    0.000    0.000    0.000 
#
# Total GULP energy -178706.267280 kJ/mol
# GULP energy per Si atom -5584.570853 kJ/mol
# Density = 2.291265 g / cm^3
# Si number density = 22.964919 Si / 1000 Ang^3
#
#
#
# Elastic Constant Matrix: (Units=GPa)
#
#
# Indices 1 2 3 4 5 6 
#
# 1 94.6660 -11.9861 31.0097 0.0000 16.9471 0.0000
# 2 -11.9861 33.3021 -14.5630 0.0000 -2.0187 0.0000
# 3 31.0097 -14.5630 111.8535 0.0000 8.7587 0.0000
# 4 0.0000 0.0000 0.0000 22.3000 0.0000 -1.4008
# 5 16.9471 -2.0187 8.7587 0.0000 45.5677 0.0000
# 6 0.0000 0.0000 0.0000 -1.4008 0.0000 3.7818
#
#
#
# Elastic Compliance Matrix: (Units=1/GPa)
#
#
# Indices 1 2 3 4 5 6 
#
# 1 0.012579 0.003071 -0.002773 0.000000 -0.004009 0.000000
# 2 0.003071 0.032608 0.003422 0.000000 -0.000355 0.000000
# 3 -0.002773 0.003422 0.010216 0.000000 -0.000781 0.000000
# 4 0.000000 0.000000 0.000000 0.045911 0.000000 0.017006
# 5 -0.004009 -0.000355 -0.000781 0.000000 0.023571 0.000000
# 6 0.000000 0.000000 0.000000 0.017006 0.000000 0.270721
#
#
# Mechanical properties :
#
#
# Convention : Reuss Voigt Hill
#
# Bulk Modulus (GPa) = 15.91279 27.63808 21.77543
# Shear Modulus (GPa) = 12.22154 30.02065 21.12109
#
# Velocity S-wave (km/s) = 2.30941 3.61950 3.03596
# Velocity P-wave (km/s) = 3.74905 5.43403 4.66820
#
# Compressibility (1/GPa) = 0.06284252
#
# Stress axis : x y z
#
# Youngs Moduli (GPa) = 79.50073 30.66692 97.88774
#
# Poissons Ratio (x) = -0.09419 0.27148
# Poissons Ratio (y) = -0.24418 -0.33496
# Poissons Ratio (z) = 0.22049 -0.10494
#
# Static dielectric constant tensor:
#      x y z
#    x 1.871530 0.000000 -0.033020 
#    y 0.000000 1.836030 0.000000 
#    z -0.033020 0.000000 1.857550 
# 
# From -- ./inp_files/55324.got.cif
#   From: 2010.05.17/outbox.cif.g08.bks.cpg/sg10_28_cif.got.tgz:55324.got - 2010.06.03 11:33:40.
