data_PCOD9152329
_publ_section_title
;
Structure prediction by ZEFSAII (Michael W. Deem and Ramdas Pophale) SiO2 
 PCOD9152329
Probable space group: P 2/M
;
_chemical_formula_sum "Si O2"
_cell_formula_units_Z 32
_cell_length_a 12.345405
_cell_length_b 7.674678
_cell_length_c 15.890989
_cell_angle_alpha 90.000000
_cell_angle_beta 90.161793
_cell_angle_gamma 90.000000
_cell_volume 1505.617661
_symmetry_space_group_name_H-M "P 2/M"
_symmetry_group_IT_number 10
_symmetry_cell_setting 'monoclinic'
loop_
_space_group_symop_operation_xyz
x,y,z
-x,y,-z
-x,-y,-z
x,-y,z
loop_
_atom_site_type_symbol
_atom_site_label
_atom_site_fract_x
_atom_site_fract_y
_atom_site_fract_z
Si Si1 0.003318 0.213415 0.902242
Si Si2 0.992284 0.303315 0.592561
Si Si3 0.552910 0.706720 0.414325
Si Si4 0.238015 0.788069 0.840423
Si Si5 0.536510 0.786533 0.091590
Si Si6 0.846678 0.206768 0.752176
Si Si7 0.401004 0.789081 0.254689
Si Si8 0.221292 0.201496 0.651838
O O1 0.120205 0.269807 0.868397
O O2 0.911978 0.273244 0.835025
O O3 0.999462 0.000000 0.901736
O O4 0.000000 0.266884 0.000000
O O5 0.951339 0.500000 0.579526
O O6 0.917853 0.230389 0.667550
O O7 0.000000 0.216720 0.500000
O O8 0.116018 0.302953 0.623157
O O9 0.500000 0.772981 0.500000
O O10 0.568130 0.500000 0.421417
O O11 0.474220 0.740126 0.335002
O O12 0.671849 0.785395 0.403139
O O13 0.340521 0.728719 0.893163
O O14 0.256207 0.738404 0.744232
O O15 0.237336 0.000000 0.844677
O O16 0.460384 0.731328 0.168860
O O17 0.535034 0.000000 0.092426
O O18 0.500000 0.728970 0.000000
O O19 0.723688 0.274279 0.741898
O O20 0.836602 0.000000 0.765228
O O21 0.399110 0.000000 0.253455
O O22 0.186207 0.000000 0.657645
#
# Coordination Sequence:
#
# PCOD9152329 Si02
#       8
#     4   4   4   4   4   4   4   4
#     4   9  17  29  50  82 118 152 188 238 296 346
#     4  11  25  42  60  84 117 157 198 238 290 355
#     4  11  25  42  60  84 117 157 198 238 290 355
#     4   9  16  29  51  80 113 146 184 235 291 341
#     4   9  17  29  50  82 118 152 188 238 296 346
#     4  10  21  37  57  86 119 152 196 247 295 343
#     4  10  21  37  57  86 119 152 196 247 295 343
#     4  11  21  39  65  90 117 146 192 251 295 339
#
# _framework density 21.253734999999999
#
# number of rings (size 3 to 8) (size 9 to 14) (size 15 to 20)
#    0.000    2.000    2.500    1.125    3.500    2.500 
#    0.000    0.000    0.000    0.750    0.000    0.000 
#    0.000    0.000    0.000    0.000    0.000    0.000 
#
# Total GULP energy -178635.462285 kJ/mol
# GULP energy per Si atom -5582.358196 kJ/mol
# Density = 2.120536 g / cm^3
# Si number density = 21.253735 Si / 1000 Ang^3
#
#
#
# Elastic Constant Matrix: (Units=GPa)
#
#
# Indices 1 2 3 4 5 6 
#
# 1 109.2644 -4.0273 11.4828 0.0000 -0.5894 0.0000
# 2 -4.0273 38.4453 -2.1412 0.0000 1.5091 0.0000
# 3 11.4828 -2.1412 87.9737 0.0000 -0.9077 0.0000
# 4 0.0000 0.0000 0.0000 43.9807 0.0000 -4.5183
# 5 -0.5894 1.5091 -0.9077 0.0000 37.7976 0.0000
# 6 0.0000 0.0000 0.0000 -4.5183 0.0000 13.4318
#
#
#
# Elastic Compliance Matrix: (Units=1/GPa)
#
#
# Indices 1 2 3 4 5 6 
#
# 1 0.009311 0.000906 -0.001192 0.000000 0.000080 0.000000
# 2 0.000906 0.026174 0.000508 0.000000 -0.001019 0.000000
# 3 -0.001192 0.000508 0.011538 0.000000 0.000238 0.000000
# 4 0.000000 0.000000 0.000000 0.023551 0.000000 0.007922
# 5 0.000080 -0.001019 0.000238 0.000000 0.026504 0.000000
# 6 0.000000 0.000000 0.000000 0.007922 0.000000 0.077115
#
#
# Mechanical properties :
#
#
# Convention : Reuss Voigt Hill
#
# Bulk Modulus (GPa) = 21.06762 27.36801 24.21781
# Shear Modulus (GPa) = 26.37514 34.39996 30.38755
#
# Velocity S-wave (km/s) = 3.52656 4.02747 3.78531
# Velocity P-wave (km/s) = 5.14938 5.87640 5.52486
#
# Compressibility (1/GPa) = 0.04746622
#
# Stress axis : x y z
#
# Youngs Moduli (GPa) = 107.39695 38.20562 86.67381
#
# Poissons Ratio (x) = -0.03461 0.10336
# Poissons Ratio (y) = -0.09728 -0.04406
# Poissons Ratio (z) = 0.12807 -0.01942
#
# Static dielectric constant tensor:
#      x y z
#    x 1.760210 0.000000 -0.000760 
#    y 0.000000 1.800670 0.000000 
#    z -0.000760 0.000000 1.773670 
# 
# From -- ./inp_files/49820.got.cif
#   From: 2010.05.17/outbox.cif.g08.bks.cpg/sg10_25_cif.got.tgz:49820.got - 2010.06.03 11:33:40.
