data_PCOD9152685
_publ_section_title
;
Structure prediction by ZEFSAII (Michael W. Deem and Ramdas Pophale) SiO2 
 PCOD9152685
Probable space group: P 2/M
;
_chemical_formula_sum "Si O2"
_cell_formula_units_Z 28
_cell_length_a 8.429327
_cell_length_b 21.631830
_cell_length_c 14.400581
_cell_angle_alpha 90.000000
_cell_angle_beta 147.665178
_cell_angle_gamma 90.000000
_cell_volume 1404.465713
_symmetry_space_group_name_H-M "P 2/M"
_symmetry_group_IT_number 10
_symmetry_cell_setting 'monoclinic'
loop_
_space_group_symop_operation_xyz
x,y,z
-x,y,-z
-x,-y,-z
x,-y,z
loop_
_atom_site_type_symbol
_atom_site_label
_atom_site_fract_x
_atom_site_fract_y
_atom_site_fract_z
Si Si1 0.449247 0.500000 0.081627
Si Si2 0.691537 0.844116 0.001188
Si Si3 0.667734 0.296624 0.983293
Si Si4 0.186363 0.500000 0.192324
Si Si5 0.732051 0.071091 0.695076
Si Si6 0.804802 0.380741 0.688711
Si Si7 0.654189 0.070007 0.309019
Si Si8 0.189224 0.384956 0.686545
O O1 0.581956 0.441665 0.198501
O O2 0.500000 0.500000 0.000000
O O3 0.107079 0.500000 0.896067
O O4 0.749853 0.773463 0.000531
O O5 0.488370 0.880218 0.828227
O O6 0.500000 0.842085 0.000000
O O7 0.992872 0.882700 0.163722
O O8 0.406924 0.325808 0.792281
O O9 0.500000 0.297468 0.000000
O O10 0.961464 0.339165 0.137457
O O11 0.315653 0.436199 0.300704
O O12 0.000000 0.500000 0.000000
O O13 0.500000 0.087578 0.500000
O O14 0.542378 0.071307 0.695432
O O15 0.835529 0.000000 0.730090
O O16 0.500000 0.350596 0.500000
O O17 0.994846 0.392556 0.686045
O O18 0.000000 0.081810 0.500000
O O19 0.633892 0.000000 0.259699
O O20 0.000000 0.387333 0.500000
#
# Coordination Sequence:
#
# PCOD9152685 Si02
#       8
#     2   4   4   2   4   4   4   4
#     4  12  19  40  66  85 115 159 189 236 290 352
#     4  11  22  37  61  88 120 158 199 243 299 354
#     4   9  21  42  60  82 117 157 198 244 283 343
#     4  12  25  38  62  89 127 149 186 245 300 344
#     4  10  21  38  60  88 121 156 198 246 297 354
#     4  11  23  41  61  87 119 151 191 243 295 343
#     4  10  21  38  60  88 121 156 198 248 296 349
#     4  11  22  39  65  88 112 153 200 235 288 354
#
# _framework density 19.936406000000002
#
# number of rings (size 3 to 8) (size 9 to 14) (size 15 to 20)
#    0.000    1.429    2.857    2.571    2.000    4.571 
#    0.000    7.143    0.000    0.000    0.000    0.000 
#    0.000    0.000    0.000    0.000    0.000    0.000 
#
# Total GULP energy -155869.068759 kJ/mol
# GULP energy per Si atom -5566.752456 kJ/mol
# Density = 1.989103 g / cm^3
# Si number density = 19.936406 Si / 1000 Ang^3
#
#
#
# Elastic Constant Matrix: (Units=GPa)
#
#
# Indices 1 2 3 4 5 6 
#
# 1 24.1122 8.1891 -1.0216 0.0000 -2.3553 0.0000
# 2 8.1891 122.4696 66.9235 0.0000 -0.5296 0.0000
# 3 -1.0216 66.9235 118.6192 0.0000 -2.4345 0.0000
# 4 0.0000 0.0000 0.0000 -269.1861 0.0000 -21.2598
# 5 -2.3553 -0.5296 -2.4345 0.0000 43.2974 0.0000
# 6 0.0000 0.0000 0.0000 -21.2598 0.0000 12.7866
#
#
#
# Elastic Compliance Matrix: (Units=1/GPa)
#
#
# Indices 1 2 3 4 5 6 
#
# 1 0.043373 -0.004513 0.002970 0.000000 0.002471 0.000000
# 2 -0.004513 0.012276 -0.006975 0.000000 -0.000488 0.000000
# 3 0.002970 -0.006975 0.012407 0.000000 0.000774 0.000000
# 4 0.000000 0.000000 0.000000 -0.003284 0.000000 -0.005460
# 5 0.002471 -0.000488 0.000774 0.000000 0.023268 0.000000
# 6 0.000000 0.000000 0.000000 -0.005460 0.000000 0.069129
#
#
# Mechanical properties :
#
#
# Convention : Reuss Voigt Hill
#
# Bulk Modulus (GPa) = 19.59968 45.93144 32.76556
# Shear Modulus (GPa) = 26.14901 -29.87976 -1.86537
#
# Velocity S-wave (km/s) = 3.62556 -3.87557 -0.96835
# Velocity P-wave (km/s) = 5.23247 1.74992 3.90134
#
# Compressibility (1/GPa) = 0.05102123
#
# Stress axis : x y z
#
# Youngs Moduli (GPa) = 23.05602 81.45675 80.59927
#
# Poissons Ratio (x) = 0.36758 -0.23939
# Poissons Ratio (y) = 0.10404 0.56219
# Poissons Ratio (z) = -0.06848 0.56817
#
# Static dielectric constant tensor:
#      x y z
#    x 1.684740 0.000000 -0.019110 
#    y 0.000000 1.911410 0.000000 
#    z -0.019110 0.000000 1.661090 
# 
# From -- ./inp_files/30448.got.cif
#   From: 2010.05.17/outbox.cif.g08.bks.cpg/sg10_16_cif.got.tgz:30448.got - 2010.06.03 11:33:40.
