data_PCOD9152953
_publ_section_title
;
Structure prediction by ZEFSAII (Michael W. Deem and Ramdas Pophale) SiO2 
 PCOD9152953
Probable space group: P 2/M
;
_chemical_formula_sum "Si O2"
_cell_formula_units_Z 28
_cell_length_a 15.430495
_cell_length_b 7.831934
_cell_length_c 20.881596
_cell_angle_alpha 90.000000
_cell_angle_beta 152.042923
_cell_angle_gamma 90.000000
_cell_volume 1183.067184
_symmetry_space_group_name_H-M "P 2/M"
_symmetry_group_IT_number 10
_symmetry_cell_setting 'monoclinic'
loop_
_space_group_symop_operation_xyz
x,y,z
-x,y,-z
-x,-y,-z
x,-y,z
loop_
_atom_site_type_symbol
_atom_site_label
_atom_site_fract_x
_atom_site_fract_y
_atom_site_fract_z
Si Si1 0.176623 0.803438 0.079189
Si Si2 0.649368 0.701768 0.684830
Si Si3 0.617965 0.795669 0.910649
Si Si4 0.224995 0.298913 0.364801
Si Si5 0.799093 0.304239 0.390864
Si Si6 0.066735 0.803205 0.393274
Si Si7 0.697694 0.208869 0.102816
O O1 0.326407 0.798574 0.233486
O O2 0.268226 0.725623 0.075838
O O3 0.126655 0.000000 0.031762
O O4 0.000000 0.722541 0.000000
O O5 0.684617 0.500000 0.717336
O O6 0.782330 0.762949 0.713497
O O7 0.439818 0.715884 0.524597
O O8 0.396743 0.768481 0.760563
O O9 0.640649 0.000000 0.925144
O O10 0.702718 0.731758 0.032693
O O11 0.176940 0.500000 0.334251
O O12 0.120576 0.207466 0.353792
O O13 0.799838 0.500000 0.370716
O O14 0.000000 0.229008 0.500000
O O15 0.806441 0.292533 0.473205
O O16 0.858935 0.732064 0.255266
O O17 0.070655 0.000000 0.415865
O O18 0.709139 0.000000 0.110357
O O19 0.500000 0.258182 0.000000
#
# Coordination Sequence:
#
# PCOD9152953 Si02
#       7
#     4   4   4   4   4   4   4
#     4  10  22  36  54  81 116 154 192 240 292 339
#     4   9  19  36  56  77 108 151 193 231 278 336
#     4  10  21  39  62  87 119 158 199 244 297 356
#     4   9  19  36  56  80 112 147 184 235 288 335
#     4  11  24  41  61  87 120 156 195 245 302 355
#     4  11  22  35  60  91 115 147 193 238 291 353
#     4   9  19  36  58  85 116 149 189 239 291 347
#
# _framework density 23.667293000000001
#
# number of rings (size 3 to 8) (size 9 to 14) (size 15 to 20)
#    0.000    2.143    0.000    3.429    2.000    6.571 
#    0.000    2.857    0.000    3.857    0.000    0.000 
#    0.000    0.000    0.000    0.000    0.000    0.000 
#
# Total GULP energy -156351.309482 kJ/mol
# GULP energy per Si atom -5583.975339 kJ/mol
# Density = 2.361342 g / cm^3
# Si number density = 23.667293 Si / 1000 Ang^3
#
#
#
# Elastic Constant Matrix: (Units=GPa)
#
#
# Indices 1 2 3 4 5 6 
#
# 1 88.6042 6.8652 -5.3438 0.0000 -6.7390 0.0000
# 2 6.8652 33.2714 4.9432 0.0000 1.8849 0.0000
# 3 -5.3438 4.9432 64.0609 0.0000 -7.8083 0.0000
# 4 0.0000 0.0000 0.0000 30.5247 0.0000 -10.3225
# 5 -6.7390 1.8849 -7.8083 0.0000 37.1081 0.0000
# 6 0.0000 0.0000 0.0000 -10.3225 0.0000 11.7023
#
#
#
# Elastic Compliance Matrix: (Units=1/GPa)
#
#
# Indices 1 2 3 4 5 6 
#
# 1 0.011793 -0.002806 0.001518 0.000000 0.002604 0.000000
# 2 -0.002806 0.031231 -0.002976 0.000000 -0.002722 0.000000
# 3 0.001518 -0.002976 0.016440 0.000000 0.003886 0.000000
# 4 0.000000 0.000000 0.000000 0.046687 0.000000 0.041182
# 5 0.002604 -0.002722 0.003886 0.000000 0.028377 0.000000
# 6 0.000000 0.000000 0.000000 0.041182 0.000000 0.121780
#
#
# Mechanical properties :
#
#
# Convention : Reuss Voigt Hill
#
# Bulk Modulus (GPa) = 19.63272 22.09617 20.86444
# Shear Modulus (GPa) = 17.74205 27.83181 22.78693
#
# Velocity S-wave (km/s) = 2.74093 3.43295 3.10627
# Velocity P-wave (km/s) = 4.28139 5.00699 4.65834
#
# Compressibility (1/GPa) = 0.05093539
#
# Stress axis : x y z
#
# Youngs Moduli (GPa) = 84.79502 32.01916 60.82714
#
# Poissons Ratio (x) = 0.08986 -0.09231
# Poissons Ratio (y) = 0.23797 0.18101
# Poissons Ratio (z) = -0.12869 0.09528
#
# Static dielectric constant tensor:
#      x y z
#    x 1.993020 0.000000 0.033410 
#    y 0.000000 1.880850 0.000000 
#    z 0.033410 0.000000 1.921740 
# 
# From -- ./inp_files/69912.got.cif
#   From: 2010.05.17/outbox.cif.g08.bks.cpg/sg10_35_cif.got.tgz:69912.got - 2010.06.03 11:33:40.
