data_PCOD9152143
_publ_section_title
;
Structure prediction by ZEFSAII (Michael W. Deem and Ramdas Pophale) SiO2 
 PCOD9152143
Probable space group: P 2/M
;
_chemical_formula_sum "Si O2"
_cell_formula_units_Z 28
_cell_length_a 11.302400
_cell_length_b 15.253810
_cell_length_c 9.143329
_cell_angle_alpha 90.000000
_cell_angle_beta 62.706795
_cell_angle_gamma 90.000000
_cell_volume 1400.859772
_symmetry_space_group_name_H-M "P 2/M"
_symmetry_group_IT_number 10
_symmetry_cell_setting 'monoclinic'
loop_
_space_group_symop_operation_xyz
x,y,z
-x,y,-z
-x,-y,-z
x,-y,z
loop_
_atom_site_type_symbol
_atom_site_label
_atom_site_fract_x
_atom_site_fract_y
_atom_site_fract_z
Si Si1 0.412138 0.397346 0.850250
Si Si2 0.994888 0.346736 0.839645
Si Si3 0.143101 0.833356 0.989062
Si Si4 0.658338 0.901268 0.871336
Si Si5 0.651888 0.733165 0.676307
Si Si6 0.212857 0.406457 0.240700
Si Si7 0.282303 0.719597 0.681027
O O1 0.451183 0.500000 0.810476
O O2 0.529710 0.326766 0.803585
O O3 0.342477 0.357737 0.746073
O O4 0.313580 0.395366 0.044855
O O5 0.905908 0.258431 0.911328
O O6 0.928556 0.404832 0.756340
O O7 0.139255 0.315877 0.714669
O O8 0.000000 0.386854 0.000000
O O9 0.235480 0.882732 0.056234
O O10 0.244912 0.803114 0.803279
O O11 0.000000 0.868850 0.000000
O O12 0.670267 0.825256 0.744753
O O13 0.685105 0.000000 0.803040
O O14 0.500000 0.897804 0.000000
O O15 0.773797 0.672458 0.656098
O O16 0.638539 0.741352 0.510151
O O17 0.241521 0.500000 0.294620
#
# Coordination Sequence:
#
# PCOD9152143 Si02
#       7
#     4   4   4   4   4   4   4
#     4  11  22  37  58  83 117 165 211 242 285 353
#     4   9  17  36  59  80 108 154 201 241 280 345
#     4   9  18  40  65  86 113 156 211 242 291 360
#     4  11  23  40  66  92 118 156 202 252 305 364
#     4  12  23  37  56  85 127 150 187 246 310 361
#     4  11  21  35  57  82 111 157 201 241 281 340
#     4  10  21  36  59  85 115 160 188 242 301 349
#
# _framework density 19.987724
#
# number of rings (size 3 to 8) (size 9 to 14) (size 15 to 20)
#    0.000    1.857    4.286    3.000    0.000    4.571 
#    0.000    1.429    0.000    7.714    0.000    0.000 
#    0.000    0.000    0.000    0.000    0.000    0.000 
#
# Total GULP energy -156007.472556 kJ/mol
# GULP energy per Si atom -5571.695448 kJ/mol
# Density = 1.994223 g / cm^3
# Si number density = 19.987724 Si / 1000 Ang^3
#
#
#
# Elastic Constant Matrix: (Units=GPa)
#
#
# Indices 1 2 3 4 5 6 
#
# 1 85.3556 43.3083 7.8687 0.0000 15.4878 0.0000
# 2 43.3083 132.9297 44.9704 0.0000 20.1175 0.0000
# 3 7.8687 44.9704 60.7774 0.0000 21.1753 0.0000
# 4 0.0000 0.0000 0.0000 9.7965 0.0000 5.1907
# 5 15.4878 20.1175 21.1753 0.0000 17.8580 0.0000
# 6 0.0000 0.0000 0.0000 5.1907 0.0000 19.9745
#
#
#
# Elastic Compliance Matrix: (Units=1/GPa)
#
#
# Indices 1 2 3 4 5 6 
#
# 1 0.017149 -0.005626 0.008377 0.000000 -0.018468 0.000000
# 2 -0.005626 0.012074 -0.008804 0.000000 0.001716 0.000000
# 3 0.008377 -0.008804 0.035713 0.000000 -0.039695 0.000000
# 4 0.000000 0.000000 0.000000 0.118377 0.000000 -0.030762
# 5 -0.018468 0.001716 -0.039695 0.000000 0.117149 0.000000
# 6 0.000000 0.000000 0.000000 -0.030762 0.000000 0.058058
#
#
# Mechanical properties :
#
#
# Convention : Reuss Voigt Hill
#
# Bulk Modulus (GPa) = 18.92829 52.37305 35.65067
# Shear Modulus (GPa) = 12.87877 21.72013 17.29945
#
# Velocity S-wave (km/s) = 2.54113 3.30005 2.94514
# Velocity P-wave (km/s) = 4.25444 6.38592 5.42587
#
# Compressibility (1/GPa) = 0.05283098
#
# Stress axis : x y z
#
# Youngs Moduli (GPa) = 58.31184 82.82046 28.00117
#
# Poissons Ratio (x) = 0.46597 -0.23457
# Poissons Ratio (y) = 0.32807 0.24651
# Poissons Ratio (z) = -0.48849 0.72912
#
# Static dielectric constant tensor:
#      x y z
#    x 1.854410 0.000000 -0.002060 
#    y 0.000000 1.710970 0.000000 
#    z -0.002060 0.000000 1.718870 
# 
# From -- ./inp_files/24881.got.cif
#   From: 2010.05.17/outbox.cif.g08.bks.cpg/sg10_13_cif.got.tgz:24881.got - 2010.06.03 11:33:40.
