data_PCOD9152681
_publ_section_title
;
Structure prediction by ZEFSAII (Michael W. Deem and Ramdas Pophale) SiO2 
 PCOD9152681
Probable space group: P 2/M
;
_chemical_formula_sum "Si O2"
_cell_formula_units_Z 32
_cell_length_a 8.681215
_cell_length_b 24.307106
_cell_length_c 14.354357
_cell_angle_alpha 90.000000
_cell_angle_beta 30.695332
_cell_angle_gamma 90.000000
_cell_volume 1546.216023
_symmetry_space_group_name_H-M "P 2/M"
_symmetry_group_IT_number 10
_symmetry_cell_setting 'monoclinic'
loop_
_space_group_symop_operation_xyz
x,y,z
-x,y,-z
-x,-y,-z
x,-y,z
loop_
_atom_site_type_symbol
_atom_site_label
_atom_site_fract_x
_atom_site_fract_y
_atom_site_fract_z
Si Si1 0.334805 0.383908 0.302863
Si Si2 0.711445 0.273724 0.795922
Si Si3 0.423901 0.242442 0.432981
Si Si4 0.122762 0.559761 0.043041
Si Si5 0.351920 0.937200 0.838958
Si Si6 0.649395 0.149329 0.821771
Si Si7 0.330955 0.351578 0.686388
Si Si8 0.354265 0.876828 0.473350
O O1 0.340229 0.325164 0.245979
O O2 0.487589 0.379290 0.324475
O O3 0.000000 0.400654 0.500000
O O4 0.524492 0.427635 0.145709
O O5 0.636330 0.213044 0.794912
O O6 0.081766 0.267899 0.612014
O O7 0.500000 0.280498 0.000000
O O8 0.500000 0.230674 0.500000
O O9 0.669561 0.288387 0.278998
O O10 0.451083 0.182025 0.376499
O O11 0.052629 0.500000 0.121164
O O12 0.970057 0.613191 0.167879
O O13 0.000000 0.558525 0.000000
O O14 0.476798 0.893489 0.847304
O O15 0.534969 0.925587 0.649323
O O16 0.392442 0.000000 0.849782
O O17 0.000000 0.928363 0.000000
O O18 0.993774 0.129917 0.658502
O O19 0.500000 0.150496 0.000000
O O20 0.500000 0.352294 0.500000
O O21 0.500000 0.883289 0.500000
#
# Coordination Sequence:
#
# PCOD9152681 Si02
#       8
#     4   4   4   4   4   4   4   4
#     4  11  22  36  60  91 119 158 199 250 311 359
#     4  10  22  37  61  91 128 158 193 254 311 368
#     4   9  19  35  59  89 123 156 195 243 306 365
#     4   9  21  41  60  83 119 160 207 254 296 358
#     4  11  25  43  62  90 126 167 214 260 300 359
#     4  10  22  41  64  92 124 165 205 254 318 370
#     4  10  21  38  60  88 120 157 203 245 298 368
#     4  10  21  39  64  91 126 160 207 257 311 375
#
# _framework density 20.695685000000001
#
# number of rings (size 3 to 8) (size 9 to 14) (size 15 to 20)
#    0.000    2.000    1.250    1.125    5.250    3.000 
#    0.000    0.000    0.000    1.125    0.000    0.000 
#    0.000    0.000    0.000    0.000    0.000    0.000 
#
# Total GULP energy -178320.790986 kJ/mol
# GULP energy per Si atom -5572.524718 kJ/mol
# Density = 2.064858 g / cm^3
# Si number density = 20.695685 Si / 1000 Ang^3
#
#
#
# Elastic Constant Matrix: (Units=GPa)
#
#
# Indices 1 2 3 4 5 6 
#
# 1 53.2487 22.7769 6.9602 0.0000 -3.3133 0.0000
# 2 22.7769 102.1735 39.7981 0.0000 -21.0202 0.0000
# 3 6.9602 39.7981 64.7624 0.0000 -13.8332 0.0000
# 4 0.0000 0.0000 0.0000 22.8522 0.0000 -3.5270
# 5 -3.3133 -21.0202 -13.8332 0.0000 22.9681 0.0000
# 6 0.0000 0.0000 0.0000 -3.5270 0.0000 4.4192
#
#
#
# Elastic Compliance Matrix: (Units=1/GPa)
#
#
# Indices 1 2 3 4 5 6 
#
# 1 0.020823 -0.005172 0.000655 0.000000 -0.001335 0.000000
# 2 -0.005172 0.015594 -0.007044 0.000000 0.009283 0.000000
# 3 0.000655 -0.007044 0.021051 0.000000 0.006326 0.000000
# 4 0.000000 0.000000 0.000000 0.049907 0.000000 0.039831
# 5 -0.001335 0.009283 0.006326 0.000000 0.055652 0.000000
# 6 0.000000 0.000000 0.000000 0.039831 0.000000 0.258075
#
#
# Mechanical properties :
#
#
# Convention : Reuss Voigt Hill
#
# Bulk Modulus (GPa) = 29.11526 39.91722 34.51624
# Shear Modulus (GPa) = 10.97280 20.09119 15.53200
#
# Velocity S-wave (km/s) = 2.30510 3.11913 2.74249
# Velocity P-wave (km/s) = 4.60255 5.68345 5.17132
#
# Compressibility (1/GPa) = 0.03434625
#
# Stress axis : x y z
#
# Youngs Moduli (GPa) = 48.02303 64.12840 47.50431
#
# Poissons Ratio (x) = 0.33166 -0.03112
# Poissons Ratio (y) = 0.24837 0.33463
# Poissons Ratio (z) = -0.03146 0.45173
#
# Static dielectric constant tensor:
#      x y z
#    x 1.740550 0.000000 -0.004100 
#    y 0.000000 1.785370 0.000000 
#    z -0.004100 0.000000 1.752790 
# 
# From -- ./inp_files/62673.got.cif
#   From: 2010.05.17/outbox.cif.g08.bks.cpg/sg10_32_cif.got.tgz:62673.got - 2010.06.03 11:33:40.
