data_PCOD9152054
_publ_section_title
;
Structure prediction by ZEFSAII (Michael W. Deem and Ramdas Pophale) SiO2 
 PCOD9152054
Probable space group: P 2/M
;
_chemical_formula_sum "Si O2"
_cell_formula_units_Z 20
_cell_length_a 16.701014
_cell_length_b 7.830501
_cell_length_c 6.946200
_cell_angle_alpha 90.000000
_cell_angle_beta 111.584480
_cell_angle_gamma 90.000000
_cell_volume 844.704466
_symmetry_space_group_name_H-M "P 2/M"
_symmetry_group_IT_number 10
_symmetry_cell_setting 'monoclinic'
loop_
_space_group_symop_operation_xyz
x,y,z
-x,y,-z
-x,-y,-z
x,-y,z
loop_
_atom_site_type_symbol
_atom_site_label
_atom_site_fract_x
_atom_site_fract_y
_atom_site_fract_z
Si Si1 0.074530 0.298604 0.310539
Si Si2 0.109157 0.803505 0.904261
Si Si3 0.287036 0.795211 0.191609
Si Si4 0.406764 0.705819 0.981494
Si Si5 0.250380 0.300380 0.593865
O O1 0.089495 0.500000 0.293810
O O2 0.089536 0.209539 0.117487
O O3 0.151735 0.233315 0.515748
O O4 0.973815 0.279951 0.267981
O O5 0.206350 0.731854 0.987303
O O6 0.109698 0.000000 0.848435
O O7 0.275818 0.717637 0.391973
O O8 0.278955 0.000000 0.198905
O O9 0.376080 0.748139 0.169205
O O10 0.408804 0.500000 0.962960
O O11 0.329063 0.778190 0.781748
O O12 0.500000 0.770422 0.000000
O O13 0.246530 0.500000 0.641008
#
# Coordination Sequence:
#
# PCOD9152054 Si02
#       5
#     4   4   4   4   4
#     4   9  15  25  46  75 104 136 174 214 256 302
#     4   9  16  27  45  72 106 141 174 207 252 311
#     4  10  21  36  56  82 111 144 178 217 268 321
#     4  10  22  40  60  80 104 138 181 228 274 320
#     4   9  19  36  57  81 109 142 180 221 266 317
#
# _framework density 23.676919999999999
#
# number of rings (size 3 to 8) (size 9 to 14) (size 15 to 20)
#    0.000    2.600    0.000    3.000    0.000    5.200 
#    0.000    5.000    0.000    6.000    0.000    0.000 
#    0.000    0.000    0.000    0.000    0.000    0.000 
#
# Total GULP energy -111684.310245 kJ/mol
# GULP energy per Si atom -5584.215512 kJ/mol
# Density = 2.362303 g / cm^3
# Si number density = 23.676920 Si / 1000 Ang^3
#
#
#
# Elastic Constant Matrix: (Units=GPa)
#
#
# Indices 1 2 3 4 5 6 
#
# 1 168.9716 3.7609 25.1901 0.0000 22.3059 0.0000
# 2 3.7609 62.7349 9.0357 0.0000 5.3523 0.0000
# 3 25.1901 9.0357 75.6678 0.0000 10.4260 0.0000
# 4 0.0000 0.0000 0.0000 4.9776 0.0000 -4.6734
# 5 22.3059 5.3523 10.4260 0.0000 27.3018 0.0000
# 6 0.0000 0.0000 0.0000 -4.6734 0.0000 40.0099
#
#
#
# Elastic Compliance Matrix: (Units=1/GPa)
#
#
# Indices 1 2 3 4 5 6 
#
# 1 0.006813 0.000250 -0.001609 0.000000 -0.005001 0.000000
# 2 0.000250 0.016402 -0.001658 0.000000 -0.002787 0.000000
# 3 -0.001609 -0.001658 0.014485 0.000000 -0.003892 0.000000
# 4 0.000000 0.000000 0.000000 0.225646 0.000000 0.026357
# 5 -0.005001 -0.002787 -0.003892 0.000000 0.042746 0.000000
# 6 0.000000 0.000000 0.000000 0.026357 0.000000 0.028072
#
#
# Mechanical properties :
#
#
# Convention : Reuss Voigt Hill
#
# Bulk Modulus (GPa) = 31.57926 42.59419 37.08673
# Shear Modulus (GPa) = 14.25506 32.41702 23.33604
#
# Velocity S-wave (km/s) = 2.45636 3.70420 3.14284
# Velocity P-wave (km/s) = 4.62726 6.02691 5.37285
#
# Compressibility (1/GPa) = 0.03166635
#
# Stress axis : x y z
#
# Youngs Moduli (GPa) = 146.78797 60.96958 69.03456
#
# Poissons Ratio (x) = -0.01524 0.11106
# Poissons Ratio (y) = -0.03669 0.11445
# Poissons Ratio (z) = 0.23615 0.10108
#
# Static dielectric constant tensor:
#      x y z
#    x 1.942460 0.000000 0.007040 
#    y 0.000000 1.825600 0.000000 
#    z 0.007040 0.000000 1.963930 
# 
# From -- ./inp_files/26853.got.cif
#   From: 2010.05.17/outbox.cif.g08.bks.cpg/sg10_14_cif.got.tgz:26853.got - 2010.06.03 11:33:40.
