data_PCOD9152805
_publ_section_title
;
Structure prediction by ZEFSAII (Michael W. Deem and Ramdas Pophale) SiO2 
 PCOD9152805
Probable space group: P 2/M
;
_chemical_formula_sum "Si O2"
_cell_formula_units_Z 20
_cell_length_a 12.077230
_cell_length_b 17.008297
_cell_length_c 14.225746
_cell_angle_alpha 90.000000
_cell_angle_beta 20.248576
_cell_angle_gamma 90.000000
_cell_volume 1011.339481
_symmetry_space_group_name_H-M "P 2/M"
_symmetry_group_IT_number 10
_symmetry_cell_setting 'monoclinic'
loop_
_space_group_symop_operation_xyz
x,y,z
-x,y,-z
-x,-y,-z
x,-y,z
loop_
_atom_site_type_symbol
_atom_site_label
_atom_site_fract_x
_atom_site_fract_y
_atom_site_fract_z
Si Si1 0.124748 0.665549 0.295573
Si Si2 0.118469 0.500000 0.016306
Si Si3 0.673252 0.756363 0.537443
Si Si4 0.373477 0.089688 0.707144
Si Si5 0.026150 0.676405 0.091883
Si Si6 0.139953 0.500000 0.498791
O O1 0.000000 0.672278 0.500000
O O2 0.988469 0.737390 0.344896
O O3 0.001880 0.582198 0.352445
O O4 0.500000 0.662924 0.000000
O O5 0.487586 0.500000 0.762667
O O6 0.988976 0.585148 0.149329
O O7 0.000000 0.500000 0.000000
O O8 0.560184 0.845423 0.617587
O O9 0.771422 0.724480 0.355809
O O10 0.388917 0.707730 0.815233
O O11 0.500000 0.090825 0.500000
O O12 0.400044 0.000000 0.721664
O O13 0.000000 0.111382 0.000000
O O14 0.000000 0.684435 0.000000
O O15 0.000000 0.500000 0.500000
#
# Coordination Sequence:
#
# PCOD9152805 Si02
#       6
#     4   2   4   4   4   2
#     4  11  24  40  59  86 115 158 216 269 302 357
#     4  10  22  40  57  89 130 166 208 265 319 371
#     4  12  22  38  63  84 121 158 204 248 314 359
#     4  10  21  38  62  94 125 153 192 242 305 385
#     4  11  23  37  57  86 122 162 203 243 304 374
#     4  10  21  40  62  83 118 170 218 269 309 367
#
# _framework density 19.775753000000002
#
# number of rings (size 3 to 8) (size 9 to 14) (size 15 to 20)
#    0.000    1.200    2.000    5.100    2.800    1.600 
#    0.000    3.000    0.000    1.200    0.000    0.000 
#    0.000    0.000    0.000    0.000    0.000    0.000 
#
# Total GULP energy -111609.543072 kJ/mol
# GULP energy per Si atom -5580.477154 kJ/mol
# Density = 1.973074 g / cm^3
# Si number density = 19.775753 Si / 1000 Ang^3
#
#
#
# Elastic Constant Matrix: (Units=GPa)
#
#
# Indices 1 2 3 4 5 6 
#
# 1 101.8204 32.3974 31.0110 0.0000 -4.2342 0.0000
# 2 32.3974 148.0842 29.3680 0.0000 -15.8614 0.0000
# 3 31.0110 29.3680 104.4167 0.0000 -0.7178 0.0000
# 4 0.0000 0.0000 0.0000 506.9073 0.0000 361.5163
# 5 -4.2342 -15.8614 -0.7178 0.0000 39.8011 0.0000
# 6 0.0000 0.0000 0.0000 361.5163 0.0000 317.7288
#
#
#
# Elastic Compliance Matrix: (Units=1/GPa)
#
#
# Indices 1 2 3 4 5 6 
#
# 1 0.011293 -0.001867 -0.002826 0.000000 0.000407 0.000000
# 2 -0.001867 0.007790 -0.001617 0.000000 0.002877 0.000000
# 3 -0.002826 -0.001617 0.010866 0.000000 -0.000749 0.000000
# 4 0.000000 0.000000 0.000000 0.010464 0.000000 -0.011906
# 5 0.000407 0.002877 -0.000749 0.000000 0.026301 0.000000
# 6 0.000000 0.000000 0.000000 -0.011906 0.000000 0.016694
#
#
# Mechanical properties :
#
#
# Convention : Reuss Voigt Hill
#
# Bulk Modulus (GPa) = 57.70444 59.98600 58.84522
# Shear Modulus (GPa) = 49.11447 190.32377 119.71912
#
# Velocity S-wave (km/s) = 4.98895 9.82089 7.78908
# Velocity P-wave (km/s) = 7.90120 12.60947 10.52207
#
# Compressibility (1/GPa) = 0.01732969
#
# Stress axis : x y z
#
# Youngs Moduli (GPa) = 88.55227 128.36852 92.03057
#
# Poissons Ratio (x) = 0.23961 0.26009
# Poissons Ratio (y) = 0.16529 0.14880
# Poissons Ratio (z) = 0.25026 0.20756
#
# Static dielectric constant tensor:
#      x y z
#    x 1.778070 0.000000 -0.018990 
#    y 0.000000 1.701410 0.000000 
#    z -0.018990 0.000000 1.723000 
# 
# From -- ./inp_files/65309.got.cif
#   From: 2010.05.17/outbox.cif.g08.bks.cpg/sg10_33_cif.got.tgz:65309.got - 2010.06.03 11:33:40.
