data_PCOD9152756
_publ_section_title
;
Structure prediction by ZEFSAII (Michael W. Deem and Ramdas Pophale) SiO2 
 PCOD9152756
Probable space group: P 2/M
;
_chemical_formula_sum "Si O2"
_cell_formula_units_Z 24
_cell_length_a 20.812798
_cell_length_b 11.357284
_cell_length_c 20.904465
_cell_angle_alpha 90.000000
_cell_angle_beta 13.851853
_cell_angle_gamma 90.000000
_cell_volume 1183.015311
_symmetry_space_group_name_H-M "P 2/M"
_symmetry_group_IT_number 10
_symmetry_cell_setting 'monoclinic'
loop_
_space_group_symop_operation_xyz
x,y,z
-x,y,-z
-x,-y,-z
x,-y,z
loop_
_atom_site_type_symbol
_atom_site_label
_atom_site_fract_x
_atom_site_fract_y
_atom_site_fract_z
Si Si1 0.141985 0.763933 0.430499
Si Si2 0.655459 0.638673 0.969598
Si Si3 0.150475 0.000000 0.106221
Si Si4 0.509862 0.638703 0.723966
Si Si5 0.295168 0.000000 0.353841
Si Si6 0.004544 0.237339 0.814895
Si Si7 0.766189 0.863567 0.278339
O O1 0.000000 0.782224 0.500000
O O2 0.915613 0.710490 0.696230
O O3 0.257488 0.884680 0.347169
O O4 0.393547 0.675629 0.182618
O O5 0.711459 0.500000 0.909660
O O6 0.573239 0.664614 0.122408
O O7 0.111849 0.884552 0.100517
O O8 0.928325 0.000000 0.375654
O O9 0.428361 0.000000 0.875162
O O10 0.565772 0.500000 0.664803
O O11 0.770197 0.710258 0.450139
O O12 0.249169 0.676004 0.935372
O O13 0.145300 0.210181 0.746020
O O14 0.500000 0.820576 0.500000
O O15 0.717730 0.000000 0.345700
O O16 0.000000 0.863857 0.000000
#
# Coordination Sequence:
#
# PCOD9152756 Si02
#       7
#     4   4   2   4   2   4   4
#     4  12  25  42  64  89 122 167 207 250 310 381
#     4  11  24  43  65  92 122 157 208 267 319 359
#     4  12  24  38  65  97 120 156 196 266 318 354
#     4  11  24  41  65  91 126 168 205 256 313 370
#     4  12  25  42  60  87 130 160 200 244 312 380
#     4  12  22  40  65  97 127 158 214 253 307 372
#     4  10  21  38  61  92 132 167 202 250 307 361
#
# _framework density 20.287144000000001
#
# number of rings (size 3 to 8) (size 9 to 14) (size 15 to 20)
#    0.000    0.667    0.833    8.750    0.000    4.667 
#    0.000    2.500    0.000   10.000    0.000    0.000 
#    0.000    0.000    0.000    0.000    0.000    0.000 
#
# Total GULP energy -134414.167949 kJ/mol
# GULP energy per Si atom -5600.590331 kJ/mol
# Density = 2.024097 g / cm^3
# Si number density = 20.287144 Si / 1000 Ang^3
#
#
#
# Elastic Constant Matrix: (Units=GPa)
#
#
# Indices 1 2 3 4 5 6 
#
# 1 117.7496 50.9361 35.9292 0.0000 -29.5392 0.0000
# 2 50.9361 104.2453 45.7552 0.0000 -2.5892 0.0000
# 3 35.9292 45.7552 134.7337 0.0000 -23.3766 0.0000
# 4 0.0000 0.0000 0.0000 18.6531 0.0000 -6.9093
# 5 -29.5392 -2.5892 -23.3766 0.0000 39.1176 0.0000
# 6 0.0000 0.0000 0.0000 -6.9093 0.0000 11.7763
#
#
#
# Elastic Compliance Matrix: (Units=1/GPa)
#
#
# Indices 1 2 3 4 5 6 
#
# 1 0.013826 -0.006653 0.000343 0.000000 0.010205 0.000000
# 2 -0.006653 0.014579 -0.004330 0.000000 -0.006646 0.000000
# 3 0.000343 -0.004330 0.009814 0.000000 0.005837 0.000000
# 4 0.000000 0.000000 0.000000 0.068496 0.000000 0.040188
# 5 0.010205 -0.006646 0.005837 0.000000 0.036318 0.000000
# 6 0.000000 0.000000 0.000000 0.040188 0.000000 0.108495
#
#
# Mechanical properties :
#
#
# Convention : Reuss Voigt Hill
#
# Bulk Modulus (GPa) = 59.03543 69.10772 64.07157
# Shear Modulus (GPa) = 17.95627 28.84993 23.40310
#
# Velocity S-wave (km/s) = 2.97830 3.77514 3.40014
# Velocity P-wave (km/s) = 6.40235 7.28978 6.86043
#
# Compressibility (1/GPa) = 0.01693898
#
# Stress axis : x y z
#
# Youngs Moduli (GPa) = 72.32843 68.59289 101.89717
#
# Poissons Ratio (x) = 0.45632 -0.03494
# Poissons Ratio (y) = 0.48117 0.44122
# Poissons Ratio (z) = -0.02480 0.29701
#
# Static dielectric constant tensor:
#      x y z
#    x 1.705740 0.000000 -0.009660 
#    y 0.000000 1.723240 0.000000 
#    z -0.009660 0.000000 1.684290 
# 
# From -- ./inp_files/90815.got.cif
#   From: 2010.05.17/outbox.cif.g08.bks.cpg/sg10_46_cif.got.tgz:90815.got - 2010.06.03 11:33:40.
