data_PCOD9152825
_publ_section_title
;
Structure prediction by ZEFSAII (Michael W. Deem and Ramdas Pophale) SiO2 
 PCOD9152825
Probable space group: P 2/M
;
_chemical_formula_sum "Si O2"
_cell_formula_units_Z 26
_cell_length_a 5.502288
_cell_length_b 18.930963
_cell_length_c 11.387109
_cell_angle_alpha 90.000000
_cell_angle_beta 72.060308
_cell_angle_gamma 90.000000
_cell_volume 1128.454602
_symmetry_space_group_name_H-M "P 2/M"
_symmetry_group_IT_number 10
_symmetry_cell_setting 'monoclinic'
loop_
_space_group_symop_operation_xyz
x,y,z
-x,y,-z
-x,-y,-z
x,-y,z
loop_
_atom_site_type_symbol
_atom_site_label
_atom_site_fract_x
_atom_site_fract_y
_atom_site_fract_z
Si Si1 0.688982 0.915465 0.718602
Si Si2 0.572566 0.695626 0.215882
Si Si3 0.207417 0.579975 0.181550
Si Si4 0.285528 0.211580 0.431820
Si Si5 0.712523 0.421849 0.367326
Si Si6 0.000000 0.673042 0.000000
Si Si7 0.905816 0.914547 0.140878
O O1 0.732754 0.871335 0.594270
O O2 0.394291 0.899446 0.797631
O O3 0.901223 0.891929 0.783570
O O4 0.710297 0.000000 0.700654
O O5 0.441569 0.629910 0.171182
O O6 0.382053 0.752224 0.296933
O O7 0.677665 0.653706 0.312388
O O8 0.783419 0.720728 0.092707
O O9 0.270374 0.500000 0.141950
O O10 0.022706 0.577827 0.324996
O O11 0.073786 0.619697 0.093645
O O12 0.500000 0.222567 0.500000
O O13 0.000000 0.238690 0.500000
O O14 0.500000 0.422530 0.500000
O O15 0.667887 0.500000 0.312914
O O16 0.925812 0.000000 0.137417
O O17 0.000000 0.889382 0.000000
#
# Coordination Sequence:
#
# PCOD9152825 Si02
#       7
#     4   4   4   4   4   2   4
#     4  10  21  41  68 101 137 177 231 285 342 408
#     4  11  24  40  64  88 129 172 220 273 343 410
#     4  10  21  38  63  95 128 168 219 279 340 404
#     4  12  29  48  71  98 135 183 234 287 350 413
#     4   9  19  35  58  90 125 164 214 269 327 393
#     4  10  23  42  62  90 129 170 220 278 341 414
#     4   9  17  34  64 102 142 177 213 266 333 404
#
# _framework density 23.040361000000001
#
# number of rings (size 3 to 8) (size 9 to 14) (size 15 to 20)
#    0.000    1.846    0.000    3.000    6.462    4.923 
#    1.385    3.846    0.000    0.000    0.000    0.000 
#    0.000    0.000    0.000    0.000    0.000    0.000 
#
# Total GULP energy -144885.003876 kJ/mol
# GULP energy per Si atom -5572.500149 kJ/mol
# Density = 2.298792 g / cm^3
# Si number density = 23.040361 Si / 1000 Ang^3
#
#
#
# Elastic Constant Matrix: (Units=GPa)
#
#
# Indices 1 2 3 4 5 6 
#
# 1 97.1058 6.7683 36.0440 0.0000 -12.6229 0.0000
# 2 6.7683 58.5380 25.6681 0.0000 -15.1154 0.0000
# 3 36.0440 25.6681 123.7088 0.0000 -43.3244 0.0000
# 4 0.0000 0.0000 0.0000 10.0030 0.0000 -13.6380
# 5 -12.6229 -15.1154 -43.3244 0.0000 35.6630 0.0000
# 6 0.0000 0.0000 0.0000 -13.6380 0.0000 9.3604
#
#
#
# Elastic Compliance Matrix: (Units=1/GPa)
#
#
# Indices 1 2 3 4 5 6 
#
# 1 0.011548 0.000160 -0.003381 0.000000 0.000048 0.000000
# 2 0.000160 0.019465 -0.002047 0.000000 0.005819 0.000000
# 3 -0.003381 -0.002047 0.015265 0.000000 0.016480 0.000000
# 4 0.000000 0.000000 0.000000 -0.101344 0.000000 -0.147657
# 5 0.000048 0.005819 0.016480 0.000000 0.050544 0.000000
# 6 0.000000 0.000000 0.000000 -0.147657 0.000000 -0.108301
#
#
# Mechanical properties :
#
#
# Convention : Reuss Voigt Hill
#
# Bulk Modulus (GPa) = 27.97952 46.25705 37.11829
# Shear Modulus (GPa) = -55.32621 25.06343 -15.13139
#
# Velocity S-wave (km/s) = -4.90560 3.30177 -2.56546
# Velocity P-wave (km/s) = 4.46278 5.88691 2.71471
#
# Compressibility (1/GPa) = 0.03574042
#
# Stress axis : x y z
#
# Youngs Moduli (GPa) = 86.59418 51.37477 65.51028
#
# Poissons Ratio (x) = -0.00820 0.22150
# Poissons Ratio (y) = -0.01383 0.13411
# Poissons Ratio (z) = 0.29279 0.10517
#
# Static dielectric constant tensor:
#      x y z
#    x 1.772020 0.000000 -0.092990 
#    y 0.000000 1.863130 0.000000 
#    z -0.092990 0.000000 1.897190 
# 
# From -- ./inp_files/39675.got.cif
#   From: 2010.05.17/outbox.cif.g08.bks.cpg/sg10_20_cif.got.tgz:39675.got - 2010.06.03 11:33:40.
