data_PCOD9152238
_publ_section_title
;
Structure prediction by ZEFSAII (Michael W. Deem and Ramdas Pophale) SiO2 
 PCOD9152238
Probable space group: P 2/M
;
_chemical_formula_sum "Si O2"
_cell_formula_units_Z 32
_cell_length_a 27.237751
_cell_length_b 9.375374
_cell_length_c 22.093290
_cell_angle_alpha 90.000000
_cell_angle_beta 20.291307
_cell_angle_gamma 90.000000
_cell_volume 1956.550224
_symmetry_space_group_name_H-M "P 2/M"
_symmetry_group_IT_number 10
_symmetry_cell_setting 'monoclinic'
loop_
_space_group_symop_operation_xyz
x,y,z
-x,y,-z
-x,-y,-z
x,-y,z
loop_
_atom_site_type_symbol
_atom_site_label
_atom_site_fract_x
_atom_site_fract_y
_atom_site_fract_z
Si Si1 0.844911 0.331076 0.479765
Si Si2 0.231423 0.332694 0.963032
Si Si3 0.934533 0.171322 0.010923
Si Si4 0.350761 0.330423 0.699859
Si Si5 0.156707 0.666575 0.178115
Si Si6 0.048338 0.830605 0.752876
Si Si7 0.666979 0.668609 0.799821
Si Si8 0.164544 0.166954 0.291870
O O1 0.834045 0.500000 0.480283
O O2 0.845553 0.247258 0.415785
O O3 0.725803 0.288225 0.665821
O O4 0.996941 0.307959 0.337497
O O5 0.183767 0.500000 0.014001
O O6 0.347283 0.313092 0.776996
O O7 0.258800 0.308733 0.002211
O O8 0.104360 0.228397 0.091837
O O9 0.786427 0.250126 0.168155
O O10 0.910444 0.000000 0.037687
O O11 0.000000 0.210190 0.000000
O O12 0.044463 0.203315 0.828926
O O13 0.500000 0.281730 0.500000
O O14 0.335621 0.500000 0.705071
O O15 0.164848 0.500000 0.186038
O O16 0.186578 0.762924 0.200954
O O17 0.058613 0.000000 0.733485
O O18 0.700558 0.500000 0.767410
O O19 0.745691 0.754413 0.760865
O O20 0.500000 0.687090 0.000000
O O21 0.000000 0.183845 0.500000
O O22 0.197906 0.000000 0.251727
#
# Coordination Sequence:
#
# PCOD9152238 Si02
#       8
#     4   4   4   4   4   4   4   4
#     4   9  17  30  49  73  98 123 156 201 246 287
#     4   8  15  28  45  69  98 128 159 198 244 285
#     4   9  18  32  49  71  99 131 167 203 238 284
#     4   9  17  30  50  75 102 129 161 202 246 291
#     4   9  16  28  49  72  95 127 162 202 243 283
#     4   9  16  26  45  71  95 124 161 201 241 284
#     4  10  21  37  56  74  95 129 169 201 238 293
#     4  11  22  33  49  76 104 128 158 201 248 288
#
# _framework density 16.355316999999999
#
# number of rings (size 3 to 8) (size 9 to 14) (size 15 to 20)
#    0.000    2.750    1.250    1.500    0.000    4.250 
#    0.000    0.000    2.750    0.000    0.000    0.000 
#    0.000    0.000    0.000    0.000    0.000    0.000 
#
# Total GULP energy -178163.207820 kJ/mol
# GULP energy per Si atom -5567.600244 kJ/mol
# Density = 1.631809 g / cm^3
# Si number density = 16.355317 Si / 1000 Ang^3
#
#
#
# Elastic Constant Matrix: (Units=GPa)
#
#
# Indices 1 2 3 4 5 6 
#
# 1 139.9210 67.8928 61.5397 0.0000 34.7674 0.0000
# 2 67.8928 55.1141 42.2635 0.0000 11.0149 0.0000
# 3 61.5397 42.2635 80.4534 0.0000 30.8627 0.0000
# 4 0.0000 0.0000 0.0000 12.4351 0.0000 5.1204
# 5 34.7674 11.0149 30.8627 0.0000 27.8511 0.0000
# 6 0.0000 0.0000 0.0000 5.1204 0.0000 21.5475
#
#
#
# Elastic Compliance Matrix: (Units=1/GPa)
#
#
# Indices 1 2 3 4 5 6 
#
# 1 0.027864 -0.034969 0.008861 0.000000 -0.030773 0.000000
# 2 -0.034969 0.075913 -0.031933 0.000000 0.049017 0.000000
# 3 0.008861 -0.031933 0.037963 0.000000 -0.040500 0.000000
# 4 0.000000 0.000000 0.000000 0.089140 0.000000 -0.021183
# 5 -0.030773 0.049017 -0.040500 0.000000 0.099814 0.000000
# 6 0.000000 0.000000 0.000000 -0.021183 0.000000 0.051443
#
#
# Mechanical properties :
#
#
# Convention : Reuss Voigt Hill
#
# Bulk Modulus (GPa) = 38.97529 68.76449 53.86989
# Shear Modulus (GPa) = 9.86641 19.28624 14.57632
#
# Velocity S-wave (km/s) = 2.45879 3.43768 2.98858
# Velocity P-wave (km/s) = 5.65181 7.60869 6.70206
#
# Compressibility (1/GPa) = 0.02565728
#
# Stress axis : x y z
#
# Youngs Moduli (GPa) = 35.88882 13.17303 26.34174
#
# Poissons Ratio (x) = 0.46065 -0.23343
# Poissons Ratio (y) = 1.25501 0.84117
# Poissons Ratio (z) = -0.31803 0.42065
#
# Static dielectric constant tensor:
#      x y z
#    x 1.556840 0.000000 0.041700 
#    y 0.000000 1.545940 0.000000 
#    z 0.041700 0.000000 1.551410 
# 
# From -- ./inp_files/91217.got.cif
#   From: 2010.05.17/outbox.cif.g08.bks.cpg/sg10_46_cif.got.tgz:91217.got - 2010.06.03 11:33:40.
