data_PCOD9152116
_publ_section_title
;
Structure prediction by ZEFSAII (Michael W. Deem and Ramdas Pophale) SiO2 
 PCOD9152116
Probable space group: P 2/M
;
_chemical_formula_sum "Si O2"
_cell_formula_units_Z 32
_cell_length_a 14.418829
_cell_length_b 14.435671
_cell_length_c 8.365482
_cell_angle_alpha 90.000000
_cell_angle_beta 60.045897
_cell_angle_gamma 90.000000
_cell_volume 1508.652575
_symmetry_space_group_name_H-M "P 2/M"
_symmetry_group_IT_number 10
_symmetry_cell_setting 'monoclinic'
loop_
_space_group_symop_operation_xyz
x,y,z
-x,y,-z
-x,-y,-z
x,-y,z
loop_
_atom_site_type_symbol
_atom_site_label
_atom_site_fract_x
_atom_site_fract_y
_atom_site_fract_z
Si Si1 0.404016 0.862797 0.470766
Si Si2 0.227214 0.202077 0.010866
Si Si3 0.240168 0.401506 0.390497
Si Si4 0.839063 0.894027 0.246588
Si Si5 0.444371 0.895444 0.910983
Si Si6 0.326415 0.605374 0.956212
Si Si7 0.879197 0.212747 0.545499
Si Si8 0.549784 0.353936 0.621562
O O1 0.500000 0.892636 0.500000
O O2 0.289083 0.892499 0.622332
O O3 0.443977 0.906817 0.276180
O O4 0.416712 0.752753 0.436399
O O5 0.152330 0.160117 0.933009
O O6 0.345205 0.154178 0.912754
O O7 0.254026 0.310200 0.950158
O O8 0.184260 0.188375 0.231805
O O9 0.181814 0.500000 0.455178
O O10 0.167680 0.311470 0.469786
O O11 0.340442 0.399576 0.422156
O O12 0.293414 0.396142 0.169620
O O13 0.875306 0.850514 0.387197
O O14 0.877329 0.000000 0.198227
O O15 0.407140 0.000000 0.983109
O O16 0.500000 0.833519 0.000000
O O17 0.309515 0.500000 0.908471
O O18 0.450927 0.632066 0.827062
O O19 0.000000 0.220199 0.500000
O O20 0.500000 0.389291 0.500000
#
# Coordination Sequence:
#
# PCOD9152116 Si02
#       8
#     4   4   4   4   4   4   4   4
#     4  11  20  34  57  89 133 170 206 248 302 376
#     4  11  23  43  67  94 131 173 221 272 328 395
#     4  10  22  40  65  93 127 174 219 263 324 392
#     4  12  25  44  71 100 132 172 220 267 326 401
#     4  11  22  33  53  87 127 173 213 249 305 379
#     4  10  21  36  57  90 135 179 216 255 305 384
#     4  11  27  49  71  94 126 166 220 293 349 385
#     4  11  20  33  55  93 136 174 212 248 310 384
#
# _framework density 21.210981
#
# number of rings (size 3 to 8) (size 9 to 14) (size 15 to 20)
#    0.000    1.125    3.750    3.000    1.750    5.500 
#    0.000    0.625    0.000    0.000    0.000    4.375 
#    0.000    0.000    0.000    0.000    0.000    0.000 
#
# Total GULP energy -178154.566176 kJ/mol
# GULP energy per Si atom -5567.330193 kJ/mol
# Density = 2.116270 g / cm^3
# Si number density = 21.210981 Si / 1000 Ang^3
#
#
#
# Elastic Constant Matrix: (Units=GPa)
#
#
# Indices 1 2 3 4 5 6 
#
# 1 106.8033 45.6239 19.0948 0.0000 20.5356 0.0000
# 2 45.6239 150.7421 29.9538 0.0000 25.5079 0.0000
# 3 19.0948 29.9538 50.1994 0.0000 13.9247 0.0000
# 4 0.0000 0.0000 0.0000 20.7383 0.0000 18.0835
# 5 20.5356 25.5079 13.9247 0.0000 29.6496 0.0000
# 6 0.0000 0.0000 0.0000 18.0835 0.0000 -9.0409
#
#
#
# Elastic Compliance Matrix: (Units=1/GPa)
#
#
# Indices 1 2 3 4 5 6 
#
# 1 0.011660 -0.002312 -0.001572 0.000000 -0.005349 0.000000
# 2 -0.002312 0.008696 -0.003080 0.000000 -0.004434 0.000000
# 3 -0.001572 -0.003080 0.024513 0.000000 -0.007774 0.000000
# 4 0.000000 0.000000 0.000000 0.017572 0.000000 0.035147
# 5 -0.005349 -0.004434 -0.007774 0.000000 0.044897 0.000000
# 6 0.000000 0.000000 0.000000 0.035147 0.000000 -0.040307
#
#
# Mechanical properties :
#
#
# Convention : Reuss Voigt Hill
#
# Bulk Modulus (GPa) = 32.31905 55.23219 43.77562
# Shear Modulus (GPa) = 54.78225 22.47423 38.62824
#
# Velocity S-wave (km/s) = 5.08757 3.25861 4.27212
# Velocity P-wave (km/s) = 7.05558 6.34461 6.70952
#
# Compressibility (1/GPa) = 0.03094151
#
# Stress axis : x y z
#
# Youngs Moduli (GPa) = 85.76359 115.00025 40.79550
#
# Poissons Ratio (x) = 0.26582 0.06414
# Poissons Ratio (y) = 0.19824 0.12563
# Poissons Ratio (z) = 0.13484 0.35415
#
# Static dielectric constant tensor:
#      x y z
#    x 1.491330 0.000000 -0.473910 
#    y 0.000000 1.813780 0.000000 
#    z -0.473910 0.000000 0.675570 
# 
# From -- ./inp_files/29504.got.cif
#   From: 2010.05.17/outbox.cif.g08.bks.cpg/sg10_15_cif.got.tgz:29504.got - 2010.06.03 11:33:40.
