data_PCOD9152280
_publ_section_title
;
Structure prediction by ZEFSAII (Michael W. Deem and Ramdas Pophale) SiO2 
 PCOD9152280
Probable space group: P 2/M
;
_chemical_formula_sum "Si O2"
_cell_formula_units_Z 27
_cell_length_a 5.479829
_cell_length_b 22.040523
_cell_length_c 12.427079
_cell_angle_alpha 90.000000
_cell_angle_beta 65.156790
_cell_angle_gamma 90.000000
_cell_volume 1362.027502
_symmetry_space_group_name_H-M "P 2/M"
_symmetry_group_IT_number 10
_symmetry_cell_setting 'monoclinic'
loop_
_space_group_symop_operation_xyz
x,y,z
-x,y,-z
-x,-y,-z
x,-y,z
loop_
_atom_site_type_symbol
_atom_site_label
_atom_site_fract_x
_atom_site_fract_y
_atom_site_fract_z
Si Si1 0.000000 0.205588 0.000000
Si Si2 0.644917 0.271788 0.360234
Si Si3 0.751257 0.407979 0.277121
Si Si4 0.544699 0.742953 0.837855
Si Si5 0.183829 0.927198 0.569520
Si Si6 0.500000 0.500000 0.500000
Si Si7 0.973394 0.835603 0.776270
Si Si8 0.632475 0.605106 0.861604
O O1 0.252875 0.250865 0.946077
O O2 0.044710 0.163954 0.888103
O O3 0.500000 0.267265 0.500000
O O4 0.751151 0.339139 0.320899
O O5 0.460796 0.260816 0.290278
O O6 0.867850 0.220022 0.309021
O O7 0.612685 0.448103 0.394342
O O8 0.568882 0.410304 0.201454
O O9 0.067840 0.422754 0.203074
O O10 0.677213 0.807882 0.835785
O O11 0.663619 0.678849 0.853670
O O12 0.500000 0.908932 0.500000
O O13 0.000000 0.911106 0.500000
O O14 0.047805 0.894449 0.696163
O O15 0.179274 0.000000 0.581496
O O16 0.500000 0.588095 0.000000
#
# Coordination Sequence:
#
# PCOD9152280 Si02
#       8
#     2   4   4   4   4   1   4   4
#     4  10  22  36  55  94 134 171 214 256 328 396
#     4  10  21  37  56  96 128 159 210 268 312 388
#     4  11  25  44  68  97 127 176 212 261 330 383
#     4  10  22  35  60  93 137 168 206 261 339 374
#     4  10  24  44  65  92 128 171 220 269 322 381
#     4  12  28  54  70  90 140 178 210 264 336 406
#     4  11  21  36  63  92 129 170 208 269 321 385
#     4  11  23  43  69 100 130 167 219 274 317 382
#
# _framework density 19.82339
#
# number of rings (size 3 to 8) (size 9 to 14) (size 15 to 20)
#    0.000    1.481    2.222    2.222   10.370    1.778 
#    0.000    2.593    0.000    1.778    0.000    0.000 
#    0.000    0.000    0.000    0.000    0.000    0.000 
#
# Total GULP energy -150304.486706 kJ/mol
# GULP energy per Si atom -5566.832841 kJ/mol
# Density = 1.977827 g / cm^3
# Si number density = 19.823390 Si / 1000 Ang^3
#
#
#
# Elastic Constant Matrix: (Units=GPa)
#
#
# Indices 1 2 3 4 5 6 
#
# 1 115.2010 32.0395 76.6373 0.0000 -12.7122 0.0000
# 2 32.0395 46.7164 39.8962 0.0000 5.0343 0.0000
# 3 76.6373 39.8962 181.4309 0.0000 -4.8562 0.0000
# 4 0.0000 0.0000 0.0000 78.2161 0.0000 14.6886
# 5 -12.7122 5.0343 -4.8562 0.0000 14.2590 0.0000
# 6 0.0000 0.0000 0.0000 14.6886 0.0000 32.1366
#
#
#
# Elastic Compliance Matrix: (Units=1/GPa)
#
#
# Indices 1 2 3 4 5 6 
#
# 1 0.015701 -0.008801 -0.004278 0.000000 0.015648 0.000000
# 2 -0.008801 0.033256 -0.004157 0.000000 -0.021003 0.000000
# 3 -0.004278 -0.004157 0.008245 0.000000 0.000462 0.000000
# 4 0.000000 0.000000 0.000000 0.013986 0.000000 -0.006392
# 5 0.015648 -0.021003 0.000462 0.000000 0.091654 0.000000
# 6 0.000000 0.000000 0.000000 -0.006392 0.000000 0.034039
#
#
# Mechanical properties :
#
#
# Convention : Reuss Voigt Hill
#
# Bulk Modulus (GPa) = 43.99651 71.16601 57.58126
# Shear Modulus (GPa) = 20.92670 37.90735 29.41703
#
# Velocity S-wave (km/s) = 3.25261 4.37768 3.85639
# Velocity P-wave (km/s) = 6.02896 7.84411 6.99566
#
# Compressibility (1/GPa) = 0.02272908
#
# Stress axis : x y z
#
# Youngs Moduli (GPa) = 63.69110 30.07016 121.28046
#
# Poissons Ratio (x) = 0.26464 0.51883
# Poissons Ratio (y) = 0.56054 0.50422
# Poissons Ratio (z) = 0.27247 0.12502
#
# Static dielectric constant tensor:
#      x y z
#    x 1.877090 0.000000 0.014010 
#    y 0.000000 1.675260 0.000000 
#    z 0.014010 0.000000 1.673790 
# 
# From -- ./inp_files/39695.got.cif
#   From: 2010.05.17/outbox.cif.g08.bks.cpg/sg10_20_cif.got.tgz:39695.got - 2010.06.03 11:33:40.
