data_PCOD9152256
_publ_section_title
;
Structure prediction by ZEFSAII (Michael W. Deem and Ramdas Pophale) SiO2 
 PCOD9152256
Probable space group: P 2/M
;
_chemical_formula_sum "Si O2"
_cell_formula_units_Z 28
_cell_length_a 8.306427
_cell_length_b 20.504277
_cell_length_c 14.103295
_cell_angle_alpha 90.000000
_cell_angle_beta 33.454479
_cell_angle_gamma 90.000000
_cell_volume 1324.180068
_symmetry_space_group_name_H-M "P 2/M"
_symmetry_group_IT_number 10
_symmetry_cell_setting 'monoclinic'
loop_
_space_group_symop_operation_xyz
x,y,z
-x,y,-z
-x,-y,-z
x,-y,z
loop_
_atom_site_type_symbol
_atom_site_label
_atom_site_fract_x
_atom_site_fract_y
_atom_site_fract_z
Si Si1 0.351456 0.801533 0.469171
Si Si2 0.343684 0.073756 0.347276
Si Si3 0.851918 0.927080 0.969403
Si Si4 0.843915 0.189821 0.842920
Si Si5 0.269505 0.325377 0.029227
Si Si6 0.814733 0.425606 0.189970
Si Si7 0.347210 0.670877 0.350030
O O1 0.500000 0.798173 0.500000
O O2 0.427823 0.867213 0.375000
O O3 0.397482 0.737027 0.384841
O O4 0.007544 0.804319 0.663437
O O5 0.512668 0.081131 0.164689
O O6 0.000000 0.076250 0.500000
O O7 0.418332 0.000000 0.345617
O O8 0.900271 0.000000 0.909147
O O9 0.947491 0.872698 0.849769
O O10 0.000000 0.921119 0.000000
O O11 0.500000 0.184542 0.000000
O O12 0.890530 0.256136 0.878820
O O13 0.463614 0.323828 0.839113
O O14 0.500000 0.333883 0.000000
O O15 0.025447 0.381193 0.150347
O O16 0.778934 0.500000 0.239400
O O17 0.506438 0.389244 0.325455
O O18 0.000000 0.426982 0.000000
O O19 0.000000 0.662553 0.500000
#
# Coordination Sequence:
#
# PCOD9152256 Si02
#       7
#     4   4   4   4   4   4   4
#     4  12  24  37  58  87 120 156 201 252 301 356
#     4  10  21  38  58  81 114 156 201 249 303 358
#     4  10  21  37  56  79 110 150 196 242 290 346
#     4  11  22  36  56  82 114 149 195 243 286 346
#     4  10  21  39  63  90 120 158 202 245 295 357
#     4   9  20  39  63  92 124 159 197 237 290 357
#     4  11  22  38  62  88 123 160 197 250 301 351
#
# _framework density 21.145160000000001
#
# number of rings (size 3 to 8) (size 9 to 14) (size 15 to 20)
#    0.000    1.571    0.000    5.571    0.000    3.429 
#    0.000    0.000    0.000    9.857    0.000    0.000 
#    0.000    0.000    0.000    0.000    0.000    0.000 
#
# Total GULP energy -156482.117471 kJ/mol
# GULP energy per Si atom -5588.647053 kJ/mol
# Density = 2.109703 g / cm^3
# Si number density = 21.145160 Si / 1000 Ang^3
#
#
#
# Elastic Constant Matrix: (Units=GPa)
#
#
# Indices 1 2 3 4 5 6 
#
# 1 78.5696 76.1751 20.0360 0.0000 -10.6933 0.0000
# 2 76.1751 217.6698 51.4369 0.0000 2.1637 0.0000
# 3 20.0360 51.4369 82.3588 0.0000 -8.2763 0.0000
# 4 0.0000 0.0000 0.0000 13.3439 0.0000 -8.8194
# 5 -10.6933 2.1637 -8.2763 0.0000 32.4685 0.0000
# 6 0.0000 0.0000 0.0000 -8.8194 0.0000 24.9165
#
#
#
# Elastic Compliance Matrix: (Units=1/GPa)
#
#
# Indices 1 2 3 4 5 6 
#
# 1 0.020897 -0.007465 0.000328 0.000000 0.007463 0.000000
# 2 -0.007465 0.008106 -0.003641 0.000000 -0.003927 0.000000
# 3 0.000328 -0.003641 0.014749 0.000000 0.004110 0.000000
# 4 0.000000 0.000000 0.000000 0.097826 0.000000 0.034627
# 5 0.007463 -0.003927 0.004110 0.000000 0.034566 0.000000
# 6 0.000000 0.000000 0.000000 0.034627 0.000000 0.052391
#
#
# Mechanical properties :
#
#
# Convention : Reuss Voigt Hill
#
# Bulk Modulus (GPa) = 45.05122 74.87713 59.96417
# Shear Modulus (GPa) = 19.41825 29.54246 24.48036
#
# Velocity S-wave (km/s) = 3.03369 3.74187 3.40623
# Velocity P-wave (km/s) = 5.79853 7.35912 6.62494
#
# Compressibility (1/GPa) = 0.02219696
#
# Stress axis : x y z
#
# Youngs Moduli (GPa) = 47.85399 123.36644 67.80023
#
# Poissons Ratio (x) = 0.92091 -0.02226
# Poissons Ratio (y) = 0.35722 0.24687
# Poissons Ratio (z) = -0.01571 0.44919
#
# Static dielectric constant tensor:
#      x y z
#    x 1.790100 0.000000 -0.052720 
#    y 0.000000 1.749690 0.000000 
#    z -0.052720 0.000000 1.800080 
# 
# From -- ./inp_files/30421.got.cif
#   From: 2010.05.17/outbox.cif.g08.bks.cpg/sg10_16_cif.got.tgz:30421.got - 2010.06.03 11:33:40.
