data_PCOD9152466
_publ_section_title
;
Structure prediction by ZEFSAII (Michael W. Deem and Ramdas Pophale) SiO2 
 PCOD9152466
Probable space group: P 2/M
;
_chemical_formula_sum "Si O2"
_cell_formula_units_Z 24
_cell_length_a 13.615112
_cell_length_b 20.451364
_cell_length_c 11.787992
_cell_angle_alpha 90.000000
_cell_angle_beta 21.540982
_cell_angle_gamma 90.000000
_cell_volume 1205.165073
_symmetry_space_group_name_H-M "P 2/M"
_symmetry_group_IT_number 10
_symmetry_cell_setting 'monoclinic'
loop_
_space_group_symop_operation_xyz
x,y,z
-x,y,-z
-x,-y,-z
x,-y,z
loop_
_atom_site_type_symbol
_atom_site_label
_atom_site_fract_x
_atom_site_fract_y
_atom_site_fract_z
Si Si1 0.266911 0.571863 0.497867
Si Si2 0.815687 0.405807 0.801066
Si Si3 0.207622 0.251914 0.182198
Si Si4 0.764774 0.798915 0.510233
Si Si5 0.216356 0.924780 0.367604
Si Si6 0.283069 0.701262 0.635139
O O1 0.256315 0.500000 0.566856
O O2 0.313268 0.636114 0.524779
O O3 0.993411 0.582282 0.722096
O O4 0.517564 0.569214 0.141942
O O5 0.773551 0.329026 0.825237
O O6 0.000000 0.429977 0.500000
O O7 0.000000 0.227037 0.500000
O O8 0.042036 0.235914 0.246957
O O9 0.503700 0.223495 0.862553
O O10 0.803706 0.874047 0.506430
O O11 0.700485 0.767704 0.457237
O O12 0.000000 0.914440 0.500000
O O13 0.189768 0.000000 0.435233
O O14 0.500000 0.917539 0.000000
O O15 0.500000 0.700923 0.500000
O O16 0.000000 0.697710 0.000000
#
# Coordination Sequence:
#
# PCOD9152466 Si02
#       6
#     4   4   4   4   4   4
#     4  12  25  43  63  86 118 159 201 251 319 381
#     4  11  22  39  60  90 126 156 189 239 301 380
#     4  11  20  33  59  91 121 152 194 238 289 364
#     4  12  21  38  62  88 121 163 200 244 301 349
#     4  10  21  37  60  97 139 168 191 226 282 362
#     4  12  26  44  63  84 114 151 213 276 315 344
#
# _framework density 19.914285
#
# number of rings (size 3 to 8) (size 9 to 14) (size 15 to 20)
#    0.000    0.667    3.333    6.000    0.000    5.333 
#    0.000    0.000    0.000    1.000    0.000    0.000 
#    0.000    0.000    0.000    0.000    0.000    0.000 
#
# Total GULP energy -134023.042771 kJ/mol
# GULP energy per Si atom -5584.293449 kJ/mol
# Density = 1.986896 g / cm^3
# Si number density = 19.914285 Si / 1000 Ang^3
#
#
#
# Elastic Constant Matrix: (Units=GPa)
#
#
# Indices 1 2 3 4 5 6 
#
# 1 83.3345 29.1799 10.8990 0.0000 -7.2244 0.0000
# 2 29.1799 157.1692 22.8588 0.0000 12.7122 0.0000
# 3 10.8990 22.8588 107.1857 0.0000 -12.6397 0.0000
# 4 0.0000 0.0000 0.0000 29.2606 0.0000 -4.2117
# 5 -7.2244 12.7122 -12.6397 0.0000 40.0128 0.0000
# 6 0.0000 0.0000 0.0000 -4.2117 0.0000 -5.4985
#
#
#
# Elastic Compliance Matrix: (Units=1/GPa)
#
#
# Indices 1 2 3 4 5 6 
#
# 1 0.013251 -0.002651 -0.000416 0.000000 0.003103 0.000000
# 2 -0.002651 0.007373 -0.001699 0.000000 -0.003358 0.000000
# 3 -0.000416 -0.001699 0.010168 0.000000 0.003677 0.000000
# 4 0.000000 0.000000 0.000000 0.030782 0.000000 -0.023578
# 5 0.003103 -0.003358 0.003677 0.000000 0.027780 0.000000
# 6 0.000000 0.000000 0.000000 -0.023578 0.000000 -0.163808
#
#
# Mechanical properties :
#
#
# Convention : Reuss Voigt Hill
#
# Bulk Modulus (GPa) = 47.03457 52.61831 49.82644
# Shear Modulus (GPa) = -86.45342 31.73843 -27.35749
#
# Velocity S-wave (km/s) = -6.59598 3.99651 -3.71045
# Velocity P-wave (km/s) = 5.86000 6.91201 2.59194
#
# Compressibility (1/GPa) = 0.02126096
#
# Stress axis : x y z
#
# Youngs Moduli (GPa) = 75.46345 135.62303 98.34987
#
# Poissons Ratio (x) = 0.35950 0.04093
# Poissons Ratio (y) = 0.20003 0.16709
# Poissons Ratio (z) = 0.03141 0.23041
#
# Static dielectric constant tensor:
#      x y z
#    x 1.739660 0.000000 0.017060 
#    y 0.000000 1.761650 0.000000 
#    z 0.017060 0.000000 1.687290 
# 
# From -- ./inp_files/52054.got.cif
#   From: 2010.05.17/outbox.cif.g08.bks.cpg/sg10_27_cif.got.tgz:52054.got - 2010.06.03 11:33:40.
