data_PCOD9152590
_publ_section_title
;
Structure prediction by ZEFSAII (Michael W. Deem and Ramdas Pophale) SiO2 
 PCOD9152590
Probable space group: P 2/M
;
_chemical_formula_sum "Si O2"
_cell_formula_units_Z 28
_cell_length_a 19.439472
_cell_length_b 7.917091
_cell_length_c 14.463461
_cell_angle_alpha 90.000000
_cell_angle_beta 145.943655
_cell_angle_gamma 90.000000
_cell_volume 1246.569493
_symmetry_space_group_name_H-M "P 2/M"
_symmetry_group_IT_number 10
_symmetry_cell_setting 'monoclinic'
loop_
_space_group_symop_operation_xyz
x,y,z
-x,y,-z
-x,-y,-z
x,-y,z
loop_
_atom_site_type_symbol
_atom_site_label
_atom_site_fract_x
_atom_site_fract_y
_atom_site_fract_z
Si Si1 0.798992 0.798609 0.015000
Si Si2 0.544742 0.193566 0.148567
Si Si3 0.293095 0.697167 0.900106
Si Si4 0.936120 0.295596 0.710270
Si Si5 0.676699 0.695886 0.469039
Si Si6 0.104497 0.706041 0.544480
Si Si7 0.456987 0.800768 0.354113
O O1 0.799970 0.718165 0.118545
O O2 0.927437 0.756854 0.108658
O O3 0.791270 0.000000 0.017097
O O4 0.673985 0.732807 0.827853
O O5 0.639798 0.288861 0.319424
O O6 0.583330 0.000000 0.179418
O O7 0.500000 0.265917 0.000000
O O8 0.414737 0.199660 0.057978
O O9 0.325071 0.500000 0.928830
O O10 0.230945 0.755681 0.735609
O O11 0.931646 0.500000 0.704304
O O12 0.815864 0.237441 0.632706
O O13 0.916598 0.234242 0.582640
O O14 0.674909 0.500000 0.492780
O O15 0.569971 0.781577 0.409136
O O16 0.103433 0.500000 0.542070
O O17 0.000000 0.761087 0.500000
O O18 0.500000 0.726977 0.500000
O O19 0.434914 0.000000 0.342995
#
# Coordination Sequence:
#
# PCOD9152590 Si02
#       7
#     4   4   4   4   4   4   4
#     4  11  22  37  60  89 118 152 199 250 306 369
#     4  11  23  37  54  81 123 167 207 253 303 359
#     4  11  20  33  56  81 113 157 206 256 301 349
#     4  10  21  38  58  85 123 164 205 248 301 361
#     4  11  23  39  63  93 124 161 205 257 312 369
#     4   9  16  29  50  76 111 159 207 244 284 346
#     4  10  23  45  70  92 119 157 201 255 318 383
#
# _framework density 22.461642999999999
#
# number of rings (size 3 to 8) (size 9 to 14) (size 15 to 20)
#    0.000    1.571    2.857    2.571    0.000    4.286 
#    0.000    2.857    0.000    4.286    0.000    0.000 
#    0.000    0.000    0.000    0.000    0.000    0.000 
#
# Total GULP energy -156409.905224 kJ/mol
# GULP energy per Si atom -5586.068044 kJ/mol
# Density = 2.241052 g / cm^3
# Si number density = 22.461643 Si / 1000 Ang^3
#
#
#
# Elastic Constant Matrix: (Units=GPa)
#
#
# Indices 1 2 3 4 5 6 
#
# 1 69.2581 -5.4688 59.0191 0.0000 14.9415 0.0000
# 2 -5.4688 42.4062 5.1004 0.0000 0.5845 0.0000
# 3 59.0191 5.1004 124.8368 0.0000 23.4594 0.0000
# 4 0.0000 0.0000 0.0000 16.6666 0.0000 1.5249
# 5 14.9415 0.5845 23.4594 0.0000 41.5160 0.0000
# 6 0.0000 0.0000 0.0000 1.5249 0.0000 3.7975
#
#
#
# Elastic Compliance Matrix: (Units=1/GPa)
#
#
# Indices 1 2 3 4 5 6 
#
# 1 0.025317 0.004705 -0.011677 0.000000 -0.002580 0.000000
# 2 0.004705 0.024574 -0.003183 0.000000 -0.000241 0.000000
# 3 -0.011677 -0.003183 0.014391 0.000000 -0.003885 0.000000
# 4 0.000000 0.000000 0.000000 0.062288 0.000000 -0.025012
# 5 -0.002580 -0.000241 -0.003885 0.000000 0.027214 0.000000
# 6 0.000000 0.000000 0.000000 -0.025012 0.000000 0.273377
#
#
# Mechanical properties :
#
#
# Convention : Reuss Voigt Hill
#
# Bulk Modulus (GPa) = 22.74140 39.31138 31.02639
# Shear Modulus (GPa) = 10.81949 24.25273 17.53611
#
# Velocity S-wave (km/s) = 2.19712 3.28950 2.79716
# Velocity P-wave (km/s) = 4.07222 5.65397 4.92698
#
# Compressibility (1/GPa) = 0.04397266
#
# Stress axis : x y z
#
# Youngs Moduli (GPa) = 39.49889 40.69279 69.48847
#
# Poissons Ratio (x) = -0.19146 0.81139
# Poissons Ratio (y) = -0.18584 0.22119
# Poissons Ratio (z) = 0.46121 0.12953
#
# Static dielectric constant tensor:
#      x y z
#    x 1.895050 0.000000 0.049350 
#    y 0.000000 1.786670 0.000000 
#    z 0.049350 0.000000 1.872820 
# 
# From -- ./inp_files/70262.got.cif
#   From: 2010.05.17/outbox.cif.g08.bks.cpg/sg10_36_cif.got.tgz:70262.got - 2010.06.03 11:33:40.
