data_PCOD9152573
_publ_section_title
;
Structure prediction by ZEFSAII (Michael W. Deem and Ramdas Pophale) SiO2 
 PCOD9152573
Probable space group: P 2/M
;
_chemical_formula_sum "Si O2"
_cell_formula_units_Z 28
_cell_length_a 13.058157
_cell_length_b 9.138405
_cell_length_c 14.679729
_cell_angle_alpha 90.000000
_cell_angle_beta 124.361037
_cell_angle_gamma 90.000000
_cell_volume 1446.059256
_symmetry_space_group_name_H-M "P 2/M"
_symmetry_group_IT_number 10
_symmetry_cell_setting 'monoclinic'
loop_
_space_group_symop_operation_xyz
x,y,z
-x,y,-z
-x,-y,-z
x,-y,z
loop_
_atom_site_type_symbol
_atom_site_label
_atom_site_fract_x
_atom_site_fract_y
_atom_site_fract_z
Si Si1 0.516614 0.671834 0.903314
Si Si2 0.774373 0.172628 0.542301
Si Si3 0.217716 0.674119 0.265020
Si Si4 0.281616 0.173084 0.117234
Si Si5 0.044985 0.828298 0.875379
Si Si6 0.269134 0.329899 0.660462
Si Si7 0.929087 0.830265 0.318970
O O1 0.554169 0.500000 0.919607
O O2 0.617571 0.768409 0.902816
O O3 0.386541 0.685233 0.785650
O O4 0.500000 0.714234 0.000000
O O5 0.741371 0.255874 0.618572
O O6 0.711268 0.238657 0.421592
O O7 0.923056 0.193014 0.601689
O O8 0.752229 0.000000 0.541016
O O9 0.225076 0.500000 0.271452
O O10 0.290671 0.740080 0.216069
O O11 0.075448 0.727688 0.179327
O O12 0.294339 0.000000 0.138924
O O13 0.146661 0.197947 0.003429
O O14 0.103236 0.807446 0.803877
O O15 0.005177 0.000000 0.859825
O O16 0.252366 0.500000 0.628840
O O17 0.149658 0.270468 0.654513
O O18 0.904191 0.000000 0.330064
#
# Coordination Sequence:
#
# PCOD9152573 Si02
#       7
#     4   4   4   4   4   4   4
#     4  10  23  42  60  82 115 150 185 230 280 328
#     4  10  21  38  58  81 113 149 186 231 280 332
#     4  11  22  36  57  85 116 148 184 229 281 336
#     4  11  22  37  59  84 112 150 193 233 275 328
#     4   9  19  35  55  83 118 151 186 230 277 328
#     4  11  22  35  55  83 113 147 188 233 280 331
#     4   9  18  33  54  81 113 149 185 225 277 332
#
# _framework density 19.362970000000001
#
# number of rings (size 3 to 8) (size 9 to 14) (size 15 to 20)
#    0.000    1.857    0.000    5.143    0.000    8.857 
#    0.000    0.714    0.000    4.286    0.000    0.000 
#    0.000    0.000    0.000    0.000    0.000    0.000 
#
# Total GULP energy -156517.675362 kJ/mol
# GULP energy per Si atom -5589.916977 kJ/mol
# Density = 1.931890 g / cm^3
# Si number density = 19.362970 Si / 1000 Ang^3
#
#
#
# Elastic Constant Matrix: (Units=GPa)
#
#
# Indices 1 2 3 4 5 6 
#
# 1 66.9019 52.8613 32.8559 0.0000 -30.6859 0.0000
# 2 52.8613 105.9821 61.7884 0.0000 -27.3388 0.0000
# 3 32.8559 61.7884 96.3240 0.0000 -36.7327 0.0000
# 4 0.0000 0.0000 0.0000 30.7892 0.0000 -6.5257
# 5 -30.6859 -27.3388 -36.7327 0.0000 24.4519 0.0000
# 6 0.0000 0.0000 0.0000 -6.5257 0.0000 32.2593
#
#
#
# Elastic Compliance Matrix: (Units=1/GPa)
#
#
# Indices 1 2 3 4 5 6 
#
# 1 0.069727 -0.027063 0.036070 0.000000 0.111432 0.000000
# 2 -0.027063 0.025893 -0.021749 0.000000 -0.037686 0.000000
# 3 0.036070 -0.021749 0.046868 0.000000 0.091357 0.000000
# 4 0.000000 0.000000 0.000000 0.033934 0.000000 0.006864
# 5 0.111432 -0.037686 0.091357 0.000000 0.275844 0.000000
# 6 0.000000 0.000000 0.000000 0.006864 0.000000 0.032387
#
#
# Mechanical properties :
#
#
# Convention : Reuss Voigt Hill
#
# Bulk Modulus (GPa) = 8.54673 62.69103 35.61888
# Shear Modulus (GPa) = 9.10519 25.61355 17.35937
#
# Velocity S-wave (km/s) = 2.17085 3.64099 2.99745
# Velocity P-wave (km/s) = 3.27215 7.07975 5.51497
#
# Compressibility (1/GPa) = 0.11700384
#
# Stress axis : x y z
#
# Youngs Moduli (GPa) = 14.34174 38.62115 21.33647
#
# Poissons Ratio (x) = 1.04519 -0.76961
# Poissons Ratio (y) = 0.38812 0.46406
# Poissons Ratio (z) = -0.51731 0.83999
#
# Static dielectric constant tensor:
#      x y z
#    x 1.658360 0.000000 -0.008350 
#    y 0.000000 1.644870 0.000000 
#    z -0.008350 0.000000 1.684860 
# 
# From -- ./inp_files/63903.got.cif
#   From: 2010.05.17/outbox.cif.g08.bks.cpg/sg10_32_cif.got.tgz:63903.got - 2010.06.03 11:33:40.
