data_PCOD9152765
_publ_section_title
;
Structure prediction by ZEFSAII (Michael W. Deem and Ramdas Pophale) SiO2 
 PCOD9152765
Probable space group: P 2/M
;
_chemical_formula_sum "Si O2"
_cell_formula_units_Z 24
_cell_length_a 14.888018
_cell_length_b 13.336807
_cell_length_c 19.548691
_cell_angle_alpha 90.000000
_cell_angle_beta 19.018251
_cell_angle_gamma 90.000000
_cell_volume 1264.881709
_symmetry_space_group_name_H-M "P 2/M"
_symmetry_group_IT_number 10
_symmetry_cell_setting 'monoclinic'
loop_
_space_group_symop_operation_xyz
x,y,z
-x,y,-z
-x,-y,-z
x,-y,z
loop_
_atom_site_type_symbol
_atom_site_label
_atom_site_fract_x
_atom_site_fract_y
_atom_site_fract_z
Si Si1 0.587558 0.700251 0.274655
Si Si2 0.980820 0.616832 0.272478
Si Si3 0.532436 0.883171 0.220879
Si Si4 0.879126 0.885848 0.691775
Si Si5 0.361312 0.200255 0.000904
Si Si6 0.904442 0.385848 0.166449
O O1 0.276776 0.659959 0.499515
O O2 0.602400 0.811745 0.233982
O O3 0.713989 0.687527 0.259303
O O4 0.786787 0.633417 0.083314
O O5 0.028719 0.500000 0.252772
O O6 0.897911 0.625731 0.252108
O O7 0.243161 0.688246 0.093217
O O8 0.202202 0.874288 0.447834
O O9 0.597353 0.000000 0.184169
O O10 0.671626 0.840043 0.052082
O O11 0.806383 0.866566 0.823516
O O12 0.802530 0.000000 0.727733
O O13 0.679214 0.812476 0.794084
O O14 0.818468 0.500000 0.211788
#
# Coordination Sequence:
#
# PCOD9152765 Si02
#       6
#     4   4   4   4   4   4
#     4  11  20  37  59  86 117 148 188 242 282 334
#     4  11  22  37  60  87 117 152 190 235 290 341
#     4  11  22  37  60  87 117 152 190 235 290 341
#     4  10  21  38  62  86 111 151 199 239 280 335
#     4  11  20  37  59  86 117 148 188 242 282 334
#     4  10  21  38  62  86 111 151 199 239 280 335
#
# _framework density 18.974107
#
# number of rings (size 3 to 8) (size 9 to 14) (size 15 to 20)
#    0.000    1.333    3.333    5.000    0.000    2.667 
#    0.000    3.333    0.000    2.000    0.000    0.000 
#    0.000    0.000    0.000    0.000    0.000    0.000 
#
# Total GULP energy -134023.402130 kJ/mol
# GULP energy per Si atom -5584.308422 kJ/mol
# Density = 1.893092 g / cm^3
# Si number density = 18.974107 Si / 1000 Ang^3
#
#
#
# Elastic Constant Matrix: (Units=GPa)
#
#
# Indices 1 2 3 4 5 6 
#
# 1 51.2848 45.6978 9.7805 0.0000 -1.4606 0.0000
# 2 45.6978 138.2962 33.6983 0.0000 -14.9861 0.0000
# 3 9.7805 33.6983 50.0520 0.0000 -0.0665 0.0000
# 4 0.0000 0.0000 0.0000 29.5305 0.0000 -4.2744
# 5 -1.4606 -14.9861 -0.0665 0.0000 21.9068 0.0000
# 6 0.0000 0.0000 0.0000 -4.2744 0.0000 32.9600
#
#
#
# Elastic Compliance Matrix: (Units=1/GPa)
#
#
# Indices 1 2 3 4 5 6 
#
# 1 0.028177 -0.010191 0.001348 0.000000 -0.005089 0.000000
# 2 -0.010191 0.013172 -0.006866 0.000000 0.008310 0.000000
# 3 0.001348 -0.006866 0.024332 0.000000 -0.004533 0.000000
# 4 0.000000 0.000000 0.000000 0.034511 0.000000 0.004476
# 5 -0.005089 0.008310 -0.004533 0.000000 0.050980 0.000000
# 6 0.000000 0.000000 0.000000 0.004476 0.000000 0.030920
#
#
# Mechanical properties :
#
#
# Convention : Reuss Voigt Hill
#
# Bulk Modulus (GPa) = 29.18429 46.44290 37.81359
# Shear Modulus (GPa) = 22.22910 26.90988 24.56949
#
# Velocity S-wave (km/s) = 3.42650 3.77004 3.60237
# Velocity P-wave (km/s) = 5.57396 6.59402 6.10533
#
# Compressibility (1/GPa) = 0.03426501
#
# Stress axis : x y z
#
# Youngs Moduli (GPa) = 35.48934 75.92041 41.09788
#
# Poissons Ratio (x) = 0.77369 -0.05541
# Poissons Ratio (y) = 0.36166 0.28216
# Poissons Ratio (z) = -0.04785 0.52124
#
# Static dielectric constant tensor:
#      x y z
#    x 1.677290 0.000000 0.009750 
#    y 0.000000 1.642240 0.000000 
#    z 0.009750 0.000000 1.685150 
# 
# From -- ./inp_files/85163.got.cif
#   From: 2010.05.17/outbox.cif.g08.bks.cpg/sg10_43_cif.got.tgz:85163.got - 2010.06.03 11:33:40.
