data_PCOD9152450
_publ_section_title
;
Structure prediction by ZEFSAII (Michael W. Deem and Ramdas Pophale) SiO2 
 PCOD9152450
Probable space group: P 2/M
;
_chemical_formula_sum "Si O2"
_cell_formula_units_Z 28
_cell_length_a 9.435065
_cell_length_b 20.134737
_cell_length_c 14.924619
_cell_angle_alpha 90.000000
_cell_angle_beta 151.077643
_cell_angle_gamma 90.000000
_cell_volume 1371.203508
_symmetry_space_group_name_H-M "P 2/M"
_symmetry_group_IT_number 10
_symmetry_cell_setting 'monoclinic'
loop_
_space_group_symop_operation_xyz
x,y,z
-x,y,-z
-x,-y,-z
x,-y,z
loop_
_atom_site_type_symbol
_atom_site_label
_atom_site_fract_x
_atom_site_fract_y
_atom_site_fract_z
Si Si1 0.154328 0.426329 0.487210
Si Si2 0.859792 0.811104 0.328458
Si Si3 0.649835 0.335575 0.803314
Si Si4 0.341725 0.671805 0.825467
Si Si5 0.468881 0.204964 0.589017
Si Si6 0.571619 0.926809 0.934359
Si Si7 0.734423 0.926576 0.712952
O O1 0.129280 0.500000 0.433092
O O2 0.486387 0.400085 0.672403
O O3 0.000000 0.431217 0.500000
O O4 0.966361 0.366051 0.343981
O O5 0.703085 0.750172 0.194627
O O6 0.000000 0.788052 0.500000
O O7 0.142650 0.823607 0.424323
O O8 0.632946 0.870052 0.220177
O O9 0.521020 0.336053 0.832907
O O10 0.546545 0.269499 0.691653
O O11 0.000000 0.338376 0.000000
O O12 0.500000 0.645555 0.000000
O O13 0.500000 0.220606 0.500000
O O14 0.667183 0.141864 0.726131
O O15 0.922202 0.921166 0.120978
O O16 0.488059 0.000000 0.853657
O O17 0.500000 0.923960 0.000000
O O18 0.500000 0.926070 0.500000
O O19 0.695469 0.000000 0.734539
#
# Coordination Sequence:
#
# PCOD9152450 Si02
#       7
#     4   4   4   4   4   4   4
#     4   9  19  42  68  93 131 170 206 254 313 374
#     4  12  23  41  62  90 127 162 214 264 314 377
#     4  11  24  39  63  99 132 164 209 261 313 374
#     4  11  23  41  66  95 126 169 215 261 310 372
#     4  11  23  38  63  90 128 169 209 261 324 377
#     4  10  21  37  60  90 122 161 212 263 315 377
#     4   9  19  36  58  88 125 165 208 258 322 385
#
# _framework density 20.420017999999999
#
# number of rings (size 3 to 8) (size 9 to 14) (size 15 to 20)
#    0.000    1.571    2.857    2.571    4.000    2.571 
#    0.000    0.000    0.000    5.143    0.000    0.000 
#    0.000    0.000    0.000    0.000    0.000    0.000 
#
# Total GULP energy -156057.472718 kJ/mol
# GULP energy per Si atom -5573.481168 kJ/mol
# Density = 2.037354 g / cm^3
# Si number density = 20.420018 Si / 1000 Ang^3
#
#
#
# Elastic Constant Matrix: (Units=GPa)
#
#
# Indices 1 2 3 4 5 6 
#
# 1 66.4518 19.0991 29.6301 0.0000 9.6957 0.0000
# 2 19.0991 113.8405 40.9308 0.0000 15.9453 0.0000
# 3 29.6301 40.9308 106.5130 0.0000 23.3982 0.0000
# 4 0.0000 0.0000 0.0000 -4.7904 0.0000 -14.0363
# 5 9.6957 15.9453 23.3982 0.0000 36.9410 0.0000
# 6 0.0000 0.0000 0.0000 -14.0363 0.0000 4.3216
#
#
#
# Elastic Compliance Matrix: (Units=1/GPa)
#
#
# Indices 1 2 3 4 5 6 
#
# 1 0.017428 -0.001266 -0.004039 0.000000 -0.001470 0.000000
# 2 -0.001266 0.010445 -0.003188 0.000000 -0.002157 0.000000
# 3 -0.004039 -0.003188 0.013012 0.000000 -0.005806 0.000000
# 4 0.000000 0.000000 0.000000 -0.019849 0.000000 -0.064470
# 5 -0.001470 -0.002157 -0.005806 0.000000 0.032064 0.000000
# 6 0.000000 0.000000 0.000000 -0.064470 0.000000 0.022003
#
#
# Mechanical properties :
#
#
# Convention : Reuss Voigt Hill
#
# Bulk Modulus (GPa) = 41.84077 51.79167 46.81622
# Shear Modulus (GPa) = 49.97286 20.43745 35.20516
#
# Velocity S-wave (km/s) = 4.95233 3.16706 4.15667
# Velocity P-wave (km/s) = 7.29626 6.22832 6.78334
#
# Compressibility (1/GPa) = 0.02390013
#
# Stress axis : x y z
#
# Youngs Moduli (GPa) = 57.38023 95.74075 76.84937
#
# Poissons Ratio (x) = 0.12120 0.31038
# Poissons Ratio (y) = 0.07264 0.24498
# Poissons Ratio (z) = 0.23175 0.30520
#
# Static dielectric constant tensor:
#      x y z
#    x 1.768130 0.000000 -0.016420 
#    y 0.000000 1.753480 0.000000 
#    z -0.016420 0.000000 1.770890 
# 
# From -- ./inp_files/62626.got.cif
#   From: 2010.05.17/outbox.cif.g08.bks.cpg/sg10_32_cif.got.tgz:62626.got - 2010.06.03 11:33:40.
