data_PCOD9152522
_publ_section_title
;
Structure prediction by ZEFSAII (Michael W. Deem and Ramdas Pophale) SiO2 
 PCOD9152522
Probable space group: P 2/M
;
_chemical_formula_sum "Si O2"
_cell_formula_units_Z 22
_cell_length_a 14.741353
_cell_length_b 16.504582
_cell_length_c 9.424578
_cell_angle_alpha 90.000000
_cell_angle_beta 28.096009
_cell_angle_gamma 90.000000
_cell_volume 1079.888685
_symmetry_space_group_name_H-M "P 2/M"
_symmetry_group_IT_number 10
_symmetry_cell_setting 'monoclinic'
loop_
_space_group_symop_operation_xyz
x,y,z
-x,y,-z
-x,-y,-z
x,-y,z
loop_
_atom_site_type_symbol
_atom_site_label
_atom_site_fract_x
_atom_site_fract_y
_atom_site_fract_z
Si Si1 0.768438 0.590902 0.333508
Si Si2 0.500000 0.306997 0.500000
Si Si3 0.555536 0.820688 0.178304
Si Si4 0.469318 0.000000 0.708184
Si Si5 0.846040 0.747941 0.338707
Si Si6 0.866641 0.000000 0.327439
Si Si7 0.880974 0.849773 0.524424
O O1 0.693023 0.500000 0.459803
O O2 0.661042 0.635246 0.350238
O O3 0.751229 0.659224 0.478544
O O4 0.000000 0.583872 0.000000
O O5 0.416720 0.247065 0.737583
O O6 0.614839 0.910796 0.148540
O O7 0.328735 0.809121 0.457220
O O8 0.677168 0.817461 0.866234
O O9 0.500000 0.000000 0.500000
O O10 0.654120 0.000000 0.555281
O O11 0.953907 0.774977 0.330576
O O12 0.000000 0.751257 0.000000
O O13 0.888918 0.924412 0.404115
O O14 0.000000 0.000000 0.000000
O O15 0.000000 0.868069 0.500000
#
# Coordination Sequence:
#
# PCOD9152522 Si02
#       7
#     4   2   4   2   4   2   4
#     4   9  19  36  65  96 129 165 215 267 327 395
#     4  10  21  37  66  94 132 168 222 261 331 396
#     4  11  24  40  63  90 130 170 217 265 325 380
#     4  12  25  38  67  85 123 165 223 258 321 366
#     4  10  22  41  66  92 128 168 216 265 332 385
#     4  12  28  46  64  89 132 170 225 279 322 382
#     4  12  27  40  65  92 132 170 219 271 329 383
#
# _framework density 20.37247
#
# number of rings (size 3 to 8) (size 9 to 14) (size 15 to 20)
#    0.000    1.273    2.727    2.182   10.182    0.727 
#    0.000    0.000    0.000   10.364    0.000    0.000 
#    0.000    0.000    0.000    0.000    0.000    0.000 
#
# Total GULP energy -122473.189309 kJ/mol
# GULP energy per Si atom -5566.963150 kJ/mol
# Density = 2.032610 g / cm^3
# Si number density = 20.372470 Si / 1000 Ang^3
#
#
#
# Elastic Constant Matrix: (Units=GPa)
#
#
# Indices 1 2 3 4 5 6 
#
# 1 144.0065 64.2300 35.5630 0.0000 10.9443 0.0000
# 2 64.2300 171.9282 33.9557 0.0000 14.0400 0.0000
# 3 35.5630 33.9557 98.7775 0.0000 10.7730 0.0000
# 4 0.0000 0.0000 0.0000 4.2379 0.0000 -10.7779
# 5 10.9443 14.0400 10.7730 0.0000 39.6442 0.0000
# 6 0.0000 0.0000 0.0000 -10.7779 0.0000 11.7076
#
#
#
# Elastic Compliance Matrix: (Units=1/GPa)
#
#
# Indices 1 2 3 4 5 6 
#
# 1 0.008775 -0.002792 -0.002105 0.000000 -0.000861 0.000000
# 2 -0.002792 0.007238 -0.001327 0.000000 -0.001432 0.000000
# 3 -0.002105 -0.001327 0.011566 0.000000 -0.002092 0.000000
# 4 0.000000 0.000000 0.000000 -0.175929 0.000000 -0.161959
# 5 -0.000861 -0.001432 -0.002092 0.000000 0.026538 0.000000
# 6 0.000000 0.000000 0.000000 -0.161959 0.000000 -0.063683
#
#
# Mechanical properties :
#
#
# Convention : Reuss Voigt Hill
#
# Bulk Modulus (GPa) = 66.09103 75.80106 70.94604
# Shear Modulus (GPa) = -29.76142 29.84883 0.04370
#
# Velocity S-wave (km/s) = -3.82627 3.83189 0.14662
# Velocity P-wave (km/s) = 3.60434 7.54097 5.91005
#
# Compressibility (1/GPa) = 0.01513065
#
# Stress axis : x y z
#
# Youngs Moduli (GPa) = 113.96210 138.15131 86.45979
#
# Poissons Ratio (x) = 0.38572 0.18204
# Poissons Ratio (y) = 0.31818 0.11472
# Poissons Ratio (z) = 0.23995 0.18331
#
# Static dielectric constant tensor:
#      x y z
#    x 1.763740 0.000000 -0.033740 
#    y 0.000000 1.811370 0.000000 
#    z -0.033740 0.000000 1.817350 
# 
# From -- ./inp_files/30044.got.cif
#   From: 2010.05.17/outbox.cif.g08.bks.cpg/sg10_16_cif.got.tgz:30044.got - 2010.06.03 11:33:40.
