data_PCOD9152900
_publ_section_title
;
Structure prediction by ZEFSAII (Michael W. Deem and Ramdas Pophale) SiO2 
 PCOD9152900
Probable space group: P 2/M
;
_chemical_formula_sum "Si O2"
_cell_formula_units_Z 16
_cell_length_a 7.059563
_cell_length_b 22.753310
_cell_length_c 5.414242
_cell_angle_alpha 90.000000
_cell_angle_beta 129.619896
_cell_angle_gamma 90.000000
_cell_volume 669.908316
_symmetry_space_group_name_H-M "P 2/M"
_symmetry_group_IT_number 10
_symmetry_cell_setting 'monoclinic'
loop_
_space_group_symop_operation_xyz
x,y,z
-x,y,-z
-x,-y,-z
x,-y,z
loop_
_atom_site_type_symbol
_atom_site_label
_atom_site_fract_x
_atom_site_fract_y
_atom_site_fract_z
Si Si1 0.658439 0.375570 0.877812
Si Si2 0.220496 0.500000 0.876867
Si Si3 0.779491 0.251119 0.122971
Si Si4 0.665158 0.000000 0.888808
Si Si5 0.338170 0.873454 0.116774
O O1 0.500000 0.375905 0.500000
O O2 0.500000 0.375456 0.000000
O O3 0.796623 0.437718 0.000086
O O4 0.795145 0.313216 0.997120
O O5 0.000000 0.500000 0.500000
O O6 0.500000 0.500000 0.000000
O O7 0.000000 0.251651 0.500000
O O8 0.500000 0.250901 0.000000
O O9 0.798097 0.188716 0.001857
O O10 0.500000 0.000000 0.500000
O O11 0.798068 0.063320 0.006679
O O12 0.500000 0.000000 0.000000
O O13 0.500000 0.873358 0.500000
O O14 0.500000 0.873419 0.000000
#
# Coordination Sequence:
#
# PCOD9152900 Si02
#       5
#     4   2   4   2   4
#     4  10  21  40  62  89 120 157 198 244 294 350
#     4  10  21  40  62  90 122 158 198 244 294 350
#     4  10  21  39  60  87 118 155 196 243 294 350
#     4   8  14  26  49  76 108 144 186 232 284 340
#     4   9  17  32  53  81 112 149 190 237 288 345
#
# _framework density 23.883863999999999
#
# number of rings (size 3 to 8) (size 9 to 14) (size 15 to 20)
#    0.000    2.500    0.000    1.875    0.000    0.000 
#    0.000   40.625    0.000    0.000    0.000   26.250 
#    0.000    0.000    0.000    0.000    0.000    0.000 
#
# Total GULP energy -89231.067510 kJ/mol
# GULP energy per Si atom -5576.941719 kJ/mol
# Density = 2.382950 g / cm^3
# Si number density = 23.883864 Si / 1000 Ang^3
#
#
#
# Elastic Constant Matrix: (Units=GPa)
#
#
# Indices 1 2 3 4 5 6 
#
# 1 180.7221 20.7944 41.7021 0.0000 -10.0350 0.0000
# 2 20.7944 386.5246 94.3502 0.0000 3.5193 0.0000
# 3 41.7021 94.3502 189.0968 0.0000 -12.9078 0.0000
# 4 0.0000 0.0000 0.0000 31.8889 0.0000 -12.0589
# 5 -10.0350 3.5193 -12.9078 0.0000 39.5771 0.0000
# 6 0.0000 0.0000 0.0000 -12.0589 0.0000 -62.6339
#
#
#
# Elastic Compliance Matrix: (Units=1/GPa)
#
#
# Indices 1 2 3 4 5 6 
#
# 1 0.005876 -0.000032 -0.001205 0.000000 0.001100 0.000000
# 2 -0.000032 0.002969 -0.001527 0.000000 -0.000770 0.000000
# 3 -0.001205 -0.001527 0.006448 0.000000 0.001933 0.000000
# 4 0.000000 0.000000 0.000000 0.029231 0.000000 -0.005628
# 5 0.001100 -0.000770 0.001933 0.000000 0.026245 0.000000
# 6 0.000000 0.000000 0.000000 -0.005628 0.000000 -0.014882
#
#
# Mechanical properties :
#
#
# Convention : Reuss Voigt Hill
#
# Bulk Modulus (GPa) = 102.40316 118.89300 110.64808
# Shear Modulus (GPa) = 77.31810 41.73286 59.52548
#
# Velocity S-wave (km/s) = 5.69586 4.18464 4.99770
# Velocity P-wave (km/s) = 9.28577 8.55780 8.92921
#
# Compressibility (1/GPa) = 0.00976532
#
# Stress axis : x y z
#
# Youngs Moduli (GPa) = 170.17997 336.86513 155.09446
#
# Poissons Ratio (x) = 0.01080 0.18686
# Poissons Ratio (y) = 0.00545 0.23678
# Poissons Ratio (z) = 0.20504 0.51428
#
# Static dielectric constant tensor:
#      x y z
#    x 1.899590 0.000000 -0.019450 
#    y 0.000000 1.938610 0.000000 
#    z -0.019450 0.000000 1.834780 
# 
# From -- ./inp_files/1609.got.cif
#   From: 2010.05.17/outbox.cif.g08.bks.cpg/sg10_1_cif.got.tgz:1609.got - 2010.06.03 11:33:40.
