data_PCOD9152174
_publ_section_title
;
Structure prediction by ZEFSAII (Michael W. Deem and Ramdas Pophale) SiO2 
 PCOD9152174
Probable space group: P 2/M
;
_chemical_formula_sum "Si O2"
_cell_formula_units_Z 28
_cell_length_a 26.443401
_cell_length_b 10.072943
_cell_length_c 7.677359
_cell_angle_alpha 90.000000
_cell_angle_beta 140.305632
_cell_angle_gamma 90.000000
_cell_volume 1306.102132
_symmetry_space_group_name_H-M "P 2/M"
_symmetry_group_IT_number 10
_symmetry_cell_setting 'monoclinic'
loop_
_space_group_symop_operation_xyz
x,y,z
-x,y,-z
-x,-y,-z
x,-y,z
loop_
_atom_site_type_symbol
_atom_site_label
_atom_site_fract_x
_atom_site_fract_y
_atom_site_fract_z
Si Si1 0.744160 0.653225 0.317569
Si Si2 0.821501 0.252246 0.877642
Si Si3 0.127324 0.655287 0.609791
Si Si4 0.010727 0.854412 0.737729
Si Si5 0.341019 0.847474 0.427899
Si Si6 0.406809 0.346153 0.890975
Si Si7 0.438782 0.652919 0.487327
O O1 0.744004 0.500000 0.270378
O O2 0.782578 0.670901 0.611889
O O3 0.801148 0.712188 0.320486
O O4 0.651877 0.685689 0.101174
O O5 0.751728 0.161508 0.771940
O O6 0.851284 0.331756 0.127670
O O7 0.897205 0.178872 0.997423
O O8 0.112636 0.500000 0.534018
O O9 0.049383 0.741132 0.361547
O O10 0.000000 0.859453 0.500000
O O11 0.990823 0.000000 0.755640
O O12 0.383728 0.770455 0.699175
O O13 0.368779 0.754275 0.342210
O O14 0.364937 0.000000 0.470701
O O15 0.386105 0.500000 0.781009
O O16 0.498025 0.348845 0.185770
O O17 0.500000 0.691977 0.500000
O O18 0.412202 0.500000 0.390963
#
# Coordination Sequence:
#
# PCOD9152174 Si02
#       7
#     4   4   4   4   4   4   4
#     4   9  19  35  56  87 118 147 188 242 291 337
#     4  10  21  37  59  82 115 155 196 234 287 349
#     4  10  21  36  60  88 115 149 192 242 294 342
#     4   9  19  37  58  80 114 155 193 235 285 344
#     4  11  23  38  59  85 115 151 193 240 292 342
#     4   9  19  38  60  82 114 151 193 236 283 346
#     4  10  22  38  60  87 116 151 192 235 286 350
#
# _framework density 21.437835
#
# number of rings (size 3 to 8) (size 9 to 14) (size 15 to 20)
#    0.000    2.286    0.000    1.714    2.000    8.571 
#    0.000    5.714    0.000    0.000    0.000    0.000 
#    0.000    0.000    0.000    0.000    0.000    0.000 
#
# Total GULP energy -156078.496919 kJ/mol
# GULP energy per Si atom -5574.232033 kJ/mol
# Density = 2.138904 g / cm^3
# Si number density = 21.437835 Si / 1000 Ang^3
#
#
#
# Elastic Constant Matrix: (Units=GPa)
#
#
# Indices 1 2 3 4 5 6 
#
# 1 115.9839 50.0964 20.4422 0.0000 16.1234 0.0000
# 2 50.0964 97.7407 17.9374 0.0000 32.5062 0.0000
# 3 20.4422 17.9374 70.6286 0.0000 25.2707 0.0000
# 4 0.0000 0.0000 0.0000 -4.2932 0.0000 11.7062
# 5 16.1234 32.5062 25.2707 0.0000 36.1859 0.0000
# 6 0.0000 0.0000 0.0000 11.7062 0.0000 12.9523
#
#
#
# Elastic Compliance Matrix: (Units=1/GPa)
#
#
# Indices 1 2 3 4 5 6 
#
# 1 0.011401 -0.006099 -0.002524 0.000000 0.002162 0.000000
# 2 -0.006099 0.017945 0.002670 0.000000 -0.015267 0.000000
# 3 -0.002524 0.002670 0.019552 0.000000 -0.014929 0.000000
# 4 0.000000 0.000000 0.000000 -0.067235 0.000000 0.060766
# 5 0.002162 -0.015267 -0.014929 0.000000 0.050812 0.000000
# 6 0.000000 0.000000 0.000000 0.060766 0.000000 0.022286
#
#
# Mechanical properties :
#
#
# Convention : Reuss Voigt Hill
#
# Bulk Modulus (GPa) = 27.03287 51.25612 39.14450
# Shear Modulus (GPa) = 63.29345 22.02749 42.66047
#
# Velocity S-wave (km/s) = 5.43951 3.20895 4.46574
# Velocity P-wave (km/s) = 7.21722 6.13929 6.69997
#
# Compressibility (1/GPa) = 0.03699200
#
# Stress axis : x y z
#
# Youngs Moduli (GPa) = 87.71484 55.72699 51.14454
#
# Poissons Ratio (x) = 0.33988 0.12910
# Poissons Ratio (y) = 0.53498 -0.13658
# Poissons Ratio (z) = 0.22142 -0.14882
#
# Static dielectric constant tensor:
#      x y z
#    x 1.872130 0.000000 -0.041940 
#    y 0.000000 1.722900 0.000000 
#    z -0.041940 0.000000 1.850770 
# 
# From -- ./inp_files/38060.got.cif
#   From: 2010.05.17/outbox.cif.g08.bks.cpg/sg10_20_cif.got.tgz:38060.got - 2010.06.03 11:33:40.
