data_PCOD9152550
_publ_section_title
;
Structure prediction by ZEFSAII (Michael W. Deem and Ramdas Pophale) SiO2 
 PCOD9152550
Probable space group: P 2/M
;
_chemical_formula_sum "Si O2"
_cell_formula_units_Z 18
_cell_length_a 12.789174
_cell_length_b 16.930317
_cell_length_c 14.638259
_cell_angle_alpha 90.000000
_cell_angle_beta 19.915217
_cell_angle_gamma 90.000000
_cell_volume 1079.640014
_symmetry_space_group_name_H-M "P 2/M"
_symmetry_group_IT_number 10
_symmetry_cell_setting 'monoclinic'
loop_
_space_group_symop_operation_xyz
x,y,z
-x,y,-z
-x,-y,-z
x,-y,z
loop_
_atom_site_type_symbol
_atom_site_label
_atom_site_fract_x
_atom_site_fract_y
_atom_site_fract_z
Si Si1 0.651030 0.591966 0.276359
Si Si2 0.363132 0.913413 0.213944
Si Si3 0.864578 0.500000 0.712067
Si Si4 0.571404 0.254765 0.050179
Si Si5 0.178434 0.658342 0.522230
O O1 0.500000 0.593560 0.500000
O O2 0.660475 0.500000 0.237081
O O3 0.446460 0.640314 0.373814
O O4 0.000000 0.619852 0.000000
O O5 0.509814 0.834627 0.134600
O O6 0.000000 0.900595 0.500000
O O7 0.410776 0.000000 0.218887
O O8 0.500000 0.918015 0.000000
O O9 0.000000 0.500000 0.500000
O O10 0.990308 0.577858 0.658604
O O11 0.500000 0.500000 0.000000
O O12 0.341015 0.310292 0.296443
O O13 0.500000 0.259230 0.000000
O O14 0.923642 0.281060 0.768798
#
# Coordination Sequence:
#
# PCOD9152550 Si02
#       5
#     4   4   2   4   4
#     4  10  21  38  57  72  92 124 172 226 270 296
#     4   9  17  30  48  70  99 137 174 203 239 287
#     4  12  24  34  46  68 102 140 170 194 227 294
#     4  11  21  33  51  74 109 140 167 202 245 297
#     4  12  22  36  51  74 101 135 174 208 252 299
#
# _framework density 16.672224
#
# number of rings (size 3 to 8) (size 9 to 14) (size 15 to 20)
#    0.000    1.333    1.111    8.000    0.000    0.000 
#    0.000    0.000    0.000    0.000    0.000    0.000 
#    0.000   17.778    0.000    0.000    0.000    0.000 
#
# Total GULP energy -100486.936124 kJ/mol
# GULP energy per Si atom -5582.607562 kJ/mol
# Density = 1.663428 g / cm^3
# Si number density = 16.672224 Si / 1000 Ang^3
#
#
#
# Elastic Constant Matrix: (Units=GPa)
#
#
# Indices 1 2 3 4 5 6 
#
# 1 47.3594 40.4538 38.2081 0.0000 -15.6900 0.0000
# 2 40.4538 118.2732 56.9101 0.0000 -15.8817 0.0000
# 3 38.2081 56.9101 162.1841 0.0000 -11.4892 0.0000
# 4 0.0000 0.0000 0.0000 31.1229 0.0000 0.3759
# 5 -15.6900 -15.8817 -11.4892 0.0000 31.0552 0.0000
# 6 0.0000 0.0000 0.0000 0.3759 0.0000 3.2775
#
#
#
# Elastic Compliance Matrix: (Units=1/GPa)
#
#
# Indices 1 2 3 4 5 6 
#
# 1 0.036185 -0.008484 -0.004683 0.000000 0.012211 0.000000
# 2 -0.008484 0.012666 -0.002352 0.000000 0.001321 0.000000
# 3 -0.004683 -0.002352 0.008053 0.000000 -0.000590 0.000000
# 4 0.000000 0.000000 0.000000 0.032175 0.000000 -0.003690
# 5 0.012211 0.001321 -0.000590 0.000000 0.038827 0.000000
# 6 0.000000 0.000000 0.000000 -0.003690 0.000000 0.305536
#
#
# Mechanical properties :
#
#
# Convention : Reuss Voigt Hill
#
# Bulk Modulus (GPa) = 38.66047 66.55120 52.60583
# Shear Modulus (GPa) = 10.56856 25.90742 18.23799
#
# Velocity S-wave (km/s) = 2.52047 3.94626 3.31103
# Velocity P-wave (km/s) = 5.63110 7.79539 6.79990
#
# Compressibility (1/GPa) = 0.02586621
#
# Stress axis : x y z
#
# Youngs Moduli (GPa) = 27.63571 78.95159 124.18291
#
# Poissons Ratio (x) = 0.66981 0.58151
# Poissons Ratio (y) = 0.23446 0.29211
# Poissons Ratio (z) = 0.12941 0.18571
#
# Static dielectric constant tensor:
#      x y z
#    x 1.527970 0.000000 0.007780 
#    y 0.000000 1.628240 0.000000 
#    z 0.007780 0.000000 1.556460 
# 
# From -- ./inp_files/6569.got.cif
#   From: 2010.05.17/outbox.cif.g08.bks.cpg/sg10_4_cif.got.tgz:6569.got - 2010.06.03 11:33:40.
