data_PCOD9152098
_publ_section_title
;
Structure prediction by ZEFSAII (Michael W. Deem and Ramdas Pophale) SiO2 
 PCOD9152098
Probable space group: P 2/M
;
_chemical_formula_sum "Si O2"
_cell_formula_units_Z 32
_cell_length_a 12.167452
_cell_length_b 7.521508
_cell_length_c 28.906131
_cell_angle_alpha 90.000000
_cell_angle_beta 33.305866
_cell_angle_gamma 90.000000
_cell_volume 1452.621963
_symmetry_space_group_name_H-M "P 2/M"
_symmetry_group_IT_number 10
_symmetry_cell_setting 'monoclinic'
loop_
_space_group_symop_operation_xyz
x,y,z
-x,y,-z
-x,-y,-z
x,-y,z
loop_
_atom_site_type_symbol
_atom_site_label
_atom_site_fract_x
_atom_site_fract_y
_atom_site_fract_z
Si Si1 0.842261 0.218470 0.748809
Si Si2 0.589446 0.284683 0.343975
Si Si3 0.669266 0.201616 0.907391
Si Si4 0.297574 0.204291 0.592919
Si Si5 0.125236 0.785841 0.912363
Si Si6 0.416978 0.786468 0.248531
Si Si7 0.777814 0.712558 0.583751
Si Si8 0.974307 0.291381 0.154169
O O1 0.737857 0.277690 0.833683
O O2 0.712482 0.273703 0.750109
O O3 0.074343 0.278994 0.663348
O O4 0.848675 0.000000 0.748470
O O5 0.585583 0.500000 0.349813
O O6 0.663201 0.208765 0.366236
O O7 0.375829 0.220669 0.401030
O O8 0.752419 0.237800 0.247921
O O9 0.864850 0.196586 0.870625
O O10 0.597814 0.000000 0.922312
O O11 0.500000 0.286707 0.000000
O O12 0.500000 0.286719 0.500000
O O13 0.289666 0.000000 0.578671
O O14 0.354258 0.719384 0.831690
O O15 0.012607 0.740264 0.904678
O O16 0.134639 0.000000 0.911668
O O17 0.000000 0.720272 0.000000
O O18 0.310735 0.743167 0.334236
O O19 0.425766 0.000000 0.241987
O O20 0.786701 0.500000 0.574137
O O21 0.000000 0.785419 0.500000
O O22 0.997848 0.500000 0.155517
#
# Coordination Sequence:
#
# PCOD9152098 Si02
#       8
#     4   4   4   4   4   4   4   4
#     4   9  19  36  54  80 115 144 179 229 279 327
#     4  10  21  38  58  81 112 149 190 235 280 333
#     4  10  21  37  62  87 112 151 193 233 282 339
#     4  10  21  36  57  84 112 145 184 230 283 335
#     4  10  22  38  60  87 114 148 193 238 284 344
#     4  10  21  37  58  84 115 147 184 237 287 334
#     4  10  22  40  59  81 113 152 191 232 282 341
#     4  11  22  38  60  84 117 152 190 240 286 336
#
# _framework density 22.029133000000002
#
# number of rings (size 3 to 8) (size 9 to 14) (size 15 to 20)
#    0.000    2.000    2.500    0.375    3.500    2.000 
#    0.000    1.250    0.000    0.000    0.000    0.000 
#    0.000    0.000    0.000    0.000    0.000    0.000 
#
# Total GULP energy -178732.860432 kJ/mol
# GULP energy per Si atom -5585.401888 kJ/mol
# Density = 2.197899 g / cm^3
# Si number density = 22.029133 Si / 1000 Ang^3
#
#
#
# Elastic Constant Matrix: (Units=GPa)
#
#
# Indices 1 2 3 4 5 6 
#
# 1 89.4953 -14.5660 -7.0756 0.0000 -12.1282 0.0000
# 2 -14.5660 54.8699 -2.5651 0.0000 -8.2865 0.0000
# 3 -7.0756 -2.5651 83.1488 0.0000 -7.3633 0.0000
# 4 0.0000 0.0000 0.0000 -40.3165 0.0000 18.5037
# 5 -12.1282 -8.2865 -7.3633 0.0000 36.8339 0.0000
# 6 0.0000 0.0000 0.0000 18.5037 0.0000 -473.6460
#
#
#
# Elastic Compliance Matrix: (Units=1/GPa)
#
#
# Indices 1 2 3 4 5 6 
#
# 1 0.012754 0.004297 0.001706 0.000000 0.005507 0.000000
# 2 0.004297 0.020392 0.001554 0.000000 0.006313 0.000000
# 3 0.001706 0.001554 0.012522 0.000000 0.003414 0.000000
# 4 0.000000 0.000000 0.000000 -0.025257 0.000000 -0.000987
# 5 0.005507 0.006313 0.003414 0.000000 0.031065 0.000000
# 6 0.000000 0.000000 0.000000 -0.000987 0.000000 -0.002150
#
#
# Mechanical properties :
#
#
# Convention : Reuss Voigt Hill
#
# Bulk Modulus (GPa) = 16.45236 19.90008 18.17622
# Shear Modulus (GPa) = 91.78704 -78.64433 6.57135
#
# Velocity S-wave (km/s) = 6.46194 -5.98144 1.72902
# Velocity P-wave (km/s) = 7.94734 6.21694 3.50070
#
# Compressibility (1/GPa) = 0.06078154
#
# Stress axis : x y z
#
# Youngs Moduli (GPa) = 78.40458 49.03946 79.85900
#
# Poissons Ratio (x) = -0.21074 -0.13621
# Poissons Ratio (y) = -0.33693 -0.12409
# Poissons Ratio (z) = -0.13373 -0.07620
#
# Static dielectric constant tensor:
#      x y z
#    x 1.750050 0.000000 -0.010850 
#    y 0.000000 1.842830 0.000000 
#    z -0.010850 0.000000 1.819620 
# 
# From -- ./inp_files/49815.got.cif
#   From: 2010.05.17/outbox.cif.g08.bks.cpg/sg10_25_cif.got.tgz:49815.got - 2010.06.03 11:33:40.
