data_PCOD9152191
_publ_section_title
;
Structure prediction by ZEFSAII (Michael W. Deem and Ramdas Pophale) SiO2 
 PCOD9152191
Probable space group: P 2/M
;
_chemical_formula_sum "Si O2"
_cell_formula_units_Z 26
_cell_length_a 11.930290
_cell_length_b 8.376550
_cell_length_c 17.204412
_cell_angle_alpha 90.000000
_cell_angle_beta 140.908899
_cell_angle_gamma 90.000000
_cell_volume 1084.124546
_symmetry_space_group_name_H-M "P 2/M"
_symmetry_group_IT_number 10
_symmetry_cell_setting 'monoclinic'
loop_
_space_group_symop_operation_xyz
x,y,z
-x,y,-z
-x,-y,-z
x,-y,z
loop_
_atom_site_type_symbol
_atom_site_label
_atom_site_fract_x
_atom_site_fract_y
_atom_site_fract_z
Si Si1 0.831632 0.673359 0.220503
Si Si2 0.628408 0.676901 0.268242
Si Si3 0.496790 0.313860 0.590189
Si Si4 0.901339 0.676774 0.861771
Si Si5 0.058150 0.000000 0.937917
Si Si6 0.843362 0.812416 0.512888
Si Si7 0.698083 0.000000 0.134752
Si Si8 0.524927 0.000000 0.835585
O O1 0.832936 0.500000 0.182362
O O2 0.679394 0.666554 0.205315
O O3 0.787852 0.838302 0.155211
O O4 0.015222 0.711333 0.362603
O O5 0.566189 0.500000 0.258636
O O6 0.803829 0.728045 0.409654
O O7 0.498580 0.824694 0.213623
O O8 0.500000 0.278116 0.500000
O O9 0.440491 0.500000 0.566412
O O10 0.688156 0.302486 0.736043
O O11 0.345948 0.204442 0.546225
O O12 0.938369 0.500000 0.848207
O O13 0.978168 0.835025 0.863749
O O14 0.000000 0.673237 0.000000
O O15 0.000000 0.000000 0.000000
O O16 0.267222 0.000000 0.034609
O O17 0.893299 0.000000 0.533067
O O18 0.651874 0.000000 0.202715
O O19 0.500000 0.000000 0.000000
#
# Coordination Sequence:
#
# PCOD9152191 Si02
#       8
#     4   4   4   4   2   4   2   2
#     4  10  21  40  62  91 125 160 201 254 314 376
#     4  10  21  36  62  92 125 158 197 251 311 378
#     4  10  23  43  62  87 126 169 215 265 313 375
#     4   9  20  38  61  85 115 156 203 254 308 360
#     4  10  22  36  57  84 121 152 193 253 307 366
#     4  12  23  35  62  94 126 163 204 251 312 380
#     4  10  22  43  64  85 119 159 209 261 310 367
#     4  10  22  39  58  89 120 157 204 252 311 377
#
# _framework density 23.982486000000002
#
# number of rings (size 3 to 8) (size 9 to 14) (size 15 to 20)
#    0.000    1.846    1.538    1.846    5.385    3.077 
#    2.769    0.000    0.000    0.000    0.000    0.000 
#    0.000    0.000    0.000    0.000    0.000    0.000 
#
# Total GULP energy -144975.075311 kJ/mol
# GULP energy per Si atom -5575.964435 kJ/mol
# Density = 2.392790 g / cm^3
# Si number density = 23.982486 Si / 1000 Ang^3
#
#
#
# Elastic Constant Matrix: (Units=GPa)
#
#
# Indices 1 2 3 4 5 6 
#
# 1 87.0970 20.6190 4.1977 0.0000 -9.0408 0.0000
# 2 20.6190 262.8970 43.5570 0.0000 28.6291 0.0000
# 3 4.1977 43.5570 85.4580 0.0000 16.5223 0.0000
# 4 0.0000 0.0000 0.0000 163.7040 0.0000 3.1168
# 5 -9.0408 28.6291 16.5223 0.0000 23.8155 0.0000
# 6 0.0000 0.0000 0.0000 3.1168 0.0000 4.4270
#
#
#
# Elastic Compliance Matrix: (Units=1/GPa)
#
#
# Indices 1 2 3 4 5 6 
#
# 1 0.012723 -0.001620 -0.001281 0.000000 0.007667 0.000000
# 2 -0.001620 0.004733 -0.001286 0.000000 -0.005413 0.000000
# 3 -0.001281 -0.001286 0.014108 0.000000 -0.008727 0.000000
# 4 0.000000 0.000000 0.000000 0.006192 0.000000 -0.004359
# 5 0.007667 -0.005413 -0.008727 0.000000 0.057461 0.000000
# 6 0.000000 0.000000 0.000000 -0.004359 0.000000 0.228957
#
#
# Mechanical properties :
#
#
# Convention : Reuss Voigt Hill
#
# Bulk Modulus (GPa) = 43.12703 63.57773 53.35238
# Shear Modulus (GPa) = 14.69381 62.86118 38.77750
#
# Velocity S-wave (km/s) = 2.47794 5.12525 4.02544
# Velocity P-wave (km/s) = 5.11944 7.84805 6.62573
#
# Compressibility (1/GPa) = 0.02318732
#
# Stress axis : x y z
#
# Youngs Moduli (GPa) = 78.60019 211.26208 70.88367
#
# Poissons Ratio (x) = 0.34234 0.09082
# Poissons Ratio (y) = 0.12737 0.09119
# Poissons Ratio (z) = 0.10071 0.27179
#
# Static dielectric constant tensor:
#      x y z
#    x 1.851200 0.000000 -0.044480 
#    y 0.000000 1.970230 0.000000 
#    z -0.044480 0.000000 1.932150 
# 
# From -- ./inp_files/84829.got.cif
#   From: 2010.05.17/outbox.cif.g08.bks.cpg/sg10_43_cif.got.tgz:84829.got - 2010.06.03 11:33:40.
