data_PCOD9152199
_publ_section_title
;
Structure prediction by ZEFSAII (Michael W. Deem and Ramdas Pophale) SiO2 
 PCOD9152199
Probable space group: P 2/M
;
_chemical_formula_sum "Si O2"
_cell_formula_units_Z 20
_cell_length_a 20.528831
_cell_length_b 8.206975
_cell_length_c 13.468926
_cell_angle_alpha 90.000000
_cell_angle_beta 25.220660
_cell_angle_gamma 90.000000
_cell_volume 966.935418
_symmetry_space_group_name_H-M "P 2/M"
_symmetry_group_IT_number 10
_symmetry_cell_setting 'monoclinic'
loop_
_space_group_symop_operation_xyz
x,y,z
-x,y,-z
-x,-y,-z
x,-y,z
loop_
_atom_site_type_symbol
_atom_site_label
_atom_site_fract_x
_atom_site_fract_y
_atom_site_fract_z
Si Si1 0.893305 0.256266 0.234410
Si Si2 0.154851 0.691441 0.007342
Si Si3 0.311060 0.193473 0.987406
Si Si4 0.362102 0.822120 0.564013
Si Si5 0.698523 0.500000 0.629296
Si Si6 0.334605 0.500000 0.096149
O O1 0.771648 0.165210 0.333671
O O2 0.780140 0.353058 0.461353
O O3 0.000000 0.333577 0.000000
O O4 0.024196 0.203736 0.131429
O O5 0.109189 0.500000 0.076195
O O6 0.195498 0.764275 0.057541
O O7 0.302465 0.703414 0.731731
O O8 0.480684 0.220611 0.707079
O O9 0.300468 0.000000 0.030357
O O10 0.290836 0.333145 0.098874
O O11 0.379833 0.000000 0.586189
O O12 0.728070 0.500000 0.705594
O O13 0.518666 0.500000 0.855222
#
# Coordination Sequence:
#
# PCOD9152199 Si02
#       6
#     4   4   4   4   2   2
#     4  10  21  36  64  91 127 158 202 253 308 374
#     4  11  22  33  59  93 122 168 201 250 313 366
#     4  11  23  41  61  89 127 164 212 256 301 366
#     4  10  22  36  56  88 128 167 206 255 304 366
#     4  11  21  41  64  97 118 154 215 258 304 368
#     4  11  24  41  69  92 118 166 208 261 308 356
#
# _framework density 20.683904999999999
#
# number of rings (size 3 to 8) (size 9 to 14) (size 15 to 20)
#    0.000    1.400    4.000    1.500    5.600    6.800 
#    0.000    5.000    0.000    1.200    0.000    0.000 
#    0.000    0.000    0.000    0.000    0.000    0.000 
#
# Total GULP energy -111336.886468 kJ/mol
# GULP energy per Si atom -5566.844323 kJ/mol
# Density = 2.063683 g / cm^3
# Si number density = 20.683905 Si / 1000 Ang^3
#
#
#
# Elastic Constant Matrix: (Units=GPa)
#
#
# Indices 1 2 3 4 5 6 
#
# 1 176.4412 60.8675 37.1089 0.0000 3.7168 0.0000
# 2 60.8675 102.7713 23.1725 0.0000 23.3957 0.0000
# 3 37.1089 23.1725 60.7733 0.0000 15.0840 0.0000
# 4 0.0000 0.0000 0.0000 297.6794 0.0000 -110.7161
# 5 3.7168 23.3957 15.0840 0.0000 37.3175 0.0000
# 6 0.0000 0.0000 0.0000 -110.7161 0.0000 50.2618
#
#
#
# Elastic Compliance Matrix: (Units=1/GPa)
#
#
# Indices 1 2 3 4 5 6 
#
# 1 0.008076 -0.004732 -0.004072 0.000000 0.003808 0.000000
# 2 -0.004732 0.014584 -0.000577 0.000000 -0.008439 0.000000
# 3 -0.004072 -0.000577 0.021086 0.000000 -0.007756 0.000000
# 4 0.000000 0.000000 0.000000 0.018589 0.000000 0.040948
# 5 0.003808 -0.008439 -0.007756 0.000000 0.034843 0.000000
# 6 0.000000 0.000000 0.000000 0.040948 0.000000 0.110096
#
#
# Mechanical properties :
#
#
# Convention : Reuss Voigt Hill
#
# Bulk Modulus (GPa) = 40.02564 64.69816 52.36190
# Shear Modulus (GPa) = 21.33420 91.64086 56.48753
#
# Velocity S-wave (km/s) = 3.21509 6.66345 5.23156
# Velocity P-wave (km/s) = 5.75982 9.51575 7.86527
#
# Compressibility (1/GPa) = 0.02498399
#
# Stress axis : x y z
#
# Youngs Moduli (GPa) = 123.81882 68.56788 47.42424
#
# Poissons Ratio (x) = 0.32446 0.19313
# Poissons Ratio (y) = 0.58591 0.02736
# Poissons Ratio (z) = 0.50425 0.03955
#
# Static dielectric constant tensor:
#      x y z
#    x 1.745610 0.000000 -0.040980 
#    y 0.000000 1.850670 0.000000 
#    z -0.040980 0.000000 1.720680 
# 
# From -- ./inp_files/45401.got.cif
#   From: 2010.05.17/outbox.cif.g08.bks.cpg/sg10_23_cif.got.tgz:45401.got - 2010.06.03 11:33:40.
