data_PCOD9152312
_publ_section_title
;
Structure prediction by ZEFSAII (Michael W. Deem and Ramdas Pophale) SiO2 
 PCOD9152312
Probable space group: P 2/M
;
_chemical_formula_sum "Si O2"
_cell_formula_units_Z 28
_cell_length_a 5.240382
_cell_length_b 32.226694
_cell_length_c 8.689417
_cell_angle_alpha 90.000000
_cell_angle_beta 57.981593
_cell_angle_gamma 90.000000
_cell_volume 1244.235562
_symmetry_space_group_name_H-M "P 2/M"
_symmetry_group_IT_number 10
_symmetry_cell_setting 'monoclinic'
loop_
_space_group_symop_operation_xyz
x,y,z
-x,y,-z
-x,-y,-z
x,-y,z
loop_
_atom_site_type_symbol
_atom_site_label
_atom_site_fract_x
_atom_site_fract_y
_atom_site_fract_z
Si Si1 0.813136 0.952592 0.721796
Si Si2 0.384221 0.189996 0.711299
Si Si3 0.686291 0.095784 0.278163
Si Si4 0.146762 0.331454 0.289455
Si Si5 0.353635 0.630482 0.713404
Si Si6 0.800685 0.238654 0.807011
Si Si7 0.361293 0.453939 0.874987
O O1 0.491764 0.934148 0.779715
O O2 0.000000 0.952742 0.500000
O O3 0.992255 0.922768 0.779704
O O4 0.802322 0.000000 0.779470
O O5 0.500000 0.189404 0.500000
O O6 0.317005 0.142769 0.780590
O O7 0.657685 0.209899 0.719854
O O8 0.073525 0.215831 0.806044
O O9 0.500000 0.096114 0.500000
O O10 0.497037 0.339520 0.208264
O O11 0.081017 0.283287 0.284438
O O12 0.000000 0.343774 0.500000
O O13 0.994698 0.359304 0.206281
O O14 0.500000 0.638725 0.500000
O O15 0.432091 0.584175 0.741159
O O16 0.500000 0.247244 0.000000
O O17 0.461897 0.500000 0.790435
O O18 0.500000 0.447258 0.000000
O O19 0.000000 0.454549 0.000000
#
# Coordination Sequence:
#
# PCOD9152312 Si02
#       7
#     4   4   4   4   4   4   4
#     4   9  15  24  40  67 106 142 171 217 279 332
#     4  11  22  39  61  82 113 156 195 234 285 347
#     4   9  17  28  45  71 101 140 185 220 267 338
#     4  10  21  38  59  84 114 149 189 232 287 348
#     4  10  21  37  59  85 112 146 190 236 279 334
#     4  12  25  40  59  87 117 147 192 244 292 342
#     4  10  21  37  57  83 116 153 190 230 281 338
#
# _framework density 22.503779000000002
#
# number of rings (size 3 to 8) (size 9 to 14) (size 15 to 20)
#    0.000    1.857    0.000    4.714    0.000    7.143 
#    0.000    0.000    0.000    5.143    0.000    0.000 
#    0.000   40.000    0.000    0.000    0.000    0.000 
#
# Total GULP energy -156473.612079 kJ/mol
# GULP energy per Si atom -5588.343289 kJ/mol
# Density = 2.245256 g / cm^3
# Si number density = 22.503779 Si / 1000 Ang^3
#
#
#
# Elastic Constant Matrix: (Units=GPa)
#
#
# Indices 1 2 3 4 5 6 
#
# 1 144.3855 54.1699 14.5653 0.0000 17.0363 0.0000
# 2 54.1699 134.1456 -14.7010 0.0000 28.9776 0.0000
# 3 14.5653 -14.7010 28.8016 0.0000 -1.8548 0.0000
# 4 0.0000 0.0000 0.0000 4.2375 0.0000 5.7682
# 5 17.0363 28.9776 -1.8548 0.0000 21.6570 0.0000
# 6 0.0000 0.0000 0.0000 5.7682 0.0000 46.5190
#
#
#
# Elastic Compliance Matrix: (Units=1/GPa)
#
#
# Indices 1 2 3 4 5 6 
#
# 1 0.009450 -0.004005 -0.006995 0.000000 -0.002674 0.000000
# 2 -0.004005 0.012789 0.007696 0.000000 -0.013302 0.000000
# 3 -0.006995 0.007696 0.042110 0.000000 -0.001189 0.000000
# 4 0.000000 0.000000 0.000000 0.283906 0.000000 -0.035203
# 5 -0.002674 -0.013302 -0.001189 0.000000 0.065974 0.000000
# 6 0.000000 0.000000 0.000000 -0.035203 0.000000 0.025862
#
#
# Mechanical properties :
#
#
# Convention : Reuss Voigt Hill
#
# Bulk Modulus (GPa) = 17.31886 46.15568 31.73727
# Shear Modulus (GPa) = 10.73089 31.36928 21.05009
#
# Velocity S-wave (km/s) = 2.18606 3.73762 3.06175
# Velocity P-wave (km/s) = 3.75293 6.25948 5.16070
#
# Compressibility (1/GPa) = 0.05774052
#
# Stress axis : x y z
#
# Youngs Moduli (GPa) = 105.82474 78.19403 23.74754
#
# Poissons Ratio (x) = 0.31316 0.16612
# Poissons Ratio (y) = 0.42381 -0.18277
# Poissons Ratio (z) = 0.74026 -0.60181
#
# Static dielectric constant tensor:
#      x y z
#    x 1.821860 0.000000 -0.012090 
#    y 0.000000 1.800120 0.000000 
#    z -0.012090 0.000000 1.889440 
# 
# From -- ./inp_files/15878.got.cif
#   From: 2010.05.17/outbox.cif.g08.bks.cpg/sg10_8_cif.got.tgz:15878.got - 2010.06.03 11:33:40.
