data_PCOD9152220
_publ_section_title
;
Structure prediction by ZEFSAII (Michael W. Deem and Ramdas Pophale) SiO2 
 PCOD9152220
Probable space group: P 2/M
;
_chemical_formula_sum "Si O2"
_cell_formula_units_Z 26
_cell_length_a 11.000969
_cell_length_b 8.328426
_cell_length_c 15.560576
_cell_angle_alpha 90.000000
_cell_angle_beta 65.295856
_cell_angle_gamma 90.000000
_cell_volume 1295.191344
_symmetry_space_group_name_H-M "P 2/M"
_symmetry_group_IT_number 10
_symmetry_cell_setting 'monoclinic'
loop_
_space_group_symop_operation_xyz
x,y,z
-x,y,-z
-x,-y,-z
x,-y,z
loop_
_atom_site_type_symbol
_atom_site_label
_atom_site_fract_x
_atom_site_fract_y
_atom_site_fract_z
Si Si1 0.691387 0.681688 0.565105
Si Si2 0.053243 0.805341 0.121487
Si Si3 0.792755 0.808117 0.091067
Si Si4 0.001294 0.313275 0.317140
Si Si5 0.288559 0.813645 0.619978
Si Si6 0.000000 0.746913 0.500000
Si Si7 0.449824 0.310102 0.734216
O O1 0.649225 0.500000 0.554551
O O2 0.662347 0.794056 0.492342
O O3 0.850468 0.676910 0.532495
O O4 0.606430 0.730682 0.674107
O O5 0.907838 0.755464 0.125131
O O6 0.077752 0.733192 0.208011
O O7 0.052782 0.000000 0.128460
O O8 0.159780 0.754591 0.017310
O O9 0.645087 0.762731 0.165002
O O10 0.801813 0.000000 0.087720
O O11 0.026076 0.500000 0.334808
O O12 0.846527 0.289720 0.337747
O O13 0.019449 0.197450 0.394775
O O14 0.386360 0.746631 0.662797
O O15 0.259097 0.000000 0.647130
O O16 0.438980 0.500000 0.747184
#
# Coordination Sequence:
#
# PCOD9152220 Si02
#       7
#     4   4   4   4   4   2   4
#     4  10  21  37  55  74 102 139 179 224 267 311
#     4   9  18  33  53  79 109 144 177 213 261 313
#     4   9  18  33  53  77 111 146 174 208 262 324
#     4  11  20  33  56  81 107 141 180 223 265 309
#     4  11  21  33  50  75 108 143 176 212 263 325
#     4  10  21  40  59  76 103 142 183 220 269 316
#     4  11  21  32  51  80 109 136 173 220 266 316
#
# _framework density 20.074254
#
# number of rings (size 3 to 8) (size 9 to 14) (size 15 to 20)
#    0.000    1.846    1.538    6.000    0.000    3.692 
#    0.000   11.154    0.000    0.923    0.000    5.385 
#    0.000    0.000    0.000    0.000    0.000    0.000 
#
# Total GULP energy -144736.647054 kJ/mol
# GULP energy per Si atom -5566.794117 kJ/mol
# Density = 2.002856 g / cm^3
# Si number density = 20.074254 Si / 1000 Ang^3
#
#
#
# Elastic Constant Matrix: (Units=GPa)
#
#
# Indices 1 2 3 4 5 6 
#
# 1 41.6188 1.0194 36.0645 0.0000 -6.0274 0.0000
# 2 1.0194 12.6280 13.5368 0.0000 -0.7336 0.0000
# 3 36.0645 13.5368 181.7022 0.0000 -8.4786 0.0000
# 4 0.0000 0.0000 0.0000 24.4365 0.0000 -9.1195
# 5 -6.0274 -0.7336 -8.4786 0.0000 34.0252 0.0000
# 6 0.0000 0.0000 0.0000 -9.1195 0.0000 -6.1060
#
#
#
# Elastic Compliance Matrix: (Units=1/GPa)
#
#
# Indices 1 2 3 4 5 6 
#
# 1 0.029712 0.004297 -0.006038 0.000000 0.003851 0.000000
# 2 0.004297 0.086686 -0.007273 0.000000 0.000818 0.000000
# 3 -0.006038 -0.007273 0.007271 0.000000 0.000585 0.000000
# 4 0.000000 0.000000 0.000000 0.026277 0.000000 -0.039245
# 5 0.003851 0.000818 0.000585 0.000000 0.030236 0.000000
# 6 0.000000 0.000000 0.000000 -0.039245 0.000000 -0.105160
#
#
# Mechanical properties :
#
#
# Convention : Reuss Voigt Hill
#
# Bulk Modulus (GPa) = 9.46585 37.46559 23.46572
# Shear Modulus (GPa) = 38.98270 22.82636 30.90453
#
# Velocity S-wave (km/s) = 4.41151 3.37574 3.92792
# Velocity P-wave (km/s) = 5.53843 5.82222 5.68210
#
# Compressibility (1/GPa) = 0.10564289
#
# Stress axis : x y z
#
# Youngs Moduli (GPa) = 33.65638 11.53587 137.53205
#
# Poissons Ratio (x) = -0.04957 0.83038
# Poissons Ratio (y) = -0.14464 1.00026
# Poissons Ratio (z) = 0.20321 0.08390
#
# Static dielectric constant tensor:
#      x y z
#    x 1.699600 0.000000 -0.027240 
#    y 0.000000 1.706460 0.000000 
#    z -0.027240 0.000000 1.789290 
# 
# From -- ./inp_files/55117.got.cif
#   From: 2010.05.17/outbox.cif.g08.bks.cpg/sg10_28_cif.got.tgz:55117.got - 2010.06.03 11:33:40.
