data_PCOD9152243
_publ_section_title
;
Structure prediction by ZEFSAII (Michael W. Deem and Ramdas Pophale) SiO2 
 PCOD9152243
Probable space group: P 2/M
;
_chemical_formula_sum "Si O2"
_cell_formula_units_Z 28
_cell_length_a 8.740386
_cell_length_b 14.696259
_cell_length_c 18.566653
_cell_angle_alpha 90.000000
_cell_angle_beta 134.921451
_cell_angle_gamma 90.000000
_cell_volume 1688.692632
_symmetry_space_group_name_H-M "P 2/M"
_symmetry_group_IT_number 10
_symmetry_cell_setting 'monoclinic'
loop_
_space_group_symop_operation_xyz
x,y,z
-x,y,-z
-x,-y,-z
x,-y,z
loop_
_atom_site_type_symbol
_atom_site_label
_atom_site_fract_x
_atom_site_fract_y
_atom_site_fract_z
Si Si1 0.005111 0.396456 0.380647
Si Si2 0.599073 0.105763 0.110623
Si Si3 0.014898 0.784991 0.298816
Si Si4 0.232795 0.105763 0.110622
Si Si5 0.381552 0.215009 0.298816
Si Si6 0.636830 0.396456 0.380646
Si Si7 0.686247 0.895283 0.500000
O O1 0.005516 0.500000 0.352563
O O2 0.985329 0.317913 0.315778
O O3 0.224689 0.383593 0.500001
O O4 0.809876 0.389124 0.373250
O O5 0.411664 0.111778 0.107776
O O6 0.796636 0.169056 0.198766
O O7 0.672867 0.000000 0.131526
O O8 0.500000 0.129222 0.000000
O O9 0.191646 0.788311 0.294430
O O10 0.112827 0.842322 0.398446
O O11 0.299663 0.169055 0.198766
O O12 0.221710 0.000000 0.131525
O O13 0.000000 0.129223 0.000000
O O14 0.462006 0.317913 0.315777
O O15 0.582510 0.157678 0.398446
O O16 0.552171 0.500000 0.352561
O O17 0.500000 0.895698 0.500000
O O18 0.737699 0.000000 0.500000
#
# Coordination Sequence:
#
# PCOD9152243 Si02
#       7
#     4   4   4   4   4   4   4
#     4   9  18  33  52  74 104 141 178 218 263 312
#     4  10  21  37  56  78 104 138 180 222 262 309
#     4  11  20  32  52  78 108 141 175 217 264 312
#     4  10  21  37  56  78 104 138 180 222 262 309
#     4  11  20  32  52  78 108 141 175 217 264 312
#     4   9  18  33  52  74 104 141 178 218 263 312
#     4   9  18  30  44  69 106 142 171 203 252 309
#
# _framework density 16.580874000000001
#
# number of rings (size 3 to 8) (size 9 to 14) (size 15 to 20)
#    0.000    2.143    1.429    3.429    0.000    3.429 
#    0.000    1.429    0.000    4.286    0.000    0.000 
#    0.000    0.000    0.000    0.000    0.000    0.000 
#
# Total GULP energy -156289.937792 kJ/mol
# GULP energy per Si atom -5581.783493 kJ/mol
# Density = 1.654314 g / cm^3
# Si number density = 16.580874 Si / 1000 Ang^3
#
#
#
# Elastic Constant Matrix: (Units=GPa)
#
#
# Indices 1 2 3 4 5 6 
#
# 1 42.6226 47.3819 48.9082 0.0000 -0.5897 0.0000
# 2 47.3819 145.3326 100.4341 0.0000 -0.6116 0.0000
# 3 48.9082 100.4341 138.8343 0.0000 -0.5181 0.0000
# 4 0.0000 0.0000 0.0000 23.4314 0.0000 0.0372
# 5 -0.5897 -0.6116 -0.5181 0.0000 22.4553 0.0000
# 6 0.0000 0.0000 0.0000 0.0372 0.0000 26.6856
#
#
#
# Elastic Compliance Matrix: (Units=1/GPa)
#
#
# Indices 1 2 3 4 5 6 
#
# 1 0.042725 -0.007053 -0.009946 0.000000 0.000700 0.000000
# 2 -0.007053 0.014924 -0.008312 0.000000 0.000029 0.000000
# 3 -0.009946 -0.008312 0.016719 0.000000 -0.000102 0.000000
# 4 0.000000 0.000000 0.000000 0.042678 0.000000 -0.000059
# 5 0.000700 0.000029 -0.000102 0.000000 0.044550 0.000000
# 6 0.000000 0.000000 0.000000 -0.000059 0.000000 0.037473
#
#
# Mechanical properties :
#
#
# Convention : Reuss Voigt Hill
#
# Bulk Modulus (GPa) = 42.11137 80.02642 61.06889
# Shear Modulus (GPa) = 19.40946 23.18548 21.29747
#
# Velocity S-wave (km/s) = 3.42511 3.74348 3.58782
# Velocity P-wave (km/s) = 6.41050 8.18864 7.35352
#
# Compressibility (1/GPa) = 0.02374656
#
# Stress axis : x y z
#
# Youngs Moduli (GPa) = 23.40551 67.00562 59.81219
#
# Poissons Ratio (x) = 0.47258 0.59491
# Poissons Ratio (y) = 0.16508 0.49713
# Poissons Ratio (z) = 0.23280 0.55692
#
# Static dielectric constant tensor:
#      x y z
#    x 1.553340 0.000000 0.000300 
#    y 0.000000 1.550700 0.000000 
#    z 0.000300 0.000000 1.526990 
# 
# From -- ./inp_files/24887.got.cif
#   From: 2010.05.17/outbox.cif.g08.bks.cpg/sg10_13_cif.got.tgz:24887.got - 2010.06.03 11:33:40.
