data_PCOD9152162
_publ_section_title
;
Structure prediction by ZEFSAII (Michael W. Deem and Ramdas Pophale) SiO2 
 PCOD9152162
Probable space group: P 2/M
;
_chemical_formula_sum "Si O2"
_cell_formula_units_Z 28
_cell_length_a 14.825059
_cell_length_b 11.488036
_cell_length_c 9.765654
_cell_angle_alpha 90.000000
_cell_angle_beta 124.138406
_cell_angle_gamma 90.000000
_cell_volume 1376.601672
_symmetry_space_group_name_H-M "P 2/M"
_symmetry_group_IT_number 10
_symmetry_cell_setting 'monoclinic'
loop_
_space_group_symop_operation_xyz
x,y,z
-x,y,-z
-x,-y,-z
x,-y,z
loop_
_atom_site_type_symbol
_atom_site_label
_atom_site_fract_x
_atom_site_fract_y
_atom_site_fract_z
Si Si1 0.760747 0.261276 0.012634
Si Si2 0.604379 0.500000 0.277730
Si Si3 0.760227 0.289970 0.506846
Si Si4 0.645028 0.500000 0.989839
Si Si5 0.126659 0.630797 0.143293
Si Si6 0.594617 0.131670 0.485847
Si Si7 0.545444 0.868256 0.900034
Si Si8 0.870689 0.138849 0.360943
O O1 0.838398 0.197100 0.188589
O O2 0.718160 0.387237 0.024449
O O3 0.816245 0.281714 0.914197
O O4 0.649430 0.188358 0.919494
O O5 0.670457 0.386928 0.388444
O O6 0.472774 0.500000 0.190382
O O7 0.617253 0.500000 0.126042
O O8 0.854650 0.345458 0.680039
O O9 0.701395 0.205402 0.564356
O O10 0.805232 0.213921 0.419203
O O11 0.170410 0.500000 0.154621
O O12 0.000000 0.632458 0.000000
O O13 0.500000 0.183089 0.500000
O O14 0.548378 0.128371 0.292270
O O15 0.614616 0.000000 0.551522
O O16 0.577255 0.000000 0.964901
O O17 0.500000 0.809457 0.000000
O O18 0.000000 0.148217 0.500000
O O19 0.842549 0.000000 0.341082
#
# Coordination Sequence:
#
# PCOD9152162 Si02
#       8
#     4   2   4   2   4   4   4   4
#     4  12  22  42  65  93 129 176 208 270 328 381
#     4  11  24  39  62  99 139 169 209 265 321 397
#     4  12  22  43  66  95 128 176 212 265 333 385
#     4  11  24  39  60  99 137 169 213 261 319 387
#     4  11  25  44  64  91 128 170 224 273 318 384
#     4  10  21  37  58  87 122 163 208 254 304 377
#     4  10  21  36  59  91 123 162 207 252 310 384
#     4  11  25  44  68  97 125 162 221 280 329 387
#
# _framework density 20.339943999999999
#
# number of rings (size 3 to 8) (size 9 to 14) (size 15 to 20)
#    0.000    1.000    2.857    4.286    2.000    1.143 
#    0.000    3.929    0.000    5.143    0.000    0.000 
#    0.000    0.000    0.000    0.000    0.000    0.000 
#
# Total GULP energy -156343.571799 kJ/mol
# GULP energy per Si atom -5583.698993 kJ/mol
# Density = 2.029365 g / cm^3
# Si number density = 20.339944 Si / 1000 Ang^3
#
#
#
# Elastic Constant Matrix: (Units=GPa)
#
#
# Indices 1 2 3 4 5 6 
#
# 1 59.2724 31.4605 16.3514 0.0000 -11.6181 0.0000
# 2 31.4605 107.4577 33.7071 0.0000 5.5978 0.0000
# 3 16.3514 33.7071 115.3899 0.0000 4.0517 0.0000
# 4 0.0000 0.0000 0.0000 44.6074 0.0000 -16.8637
# 5 -11.6181 5.5978 4.0517 0.0000 39.0321 0.0000
# 6 0.0000 0.0000 0.0000 -16.8637 0.0000 47.3354
#
#
#
# Elastic Compliance Matrix: (Units=1/GPa)
#
#
# Indices 1 2 3 4 5 6 
#
# 1 0.022212 -0.006420 -0.001542 0.000000 0.007692 0.000000
# 2 -0.006420 0.012153 -0.002521 0.000000 -0.003392 0.000000
# 3 -0.001542 -0.002521 0.009660 0.000000 -0.001100 0.000000
# 4 0.000000 0.000000 0.000000 0.025907 0.000000 0.009230
# 5 0.007692 -0.003392 -0.001100 0.000000 0.028510 0.000000
# 6 0.000000 0.000000 0.000000 0.009230 0.000000 0.024414
#
#
# Mechanical properties :
#
#
# Convention : Reuss Voigt Hill
#
# Bulk Modulus (GPa) = 43.36869 49.46200 46.41535
# Shear Modulus (GPa) = 33.00119 39.56840 36.28480
#
# Velocity S-wave (km/s) = 4.03237 4.41540 4.22823
# Velocity P-wave (km/s) = 6.56112 7.09682 6.83422
#
# Compressibility (1/GPa) = 0.02305811
#
# Stress axis : x y z
#
# Youngs Moduli (GPa) = 45.02044 82.28318 103.52020
#
# Poissons Ratio (x) = 0.52826 0.15966
# Poissons Ratio (y) = 0.28903 0.26100
# Poissons Ratio (z) = 0.06943 0.20746
#
# Static dielectric constant tensor:
#      x y z
#    x 1.693550 0.000000 0.024440 
#    y 0.000000 1.798940 0.000000 
#    z 0.024440 0.000000 1.711960 
# 
# From -- ./inp_files/28726.got.cif
#   From: 2010.05.17/outbox.cif.g08.bks.cpg/sg10_15_cif.got.tgz:28726.got - 2010.06.03 11:33:40.
