data_PCOD9152971
_publ_section_title
;
Structure prediction by ZEFSAII (Michael W. Deem and Ramdas Pophale) SiO2 
 PCOD9152971
Probable space group: P 2/M
;
_chemical_formula_sum "Si O2"
_cell_formula_units_Z 32
_cell_length_a 8.363676
_cell_length_b 22.464580
_cell_length_c 14.040446
_cell_angle_alpha 90.000000
_cell_angle_beta 32.303973
_cell_angle_gamma 90.000000
_cell_volume 1409.781359
_symmetry_space_group_name_H-M "P 2/M"
_symmetry_group_IT_number 10
_symmetry_cell_setting 'monoclinic'
loop_
_space_group_symop_operation_xyz
x,y,z
-x,y,-z
-x,-y,-z
x,-y,z
loop_
_atom_site_type_symbol
_atom_site_label
_atom_site_fract_x
_atom_site_fract_y
_atom_site_fract_z
Si Si1 0.671257 0.566064 0.703551
Si Si2 0.639124 0.167371 0.669318
Si Si3 0.259906 0.875309 0.042553
Si Si4 0.359881 0.933010 0.676344
Si Si5 0.377499 0.274297 0.458012
Si Si6 0.830423 0.354919 0.984200
Si Si7 0.850380 0.751744 0.835843
Si Si8 0.622239 0.409110 0.340349
O O1 0.683668 0.500000 0.743360
O O2 0.473773 0.560190 0.707433
O O3 0.000000 0.581709 0.500000
O O4 0.504032 0.619652 0.842137
O O5 0.456655 0.152763 0.857628
O O6 0.529607 0.116034 0.652985
O O7 0.552046 0.230701 0.664477
O O8 0.000000 0.165770 0.500000
O O9 0.500000 0.897849 0.000000
O O10 0.075619 0.819948 0.180289
O O11 0.997687 0.919962 0.144479
O O12 0.500000 0.930242 0.500000
O O13 0.410562 0.000000 0.687668
O O14 0.500000 0.252265 0.500000
O O15 0.488587 0.341721 0.395022
O O16 0.023842 0.271459 0.656415
O O17 0.893297 0.292738 0.901756
O O18 0.023241 0.403294 0.829466
O O19 0.000000 0.352670 0.000000
O O20 0.500000 0.751534 0.000000
O O21 0.500000 0.433314 0.500000
#
# Coordination Sequence:
#
# PCOD9152971 Si02
#       8
#     4   4   4   4   4   4   4   4
#     4  10  24  43  63  89 126 170 219 276 324 386
#     4  12  25  41  67  98 136 182 223 276 341 407
#     4  11  25  43  65  99 138 177 227 277 338 402
#     4  11  25  46  72  98 132 182 231 285 338 391
#     4  11  22  40  62  93 136 168 214 273 335 404
#     4  10  22  37  61  89 123 164 213 257 322 389
#     4  11  22  37  59  91 131 166 204 268 328 395
#     4  10  21  39  62  92 123 166 212 267 326 394
#
# _framework density 22.698556
#
# number of rings (size 3 to 8) (size 9 to 14) (size 15 to 20)
#    0.000    1.250    2.500    4.500    5.250    4.500 
#    0.000    0.000    0.000    1.875    0.000    0.000 
#    0.000    0.000    0.000    0.000    0.000    0.000 
#
# Total GULP energy -178749.717720 kJ/mol
# GULP energy per Si atom -5585.928679 kJ/mol
# Density = 2.264689 g / cm^3
# Si number density = 22.698556 Si / 1000 Ang^3
#
#
#
# Elastic Constant Matrix: (Units=GPa)
#
#
# Indices 1 2 3 4 5 6 
#
# 1 50.8469 21.2642 -2.0730 0.0000 0.2914 0.0000
# 2 21.2642 94.4204 18.0160 0.0000 -8.8960 0.0000
# 3 -2.0730 18.0160 84.8082 0.0000 -1.5090 0.0000
# 4 0.0000 0.0000 0.0000 44.5634 0.0000 -8.2317
# 5 0.2914 -8.8960 -1.5090 0.0000 34.4843 0.0000
# 6 0.0000 0.0000 0.0000 -8.2317 0.0000 6.5593
#
#
#
# Elastic Compliance Matrix: (Units=1/GPa)
#
#
# Indices 1 2 3 4 5 6 
#
# 1 0.022008 -0.005416 0.001662 0.000000 -0.001510 0.000000
# 2 -0.005416 0.012637 -0.002760 0.000000 0.003185 0.000000
# 3 0.001662 -0.002760 0.012415 0.000000 -0.000183 0.000000
# 4 0.000000 0.000000 0.000000 0.029212 0.000000 0.036660
# 5 -0.001510 0.003185 -0.000183 0.000000 0.029825 0.000000
# 6 0.000000 0.000000 0.000000 0.036660 0.000000 0.198462
#
#
# Mechanical properties :
#
#
# Convention : Reuss Voigt Hill
#
# Bulk Modulus (GPa) = 29.38442 33.83219 31.60830
# Shear Modulus (GPa) = 15.20069 29.97929 22.58999
#
# Velocity S-wave (km/s) = 2.59062 3.63817 3.15813
# Velocity P-wave (km/s) = 4.68209 5.70839 5.22052
#
# Compressibility (1/GPa) = 0.03403164
#
# Stress axis : x y z
#
# Youngs Moduli (GPa) = 45.43770 79.13045 80.54738
#
# Poissons Ratio (x) = 0.42855 -0.13383
# Poissons Ratio (y) = 0.24608 0.22233
# Poissons Ratio (z) = -0.07550 0.21842
#
# Static dielectric constant tensor:
#      x y z
#    x 1.896070 0.000000 -0.003530 
#    y 0.000000 1.895860 0.000000 
#    z -0.003530 0.000000 1.934350 
# 
# From -- ./inp_files/62693.got.cif
#   From: 2010.05.17/outbox.cif.g08.bks.cpg/sg10_32_cif.got.tgz:62693.got - 2010.06.03 11:33:40.
