data_PCOD9152844
_publ_section_title
;
Structure prediction by ZEFSAII (Michael W. Deem and Ramdas Pophale) SiO2 
 PCOD9152844
Probable space group: P 2/M
;
_chemical_formula_sum "Si O2"
_cell_formula_units_Z 24
_cell_length_a 7.511767
_cell_length_b 15.380520
_cell_length_c 9.439876
_cell_angle_alpha 90.000000
_cell_angle_beta 78.900553
_cell_angle_gamma 90.000000
_cell_volume 1070.234117
_symmetry_space_group_name_H-M "P 2/M"
_symmetry_group_IT_number 10
_symmetry_cell_setting 'monoclinic'
loop_
_space_group_symop_operation_xyz
x,y,z
-x,y,-z
-x,-y,-z
x,-y,z
loop_
_atom_site_type_symbol
_atom_site_label
_atom_site_fract_x
_atom_site_fract_y
_atom_site_fract_z
Si Si1 0.674831 0.279188 0.172484
Si Si2 0.219363 0.095851 0.452486
Si Si3 0.816297 0.595937 0.935681
Si Si4 0.178369 0.277365 0.568081
Si Si5 0.501469 0.905093 0.169470
Si Si6 0.647862 0.599579 0.668188
O O1 0.836970 0.287613 0.261735
O O2 0.616990 0.179742 0.183673
O O3 0.512657 0.339204 0.253690
O O4 0.719549 0.319440 0.014031
O O5 0.275602 0.184329 0.523014
O O6 0.308048 0.103532 0.281532
O O7 0.000000 0.094132 0.500000
O O8 0.279212 0.000000 0.496029
O O9 0.728677 0.500000 0.979820
O O10 0.803289 0.602070 0.767611
O O11 0.000000 0.593045 0.000000
O O12 0.283992 0.358693 0.487132
O O13 0.000000 0.273709 0.500000
O O14 0.575480 0.000000 0.202922
O O15 0.500000 0.906895 0.000000
O O16 0.592264 0.500000 0.660661
#
# Coordination Sequence:
#
# PCOD9152844 Si02
#       6
#     4   4   4   4   4   4
#     4  12  23  38  62  92 124 162 210 266 323 376
#     4   9  19  38  64  90 125 170 212 255 310 378
#     4  10  22  41  64  89 120 165 215 258 314 385
#     4  11  24  40  59  87 124 164 211 259 316 382
#     4  10  21  38  64  98 132 166 209 264 323 380
#     4  11  23  39  61  89 122 160 205 261 321 379
#
# _framework density 22.425001999999999
#
# number of rings (size 3 to 8) (size 9 to 14) (size 15 to 20)
#    0.000    1.500    1.667    3.500    0.000    4.333 
#    0.000    1.667    0.000    0.500    0.000    0.000 
#    0.000    0.000    0.000    0.000    0.000    0.000 
#
# Total GULP energy -133804.861785 kJ/mol
# GULP energy per Si atom -5575.202574 kJ/mol
# Density = 2.237396 g / cm^3
# Si number density = 22.425002 Si / 1000 Ang^3
#
#
#
# Elastic Constant Matrix: (Units=GPa)
#
#
# Indices 1 2 3 4 5 6 
#
# 1 59.3939 22.5611 8.5906 0.0000 15.6465 0.0000
# 2 22.5611 184.4914 33.1714 0.0000 5.5607 0.0000
# 3 8.5906 33.1714 116.4825 0.0000 12.4707 0.0000
# 4 0.0000 0.0000 0.0000 13.7617 0.0000 -22.4911
# 5 15.6465 5.5607 12.4707 0.0000 30.0265 0.0000
# 6 0.0000 0.0000 0.0000 -22.4911 0.0000 8.0220
#
#
#
# Elastic Compliance Matrix: (Units=1/GPa)
#
#
# Indices 1 2 3 4 5 6 
#
# 1 0.020359 -0.002221 0.000233 0.000000 -0.010294 0.000000
# 2 -0.002221 0.005960 -0.001611 0.000000 0.000723 0.000000
# 3 0.000233 -0.001611 0.009427 0.000000 -0.003738 0.000000
# 4 0.000000 0.000000 0.000000 -0.020285 0.000000 -0.056874
# 5 -0.010294 0.000723 -0.003738 0.000000 0.040087 0.000000
# 6 0.000000 0.000000 0.000000 -0.056874 0.000000 -0.034799
#
#
# Mechanical properties :
#
#
# Convention : Reuss Voigt Hill
#
# Bulk Modulus (GPa) = 35.02934 54.33487 44.68210
# Shear Modulus (GPa) = 133.47325 30.09834 81.78579
#
# Velocity S-wave (km/s) = 7.72328 3.66755 6.04566
# Velocity P-wave (km/s) = 9.75636 6.49744 8.28865
#
# Compressibility (1/GPa) = 0.02854750
#
# Stress axis : x y z
#
# Youngs Moduli (GPa) = 49.11921 167.79165 106.08143
#
# Poissons Ratio (x) = 0.37271 -0.02474
# Poissons Ratio (y) = 0.10911 0.17087
# Poissons Ratio (z) = -0.01146 0.27027
#
# Static dielectric constant tensor:
#      x y z
#    x 1.913150 0.000000 0.002010 
#    y 0.000000 1.847070 0.000000 
#    z 0.002010 0.000000 1.799980 
# 
# From -- ./inp_files/18787.got.cif
#   From: 2010.05.17/outbox.cif.g08.bks.cpg/sg10_10_cif.got.tgz:18787.got - 2010.06.03 11:33:40.
