data_PCOD9152517
_publ_section_title
;
Structure prediction by ZEFSAII (Michael W. Deem and Ramdas Pophale) SiO2 
 PCOD9152517
Probable space group: P 2/M
;
_chemical_formula_sum "Si O2"
_cell_formula_units_Z 16
_cell_length_a 11.914121
_cell_length_b 9.949508
_cell_length_c 6.731317
_cell_angle_alpha 90.000000
_cell_angle_beta 125.432192
_cell_angle_gamma 90.000000
_cell_volume 650.153411
_symmetry_space_group_name_H-M "P 2/M"
_symmetry_group_IT_number 10
_symmetry_cell_setting 'monoclinic'
loop_
_space_group_symop_operation_xyz
x,y,z
-x,y,-z
-x,-y,-z
x,-y,z
loop_
_atom_site_type_symbol
_atom_site_label
_atom_site_fract_x
_atom_site_fract_y
_atom_site_fract_z
Si Si1 0.500000 0.779078 0.000000
Si Si2 0.000000 0.295983 0.500000
Si Si3 0.601019 0.000000 0.794954
Si Si4 0.243956 0.285384 0.494503
Si Si5 0.132852 0.347701 0.992667
Si Si6 0.153257 0.000000 0.248238
O O1 0.569854 0.873604 0.904465
O O2 0.381379 0.700619 0.761403
O O3 0.881012 0.356718 0.517859
O O4 0.897813 0.245718 0.218551
O O5 0.500000 0.000000 0.500000
O O6 0.747792 0.000000 0.841021
O O7 0.254819 0.326522 0.274809
O O8 0.192604 0.129904 0.421234
O O9 0.141703 0.500000 0.922733
O O10 0.000000 0.336639 0.000000
O O11 0.000000 0.000000 0.000000
#
# Coordination Sequence:
#
# PCOD9152517 Si02
#       6
#     2   2   2   4   4   2
#     4  11  24  40  61  88 122 178 213 241 302 380
#     4  10  21  37  64  94 124 159 205 256 324 364
#     4  11  22  43  60  82 126 176 214 244 300 370
#     4  11  24  39  59  95 125 167 205 254 310 369
#     4   9  19  39  63  90 121 158 209 263 313 366
#     4  12  24  39  63  94 129 157 200 265 310 360
#
# _framework density 24.609575
#
# number of rings (size 3 to 8) (size 9 to 14) (size 15 to 20)
#    0.000    1.500    2.500    3.375    7.000    1.500 
#    0.000    0.625    0.000    1.500    0.000    0.000 
#    0.000    0.000    0.000    0.000    0.000    0.000 
#
# Total GULP energy -89139.335616 kJ/mol
# GULP energy per Si atom -5571.208476 kJ/mol
# Density = 2.455356 g / cm^3
# Si number density = 24.609575 Si / 1000 Ang^3
#
#
#
# Elastic Constant Matrix: (Units=GPa)
#
#
# Indices 1 2 3 4 5 6 
#
# 1 124.1575 6.3181 58.7366 0.0000 6.5974 0.0000
# 2 6.3181 90.6026 19.5701 0.0000 -0.3825 0.0000
# 3 58.7366 19.5701 283.7575 0.0000 12.7669 0.0000
# 4 0.0000 0.0000 0.0000 23.2347 0.0000 -1.0748
# 5 6.5974 -0.3825 12.7669 0.0000 54.8785 0.0000
# 6 0.0000 0.0000 0.0000 -1.0748 0.0000 -6.3194
#
#
#
# Elastic Compliance Matrix: (Units=1/GPa)
#
#
# Indices 1 2 3 4 5 6 
#
# 1 0.008957 -0.000237 -0.001808 0.000000 -0.000658 0.000000
# 2 -0.000237 0.011214 -0.000737 0.000000 0.000278 0.000000
# 3 -0.001808 -0.000737 0.003981 0.000000 -0.000714 0.000000
# 4 0.000000 0.000000 0.000000 0.042703 0.000000 -0.007263
# 5 -0.000658 0.000278 -0.000714 0.000000 0.018469 0.000000
# 6 0.000000 0.000000 0.000000 -0.007263 0.000000 -0.157008
#
#
# Mechanical properties :
#
#
# Convention : Reuss Voigt Hill
#
# Bulk Modulus (GPa) = 53.79669 74.19634 63.99652
# Shear Modulus (GPa) = -83.43966 41.95161 -20.74403
#
# Velocity S-wave (km/s) = -5.82915 4.13326 -2.90647
# Velocity P-wave (km/s) = 4.83712 7.27965 3.84679
#
# Compressibility (1/GPa) = 0.01858850
#
# Stress axis : x y z
#
# Youngs Moduli (GPa) = 111.64886 89.17365 251.17154
#
# Poissons Ratio (x) = 0.02112 0.45413
# Poissons Ratio (y) = 0.02644 0.18509
# Poissons Ratio (z) = 0.20187 0.06571
#
# Static dielectric constant tensor:
#      x y z
#    x 1.951650 0.000000 0.044840 
#    y 0.000000 2.082420 0.000000 
#    z 0.044840 0.000000 2.062560 
# 
# From -- ./inp_files/6417.got.cif
#   From: 2010.05.17/outbox.cif.g08.bks.cpg/sg10_4_cif.got.tgz:6417.got - 2010.06.03 11:33:40.
