data_PCOD9152732
_publ_section_title
;
Structure prediction by ZEFSAII (Michael W. Deem and Ramdas Pophale) SiO2 
 PCOD9152732
Probable space group: P 2/M
;
_chemical_formula_sum "Si O2"
_cell_formula_units_Z 19
_cell_length_a 8.192121
_cell_length_b 9.923690
_cell_length_c 12.063109
_cell_angle_alpha 90.000000
_cell_angle_beta 113.345548
_cell_angle_gamma 90.000000
_cell_volume 900.396415
_symmetry_space_group_name_H-M "P 2/M"
_symmetry_group_IT_number 10
_symmetry_cell_setting 'monoclinic'
loop_
_space_group_symop_operation_xyz
x,y,z
-x,y,-z
-x,-y,-z
x,-y,z
loop_
_atom_site_type_symbol
_atom_site_label
_atom_site_fract_x
_atom_site_fract_y
_atom_site_fract_z
Si Si1 0.800291 0.000000 0.216840
Si Si2 0.979551 0.218018 0.122237
Si Si3 0.417462 0.500000 0.720350
Si Si4 0.412218 0.000000 0.633411
Si Si5 0.636639 0.735777 0.678107
Si Si6 0.115101 0.500000 0.808987
Si Si7 0.000000 0.000000 0.500000
Si Si8 0.770601 0.500000 0.562489
O O1 0.839744 0.872592 0.151057
O O2 0.620552 0.000000 0.240935
O O3 0.947245 0.000000 0.354104
O O4 0.175561 0.210028 0.227687
O O5 0.918764 0.370572 0.125499
O O6 0.000000 0.181581 0.000000
O O7 0.539030 0.632096 0.736389
O O8 0.305475 0.500000 0.801786
O O9 0.274611 0.500000 0.579317
O O10 0.512746 0.135827 0.628209
O O11 0.214890 0.000000 0.530178
O O12 0.682888 0.635644 0.588668
O O13 0.967873 0.500000 0.668657
#
# Coordination Sequence:
#
# PCOD9152732 Si02
#       8
#     2   4   2   2   4   2   1   2
#     4  10  22  42  62  92 123 162 201 247 311 373
#     4  11  23  43  64  88 121 168 212 255 302 362
#     4  11  21  39  57  92 125 161 204 255 301 374
#     4  10  21  41  61  93 123 158 193 251 307 367
#     4  10  21  38  61  88 124 156 213 248 300 360
#     4  10  22  39  62  89 125 162 208 254 313 358
#     4   8  24  38  62  86 136 144 194 240 316 362
#     4   9  21  38  58  90 123 167 201 245 305 380
#
# _framework density 21.101814999999998
#
# number of rings (size 3 to 8) (size 9 to 14) (size 15 to 20)
#    0.632    1.263    0.000    4.737    0.000    5.053 
#    0.000    9.474    0.000    0.000    0.000    0.000 
#    0.000    0.000    0.000    0.000    0.000    0.000 
#
# Total GULP energy -105846.318720 kJ/mol
# GULP energy per Si atom -5570.858880 kJ/mol
# Density = 2.105379 g / cm^3
# Si number density = 21.101815 Si / 1000 Ang^3
#
#
#
# Elastic Constant Matrix: (Units=GPa)
#
#
# Indices 1 2 3 4 5 6 
#
# 1 76.0032 50.0876 4.9379 0.0000 -26.0466 0.0000
# 2 50.0876 145.0307 7.8960 0.0000 -9.4136 0.0000
# 3 4.9379 7.8960 66.1150 0.0000 -29.6645 0.0000
# 4 0.0000 0.0000 0.0000 1.6700 0.0000 -6.8806
# 5 -26.0466 -9.4136 -29.6645 0.0000 31.5308 0.0000
# 6 0.0000 0.0000 0.0000 -6.8806 0.0000 17.1046
#
#
#
# Elastic Compliance Matrix: (Units=1/GPa)
#
#
# Indices 1 2 3 4 5 6 
#
# 1 0.031088 -0.009143 0.015691 0.000000 0.037714 0.000000
# 2 -0.009143 0.009721 -0.004438 0.000000 -0.008826 0.000000
# 3 0.015691 -0.004438 0.034098 0.000000 0.043717 0.000000
# 4 0.000000 0.000000 0.000000 -0.910889 0.000000 -0.366418
# 5 0.037714 -0.008826 0.043717 0.000000 0.101364 0.000000
# 6 0.000000 0.000000 0.000000 -0.366418 0.000000 -0.088933
#
#
# Mechanical properties :
#
#
# Convention : Reuss Voigt Hill
#
# Bulk Modulus (GPa) = 12.63764 45.88798 29.26281
# Shear Modulus (GPa) = -6.23912 25.00957 9.38522
#
# Velocity S-wave (km/s) = -1.72136 3.44639 2.11122
# Velocity P-wave (km/s) = 1.43217 6.13433 4.45427
#
# Compressibility (1/GPa) = 0.07912872
#
# Stress axis : x y z
#
# Youngs Moduli (GPa) = 32.16694 102.86556 29.32697
#
# Poissons Ratio (x) = 0.94048 -0.46018
# Poissons Ratio (y) = 0.29410 0.13015
# Poissons Ratio (z) = -0.50475 0.45652
#
# Static dielectric constant tensor:
#      x y z
#    x 1.757920 0.000000 0.011100 
#    y 0.000000 1.743050 0.000000 
#    z 0.011100 0.000000 1.761070 
# 
# From -- ./inp_files/40923.got.cif
#   From: 2010.05.17/outbox.cif.g08.bks.cpg/sg10_21_cif.got.tgz:40923.got - 2010.06.03 11:33:40.
