data_PCOD9152913
_publ_section_title
;
Structure prediction by ZEFSAII (Michael W. Deem and Ramdas Pophale) SiO2 
 PCOD9152913
Probable space group: P 2/M
;
_chemical_formula_sum "Si O2"
_cell_formula_units_Z 18
_cell_length_a 6.737781
_cell_length_b 24.733723
_cell_length_c 5.397533
_cell_angle_alpha 90.000000
_cell_angle_beta 89.925936
_cell_angle_gamma 90.000000
_cell_volume 899.500330
_symmetry_space_group_name_H-M "P 2/M"
_symmetry_group_IT_number 10
_symmetry_cell_setting 'monoclinic'
loop_
_space_group_symop_operation_xyz
x,y,z
-x,y,-z
-x,-y,-z
x,-y,z
loop_
_atom_site_type_symbol
_atom_site_label
_atom_site_fract_x
_atom_site_fract_y
_atom_site_fract_z
Si Si1 0.761522 0.000000 0.899493
Si Si2 0.875602 0.778496 0.750266
Si Si3 0.868912 0.559594 0.749997
Si Si4 0.625254 0.330498 0.749844
Si Si5 0.374113 0.112414 0.252030
O O1 0.755256 0.057867 0.769150
O O2 0.500000 0.000000 0.000000
O O3 0.000000 0.000000 0.000000
O O4 0.768459 0.720865 0.764270
O O5 0.737921 0.830902 0.730833
O O6 0.000000 0.777664 0.500000
O O7 0.000000 0.785067 0.000000
O O8 0.769452 0.500000 0.756242
O O9 0.730674 0.611499 0.741052
O O10 0.000000 0.561046 0.500000
O O11 0.000000 0.563392 0.000000
O O12 0.500000 0.324358 0.500000
O O13 0.500000 0.329235 0.000000
O O14 0.500000 0.106191 0.500000
O O15 0.500000 0.116041 0.000000
#
# Coordination Sequence:
#
# PCOD9152913 Si02
#       5
#     2   4   4   4   4
#     4  10  23  44  70 102 140 184 232 286 346 412
#     4  12  24  41  64  91 124 168 215 264 321 390
#     4  10  21  39  61  85 116 155 199 249 309 381
#     4  12  24  39  60  88 122 159 203 259 316 379
#     4  11  23  43  66  97 133 172 218 275 335 398
#
# _framework density 20.011113000000002
#
# number of rings (size 3 to 8) (size 9 to 14) (size 15 to 20)
#    0.000    0.889    0.000    7.667    0.000    2.667 
#    0.000    5.000    0.000    0.000    0.000    0.000 
#    0.000    0.000    0.000    0.000    0.000    0.000 
#
# Total GULP energy -100277.067030 kJ/mol
# GULP energy per Si atom -5570.948168 kJ/mol
# Density = 1.996557 g / cm^3
# Si number density = 20.011113 Si / 1000 Ang^3
#
#
#
# Elastic Constant Matrix: (Units=GPa)
#
#
# Indices 1 2 3 4 5 6 
#
# 1 81.4637 66.0177 67.3394 0.0000 10.1901 0.0000
# 2 66.0177 161.7249 40.3955 0.0000 -5.3113 0.0000
# 3 67.3394 40.3955 177.0139 0.0000 1.3879 0.0000
# 4 0.0000 0.0000 0.0000 49.9879 0.0000 5.1875
# 5 10.1901 -5.3113 1.3879 0.0000 46.9212 0.0000
# 6 0.0000 0.0000 0.0000 5.1875 0.0000 61.4645
#
#
#
# Elastic Compliance Matrix: (Units=1/GPa)
#
#
# Indices 1 2 3 4 5 6 
#
# 1 0.027642 -0.009432 -0.008309 0.000000 -0.006825 0.000000
# 2 -0.009432 0.009805 0.001326 0.000000 0.003119 0.000000
# 3 -0.008309 0.001326 0.008494 0.000000 0.001703 0.000000
# 4 0.000000 0.000000 0.000000 0.020182 0.000000 -0.001703
# 5 -0.006825 0.003119 0.001703 0.000000 0.023097 0.000000
# 6 0.000000 0.000000 0.000000 -0.001703 0.000000 0.016413
#
#
# Mechanical properties :
#
#
# Convention : Reuss Voigt Hill
#
# Bulk Modulus (GPa) = 76.27765 85.30087 80.78926
# Shear Modulus (GPa) = 35.00570 48.10470 41.55520
#
# Velocity S-wave (km/s) = 4.18702 4.90828 4.56192
# Velocity P-wave (km/s) = 7.84699 8.65106 8.25882
#
# Compressibility (1/GPa) = 0.01311000
#
# Stress axis : x y z
#
# Youngs Moduli (GPa) = 36.17724 101.99045 117.72560
#
# Poissons Ratio (x) = 0.96200 0.97823
# Poissons Ratio (y) = 0.34123 -0.15613
# Poissons Ratio (z) = 0.30061 -0.13526
#
# Static dielectric constant tensor:
#      x y z
#    x 2.177510 0.000000 -0.114560 
#    y 0.000000 1.724190 0.000000 
#    z -0.114560 0.000000 1.696060 
# 
# From -- ./inp_files/1700.got.cif
#   From: 2010.05.17/outbox.cif.g08.bks.cpg/sg10_1_cif.got.tgz:1700.got - 2010.06.03 11:33:40.
