data_PCOD9152928
_publ_section_title
;
Structure prediction by ZEFSAII (Michael W. Deem and Ramdas Pophale) SiO2 
 PCOD9152928
Probable space group: P 2/M
;
_chemical_formula_sum "Si O2"
_cell_formula_units_Z 18
_cell_length_a 5.514131
_cell_length_b 25.463327
_cell_length_c 5.463354
_cell_angle_alpha 90.000000
_cell_angle_beta 100.180740
_cell_angle_gamma 90.000000
_cell_volume 755.021351
_symmetry_space_group_name_H-M "P 2/M"
_symmetry_group_IT_number 10
_symmetry_cell_setting 'monoclinic'
loop_
_space_group_symop_operation_xyz
x,y,z
-x,y,-z
-x,-y,-z
x,-y,z
loop_
_atom_site_type_symbol
_atom_site_label
_atom_site_fract_x
_atom_site_fract_y
_atom_site_fract_z
Si Si1 0.339940 0.443076 0.220502
Si Si2 0.343326 0.000000 0.218275
Si Si3 0.343229 0.221457 0.218342
Si Si4 0.218991 0.667796 0.344046
Si Si5 0.781098 0.889272 0.655641
O O1 0.500000 0.443363 0.500000
O O2 0.208435 0.500000 0.202829
O O3 0.197582 0.388218 0.207399
O O4 0.500000 0.441771 0.000000
O O5 0.500000 0.000000 0.500000
O O6 0.204556 0.055512 0.201739
O O7 0.500000 0.000000 0.000000
O O8 0.500000 0.221989 0.500000
O O9 0.208082 0.277419 0.198084
O O10 0.199971 0.166524 0.206400
O O11 0.500000 0.219845 0.000000
O O12 0.500000 0.667150 0.500000
O O13 0.000000 0.669717 0.500000
O O14 0.500000 0.888980 0.500000
O O15 0.000000 0.890169 0.500000
#
# Coordination Sequence:
#
# PCOD9152928 Si02
#       5
#     4   2   4   4   4
#     4   9  18  35  58  85 117 154 196 243 295 352
#     4  10  21  40  62  90 122 160 202 248 300 356
#     4  10  21  40  62  89 121 158 200 247 299 356
#     4  10  21  39  61  88 120 157 199 246 298 355
#     4  10  21  40  62  90 122 159 201 248 300 356
#
# _framework density 23.840382999999999
#
# number of rings (size 3 to 8) (size 9 to 14) (size 15 to 20)
#    0.000    2.222    0.000    2.333    0.000    0.444 
#    0.000   48.889    0.000   12.000    0.000    0.000 
#    0.000    0.000    0.000    0.000    0.000    0.000 
#
# Total GULP energy -100446.595893 kJ/mol
# GULP energy per Si atom -5580.366438 kJ/mol
# Density = 2.378612 g / cm^3
# Si number density = 23.840383 Si / 1000 Ang^3
#
#
#
# Elastic Constant Matrix: (Units=GPa)
#
#
# Indices 1 2 3 4 5 6 
#
# 1 154.7372 63.7027 89.1582 0.0000 -7.9167 0.0000
# 2 63.7027 369.0381 78.2092 0.0000 -51.8071 0.0000
# 3 89.1582 78.2092 185.7981 0.0000 -24.0868 0.0000
# 4 0.0000 0.0000 0.0000 38.7499 0.0000 -63.0515
# 5 -7.9167 -51.8071 -24.0868 0.0000 83.1938 0.0000
# 6 0.0000 0.0000 0.0000 -63.0515 0.0000 -19.7897
#
#
#
# Elastic Compliance Matrix: (Units=1/GPa)
#
#
# Indices 1 2 3 4 5 6 
#
# 1 0.009151 -0.000817 -0.004156 0.000000 -0.000841 0.000000
# 2 -0.000817 0.003253 -0.000753 0.000000 0.001730 0.000000
# 3 -0.004156 -0.000753 0.007877 0.000000 0.001416 0.000000
# 4 0.000000 0.000000 0.000000 0.004173 0.000000 -0.013295
# 5 -0.000841 0.001730 0.001416 0.000000 0.013427 0.000000
# 6 0.000000 0.000000 0.000000 -0.013295 0.000000 -0.008171
#
#
# Mechanical properties :
#
#
# Convention : Reuss Voigt Hill
#
# Bulk Modulus (GPa) = 113.26853 130.19039 121.72946
# Shear Modulus (GPa) = 113.36335 52.33102 82.84719
#
# Velocity S-wave (km/s) = 6.90320 4.69023 5.90137
# Velocity P-wave (km/s) = 10.54293 9.16835 9.87957
#
# Compressibility (1/GPa) = 0.00882858
#
# Stress axis : x y z
#
# Youngs Moduli (GPa) = 109.28209 307.38615 126.94748
#
# Poissons Ratio (x) = 0.25108 0.52763
# Poissons Ratio (y) = 0.08926 0.09561
# Poissons Ratio (z) = 0.45421 0.23151
#
# Static dielectric constant tensor:
#      x y z
#    x 1.766290 0.000000 0.071680 
#    y 0.000000 1.933370 0.000000 
#    z 0.071680 0.000000 1.852580 
# 
# From -- ./inp_files/2041.got.cif
#   From: 2010.05.17/outbox.cif.g08.bks.cpg/sg10_2_cif.got.tgz:2041.got - 2010.06.03 11:33:40.
