data_PCOD9152823
_publ_section_title
;
Structure prediction by ZEFSAII (Michael W. Deem and Ramdas Pophale) SiO2 
 PCOD9152823
Probable space group: P 2/M
;
_chemical_formula_sum "Si O2"
_cell_formula_units_Z 14
_cell_length_a 15.194602
_cell_length_b 8.012932
_cell_length_c 5.192317
_cell_angle_alpha 90.000000
_cell_angle_beta 121.128681
_cell_angle_gamma 90.000000
_cell_volume 541.152934
_symmetry_space_group_name_H-M "P 2/M"
_symmetry_group_IT_number 10
_symmetry_cell_setting 'monoclinic'
loop_
_space_group_symop_operation_xyz
x,y,z
-x,y,-z
-x,-y,-z
x,-y,z
loop_
_atom_site_type_symbol
_atom_site_label
_atom_site_fract_x
_atom_site_fract_y
_atom_site_fract_z
Si Si1 0.072999 0.000000 0.366954
Si Si2 0.426905 0.000000 0.138618
Si Si3 0.122626 0.315552 0.219419
Si Si4 0.296178 0.690863 0.116062
Si Si5 0.571049 0.500000 0.354329
O O1 0.139848 0.166059 0.441725
O O2 0.000000 0.000000 0.500000
O O3 0.000000 0.000000 0.000000
O O4 0.500000 0.000000 0.500000
O O5 0.355338 0.165334 0.056166
O O6 0.500000 0.000000 0.000000
O O7 0.155498 0.500000 0.350640
O O8 0.181783 0.273637 0.045599
O O9 0.000000 0.326536 0.000000
O O10 0.297857 0.500000 0.008581
O O11 0.358016 0.660774 0.483081
O O12 0.500000 0.500000 0.500000
O O13 0.500000 0.500000 0.000000
#
# Coordination Sequence:
#
# PCOD9152823 Si02
#       5
#     2   2   4   4   2
#     4  10  21  38  63  94 135 186 226 274 337 396
#     4  12  27  46  70 104 141 188 239 298 352 422
#     4   9  18  39  71 103 143 182 231 282 345 418
#     4   9  22  43  71 105 142 184 238 288 359 424
#     4  10  22  42  67  96 133 178 230 286 355 408
#
# _framework density 25.870691000000001
#
# number of rings (size 3 to 8) (size 9 to 14) (size 15 to 20)
#    0.857    1.429    0.000    1.714    0.000    5.714 
#    0.000   17.143    0.000    0.000    0.000    0.000 
#    0.000    0.000    0.000    0.000    0.000    0.000 
#
# Total GULP energy -78227.824423 kJ/mol
# GULP energy per Si atom -5587.701744 kJ/mol
# Density = 2.581181 g / cm^3
# Si number density = 25.870691 Si / 1000 Ang^3
#
#
#
# Elastic Constant Matrix: (Units=GPa)
#
#
# Indices 1 2 3 4 5 6 
#
# 1 246.7597 113.2670 52.5050 0.0000 -20.0095 0.0000
# 2 113.2670 261.2716 20.2301 0.0000 -52.3120 0.0000
# 3 52.5050 20.2301 147.1895 0.0000 -10.8677 0.0000
# 4 0.0000 0.0000 0.0000 -10.0783 0.0000 -6.6508
# 5 -20.0095 -52.3120 -10.8677 0.0000 39.0231 0.0000
# 6 0.0000 0.0000 0.0000 -6.6508 0.0000 55.4685
#
#
#
# Elastic Compliance Matrix: (Units=1/GPa)
#
#
# Indices 1 2 3 4 5 6 
#
# 1 0.005443 -0.002412 -0.001677 0.000000 -0.000909 0.000000
# 2 -0.002412 0.006306 0.000537 0.000000 0.007367 0.000000
# 3 -0.001677 0.000537 0.007461 0.000000 0.001938 0.000000
# 4 0.000000 0.000000 0.000000 -0.091948 0.000000 -0.011025
# 5 -0.000909 0.007367 0.001938 0.000000 0.035575 0.000000
# 6 0.000000 0.000000 0.000000 -0.011025 0.000000 0.016706
#
#
# Mechanical properties :
#
#
# Convention : Reuss Voigt Hill
#
# Bulk Modulus (GPa) = 82.59185 114.13614 98.36400
# Shear Modulus (GPa) = -536.65060 48.16390 -244.24335
#
# Velocity S-wave (km/s) = -14.41825 4.31944 -9.72699
# Velocity P-wave (km/s) = 15.65846 8.31207 9.38341
#
# Compressibility (1/GPa) = 0.01210773
#
# Stress axis : x y z
#
# Youngs Moduli (GPa) = 183.73316 158.56981 134.02147
#
# Poissons Ratio (x) = 0.38243 0.22478
# Poissons Ratio (y) = 0.44311 -0.07203
# Poissons Ratio (z) = 0.30815 -0.08523
#
# Static dielectric constant tensor:
#      x y z
#    x 0.000000 0.000000 0.000000 
#    y 0.000000 0.000000 0.000000 
#    z 0.000000 0.000000 0.000000 
# 
# From -- ./inp_files/8563.got.cif
#   From: 2010.05.17/outbox.cif.g08.bks.cpg/sg10_5_cif.got.tgz:8563.got - 2010.06.03 11:33:40.
