data_PCOD9152615
_publ_section_title
;
Structure prediction by ZEFSAII (Michael W. Deem and Ramdas Pophale) SiO2 
 PCOD9152615
Probable space group: P 2/M
;
_chemical_formula_sum "Si O2"
_cell_formula_units_Z 20
_cell_length_a 5.291842
_cell_length_b 28.681170
_cell_length_c 5.293505
_cell_angle_alpha 90.000000
_cell_angle_beta 84.377617
_cell_angle_gamma 90.000000
_cell_volume 799.563049
_symmetry_space_group_name_H-M "P 2/M"
_symmetry_group_IT_number 10
_symmetry_cell_setting 'monoclinic'
loop_
_space_group_symop_operation_xyz
x,y,z
-x,y,-z
-x,-y,-z
x,-y,z
loop_
_atom_site_type_symbol
_atom_site_label
_atom_site_fract_x
_atom_site_fract_y
_atom_site_fract_z
Si Si1 0.823078 0.549874 0.266017
Si Si2 0.171965 0.049526 0.730950
Si Si3 0.271621 0.150778 0.832232
Si Si4 0.169358 0.748541 0.729380
Si Si5 0.822487 0.649585 0.265846
O O1 0.681480 0.500000 0.272563
O O2 0.000000 0.549720 0.500000
O O3 0.680922 0.599727 0.272080
O O4 0.000000 0.549986 0.000000
O O5 0.299271 0.100052 0.704912
O O6 0.000000 0.047493 0.500000
O O7 0.320068 0.000000 0.732389
O O8 0.000000 0.050181 0.000000
O O9 0.282668 0.199924 0.688116
O O10 0.500000 0.153849 0.000000
O O11 0.000000 0.149777 0.000000
O O12 0.321218 0.699501 0.732817
O O13 0.000000 0.743058 0.500000
O O14 0.000000 0.750573 0.000000
O O15 0.000000 0.648564 0.500000
O O16 0.000000 0.650057 0.000000
#
# Coordination Sequence:
#
# PCOD9152615 Si02
#       5
#     4   4   4   4   4
#     4   8  12  17  26  44  72 107 147 191 240 294
#     4   9  18  35  58  84 114 148 186 228 275 327
#     4  10  21  38  59  84 114 148 187 230 278 330
#     4   9  17  31  49  71  99 133 174 218 266 319
#     4   8  13  21  35  54  80 116 156 200 249 302
#
# _framework density 25.013660999999999
#
# number of rings (size 3 to 8) (size 9 to 14) (size 15 to 20)
#    0.000    3.200    0.000    0.600    0.000    0.400 
#    0.000   16.000    0.000   10.800    0.000    0.000 
#    0.000    0.800    0.000    0.600    0.000  304.600 
#
# Total GULP energy -111447.071839 kJ/mol
# GULP energy per Si atom -5572.353592 kJ/mol
# Density = 2.495673 g / cm^3
# Si number density = 25.013661 Si / 1000 Ang^3
#
#
#
# Elastic Constant Matrix: (Units=GPa)
#
#
# Indices 1 2 3 4 5 6 
#
# 1 63.1248 2.5703 31.5311 0.0000 -28.5283 0.0000
# 2 2.5703 380.0222 -13.2281 0.0000 2.7116 0.0000
# 3 31.5311 -13.2281 174.9177 0.0000 -24.9531 0.0000
# 4 0.0000 0.0000 0.0000 14.6453 0.0000 -4.4906
# 5 -28.5283 2.7116 -24.9531 0.0000 53.8507 0.0000
# 6 0.0000 0.0000 0.0000 -4.4906 0.0000 -64.8892
#
#
#
# Elastic Compliance Matrix: (Units=1/GPa)
#
#
# Indices 1 2 3 4 5 6 
#
# 1 0.021794 -0.000308 -0.002466 0.000000 0.010419 0.000000
# 2 -0.000308 0.002643 0.000228 0.000000 -0.000190 0.000000
# 3 -0.002466 0.000228 0.006415 0.000000 0.001655 0.000000
# 4 0.000000 0.000000 0.000000 0.066862 0.000000 -0.004627
# 5 0.010419 -0.000190 0.001655 0.000000 0.024866 0.000000
# 6 0.000000 0.000000 0.000000 -0.004627 0.000000 -0.015091
#
#
# Mechanical properties :
#
#
# Convention : Reuss Voigt Hill
#
# Bulk Modulus (GPa) = 38.81706 73.31235 56.06470
# Shear Modulus (GPa) = 41.26540 40.53413 40.89976
#
# Velocity S-wave (km/s) = 4.06607 4.02989 4.04802
# Velocity P-wave (km/s) = 6.13156 7.14324 6.65664
#
# Compressibility (1/GPa) = 0.02576187
#
# Stress axis : x y z
#
# Youngs Moduli (GPa) = 45.88324 378.38575 155.89077
#
# Poissons Ratio (x) = 0.11638 0.38437
# Poissons Ratio (y) = 0.01411 -0.03557
# Poissons Ratio (z) = 0.11313 -0.08633
#
# Static dielectric constant tensor:
#      x y z
#    x 1.840630 0.000000 -0.046890 
#    y 0.000000 3.100510 0.000000 
#    z -0.046890 0.000000 1.886660 
# 
# From -- ./inp_files/2326.got.cif
#   From: 2010.05.17/outbox.cif.g08.bks.cpg/sg10_2_cif.got.tgz:2326.got - 2010.06.03 11:33:40.
