data_PCOD9152967
_publ_section_title
;
Structure prediction by ZEFSAII (Michael W. Deem and Ramdas Pophale) SiO2 
 PCOD9152967
Probable space group: P 2/M
;
_chemical_formula_sum "Si O2"
_cell_formula_units_Z 24
_cell_length_a 23.403278
_cell_length_b 11.889034
_cell_length_c 11.822700
_cell_angle_alpha 90.000000
_cell_angle_beta 19.660885
_cell_angle_gamma 90.000000
_cell_volume 1106.785924
_symmetry_space_group_name_H-M "P 2/M"
_symmetry_group_IT_number 10
_symmetry_cell_setting 'monoclinic'
loop_
_space_group_symop_operation_xyz
x,y,z
-x,y,-z
-x,-y,-z
x,-y,z
loop_
_atom_site_type_symbol
_atom_site_label
_atom_site_fract_x
_atom_site_fract_y
_atom_site_fract_z
Si Si1 0.764079 0.000000 0.489678
Si Si2 0.940430 0.189736 0.726988
Si Si3 0.197090 0.367350 0.361452
Si Si4 0.593805 0.374653 0.618298
Si Si5 0.194249 0.241046 0.596900
Si Si6 0.693159 0.620182 0.178992
Si Si7 0.108911 0.000000 0.994104
O O1 0.709688 0.126705 0.620684
O O2 0.764427 0.000000 0.350133
O O3 0.936448 0.000000 0.243344
O O4 0.000000 0.130842 0.500000
O O5 0.076974 0.280737 0.518923
O O6 0.786965 0.267834 0.971333
O O7 0.890110 0.106862 0.923257
O O8 0.157655 0.500000 0.418509
O O9 0.179135 0.331109 0.525532
O O10 0.396356 0.348908 0.962424
O O11 0.595333 0.500000 0.667078
O O12 0.692716 0.291614 0.514656
O O13 0.690788 0.379185 0.319019
O O14 0.000000 0.214931 0.000000
O O15 0.500000 0.622016 0.500000
O O16 0.767071 0.500000 0.000852
#
# Coordination Sequence:
#
# PCOD9152967 Si02
#       7
#     2   4   4   4   4   4   2
#     4  11  20  40  66  86 121 157 203 259 305 356
#     4  12  24  40  65  92 122 162 206 250 304 365
#     4  11  23  39  59  89 128 163 202 247 303 365
#     4  10  22  38  57  86 125 163 198 251 306 358
#     4  12  21  37  61  89 118 159 206 253 307 365
#     4  10  21  39  62  90 123 160 203 248 302 363
#     4  11  21  42  62  91 119 159 204 257 305 353
#
# _framework density 21.68441
#
# number of rings (size 3 to 8) (size 9 to 14) (size 15 to 20)
#    0.000    1.000    3.333    4.750    0.000    6.667 
#    0.000    2.917    0.000    0.000    0.000    0.000 
#    0.000    0.000    0.000    0.000    0.000    0.000 
#
# Total GULP energy -133913.225964 kJ/mol
# GULP energy per Si atom -5579.717748 kJ/mol
# Density = 2.163506 g / cm^3
# Si number density = 21.684410 Si / 1000 Ang^3
#
#
#
# Elastic Constant Matrix: (Units=GPa)
#
#
# Indices 1 2 3 4 5 6 
#
# 1 83.5821 28.5520 -7.0322 0.0000 5.3867 0.0000
# 2 28.5520 119.2586 18.3304 0.0000 -13.4735 0.0000
# 3 -7.0322 18.3304 38.4630 0.0000 -3.3092 0.0000
# 4 0.0000 0.0000 0.0000 15.9806 0.0000 -5.2642
# 5 5.3867 -13.4735 -3.3092 0.0000 35.8212 0.0000
# 6 0.0000 0.0000 0.0000 -5.2642 0.0000 18.4641
#
#
#
# Elastic Compliance Matrix: (Units=1/GPa)
#
#
# Indices 1 2 3 4 5 6 
#
# 1 0.014061 -0.004422 0.004388 0.000000 -0.003372 0.000000
# 2 -0.004422 0.010777 -0.005583 0.000000 0.004203 0.000000
# 3 0.004388 -0.005583 0.029459 0.000000 -0.000038 0.000000
# 4 0.000000 0.000000 0.000000 0.069062 0.000000 0.019690
# 5 -0.003372 0.004203 -0.000038 0.000000 0.030001 0.000000
# 6 0.000000 0.000000 0.000000 0.019690 0.000000 0.059773
#
#
# Mechanical properties :
#
#
# Convention : Reuss Voigt Hill
#
# Bulk Modulus (GPa) = 23.22156 35.66711 29.44434
# Shear Modulus (GPa) = 20.94503 27.48340 24.21421
#
# Velocity S-wave (km/s) = 3.11127 3.56396 3.34528
# Velocity P-wave (km/s) = 4.86197 5.78098 5.34128
#
# Compressibility (1/GPa) = 0.04306342
#
# Stress axis : x y z
#
# Youngs Moduli (GPa) = 71.11676 92.79273 33.94596
#
# Poissons Ratio (x) = 0.41032 -0.14896
# Poissons Ratio (y) = 0.31447 0.18951
# Poissons Ratio (z) = -0.31207 0.51804
#
# Static dielectric constant tensor:
#      x y z
#    x 1.762070 0.000000 0.033310 
#    y 0.000000 1.811340 0.000000 
#    z 0.033310 0.000000 1.866240 
# 
# From -- ./inp_files/56918.got.cif
#   From: 2010.05.17/outbox.cif.g08.bks.cpg/sg10_29_cif.got.tgz:56918.got - 2010.06.03 11:33:40.
