data_PCOD9152008
_publ_section_title
;
Structure prediction by ZEFSAII (Michael W. Deem and Ramdas Pophale) SiO2 
 PCOD9152008
Probable space group: P 2/M
;
_chemical_formula_sum "Si O2"
_cell_formula_units_Z 24
_cell_length_a 23.668901
_cell_length_b 9.615042
_cell_length_c 15.945061
_cell_angle_alpha 90.000000
_cell_angle_beta 17.322464
_cell_angle_gamma 90.000000
_cell_volume 1080.453412
_symmetry_space_group_name_H-M "P 2/M"
_symmetry_group_IT_number 10
_symmetry_cell_setting 'monoclinic'
loop_
_space_group_symop_operation_xyz
x,y,z
-x,y,-z
-x,-y,-z
x,-y,z
loop_
_atom_site_type_symbol
_atom_site_label
_atom_site_fract_x
_atom_site_fract_y
_atom_site_fract_z
Si Si1 0.403111 0.660657 0.965203
Si Si2 0.931418 0.247675 0.452401
Si Si3 0.341530 0.840971 0.892552
Si Si4 0.234647 0.341797 0.897841
Si Si5 0.683267 0.150587 0.658282
Si Si6 0.948000 0.840396 0.980732
O O1 0.438959 0.500000 0.895337
O O2 0.191349 0.677682 0.302972
O O3 0.424895 0.756760 0.852409
O O4 0.547255 0.722212 0.829523
O O5 0.783233 0.161392 0.606674
O O6 0.111161 0.161475 0.231356
O O7 0.039986 0.343411 0.230069
O O8 0.366054 0.752449 0.772281
O O9 0.405483 0.000000 0.796461
O O10 0.293649 0.500000 0.801770
O O11 0.187233 0.260396 0.880058
O O12 0.856373 0.154781 0.347846
O O13 0.586846 0.000000 0.785216
O O14 0.874457 0.000000 0.088521
O O15 0.000000 0.793096 0.000000
#
# Coordination Sequence:
#
# PCOD9152008 Si02
#       6
#     4   4   4   4   4   4
#     4  12  24  35  50  77 115 153 184 219 268 320
#     4   9  21  34  57  75 106 147 190 224 261 313
#     4  10  21  36  55  78 107 146 190 229 263 310
#     4   9  18  32  52  79 108 137 175 220 265 314
#     4  10  21  37  55  80 110 140 179 227 273 320
#     4   9  18  35  59  83 106 136 177 224 272 325
#
# _framework density 22.212897999999999
#
# number of rings (size 3 to 8) (size 9 to 14) (size 15 to 20)
#    1.000    1.167    0.000    3.500    0.000    9.000 
#    0.000    0.000    0.000    1.000    0.000    7.000 
#    0.000    0.000    0.000    0.000    0.000    0.000 
#
# Total GULP energy -133933.202573 kJ/mol
# GULP energy per Si atom -5580.550107 kJ/mol
# Density = 2.216234 g / cm^3
# Si number density = 22.212898 Si / 1000 Ang^3
#
#
#
# Elastic Constant Matrix: (Units=GPa)
#
#
# Indices 1 2 3 4 5 6 
#
# 1 92.6895 50.1709 15.0657 0.0000 6.9003 0.0000
# 2 50.1709 166.8917 18.9308 0.0000 -6.9503 0.0000
# 3 15.0657 18.9308 61.7904 0.0000 -9.6131 0.0000
# 4 0.0000 0.0000 0.0000 -8.4178 0.0000 -2.8848
# 5 6.9003 -6.9503 -9.6131 0.0000 24.4978 0.0000
# 6 0.0000 0.0000 0.0000 -2.8848 0.0000 11.0264
#
#
#
# Elastic Compliance Matrix: (Units=1/GPa)
#
#
# Indices 1 2 3 4 5 6 
#
# 1 0.013999 -0.004117 -0.003139 0.000000 -0.006343 0.000000
# 2 -0.004117 0.007445 -0.000818 0.000000 0.002951 0.000000
# 3 -0.003139 -0.000818 0.018426 0.000000 0.007883 0.000000
# 4 0.000000 0.000000 0.000000 -0.109020 0.000000 -0.028523
# 5 -0.006343 0.002951 0.007883 0.000000 0.046537 0.000000
# 6 0.000000 0.000000 0.000000 -0.028523 0.000000 0.083229
#
#
# Mechanical properties :
#
#
# Convention : Reuss Voigt Hill
#
# Bulk Modulus (GPa) = 42.15294 54.41182 48.28238
# Shear Modulus (GPa) = 59.05205 21.23488 40.14347
#
# Velocity S-wave (km/s) = 5.16162 3.09523 4.25575
# Velocity P-wave (km/s) = 7.38519 6.10923 6.77731
#
# Compressibility (1/GPa) = 0.02372314
#
# Stress axis : x y z
#
# Youngs Moduli (GPa) = 71.43207 134.31617 54.27095
#
# Poissons Ratio (x) = 0.55292 0.17035
# Poissons Ratio (y) = 0.29405 0.04441
# Poissons Ratio (z) = 0.22422 0.10990
#
# Static dielectric constant tensor:
#      x y z
#    x 1.788510 0.000000 0.004600 
#    y 0.000000 1.771090 0.000000 
#    z 0.004600 0.000000 1.881540 
# 
# From -- ./inp_files/80429.got.cif
#   From: 2010.05.17/outbox.cif.g08.bks.cpg/sg10_41_cif.got.tgz:80429.got - 2010.06.03 11:33:40.
