data_PCOD9152012
_publ_section_title
;
Structure prediction by ZEFSAII (Michael W. Deem and Ramdas Pophale) SiO2 
 PCOD9152012
Probable space group: P 2/M
;
_chemical_formula_sum "Si O2"
_cell_formula_units_Z 24
_cell_length_a 15.837560
_cell_length_b 8.807098
_cell_length_c 9.531057
_cell_angle_alpha 90.000000
_cell_angle_beta 89.987558
_cell_angle_gamma 90.000000
_cell_volume 1329.419849
_symmetry_space_group_name_H-M "P 2/M"
_symmetry_group_IT_number 10
_symmetry_cell_setting 'monoclinic'
loop_
_space_group_symop_operation_xyz
x,y,z
-x,y,-z
-x,-y,-z
x,-y,z
loop_
_atom_site_type_symbol
_atom_site_label
_atom_site_fract_x
_atom_site_fract_y
_atom_site_fract_z
Si Si1 0.583537 0.816414 0.413410
Si Si2 0.075856 0.682242 0.103850
Si Si3 0.261591 0.681891 0.414598
Si Si4 0.418579 0.816840 0.911409
Si Si5 0.733539 0.318299 0.913750
Si Si6 0.081104 0.181338 0.409889
O O1 0.500000 0.771594 0.500000
O O2 0.665440 0.748853 0.488647
O O3 0.577312 0.768059 0.250938
O O4 0.588908 0.000000 0.416888
O O5 0.074607 0.500000 0.129732
O O6 0.169523 0.718321 0.046661
O O7 0.066341 0.767089 0.250486
O O8 0.000000 0.720000 0.000000
O O9 0.261250 0.500000 0.421530
O O10 0.276655 0.725228 0.250651
O O11 0.169294 0.743494 0.455610
O O12 0.418949 0.000000 0.912447
O O13 0.500000 0.764286 0.000000
O O14 0.334727 0.760037 0.988416
O O15 0.723017 0.500000 0.922914
O O16 0.000000 0.228754 0.500000
O O17 0.089648 0.000000 0.418391
#
# Coordination Sequence:
#
# PCOD9152012 Si02
#       6
#     4   4   4   4   4   4
#     4  10  21  37  57  81 110 143 179 221 268 318
#     4   9  19  36  56  79 109 144 181 219 264 321
#     4  10  21  37  57  80 107 142 183 223 268 322
#     4  10  21  36  55  79 105 138 178 216 262 318
#     4   9  19  35  54  78 106 138 177 219 263 311
#     4  10  21  36  55  81 111 142 180 225 271 321
#
# _framework density 18.052989
#
# number of rings (size 3 to 8) (size 9 to 14) (size 15 to 20)
#    0.000    2.333    0.000    3.000    0.000    9.000 
#    0.000    3.333    0.000    0.000    0.000    0.000 
#    0.000    0.000    0.000    0.000    0.000    0.000 
#
# Total GULP energy -133965.211185 kJ/mol
# GULP energy per Si atom -5581.883799 kJ/mol
# Density = 1.801190 g / cm^3
# Si number density = 18.052989 Si / 1000 Ang^3
#
#
#
# Elastic Constant Matrix: (Units=GPa)
#
#
# Indices 1 2 3 4 5 6 
#
# 1 184.0169 44.7067 117.1446 0.0000 -0.9351 0.0000
# 2 44.7067 18.1565 37.5941 0.0000 -0.3299 0.0000
# 3 117.1446 37.5941 124.3831 0.0000 -0.7440 0.0000
# 4 0.0000 0.0000 0.0000 29.5601 0.0000 5.9729
# 5 -0.9351 -0.3299 -0.7440 0.0000 40.1569 0.0000
# 6 0.0000 0.0000 0.0000 5.9729 0.0000 29.2089
#
#
#
# Elastic Compliance Matrix: (Units=1/GPa)
#
#
# Indices 1 2 3 4 5 6 
#
# 1 0.016405 -0.022457 -0.008663 0.000000 0.000037 0.000000
# 2 -0.022457 0.177938 -0.032629 0.000000 0.000334 0.000000
# 3 -0.008663 -0.032629 0.026060 0.000000 0.000013 0.000000
# 4 0.000000 0.000000 0.000000 0.035287 0.000000 -0.007216
# 5 0.000037 0.000334 0.000013 0.000000 0.024906 0.000000
# 6 0.000000 0.000000 0.000000 -0.007216 0.000000 0.035712
#
#
# Mechanical properties :
#
#
# Convention : Reuss Voigt Hill
#
# Bulk Modulus (GPa) = 10.76351 80.60526 45.68438
# Shear Modulus (GPa) = 10.53134 28.25928 19.39531
#
# Velocity S-wave (km/s) = 2.41790 3.96075 3.28129
# Velocity P-wave (km/s) = 3.71081 8.10326 6.30210
#
# Compressibility (1/GPa) = 0.09290651
#
# Stress axis : x y z
#
# Youngs Moduli (GPa) = 60.95788 5.61994 38.37281
#
# Poissons Ratio (x) = 0.12620 0.33240
# Poissons Ratio (y) = 1.36890 1.25207
# Poissons Ratio (z) = 0.52805 0.18337
#
# Static dielectric constant tensor:
#      x y z
#    x 1.601290 0.000000 0.002800 
#    y 0.000000 1.608140 0.000000 
#    z 0.002800 0.000000 1.598610 
# 
# From -- ./inp_files/27202.got.cif
#   From: 2010.05.17/outbox.cif.g08.bks.cpg/sg10_14_cif.got.tgz:27202.got - 2010.06.03 11:33:40.
