data_PCOD9152582
_publ_section_title
;
Structure prediction by ZEFSAII (Michael W. Deem and Ramdas Pophale) SiO2 
 PCOD9152582
Probable space group: P 2/M
;
_chemical_formula_sum "Si O2"
_cell_formula_units_Z 32
_cell_length_a 25.424905
_cell_length_b 8.287810
_cell_length_c 15.349635
_cell_angle_alpha 90.000000
_cell_angle_beta 151.849080
_cell_angle_gamma 90.000000
_cell_volume 1525.988005
_symmetry_space_group_name_H-M "P 2/M"
_symmetry_group_IT_number 10
_symmetry_cell_setting 'monoclinic'
loop_
_space_group_symop_operation_xyz
x,y,z
-x,y,-z
-x,-y,-z
x,-y,z
loop_
_atom_site_type_symbol
_atom_site_label
_atom_site_fract_x
_atom_site_fract_y
_atom_site_fract_z
Si Si1 0.568601 0.695315 0.811324
Si Si2 0.286763 0.813467 0.613342
Si Si3 0.822864 0.809856 0.874377
Si Si4 0.943945 0.304473 0.505651
Si Si5 0.686287 0.694599 0.159175
Si Si6 0.961328 0.308880 0.722355
Si Si7 0.376895 0.805919 0.291623
Si Si8 0.323886 0.311533 0.482453
O O1 0.570194 0.500000 0.813061
O O2 0.638149 0.756368 0.830746
O O3 0.440903 0.750748 0.615159
O O4 0.612718 0.748144 0.970058
O O5 0.338197 0.764520 0.781469
O O6 0.328650 0.711702 0.592726
O O7 0.153884 0.780557 0.425520
O O8 0.308052 0.000000 0.626904
O O9 0.723704 0.748737 0.793659
O O10 0.778108 0.778199 0.712056
O O11 0.836984 0.000000 0.909011
O O12 0.938720 0.726399 0.066500
O O13 0.949037 0.500000 0.508592
O O14 0.997122 0.259225 0.676230
O O15 0.000000 0.239896 0.500000
O O16 0.813996 0.261513 0.322745
O O17 0.680002 0.500000 0.156415
O O18 0.935841 0.500000 0.684110
O O19 0.500000 0.744862 0.500000
O O20 0.378998 0.000000 0.301008
O O21 0.312884 0.500000 0.446204
#
# Coordination Sequence:
#
# PCOD9152582 Si02
#       8
#     4   4   4   4   4   4   4   4
#     4  10  22  37  60  90 118 154 201 249 291 343
#     4  11  23  41  63  86 116 154 194 241 297 357
#     4  11  23  39  59  87 122 159 199 239 289 352
#     4   8  15  29  52  81 111 146 186 230 281 337
#     4   9  19  37  58  84 119 154 193 242 293 342
#     4  10  21  38  61  87 118 153 193 244 296 345
#     4  10  21  38  58  82 122 166 195 235 293 351
#     4  11  23  40  61  87 116 151 200 251 297 344
#
# _framework density 20.970020999999999
#
# number of rings (size 3 to 8) (size 9 to 14) (size 15 to 20)
#    0.000    2.000    1.250    3.000    1.750    3.250 
#    0.000    5.000    0.000    1.875    0.000    0.000 
#    0.000    0.000    0.000    0.000    0.000    0.000 
#
# Total GULP energy -178736.618138 kJ/mol
# GULP energy per Si atom -5585.519317 kJ/mol
# Density = 2.092229 g / cm^3
# Si number density = 20.970021 Si / 1000 Ang^3
#
#
#
# Elastic Constant Matrix: (Units=GPa)
#
#
# Indices 1 2 3 4 5 6 
#
# 1 62.3471 -13.1476 -11.6869 0.0000 -14.7215 0.0000
# 2 -13.1476 17.1230 0.6142 0.0000 2.4847 0.0000
# 3 -11.6869 0.6142 63.6335 0.0000 -24.2235 0.0000
# 4 0.0000 0.0000 0.0000 9.9846 0.0000 0.8784
# 5 -14.7215 2.4847 -24.2235 0.0000 25.1433 0.0000
# 6 0.0000 0.0000 0.0000 0.8784 0.0000 20.4755
#
#
#
# Elastic Compliance Matrix: (Units=1/GPa)
#
#
# Indices 1 2 3 4 5 6 
#
# 1 0.031850 0.018670 0.019054 0.000000 0.035160 0.000000
# 2 0.018670 0.070994 0.006686 0.000000 0.010357 0.000000
# 3 0.019054 0.006686 0.036550 0.000000 0.045708 0.000000
# 4 0.000000 0.000000 0.000000 0.100534 0.000000 -0.004313
# 5 0.035160 0.010357 0.045708 0.000000 0.103371 0.000000
# 6 0.000000 0.000000 0.000000 -0.004313 0.000000 0.049024
#
#
# Mechanical properties :
#
#
# Convention : Reuss Voigt Hill
#
# Bulk Modulus (GPa) = 4.38188 10.51812 7.45000
# Shear Modulus (GPa) = 13.17271 22.27560 17.72415
#
# Velocity S-wave (km/s) = 2.50905 3.26277 2.91041
# Velocity P-wave (km/s) = 3.23850 4.38416 3.85414
#
# Compressibility (1/GPa) = 0.22821274
#
# Stress axis : x y z
#
# Youngs Moduli (GPa) = 31.39719 14.08579 27.36011
#
# Poissons Ratio (x) = -0.26298 -0.52131
# Poissons Ratio (y) = -0.58618 -0.18294
# Poissons Ratio (z) = -0.59824 -0.09418
#
# Static dielectric constant tensor:
#      x y z
#    x 1.758390 0.000000 -0.006550 
#    y 0.000000 1.713730 0.000000 
#    z -0.006550 0.000000 1.749390 
# 
# From -- ./inp_files/66507.got.cif
#   From: 2010.05.17/outbox.cif.g08.bks.cpg/sg10_34_cif.got.tgz:66507.got - 2010.06.03 11:33:40.
