data_PCOD9152852
_publ_section_title
;
Structure prediction by ZEFSAII (Michael W. Deem and Ramdas Pophale) SiO2 
 PCOD9152852
Probable space group: P 2/M
;
_chemical_formula_sum "Si O2"
_cell_formula_units_Z 32
_cell_length_a 15.585943
_cell_length_b 7.769130
_cell_length_c 24.142603
_cell_angle_alpha 90.000000
_cell_angle_beta 149.668911
_cell_angle_gamma 90.000000
_cell_volume 1476.309897
_symmetry_space_group_name_H-M "P 2/M"
_symmetry_group_IT_number 10
_symmetry_cell_setting 'monoclinic'
loop_
_space_group_symop_operation_xyz
x,y,z
-x,y,-z
-x,-y,-z
x,-y,z
loop_
_atom_site_type_symbol
_atom_site_label
_atom_site_fract_x
_atom_site_fract_y
_atom_site_fract_z
Si Si1 0.472609 0.210800 0.236779
Si Si2 0.349841 0.792959 0.773302
Si Si3 0.029207 0.703441 0.836039
Si Si4 0.683794 0.791825 0.579755
Si Si5 0.901976 0.793164 0.999867
Si Si6 0.384269 0.702458 0.985670
Si Si7 0.981739 0.702324 0.552899
Si Si8 0.663474 0.198822 0.445054
O O1 0.609399 0.261541 0.266943
O O2 0.521692 0.274636 0.325003
O O3 0.472952 0.000000 0.238707
O O4 0.291056 0.268559 0.113829
O O5 0.162863 0.728207 0.683229
O O6 0.353238 0.000000 0.778147
O O7 0.496825 0.722480 0.894406
O O8 0.051766 0.500000 0.848276
O O9 0.850444 0.743050 0.707290
O O10 0.028789 0.755246 0.900460
O O11 0.197170 0.775467 0.897225
O O12 0.500000 0.735071 0.500000
O O13 0.693998 0.725492 0.522340
O O14 0.683581 0.000000 0.579950
O O15 0.899219 0.000000 0.994207
O O16 0.000000 0.728265 0.000000
O O17 0.359903 0.500000 0.959062
O O18 0.500000 0.777046 0.000000
O O19 0.941025 0.500000 0.527899
O O20 0.000000 0.768404 0.500000
O O21 0.835056 0.794003 0.505150
O O22 0.614346 0.000000 0.426962
#
# Coordination Sequence:
#
# PCOD9152852 Si02
#       8
#     4   4   4   4   4   4   4   4
#     4   9  18  34  58  90 121 150 192 250 309 359
#     4  11  21  36  60  87 119 155 199 256 305 356
#     4  11  24  42  64  91 130 168 204 254 309 372
#     4  10  24  44  68  92 120 162 212 264 310 360
#     4  10  21  38  66  95 121 156 200 253 308 365
#     4  10  23  42  61  85 122 168 206 247 305 367
#     4  11  23  37  55  84 122 161 199 240 297 367
#     4  10  21  39  62  89 121 158 205 254 306 364
#
# _framework density 21.675666
#
# number of rings (size 3 to 8) (size 9 to 14) (size 15 to 20)
#    0.000    1.750    2.500    1.125    3.500    2.250 
#    0.000    0.625    0.000    0.000    0.000    0.000 
#    0.000    0.000    0.000    0.000    0.000    0.000 
#
# Total GULP energy -178668.232896 kJ/mol
# GULP energy per Si atom -5583.382278 kJ/mol
# Density = 2.162633 g / cm^3
# Si number density = 21.675666 Si / 1000 Ang^3
#
#
#
# Elastic Constant Matrix: (Units=GPa)
#
#
# Indices 1 2 3 4 5 6 
#
# 1 145.6247 1.4199 67.8928 0.0000 -20.3288 0.0000
# 2 1.4199 29.7413 -17.5959 0.0000 2.4769 0.0000
# 3 67.8928 -17.5959 147.6461 0.0000 -20.3895 0.0000
# 4 0.0000 0.0000 0.0000 -83.9542 0.0000 -17.4935
# 5 -20.3288 2.4769 -20.3895 0.0000 25.2486 0.0000
# 6 0.0000 0.0000 0.0000 -17.4935 0.0000 4.3908
#
#
#
# Elastic Compliance Matrix: (Units=1/GPa)
#
#
# Indices 1 2 3 4 5 6 
#
# 1 0.009455 -0.003261 -0.004098 0.000000 0.004623 0.000000
# 2 -0.003261 0.037299 0.005714 0.000000 -0.001670 0.000000
# 3 -0.004098 0.005714 0.009910 0.000000 0.004143 0.000000
# 4 0.000000 0.000000 0.000000 -0.006508 0.000000 -0.025930
# 5 0.004623 -0.001670 0.004143 0.000000 0.046838 0.000000
# 6 0.000000 0.000000 0.000000 -0.025930 0.000000 0.124442
#
#
# Mechanical properties :
#
#
# Convention : Reuss Voigt Hill
#
# Bulk Modulus (GPa) = 18.73559 47.38287 33.05923
# Shear Modulus (GPa) = 20.61717 7.22336 13.92027
#
# Velocity S-wave (km/s) = 3.08745 1.82749 2.53693
# Velocity P-wave (km/s) = 4.62300 5.13423 4.88531
#
# Compressibility (1/GPa) = 0.05337435
#
# Stress axis : x y z
#
# Youngs Moduli (GPa) = 105.76915 26.81066 100.90450
#
# Poissons Ratio (x) = 0.08742 0.41348
# Poissons Ratio (y) = 0.34489 -0.57655
# Poissons Ratio (z) = 0.43341 -0.15319
#
# Static dielectric constant tensor:
#      x y z
#    x 1.814070 0.000000 0.007600 
#    y 0.000000 1.796960 0.000000 
#    z 0.007600 0.000000 1.780430 
# 
# From -- ./inp_files/89584.got.cif
#   From: 2010.05.17/outbox.cif.g08.bks.cpg/sg10_45_cif.got.tgz:89584.got - 2010.06.03 11:33:40.
