data_PCOD9152076
_publ_section_title
;
Structure prediction by ZEFSAII (Michael W. Deem and Ramdas Pophale) SiO2 
 PCOD9152076
Probable space group: P 2/M
;
_chemical_formula_sum "Si O2"
_cell_formula_units_Z 24
_cell_length_a 8.655068
_cell_length_b 20.240519
_cell_length_c 9.704133
_cell_angle_alpha 90.000000
_cell_angle_beta 125.094368
_cell_angle_gamma 90.000000
_cell_volume 1390.950431
_symmetry_space_group_name_H-M "P 2/M"
_symmetry_group_IT_number 10
_symmetry_cell_setting 'monoclinic'
loop_
_space_group_symop_operation_xyz
x,y,z
-x,y,-z
-x,-y,-z
x,-y,z
loop_
_atom_site_type_symbol
_atom_site_label
_atom_site_fract_x
_atom_site_fract_y
_atom_site_fract_z
Si Si1 0.980136 0.209070 0.727155
Si Si2 0.000000 0.114949 0.000000
Si Si3 0.306670 0.310567 0.814024
Si Si4 0.713740 0.000000 0.920857
Si Si5 0.718651 0.000000 0.255819
Si Si6 0.015031 0.425583 0.673587
Si Si7 0.000000 0.889776 0.500000
Si Si8 0.304924 0.676141 0.479078
O O1 0.170606 0.249008 0.783554
O O2 0.930305 0.157586 0.583368
O O3 0.816439 0.263457 0.644662
O O4 0.000887 0.164256 0.871709
O O5 0.178332 0.064643 0.081682
O O6 0.189100 0.376694 0.794258
O O7 0.328229 0.313557 0.657504
O O8 0.500000 0.306960 0.000000
O O9 0.489375 0.000000 0.785738
O O10 0.726602 0.000000 0.094024
O O11 0.832806 0.936159 0.362566
O O12 0.035140 0.500000 0.737718
O O13 0.000000 0.428931 0.500000
O O14 0.822603 0.388491 0.614938
O O15 0.500000 0.671514 0.500000
#
# Coordination Sequence:
#
# PCOD9152076 Si02
#       8
#     4   2   4   2   2   4   2   4
#     4  11  22  39  57  80 115 152 184 227 282 339
#     4  11  24  38  60  84 115 142 184 238 279 324
#     4  10  21  36  57  85 114 149 190 233 277 333
#     4  10  22  41  56  87 112 139 184 235 276 330
#     4  10  22  37  64  81 108 149 185 222 278 340
#     4   8  16  35  58  79 113 158 191 223 277 335
#     4  11  20  40  60  82 107 152 186 220 273 344
#     4  10  21  36  56  86 116 145 190 237 275 331
#
# _framework density 17.254389
#
# number of rings (size 3 to 8) (size 9 to 14) (size 15 to 20)
#    0.000    2.000    3.333    1.000    2.333    3.333 
#    0.000    0.833    0.000    1.000    0.000    0.000 
#    0.000    0.000    0.000    0.000    0.000    0.000 
#
# Total GULP energy -133774.657599 kJ/mol
# GULP energy per Si atom -5573.944067 kJ/mol
# Density = 1.721512 g / cm^3
# Si number density = 17.254389 Si / 1000 Ang^3
#
#
#
# Elastic Constant Matrix: (Units=GPa)
#
#
# Indices 1 2 3 4 5 6 
#
# 1 126.6827 49.8545 18.3593 0.0000 16.1639 0.0000
# 2 49.8545 126.0820 17.1041 0.0000 5.0373 0.0000
# 3 18.3593 17.1041 32.9940 0.0000 8.1576 0.0000
# 4 0.0000 0.0000 0.0000 28.0865 0.0000 -7.1650
# 5 16.1639 5.0373 8.1576 0.0000 35.9620 0.0000
# 6 0.0000 0.0000 0.0000 -7.1650 0.0000 8.1967
#
#
#
# Elastic Compliance Matrix: (Units=1/GPa)
#
#
# Indices 1 2 3 4 5 6 
#
# 1 0.010122 -0.003460 -0.003002 0.000000 -0.003384 0.000000
# 2 -0.003460 0.009715 -0.003347 0.000000 0.000954 0.000000
# 3 -0.003002 -0.003347 0.035241 0.000000 -0.006176 0.000000
# 4 0.000000 0.000000 0.000000 0.045823 0.000000 0.040055
# 5 -0.003384 0.000954 -0.006176 0.000000 0.030596 0.000000
# 6 0.000000 0.000000 0.000000 0.040055 0.000000 0.157014
#
#
# Mechanical properties :
#
#
# Convention : Reuss Voigt Hill
#
# Bulk Modulus (GPa) = 28.20029 50.71049 39.45539
# Shear Modulus (GPa) = 15.62747 27.81175 21.71961
#
# Velocity S-wave (km/s) = 3.01277 4.01916 3.55179
# Velocity P-wave (km/s) = 5.33682 7.14086 6.30371
#
# Compressibility (1/GPa) = 0.03546063
#
# Stress axis : x y z
#
# Youngs Moduli (GPa) = 98.79243 102.92919 28.37598
#
# Poissons Ratio (x) = 0.35613 0.08519
# Poissons Ratio (y) = 0.34182 0.09497
# Poissons Ratio (z) = 0.29659 0.34450
#
# Static dielectric constant tensor:
#      x y z
#    x 1.562350 0.000000 0.009750 
#    y 0.000000 1.582090 0.000000 
#    z 0.009750 0.000000 1.556360 
# 
# From -- ./inp_files/20321.got.cif
#   From: 2010.05.17/outbox.cif.g08.bks.cpg/sg10_11_cif.got.tgz:20321.got - 2010.06.03 11:33:40.
