data_PCOD9152792
_publ_section_title
;
Structure prediction by ZEFSAII (Michael W. Deem and Ramdas Pophale) SiO2 
 PCOD9152792
Probable space group: P 2/M
;
_chemical_formula_sum "Si O2"
_cell_formula_units_Z 28
_cell_length_a 14.022638
_cell_length_b 11.035742
_cell_length_c 9.710194
_cell_angle_alpha 90.000000
_cell_angle_beta 57.786832
_cell_angle_gamma 90.000000
_cell_volume 1271.352001
_symmetry_space_group_name_H-M "P 2/M"
_symmetry_group_IT_number 10
_symmetry_cell_setting 'monoclinic'
loop_
_space_group_symop_operation_xyz
x,y,z
-x,y,-z
-x,-y,-z
x,-y,z
loop_
_atom_site_type_symbol
_atom_site_label
_atom_site_fract_x
_atom_site_fract_y
_atom_site_fract_z
Si Si1 0.439525 0.000000 0.400914
Si Si2 0.567181 0.364856 0.157168
Si Si3 0.119437 0.138346 0.828354
Si Si4 0.342758 0.754424 0.374623
Si Si5 0.718273 0.361407 0.298357
Si Si6 0.021531 0.860004 0.321689
Si Si7 0.395037 0.000000 0.976635
Si Si8 0.747350 0.760942 0.848151
O O1 0.500000 0.000000 0.500000
O O2 0.361902 0.883789 0.431326
O O3 0.544875 0.000000 0.215805
O O4 0.524656 0.500000 0.169007
O O5 0.463819 0.276029 0.213202
O O6 0.611544 0.350448 0.278978
O O7 0.674079 0.341429 0.977933
O O8 0.199363 0.250114 0.804891
O O9 0.085666 0.155794 0.693811
O O10 0.163779 0.000000 0.815381
O O11 0.000000 0.144145 0.000000
O O12 0.315605 0.661271 0.517281
O O13 0.257622 0.752230 0.313247
O O14 0.761594 0.500000 0.247821
O O15 0.124404 0.773212 0.202809
O O16 0.000000 0.846266 0.500000
O O17 0.058054 0.000000 0.271325
O O18 0.500000 0.000000 0.000000
O O19 0.318054 0.116391 0.061069
#
# Coordination Sequence:
#
# PCOD9152792 Si02
#       8
#     2   4   4   4   4   4   2   4
#     4  12  24  38  58  96 135 172 210 259 322 375
#     4  11  24  42  62  89 127 172 219 261 314 395
#     4  10  22  43  66  95 124 158 217 278 331 389
#     4  12  24  39  62  94 135 170 211 263 318 390
#     4  11  25  44  66  92 128 176 218 264 334 395
#     4  10  21  38  62  90 124 162 206 262 330 389
#     4  12  20  40  59  94 134 169 208 258 323 380
#     4  12  22  39  65  92 127 169 213 266 321 387
#
# _framework density 22.023799
#
# number of rings (size 3 to 8) (size 9 to 14) (size 15 to 20)
#    0.000    0.857    3.571    3.857    1.000    3.143 
#    2.571    0.714    0.000    1.714    0.000    0.000 
#    0.000    0.000    0.000    0.000    0.000    0.000 
#
# Total GULP energy -156684.220513 kJ/mol
# GULP energy per Si atom -5595.865018 kJ/mol
# Density = 2.197367 g / cm^3
# Si number density = 22.023799 Si / 1000 Ang^3
#
#
#
# Elastic Constant Matrix: (Units=GPa)
#
#
# Indices 1 2 3 4 5 6 
#
# 1 59.5955 25.5623 -1.6051 0.0000 3.1625 0.0000
# 2 25.5623 108.4222 -3.4493 0.0000 -8.5367 0.0000
# 3 -1.6051 -3.4493 73.3074 0.0000 19.8962 0.0000
# 4 0.0000 0.0000 0.0000 26.4359 0.0000 -5.9799
# 5 3.1625 -8.5367 19.8962 0.0000 38.5511 0.0000
# 6 0.0000 0.0000 0.0000 -5.9799 0.0000 11.8975
#
#
#
# Elastic Compliance Matrix: (Units=1/GPa)
#
#
# Indices 1 2 3 4 5 6 
#
# 1 0.018986 -0.004690 0.001046 0.000000 -0.003136 0.000000
# 2 -0.004690 0.010547 -0.000401 0.000000 0.002927 0.000000
# 3 0.001046 -0.000401 0.015923 0.000000 -0.008392 0.000000
# 4 0.000000 0.000000 0.000000 0.042680 0.000000 0.021452
# 5 -0.003136 0.002927 -0.008392 0.000000 0.031176 0.000000
# 6 0.000000 0.000000 0.000000 0.021452 0.000000 0.094833
#
#
# Mechanical properties :
#
#
# Convention : Reuss Voigt Hill
#
# Bulk Modulus (GPa) = 26.76198 31.37122 29.06660
# Shear Modulus (GPa) = 21.30474 30.09804 25.70139
#
# Velocity S-wave (km/s) = 3.11360 3.70079 3.41982
# Velocity P-wave (km/s) = 5.01037 5.70405 5.36843
#
# Compressibility (1/GPa) = 0.03736644
#
# Stress axis : x y z
#
# Youngs Moduli (GPa) = 52.67032 94.81699 62.80224
#
# Poissons Ratio (x) = 0.44468 -0.06570
# Poissons Ratio (y) = 0.24702 0.02518
# Poissons Ratio (z) = -0.05510 0.03801
#
# Static dielectric constant tensor:
#      x y z
#    x 1.995810 0.000000 0.338870 
#    y 0.000000 1.778510 0.000000 
#    z 0.338870 0.000000 2.358690 
# 
# From -- ./inp_files/28519.got.cif
#   From: 2010.05.17/outbox.cif.g08.bks.cpg/sg10_15_cif.got.tgz:28519.got - 2010.06.03 11:33:40.
