data_PCOD9152149
_publ_section_title
;
Structure prediction by ZEFSAII (Michael W. Deem and Ramdas Pophale) SiO2 
 PCOD9152149
Probable space group: P 2/M
;
_chemical_formula_sum "Si O2"
_cell_formula_units_Z 32
_cell_length_a 10.699735
_cell_length_b 7.365753
_cell_length_c 22.027083
_cell_angle_alpha 90.000000
_cell_angle_beta 49.982685
_cell_angle_gamma 90.000000
_cell_volume 1329.508034
_symmetry_space_group_name_H-M "P 2/M"
_symmetry_group_IT_number 10
_symmetry_cell_setting 'monoclinic'
loop_
_space_group_symop_operation_xyz
x,y,z
-x,y,-z
-x,-y,-z
x,-y,z
loop_
_atom_site_type_symbol
_atom_site_label
_atom_site_fract_x
_atom_site_fract_y
_atom_site_fract_z
Si Si1 0.378193 0.708433 0.615133
Si Si2 0.774773 0.209181 0.211947
Si Si3 0.425111 0.719428 0.265281
Si Si4 0.794147 0.278595 0.774072
Si Si5 0.117907 0.277748 0.602111
Si Si6 0.070685 0.295665 0.038333
Si Si7 0.311706 0.722207 0.060751
Si Si8 0.282128 0.278433 0.434434
O O1 0.413927 0.500000 0.588739
O O2 0.261833 0.713287 0.710268
O O3 0.276826 0.783796 0.590617
O O4 0.549437 0.783778 0.585514
O O5 0.606572 0.221943 0.226529
O O6 0.920529 0.304180 0.131766
O O7 0.819144 0.000000 0.205118
O O8 0.428058 0.500000 0.264957
O O9 0.356622 0.776627 0.221818
O O10 0.302788 0.777500 0.358117
O O11 0.796914 0.500000 0.774154
O O12 0.772092 0.219279 0.850143
O O13 0.957837 0.219484 0.688316
O O14 0.116803 0.500000 0.603613
O O15 0.138731 0.224341 0.525198
O O16 0.123965 0.500000 0.003657
O O17 0.217210 0.212772 0.030704
O O18 0.000000 0.206131 0.000000
O O19 0.303695 0.500000 0.062416
O O20 0.500000 0.773433 0.000000
O O21 0.280559 0.500000 0.433364
#
# Coordination Sequence:
#
# PCOD9152149 Si02
#       8
#     4   4   4   4   4   4   4   4
#     4   9  16  29  50  74 100 134 174 214 257 315
#     4  11  22  35  53  75 105 140 174 220 270 313
#     4   9  18  32  51  74 101 137 181 222 259 314
#     4   9  17  27  45  73 105 138 171 213 266 318
#     4   9  15  24  44  75 107 134 165 216 274 318
#     4  10  21  36  59  88 110 137 176 218 264 317
#     4   9  18  32  52  82 114 138 168 216 264 307
#     4   8  14  24  41  71 105 134 167 213 267 314
#
# _framework density 24.069054000000001
#
# number of rings (size 3 to 8) (size 9 to 14) (size 15 to 20)
#    0.000    2.750    0.000    3.000    1.750    4.250 
#    0.000    2.500    0.000    9.375    0.000    3.500 
#    0.000    0.000    0.000    0.000    0.000    0.000 
#
# Total GULP energy -178789.591062 kJ/mol
# GULP energy per Si atom -5587.174721 kJ/mol
# Density = 2.401427 g / cm^3
# Si number density = 24.069054 Si / 1000 Ang^3
#
#
#
# Elastic Constant Matrix: (Units=GPa)
#
#
# Indices 1 2 3 4 5 6 
#
# 1 118.2549 1.0578 44.0253 0.0000 26.0938 0.0000
# 2 1.0578 95.6026 -3.3575 0.0000 2.9483 0.0000
# 3 44.0253 -3.3575 88.8654 0.0000 1.7333 0.0000
# 4 0.0000 0.0000 0.0000 -62.6992 0.0000 91.1946
# 5 26.0938 2.9483 1.7333 0.0000 32.2052 0.0000
# 6 0.0000 0.0000 0.0000 91.1946 0.0000 -28.0049
#
#
#
# Elastic Compliance Matrix: (Units=1/GPa)
#
#
# Indices 1 2 3 4 5 6 
#
# 1 0.013047 -0.000049 -0.006266 0.000000 -0.010229 0.000000
# 2 -0.000049 0.010505 0.000440 0.000000 -0.000946 0.000000
# 3 -0.006266 0.000440 0.014291 0.000000 0.004267 0.000000
# 4 0.000000 0.000000 0.000000 0.004269 0.000000 0.013900
# 5 -0.010229 -0.000946 0.004267 0.000000 0.039196 0.000000
# 6 0.000000 0.000000 0.000000 0.013900 0.000000 0.009557
#
#
# Mechanical properties :
#
#
# Convention : Reuss Voigt Hill
#
# Bulk Modulus (GPa) = 38.32609 42.90824 40.61716
# Shear Modulus (GPa) = 44.91915 5.70005 25.30960
#
# Velocity S-wave (km/s) = 4.32471 1.54057 3.24627
# Velocity P-wave (km/s) = 6.39496 4.58588 5.56443
#
# Compressibility (1/GPa) = 0.02609189
#
# Stress axis : x y z
#
# Youngs Moduli (GPa) = 76.64858 95.19174 69.97644
#
# Poissons Ratio (x) = 0.00466 0.43846
# Poissons Ratio (y) = 0.00375 -0.03076
# Poissons Ratio (z) = 0.48026 -0.04185
#
# Static dielectric constant tensor:
#      x y z
#    x 1.901680 0.000000 0.002590 
#    y 0.000000 1.940880 0.000000 
#    z 0.002590 0.000000 1.883700 
# 
# From -- ./inp_files/83580.got.cif
#   From: 2010.05.17/outbox.cif.g08.bks.cpg/sg10_42_cif.got.tgz:83580.got - 2010.06.03 11:33:40.
