data_PCOD9152434
_publ_section_title
;
Structure prediction by ZEFSAII (Michael W. Deem and Ramdas Pophale) SiO2 
 PCOD9152434
Probable space group: P 2/M
;
_chemical_formula_sum "Si O2"
_cell_formula_units_Z 28
_cell_length_a 12.302859
_cell_length_b 14.290297
_cell_length_c 9.959363
_cell_angle_alpha 90.000000
_cell_angle_beta 54.606144
_cell_angle_gamma 90.000000
_cell_volume 1427.373595
_symmetry_space_group_name_H-M "P 2/M"
_symmetry_group_IT_number 10
_symmetry_cell_setting 'monoclinic'
loop_
_space_group_symop_operation_xyz
x,y,z
-x,y,-z
-x,-y,-z
x,-y,z
loop_
_atom_site_type_symbol
_atom_site_label
_atom_site_fract_x
_atom_site_fract_y
_atom_site_fract_z
Si Si1 0.132437 0.111801 0.736653
Si Si2 0.164364 0.887770 0.032075
Si Si3 0.574234 0.773688 0.086041
Si Si4 0.006374 0.387174 0.341762
Si Si5 0.604662 0.790617 0.533362
Si Si6 0.245360 0.389010 0.973689
Si Si7 0.747129 0.389922 0.345569
O O1 0.252917 0.159325 0.573130
O O2 0.981582 0.141354 0.808627
O O3 0.137952 0.000000 0.717118
O O4 0.157081 0.131771 0.877192
O O5 0.176174 0.000000 0.039659
O O6 0.292442 0.836348 0.999194
O O7 0.468839 0.800441 0.274567
O O8 0.624523 0.669072 0.082007
O O9 0.500000 0.780275 0.000000
O O10 0.020263 0.500000 0.342382
O O11 0.000000 0.350722 0.500000
O O12 0.871948 0.371443 0.353911
O O13 0.129364 0.357605 0.159192
O O14 0.500000 0.830358 0.500000
O O15 0.635200 0.683136 0.470498
O O16 0.263407 0.500000 0.975174
O O17 0.214324 0.371813 0.838100
O O18 0.710447 0.500000 0.382520
#
# Coordination Sequence:
#
# PCOD9152434 Si02
#       7
#     4   4   4   4   4   4   4
#     4   9  19  38  69  98 120 152 203 259 304 360
#     4   9  19  40  67  95 123 158 200 249 311 369
#     4  12  27  42  58  90 131 168 204 250 313 372
#     4   9  19  35  57  87 118 157 207 257 308 359
#     4  12  23  40  60  94 124 158 208 254 307 366
#     4  10  21  39  60  85 120 164 214 257 303 360
#     4  10  21  37  60  87 121 162 208 260 306 357
#
# _framework density 19.616447999999998
#
# number of rings (size 3 to 8) (size 9 to 14) (size 15 to 20)
#    0.000    1.857    2.857    1.286    4.000    4.000 
#    0.000    0.714    0.000    1.714    0.000    0.000 
#    0.000    0.000    0.000    0.000    0.000    0.000 
#
# Total GULP energy -156334.561910 kJ/mol
# GULP energy per Si atom -5583.377211 kJ/mol
# Density = 1.957180 g / cm^3
# Si number density = 19.616448 Si / 1000 Ang^3
#
#
#
# Elastic Constant Matrix: (Units=GPa)
#
#
# Indices 1 2 3 4 5 6 
#
# 1 146.1415 53.7629 102.5056 0.0000 -1.3497 0.0000
# 2 53.7629 67.6141 27.0333 0.0000 -8.0705 0.0000
# 3 102.5056 27.0333 115.8864 0.0000 6.9999 0.0000
# 4 0.0000 0.0000 0.0000 24.7504 0.0000 -8.3462
# 5 -1.3497 -8.0705 6.9999 0.0000 35.8726 0.0000
# 6 0.0000 0.0000 0.0000 -8.3462 0.0000 16.8987
#
#
#
# Elastic Compliance Matrix: (Units=1/GPa)
#
#
# Indices 1 2 3 4 5 6 
#
# 1 0.024568 -0.011639 -0.019139 0.000000 0.002041 0.000000
# 2 -0.011639 0.022564 0.004808 0.000000 0.003700 0.000000
# 3 -0.019139 0.004808 0.024706 0.000000 -0.004459 0.000000
# 4 0.000000 0.000000 0.000000 0.048477 0.000000 0.023943
# 5 0.002041 0.003700 -0.004459 0.000000 0.029656 0.000000
# 6 0.000000 0.000000 0.000000 0.023943 0.000000 0.071001
#
#
# Mechanical properties :
#
#
# Convention : Reuss Voigt Hill
#
# Bulk Modulus (GPa) = 50.25768 77.36063 63.80916
# Shear Modulus (GPa) = 17.88615 25.26037 21.57326
#
# Velocity S-wave (km/s) = 3.02287 3.59237 3.31985
# Velocity P-wave (km/s) = 6.15300 7.53187 6.87708
#
# Compressibility (1/GPa) = 0.01989746
#
# Stress axis : x y z
#
# Youngs Moduli (GPa) = 40.70333 44.31852 40.47549
#
# Poissons Ratio (x) = 0.51583 0.77468
# Poissons Ratio (y) = 0.47376 -0.19462
# Poissons Ratio (z) = 0.77904 -0.21309
#
# Static dielectric constant tensor:
#      x y z
#    x 1.661700 0.000000 -0.018230 
#    y 0.000000 1.712500 0.000000 
#    z -0.018230 0.000000 1.671880 
# 
# From -- ./inp_files/25174.got.cif
#   From: 2010.05.17/outbox.cif.g08.bks.cpg/sg10_13_cif.got.tgz:25174.got - 2010.06.03 11:33:40.
