data_PCOD9152614
_publ_section_title
;
Structure prediction by ZEFSAII (Michael W. Deem and Ramdas Pophale) SiO2 
 PCOD9152614
Probable space group: P 2/M
;
_chemical_formula_sum "Si O2"
_cell_formula_units_Z 28
_cell_length_a 18.826132
_cell_length_b 9.324760
_cell_length_c 17.384521
_cell_angle_alpha 90.000000
_cell_angle_beta 156.603140
_cell_angle_gamma 90.000000
_cell_volume 1211.877569
_symmetry_space_group_name_H-M "P 2/M"
_symmetry_group_IT_number 10
_symmetry_cell_setting 'monoclinic'
loop_
_space_group_symop_operation_xyz
x,y,z
-x,y,-z
-x,-y,-z
x,-y,z
loop_
_atom_site_type_symbol
_atom_site_label
_atom_site_fract_x
_atom_site_fract_y
_atom_site_fract_z
Si Si1 0.279676 0.327624 0.916125
Si Si2 0.240223 0.843804 0.097707
Si Si3 0.212887 0.165042 0.694945
Si Si4 0.859350 0.328981 0.531694
Si Si5 0.327619 0.841586 0.358115
Si Si6 0.954906 0.344198 0.862460
Si Si7 0.556891 0.829461 0.305868
O O1 0.309127 0.500000 0.942095
O O2 0.294106 0.252801 0.846925
O O3 0.073766 0.304087 0.740343
O O4 0.418671 0.247042 0.109422
O O5 0.227903 0.859039 0.177568
O O6 0.440829 0.815966 0.268928
O O7 0.185777 0.000000 0.010225
O O8 0.111256 0.708929 0.961532
O O9 0.223696 0.256066 0.627727
O O10 0.000000 0.156411 0.500000
O O11 0.278179 0.000000 0.753062
O O12 0.830911 0.500000 0.503943
O O13 0.745253 0.250952 0.484449
O O14 0.500000 0.755562 0.500000
O O15 0.200836 0.770175 0.291991
O O16 0.379809 0.000000 0.436862
O O17 0.893939 0.500000 0.777488
O O18 0.000000 0.355807 0.000000
O O19 0.578436 0.000000 0.312176
#
# Coordination Sequence:
#
# PCOD9152614 Si02
#       7
#     4   4   4   4   4   4   4
#     4  10  21  38  59  83 114 150 191 234 285 344
#     4   9  19  36  54  75 104 141 180 220 268 323
#     4   9  17  32  57  86 114 144 185 237 287 332
#     4  10  21  38  59  83 114 150 188 233 288 341
#     4   9  17  32  55  80 107 136 174 220 268 321
#     4   9  17  30  51  76 102 133 168 211 261 311
#     4  11  23  38  57  81 113 152 194 237 280 333
#
# _framework density 23.104645000000001
#
# number of rings (size 3 to 8) (size 9 to 14) (size 15 to 20)
#    0.000    2.429    0.000    2.143    0.000    7.143 
#    2.571    2.857    0.000    0.000    0.000    0.000 
#    0.000    0.000    0.000    0.000    0.000    0.000 
#
# Total GULP energy -156213.959348 kJ/mol
# GULP energy per Si atom -5579.069977 kJ/mol
# Density = 2.305206 g / cm^3
# Si number density = 23.104645 Si / 1000 Ang^3
#
#
#
# Elastic Constant Matrix: (Units=GPa)
#
#
# Indices 1 2 3 4 5 6 
#
# 1 107.6545 36.0982 17.3939 0.0000 8.0378 0.0000
# 2 36.0982 130.5257 41.3581 0.0000 25.1777 0.0000
# 3 17.3939 41.3581 65.3262 0.0000 20.7480 0.0000
# 4 0.0000 0.0000 0.0000 24.1650 0.0000 4.4170
# 5 8.0378 25.1777 20.7480 0.0000 42.2799 0.0000
# 6 0.0000 0.0000 0.0000 4.4170 0.0000 11.9170
#
#
#
# Elastic Compliance Matrix: (Units=1/GPa)
#
#
# Indices 1 2 3 4 5 6 
#
# 1 0.010311 -0.002492 -0.001204 0.000000 0.000115 0.000000
# 2 -0.002492 0.010575 -0.004954 0.000000 -0.003392 0.000000
# 3 -0.001204 -0.004954 0.021033 0.000000 -0.007143 0.000000
# 4 0.000000 0.000000 0.000000 0.044390 0.000000 -0.016453
# 5 0.000115 -0.003392 -0.007143 0.000000 0.029155 0.000000
# 6 0.000000 0.000000 0.000000 -0.016453 0.000000 0.090012
#
#
# Mechanical properties :
#
#
# Convention : Reuss Voigt Hill
#
# Bulk Modulus (GPa) = 40.61976 54.80075 47.71025
# Shear Modulus (GPa) = 21.64682 29.58281 25.61481
#
# Velocity S-wave (km/s) = 3.06421 3.58213 3.33324
# Velocity P-wave (km/s) = 5.48982 6.39366 5.95890
#
# Compressibility (1/GPa) = 0.02461856
#
# Stress axis : x y z
#
# Youngs Moduli (GPa) = 96.98770 94.56646 47.54394
#
# Poissons Ratio (x) = 0.23567 0.05724
# Poissons Ratio (y) = 0.24171 0.23552
# Poissons Ratio (z) = 0.11677 0.46846
#
# Static dielectric constant tensor:
#      x y z
#    x 1.952130 0.000000 -0.040050 
#    y 0.000000 1.835970 0.000000 
#    z -0.040050 0.000000 1.894540 
# 
# From -- ./inp_files/90405.got.cif
#   From: 2010.05.17/outbox.cif.g08.bks.cpg/sg10_46_cif.got.tgz:90405.got - 2010.06.03 11:33:40.
