data_PCOD9152155
_publ_section_title
;
Structure prediction by ZEFSAII (Michael W. Deem and Ramdas Pophale) SiO2 
 PCOD9152155
Probable space group: P 2/M
;
_chemical_formula_sum "Si O2"
_cell_formula_units_Z 28
_cell_length_a 10.432005
_cell_length_b 11.500431
_cell_length_c 15.252861
_cell_angle_alpha 90.000000
_cell_angle_beta 59.202073
_cell_angle_gamma 90.000000
_cell_volume 1571.865819
_symmetry_space_group_name_H-M "P 2/M"
_symmetry_group_IT_number 10
_symmetry_cell_setting 'monoclinic'
loop_
_space_group_symop_operation_xyz
x,y,z
-x,y,-z
-x,-y,-z
x,-y,z
loop_
_atom_site_type_symbol
_atom_site_label
_atom_site_fract_x
_atom_site_fract_y
_atom_site_fract_z
Si Si1 0.427519 0.362984 0.430405
Si Si2 0.588180 0.138672 0.881872
Si Si3 0.558033 0.500000 0.121770
Si Si4 0.096145 0.260304 0.210503
Si Si5 0.908899 0.861557 0.122625
Si Si6 0.925335 0.362461 0.432045
Si Si7 0.740127 0.500000 0.878106
Si Si8 0.409787 0.740065 0.790264
O O1 0.500000 0.344745 0.500000
O O2 0.449076 0.500000 0.399442
O O3 0.251047 0.342493 0.498528
O O4 0.504251 0.283822 0.330400
O O5 0.756072 0.185045 0.823892
O O6 0.504349 0.183604 0.825357
O O7 0.587369 0.000000 0.884541
O O8 0.500000 0.181948 0.000000
O O9 0.380701 0.500000 0.159603
O O10 0.602094 0.614478 0.159403
O O11 0.644849 0.500000 0.999926
O O12 0.159113 0.385784 0.159870
O O13 0.999788 0.198958 0.169111
O O14 0.999816 0.284651 0.331105
O O15 0.748856 0.800276 0.169398
O O16 0.892642 0.000000 0.143960
O O17 0.000000 0.847265 0.000000
O O18 0.948229 0.500000 0.402535
O O19 0.000000 0.341512 0.500000
#
# Coordination Sequence:
#
# PCOD9152155 Si02
#       8
#     4   4   2   4   4   4   2   4
#     4  10  21  38  59  85 118 154 199 244 295 366
#     4  11  23  39  62  89 119 164 212 245 289 363
#     4  11  22  35  57  95 130 155 187 249 318 371
#     4  12  22  39  63  89 126 160 198 254 309 359
#     4  11  25  43  62  87 123 168 212 247 290 359
#     4  10  21  36  59  89 120 154 197 244 301 369
#     4  11  22  35  57  94 132 156 185 245 320 379
#     4  12  22  39  65  89 122 160 202 253 303 360
#
# _framework density 17.813224999999999
#
# number of rings (size 3 to 8) (size 9 to 14) (size 15 to 20)
#    0.000    1.000    2.857    5.143    0.000    2.857 
#    0.000    1.429    0.000   17.143    0.000    0.000 
#    0.000    0.000    0.000    0.000    0.000    0.000 
#
# Total GULP energy -156541.348242 kJ/mol
# GULP energy per Si atom -5590.762437 kJ/mol
# Density = 1.777268 g / cm^3
# Si number density = 17.813225 Si / 1000 Ang^3
#
#
#
# Elastic Constant Matrix: (Units=GPa)
#
#
# Indices 1 2 3 4 5 6 
#
# 1 204.3197 82.1611 89.9614 0.0000 -7.9755 0.0000
# 2 82.1611 118.2006 68.8998 0.0000 -3.2422 0.0000
# 3 89.9614 68.8998 152.0851 0.0000 -2.9280 0.0000
# 4 0.0000 0.0000 0.0000 -805.0266 0.0000 5.7764
# 5 -7.9755 -3.2422 -2.9280 0.0000 13.3022 0.0000
# 6 0.0000 0.0000 0.0000 5.7764 0.0000 17.1514
#
#
#
# Elastic Compliance Matrix: (Units=1/GPa)
#
#
# Indices 1 2 3 4 5 6 
#
# 1 0.007737 -0.003614 -0.002879 0.000000 0.003124 0.000000
# 2 -0.003614 0.013221 -0.003848 0.000000 0.000209 0.000000
# 3 -0.002879 -0.003848 0.010013 0.000000 -0.000460 0.000000
# 4 0.000000 0.000000 0.000000 -0.001239 0.000000 0.000417
# 5 0.003124 0.000209 -0.000460 0.000000 0.076998 0.000000
# 6 0.000000 0.000000 0.000000 0.000417 0.000000 0.058164
#
#
# Mechanical properties :
#
#
# Convention : Reuss Voigt Hill
#
# Bulk Modulus (GPa) = 97.19393 106.29442 101.74417
# Shear Modulus (GPa) = 26.45429 -139.34237 -56.44404
#
# Velocity S-wave (km/s) = 3.85787 -8.85403 -5.63519
# Velocity P-wave (km/s) = 8.63281 6.68761 3.86014
#
# Compressibility (1/GPa) = 0.01028871
#
# Stress axis : x y z
#
# Youngs Moduli (GPa) = 129.24381 75.63757 99.87311
#
# Poissons Ratio (x) = 0.27336 0.28756
# Poissons Ratio (y) = 0.46711 0.38428
# Poissons Ratio (z) = 0.37213 0.29103
#
# Static dielectric constant tensor:
#      x y z
#    x 1.616000 0.000000 0.013020 
#    y 0.000000 1.600010 0.000000 
#    z 0.013020 0.000000 1.596650 
# 
# From -- ./inp_files/61151.got.cif
#   From: 2010.05.17/outbox.cif.g08.bks.cpg/sg10_31_cif.got.tgz:61151.got - 2010.06.03 11:33:40.
