data_PCOD9152556
_publ_section_title
;
Structure prediction by ZEFSAII (Michael W. Deem and Ramdas Pophale) SiO2 
 PCOD9152556
Probable space group: P 2/M
;
_chemical_formula_sum "Si O2"
_cell_formula_units_Z 28
_cell_length_a 7.674647
_cell_length_b 16.683390
_cell_length_c 10.834037
_cell_angle_alpha 90.000000
_cell_angle_beta 70.349389
_cell_angle_gamma 90.000000
_cell_volume 1306.392329
_symmetry_space_group_name_H-M "P 2/M"
_symmetry_group_IT_number 10
_symmetry_cell_setting 'monoclinic'
loop_
_space_group_symop_operation_xyz
x,y,z
-x,y,-z
-x,-y,-z
x,-y,z
loop_
_atom_site_type_symbol
_atom_site_label
_atom_site_fract_x
_atom_site_fract_y
_atom_site_fract_z
Si Si1 0.204796 0.747017 0.746020
Si Si2 0.230482 0.913729 0.690510
Si Si3 0.221112 0.744343 0.458761
Si Si4 0.324131 0.912080 0.381932
Si Si5 0.656038 0.415797 0.687980
Si Si6 0.365901 0.341674 0.919241
Si Si7 0.048247 0.590762 0.163341
O O1 0.126153 0.837365 0.772049
O O2 0.280597 0.753207 0.588144
O O3 0.329454 0.732109 0.836321
O O4 0.084921 0.665833 0.778659
O O5 0.230928 0.915028 0.540943
O O6 0.452055 0.909069 0.665274
O O7 0.161882 0.000000 0.750696
O O8 0.265291 0.821559 0.362076
O O9 0.320674 0.663911 0.394079
O O10 0.000000 0.733211 0.500000
O O11 0.276611 0.000000 0.335944
O O12 0.660207 0.500000 0.617016
O O13 0.471131 0.407097 0.811947
O O14 0.821656 0.414937 0.747242
O O15 0.500000 0.319476 0.000000
O O16 0.182921 0.380622 0.020833
O O17 0.974513 0.500000 0.161128
#
# Coordination Sequence:
#
# PCOD9152556 Si02
#       7
#     4   4   4   4   4   4   4
#     4  11  21  35  58  87 114 147 181 224 284 337
#     4   8  15  30  53  80 110 145 182 222 271 326
#     4  11  21  34  53  84 121 150 177 218 282 348
#     4   8  15  29  50  77 111 149 185 220 262 320
#     4  10  21  38  57  79 114 154 185 225 278 331
#     4  10  22  39  59  80 104 143 198 246 272 306
#     4  10  21  38  59  81 109 147 193 237 275 318
#
# _framework density 21.433073
#
# number of rings (size 3 to 8) (size 9 to 14) (size 15 to 20)
#    0.000    2.286    1.429    2.571    0.000    6.286 
#    0.000    0.714    0.000    2.143    0.000    2.000 
#    0.000    0.000    0.000    0.000    0.000    0.000 
#
# Total GULP energy -155911.901767 kJ/mol
# GULP energy per Si atom -5568.282206 kJ/mol
# Density = 2.138429 g / cm^3
# Si number density = 21.433073 Si / 1000 Ang^3
#
#
#
# Elastic Constant Matrix: (Units=GPa)
#
#
# Indices 1 2 3 4 5 6 
#
# 1 34.7608 19.1495 9.2460 0.0000 0.0527 0.0000
# 2 19.1495 215.1952 45.6423 0.0000 -1.2846 0.0000
# 3 9.2460 45.6423 35.3402 0.0000 7.5137 0.0000
# 4 0.0000 0.0000 0.0000 -30.9290 0.0000 -32.2580
# 5 0.0527 -1.2846 7.5137 0.0000 19.9967 0.0000
# 6 0.0000 0.0000 0.0000 -32.2580 0.0000 -1.7744
#
#
#
# Elastic Compliance Matrix: (Units=1/GPa)
#
#
# Indices 1 2 3 4 5 6 
#
# 1 0.031351 -0.001270 -0.007093 0.000000 0.002501 0.000000
# 2 -0.001270 0.006732 -0.009189 0.000000 0.003889 0.000000
# 3 -0.007093 -0.009189 0.045800 0.000000 -0.017781 0.000000
# 4 0.000000 0.000000 0.000000 0.001800 0.000000 -0.032726
# 5 0.002501 0.003889 -0.017781 0.000000 0.056933 0.000000
# 6 0.000000 0.000000 0.000000 -0.032726 0.000000 0.031378
#
#
# Mechanical properties :
#
#
# Convention : Reuss Voigt Hill
#
# Bulk Modulus (GPa) = 20.50104 48.15240 34.32672
# Shear Modulus (GPa) = 22.18683 11.54255 16.86469
#
# Velocity S-wave (km/s) = 3.22089 2.32316 2.80813
# Velocity P-wave (km/s) = 4.83923 5.45081 5.15410
#
# Compressibility (1/GPa) = 0.04877802
#
# Stress axis : x y z
#
# Youngs Moduli (GPa) = 31.89714 148.54003 21.83383
#
# Poissons Ratio (x) = 0.18871 0.15487
# Poissons Ratio (y) = 0.04052 0.20063
# Poissons Ratio (z) = 0.22625 1.36495
#
# Static dielectric constant tensor:
#      x y z
#    x 1.866810 0.000000 0.018640 
#    y 0.000000 1.884720 0.000000 
#    z 0.018640 0.000000 1.768690 
# 
# From -- ./inp_files/24943.got.cif
#   From: 2010.05.17/outbox.cif.g08.bks.cpg/sg10_13_cif.got.tgz:24943.got - 2010.06.03 11:33:40.
