data_PCOD9152764
_publ_section_title
;
Structure prediction by ZEFSAII (Michael W. Deem and Ramdas Pophale) SiO2 
 PCOD9152764
Probable space group: P 2/M
;
_chemical_formula_sum "Si O2"
_cell_formula_units_Z 28
_cell_length_a 10.183417
_cell_length_b 13.191209
_cell_length_c 9.781411
_cell_angle_alpha 90.000000
_cell_angle_beta 61.627590
_cell_angle_gamma 90.000000
_cell_volume 1156.117166
_symmetry_space_group_name_H-M "P 2/M"
_symmetry_group_IT_number 10
_symmetry_cell_setting 'monoclinic'
loop_
_space_group_symop_operation_xyz
x,y,z
-x,y,-z
-x,-y,-z
x,-y,z
loop_
_atom_site_type_symbol
_atom_site_label
_atom_site_fract_x
_atom_site_fract_y
_atom_site_fract_z
Si Si1 0.682829 0.591555 0.330929
Si Si2 0.325807 0.112579 0.041471
Si Si3 0.841074 0.613545 0.657720
Si Si4 0.603134 0.802905 0.265030
Si Si5 0.270014 0.174962 0.362758
Si Si6 0.998996 0.320318 0.841041
Si Si7 0.123831 0.113859 0.704606
O O1 0.641502 0.500000 0.456993
O O2 0.593225 0.688610 0.328165
O O3 0.843196 0.634598 0.289728
O O4 0.742119 0.703899 0.646930
O O5 0.244114 0.131092 0.224797
O O6 0.292008 0.000000 0.003942
O O7 0.500000 0.114138 0.000000
O O8 0.318271 0.193038 0.922727
O O9 0.783412 0.500000 0.674646
O O10 0.000000 0.619588 0.500000
O O11 0.875653 0.637971 0.799911
O O12 0.438414 0.848097 0.329635
O O13 0.714581 0.864835 0.306113
O O14 0.303692 0.500000 0.786886
O O15 0.153245 0.134941 0.530392
O O16 0.015766 0.199377 0.817475
O O17 0.000000 0.346709 0.000000
O O18 0.075357 0.000000 0.754264
#
# Coordination Sequence:
#
# PCOD9152764 Si02
#       7
#     4   4   4   4   4   4   4
#     4  10  22  40  67  98 131 171 222 284 347 400
#     4   9  19  36  59  88 127 173 214 266 336 403
#     4  11  25  45  69  94 130 181 231 279 343 416
#     4  10  21  38  61  97 135 171 222 283 345 408
#     4  11  22  40  64  96 135 177 226 284 342 409
#     4  11  25  47  70 100 140 181 229 288 344 414
#     4  11  23  41  67  98 132 177 233 284 340 409
#
# _framework density 24.218997999999999
#
# number of rings (size 3 to 8) (size 9 to 14) (size 15 to 20)
#    0.000    1.571    1.429    3.429    4.000    4.286 
#    0.000    2.143    0.000    2.571    0.000    0.000 
#    0.000    0.000    0.000    0.000    0.000    0.000 
#
# Total GULP energy -156344.570887 kJ/mol
# GULP energy per Si atom -5583.734675 kJ/mol
# Density = 2.416387 g / cm^3
# Si number density = 24.218998 Si / 1000 Ang^3
#
#
#
# Elastic Constant Matrix: (Units=GPa)
#
#
# Indices 1 2 3 4 5 6 
#
# 1 72.2639 -0.3240 16.8746 0.0000 10.2646 0.0000
# 2 -0.3240 136.2299 11.5328 0.0000 11.4028 0.0000
# 3 16.8746 11.5328 125.7513 0.0000 24.3254 0.0000
# 4 0.0000 0.0000 0.0000 2.8723 0.0000 -2.6450
# 5 10.2646 11.4028 24.3254 0.0000 26.7077 0.0000
# 6 0.0000 0.0000 0.0000 -2.6450 0.0000 10.3928
#
#
#
# Elastic Compliance Matrix: (Units=1/GPa)
#
#
# Indices 1 2 3 4 5 6 
#
# 1 0.014793 0.000539 -0.001081 0.000000 -0.004932 0.000000
# 2 0.000539 0.007633 -0.000124 0.000000 -0.003354 0.000000
# 3 -0.001081 -0.000124 0.009733 0.000000 -0.008397 0.000000
# 4 0.000000 0.000000 0.000000 0.454710 0.000000 0.115724
# 5 -0.004932 -0.003354 -0.008397 0.000000 0.048417 0.000000
# 6 0.000000 0.000000 0.000000 0.115724 0.000000 0.125672
#
#
# Mechanical properties :
#
#
# Convention : Reuss Voigt Hill
#
# Bulk Modulus (GPa) = 32.43652 43.37911 37.90782
# Shear Modulus (GPa) = 7.43423 28.40534 17.91978
#
# Velocity S-wave (km/s) = 1.75392 3.42841 2.72307
# Velocity P-wave (km/s) = 4.18614 5.79845 5.05697
#
# Compressibility (1/GPa) = 0.03082945
#
# Stress axis : x y z
#
# Youngs Moduli (GPa) = 67.59752 131.01029 102.74547
#
# Poissons Ratio (x) = -0.07067 0.11103
# Poissons Ratio (y) = -0.03647 0.01271
# Poissons Ratio (z) = 0.07305 0.01621
#
# Static dielectric constant tensor:
#      x y z
#    x 1.948340 0.000000 -0.040460 
#    y 0.000000 1.879090 0.000000 
#    z -0.040460 0.000000 2.000680 
# 
# From -- ./inp_files/28502.got.cif
#   From: 2010.05.17/outbox.cif.g08.bks.cpg/sg10_15_cif.got.tgz:28502.got - 2010.06.03 11:33:40.
