data_PCOD9152402
_publ_section_title
;
Structure prediction by ZEFSAII (Michael W. Deem and Ramdas Pophale) SiO2 
 PCOD9152402
Probable space group: P 2/M
;
_chemical_formula_sum "Si O2"
_cell_formula_units_Z 32
_cell_length_a 5.456499
_cell_length_b 9.394281
_cell_length_c 31.598959
_cell_angle_alpha 90.000000
_cell_angle_beta 84.657926
_cell_angle_gamma 90.000000
_cell_volume 1612.723738
_symmetry_space_group_name_H-M "P 2/M"
_symmetry_group_IT_number 10
_symmetry_cell_setting 'monoclinic'
loop_
_space_group_symop_operation_xyz
x,y,z
-x,y,-z
-x,-y,-z
x,-y,z
loop_
_atom_site_type_symbol
_atom_site_label
_atom_site_fract_x
_atom_site_fract_y
_atom_site_fract_z
Si Si1 0.358760 0.831026 0.833553
Si Si2 0.173657 0.168678 0.114245
Si Si3 0.196095 0.657750 0.756670
Si Si4 0.407256 0.652481 0.323516
Si Si5 0.236632 0.328644 0.025016
Si Si6 0.232453 0.663433 0.613352
Si Si7 0.235358 0.830091 0.525886
Si Si8 0.973759 0.838084 0.693339
O O1 0.603879 0.797155 0.856677
O O2 0.333830 0.732940 0.792851
O O3 0.100825 0.807234 0.862819
O O4 0.368792 0.000000 0.822665
O O5 0.210234 0.256265 0.070908
O O6 0.194141 0.000000 0.104969
O O7 0.102408 0.500000 0.769792
O O8 0.376036 0.640308 0.713919
O O9 0.000705 0.764305 0.738737
O O10 0.265916 0.500000 0.319251
O O11 0.496083 0.655371 0.370312
O O12 0.305240 0.807396 0.314335
O O13 0.234547 0.500000 0.029535
O O14 0.500000 0.289009 0.000000
O O15 0.000000 0.289329 0.000000
O O16 0.148184 0.500000 0.610591
O O17 0.218490 0.744225 0.569690
O O18 0.093779 0.750796 0.652434
O O19 0.500000 0.799305 0.500000
O O20 0.000000 0.796723 0.500000
O O21 0.227933 0.000000 0.534467
O O22 0.050868 0.000000 0.692990
#
# Coordination Sequence:
#
# PCOD9152402 Si02
#       8
#     4   4   4   4   4   4   4   4
#     4  10  22  39  58  85 121 159 201 247 297 357
#     4  10  22  39  59  86 120 157 200 247 297 360
#     4  10  22  39  58  84 116 155 203 251 299 357
#     4   9  20  38  58  84 117 151 195 249 299 354
#     4  10  21  37  59  87 118 151 194 248 301 358
#     4  10  22  40  61  87 119 155 199 250 301 358
#     4  10  23  42  63  91 126 162 202 247 300 365
#     4  11  22  36  60  88 117 154 197 247 304 360
#
# _framework density 19.842210000000001
#
# number of rings (size 3 to 8) (size 9 to 14) (size 15 to 20)
#    0.000    2.000    0.000    3.375    3.500    5.000 
#    0.000    0.000    0.000    0.000    0.000    0.000 
#    0.000    0.000    0.000    0.000    0.000    0.000 
#
# Total GULP energy -178251.496753 kJ/mol
# GULP energy per Si atom -5570.359274 kJ/mol
# Density = 1.979705 g / cm^3
# Si number density = 19.842210 Si / 1000 Ang^3
#
#
#
# Elastic Constant Matrix: (Units=GPa)
#
#
# Indices 1 2 3 4 5 6 
#
# 1 81.9502 23.4782 30.5958 0.0000 17.0061 0.0000
# 2 23.4782 76.4273 50.6761 0.0000 16.8545 0.0000
# 3 30.5958 50.6761 111.0425 0.0000 29.2748 0.0000
# 4 0.0000 0.0000 0.0000 125.3024 0.0000 7.3747
# 5 17.0061 16.8545 29.2748 0.0000 25.7837 0.0000
# 6 0.0000 0.0000 0.0000 7.3747 0.0000 16.5218
#
#
#
# Elastic Compliance Matrix: (Units=1/GPa)
#
#
# Indices 1 2 3 4 5 6 
#
# 1 0.014718 -0.002178 -0.001252 0.000000 -0.006862 0.000000
# 2 -0.002178 0.019325 -0.007518 0.000000 -0.002660 0.000000
# 3 -0.001252 -0.007518 0.016082 0.000000 -0.012519 0.000000
# 4 0.000000 0.000000 0.000000 0.008196 0.000000 -0.003658
# 5 -0.006862 -0.002660 -0.012519 0.000000 0.059264 0.000000
# 6 0.000000 0.000000 0.000000 -0.003658 0.000000 0.062159
#
#
# Mechanical properties :
#
#
# Convention : Reuss Voigt Hill
#
# Bulk Modulus (GPa) = 35.42438 53.21335 44.31887
# Shear Modulus (GPa) = 23.69124 44.49959 34.09542
#
# Velocity S-wave (km/s) = 3.45915 4.74082 4.14977
# Velocity P-wave (km/s) = 5.81774 7.53948 6.73386
#
# Compressibility (1/GPa) = 0.02822914
#
# Stress axis : x y z
#
# Youngs Moduli (GPa) = 67.94414 51.74716 62.18129
#
# Poissons Ratio (x) = 0.11268 0.07788
# Poissons Ratio (y) = 0.14796 0.46746
# Poissons Ratio (z) = 0.08509 0.38902
#
# Static dielectric constant tensor:
#      x y z
#    x 1.842290 0.000000 0.009540 
#    y 0.000000 1.750550 0.000000 
#    z 0.009540 0.000000 1.648040 
# 
# From -- ./inp_files/94342.got.cif
#   From: 2010.05.17/outbox.cif.g08.bks.cpg/sg10_48_cif.got.tgz:94342.got - 2010.06.03 11:33:40.
