data_PCOD9152417
_publ_section_title
;
Structure prediction by ZEFSAII (Michael W. Deem and Ramdas Pophale) SiO2 
 PCOD9152417
Probable space group: P 2/M
;
_chemical_formula_sum "Si O2"
_cell_formula_units_Z 28
_cell_length_a 12.756747
_cell_length_b 9.042480
_cell_length_c 14.642032
_cell_angle_alpha 90.000000
_cell_angle_beta 57.516630
_cell_angle_gamma 90.000000
_cell_volume 1424.748872
_symmetry_space_group_name_H-M "P 2/M"
_symmetry_group_IT_number 10
_symmetry_cell_setting 'monoclinic'
loop_
_space_group_symop_operation_xyz
x,y,z
-x,y,-z
-x,-y,-z
x,-y,z
loop_
_atom_site_type_symbol
_atom_site_label
_atom_site_fract_x
_atom_site_fract_y
_atom_site_fract_z
Si Si1 0.562003 0.825857 0.568520
Si Si2 0.902496 0.324756 0.127424
Si Si3 0.509527 0.673987 0.886924
Si Si4 0.023536 0.676033 0.263751
Si Si5 0.230156 0.175853 0.277946
Si Si6 0.651574 0.825674 0.180432
Si Si7 0.188034 0.674605 0.486018
O O1 0.500000 0.794268 0.500000
O O2 0.458622 0.803213 0.694510
O O3 0.681978 0.727532 0.531629
O O4 0.598195 0.000000 0.553206
O O5 0.872722 0.500000 0.147550
O O6 0.965633 0.281072 0.193547
O O7 0.778236 0.236354 0.162918
O O8 0.000000 0.304341 0.000000
O O9 0.521361 0.500000 0.860974
O O10 0.631739 0.758584 0.795150
O O11 0.390855 0.739624 0.890218
O O12 0.500000 0.692688 0.000000
O O13 0.051353 0.500000 0.248169
O O14 0.920586 0.701386 0.390258
O O15 0.145953 0.763858 0.235013
O O16 0.172807 0.237296 0.399044
O O17 0.234708 0.000000 0.277160
O O18 0.661956 0.000000 0.157346
O O19 0.190914 0.500000 0.464234
#
# Coordination Sequence:
#
# PCOD9152417 Si02
#       7
#     4   4   4   4   4   4   4
#     4  10  21  37  59  89 127 167 204 252 314 375
#     4  10  23  43  66  91 123 167 215 261 310 368
#     4  11  25  44  68  94 124 166 211 257 312 374
#     4  10  23  42  63  91 127 168 216 263 310 370
#     4  12  25  41  64  95 129 165 206 259 322 378
#     4  11  23  40  64  95 130 164 203 257 313 369
#     4  11  22  38  62  91 124 166 213 260 310 374
#
# _framework density 19.652585999999999
#
# number of rings (size 3 to 8) (size 9 to 14) (size 15 to 20)
#    0.000    1.286    1.429    3.857    2.000    5.714 
#    0.000    0.000    0.000    0.000    0.000    0.000 
#    0.000    0.000    0.000    0.000    0.000    0.000 
#
# Total GULP energy -156664.649143 kJ/mol
# GULP energy per Si atom -5595.166041 kJ/mol
# Density = 1.960786 g / cm^3
# Si number density = 19.652586 Si / 1000 Ang^3
#
#
#
# Elastic Constant Matrix: (Units=GPa)
#
#
# Indices 1 2 3 4 5 6 
#
# 1 130.3194 55.6852 31.2814 0.0000 21.4773 0.0000
# 2 55.6852 78.0455 42.1457 0.0000 10.4502 0.0000
# 3 31.2814 42.1457 51.0007 0.0000 20.1609 0.0000
# 4 0.0000 0.0000 0.0000 10.7218 0.0000 8.1168
# 5 21.4773 10.4502 20.1609 0.0000 31.1185 0.0000
# 6 0.0000 0.0000 0.0000 8.1168 0.0000 70.7252
#
#
#
# Elastic Compliance Matrix: (Units=1/GPa)
#
#
# Indices 1 2 3 4 5 6 
#
# 1 0.012126 -0.009420 0.003233 0.000000 -0.007300 0.000000
# 2 -0.009420 0.031385 -0.024952 0.000000 0.012127 0.000000
# 3 0.003233 -0.024952 0.048144 0.000000 -0.025043 0.000000
# 4 0.000000 0.000000 0.000000 0.102142 0.000000 -0.011722
# 5 -0.007300 0.012127 -0.025043 0.000000 0.049326 0.000000
# 6 0.000000 0.000000 0.000000 -0.011722 0.000000 0.015485
#
#
# Mechanical properties :
#
#
# Convention : Reuss Voigt Hill
#
# Bulk Modulus (GPa) = 34.04098 57.51002 45.77550
# Shear Modulus (GPa) = 15.12053 31.19666 23.15859
#
# Velocity S-wave (km/s) = 2.77680 3.98855 3.43651
# Velocity P-wave (km/s) = 5.25736 7.10903 6.25212
#
# Compressibility (1/GPa) = 0.02937636
#
# Stress axis : x y z
#
# Youngs Moduli (GPa) = 82.46995 31.86276 20.77102
#
# Poissons Ratio (x) = 0.30014 -0.06715
# Poissons Ratio (y) = 0.77686 0.51827
# Poissons Ratio (z) = -0.26660 0.79503
#
# Static dielectric constant tensor:
#      x y z
#    x 1.668450 0.000000 0.014360 
#    y 0.000000 1.656160 0.000000 
#    z 0.014360 0.000000 1.674680 
# 
# From -- ./inp_files/63662.got.cif
#   From: 2010.05.17/outbox.cif.g08.bks.cpg/sg10_32_cif.got.tgz:63662.got - 2010.06.03 11:33:40.
