data_PCOD9152878
_publ_section_title
;
Structure prediction by ZEFSAII (Michael W. Deem and Ramdas Pophale) SiO2 
 PCOD9152878
Probable space group: P 2/M
;
_chemical_formula_sum "Si O2"
_cell_formula_units_Z 28
_cell_length_a 12.095106
_cell_length_b 13.698372
_cell_length_c 9.177935
_cell_angle_alpha 90.000000
_cell_angle_beta 70.677556
_cell_angle_gamma 90.000000
_cell_volume 1434.975247
_symmetry_space_group_name_H-M "P 2/M"
_symmetry_group_IT_number 10
_symmetry_cell_setting 'monoclinic'
loop_
_space_group_symop_operation_xyz
x,y,z
-x,y,-z
-x,-y,-z
x,-y,z
loop_
_atom_site_type_symbol
_atom_site_label
_atom_site_fract_x
_atom_site_fract_y
_atom_site_fract_z
Si Si1 0.331966 0.257278 0.379167
Si Si2 0.874397 0.884654 0.634978
Si Si3 0.695396 0.612619 0.870031
Si Si4 0.738503 0.771161 0.268509
Si Si5 0.129989 0.386851 0.963228
Si Si6 0.026462 0.887652 0.819129
Si Si7 0.564774 0.213109 0.104607
O O1 0.234326 0.178350 0.371438
O O2 0.299790 0.354147 0.299887
O O3 0.329972 0.254617 0.554280
O O4 0.460591 0.234734 0.262401
O O5 0.000000 0.868376 0.500000
O O6 0.910689 0.855389 0.783230
O O7 0.846590 0.000000 0.637642
O O8 0.654918 0.500000 0.902770
O O9 0.821375 0.618790 0.894155
O O10 0.617895 0.691668 0.995498
O O11 0.782973 0.671477 0.177207
O O12 0.854813 0.830070 0.261745
O O13 0.667091 0.824026 0.168242
O O14 0.128240 0.500000 0.921505
O O15 0.000000 0.346104 0.000000
O O16 0.046298 0.000000 0.764951
O O17 0.000000 0.884761 0.000000
O O18 0.500000 0.155640 0.000000
#
# Coordination Sequence:
#
# PCOD9152878 Si02
#       7
#     4   4   4   4   4   4   4
#     4  11  22  34  58  86 113 147 190 232 284 333
#     4  10  21  39  59  84 118 150 184 228 286 346
#     4   9  20  38  59  82 113 153 194 234 280 337
#     4  11  21  35  58  82 115 146 184 236 284 330
#     4   9  19  35  54  78 111 152 188 225 280 337
#     4  10  22  37  59  87 112 145 191 234 275 335
#     4   9  21  38  57  79 109 149 190 230 277 335
#
# _framework density 19.512530999999999
#
# number of rings (size 3 to 8) (size 9 to 14) (size 15 to 20)
#    0.000    2.143    1.429    0.857    8.000    3.143 
#    0.000    0.714    0.000   15.857    0.000    0.000 
#    0.000    0.000    0.000    0.000    0.000    0.000 
#
# Total GULP energy -155934.856023 kJ/mol
# GULP energy per Si atom -5569.102001 kJ/mol
# Density = 1.946812 g / cm^3
# Si number density = 19.512531 Si / 1000 Ang^3
#
#
#
# Elastic Constant Matrix: (Units=GPa)
#
#
# Indices 1 2 3 4 5 6 
#
# 1 93.2234 6.7413 11.5493 0.0000 16.3061 0.0000
# 2 6.7413 44.5035 -4.2396 0.0000 -0.8495 0.0000
# 3 11.5493 -4.2396 92.6904 0.0000 15.5590 0.0000
# 4 0.0000 0.0000 0.0000 11.1708 0.0000 4.5588
# 5 16.3061 -0.8495 15.5590 0.0000 33.1293 0.0000
# 6 0.0000 0.0000 0.0000 4.5588 0.0000 10.5619
#
#
#
# Elastic Compliance Matrix: (Units=1/GPa)
#
#
# Indices 1 2 3 4 5 6 
#
# 1 0.011932 -0.001975 -0.000633 0.000000 -0.005627 0.000000
# 2 -0.001975 0.022896 0.001120 0.000000 0.001033 0.000000
# 3 -0.000633 0.001120 0.011791 0.000000 -0.005198 0.000000
# 4 0.000000 0.000000 0.000000 0.108659 0.000000 -0.046900
# 5 -0.005627 0.001033 -0.005198 0.000000 0.035422 0.000000
# 6 0.000000 0.000000 0.000000 -0.046900 0.000000 0.114923
#
#
# Mechanical properties :
#
#
# Convention : Reuss Voigt Hill
#
# Bulk Modulus (GPa) = 22.91300 28.72436 25.81868
# Shear Modulus (GPa) = 15.47286 25.39683 20.43485
#
# Velocity S-wave (km/s) = 2.81903 3.61163 3.23966
# Velocity P-wave (km/s) = 4.72907 5.66964 5.22058
#
# Compressibility (1/GPa) = 0.04364335
#
# Stress axis : x y z
#
# Youngs Moduli (GPa) = 83.80619 43.67624 84.80965
#
# Poissons Ratio (x) = 0.08627 0.05365
# Poissons Ratio (y) = 0.16553 -0.09498
# Poissons Ratio (z) = 0.05302 -0.04891
#
# Static dielectric constant tensor:
#      x y z
#    x 1.744370 0.000000 0.043710 
#    y 0.000000 1.686750 0.000000 
#    z 0.043710 0.000000 1.710260 
# 
# From -- ./inp_files/25167.got.cif
#   From: 2010.05.17/outbox.cif.g08.bks.cpg/sg10_13_cif.got.tgz:25167.got - 2010.06.03 11:33:40.
