data_PCOD9152963
_publ_section_title
;
Structure prediction by ZEFSAII (Michael W. Deem and Ramdas Pophale) SiO2 
 PCOD9152963
Probable space group: P 2/M
;
_chemical_formula_sum "Si O2"
_cell_formula_units_Z 28
_cell_length_a 15.093613
_cell_length_b 7.903890
_cell_length_c 12.831523
_cell_angle_alpha 90.000000
_cell_angle_beta 57.858020
_cell_angle_gamma 90.000000
_cell_volume 1296.159521
_symmetry_space_group_name_H-M "P 2/M"
_symmetry_group_IT_number 10
_symmetry_cell_setting 'monoclinic'
loop_
_space_group_symop_operation_xyz
x,y,z
-x,y,-z
-x,-y,-z
x,-y,z
loop_
_atom_site_type_symbol
_atom_site_label
_atom_site_fract_x
_atom_site_fract_y
_atom_site_fract_z
Si Si1 0.105491 0.706905 0.489576
Si Si2 0.738185 0.803540 0.982796
Si Si3 0.119855 0.204662 0.915925
Si Si4 0.796092 0.701478 0.362944
Si Si5 0.506721 0.695312 0.170911
Si Si6 0.436773 0.802140 0.438429
Si Si7 0.291171 0.698560 0.227193
O O1 0.104351 0.500000 0.485431
O O2 0.120454 0.754196 0.600735
O O3 0.207084 0.767272 0.361721
O O4 0.000000 0.766270 0.500000
O O5 0.809966 0.734130 0.031044
O O6 0.616615 0.787215 0.089752
O O7 0.764524 0.000000 0.952037
O O8 0.750302 0.717513 0.863351
O O9 0.167836 0.256357 0.775476
O O10 0.120761 0.000000 0.918577
O O11 0.000000 0.262505 0.000000
O O12 0.781953 0.500000 0.380525
O O13 0.685357 0.783499 0.460606
O O14 0.525859 0.500000 0.127722
O O15 0.468986 0.705611 0.313975
O O16 0.408687 0.768359 0.166874
O O17 0.500000 0.741212 0.500000
O O18 0.462749 0.000000 0.405776
O O19 0.302546 0.500000 0.244670
#
# Coordination Sequence:
#
# PCOD9152963 Si02
#       7
#     4   4   4   4   4   4   4
#     4   9  19  37  61  90 123 156 191 244 305 356
#     4  11  24  40  60  88 121 159 205 248 297 359
#     4  10  24  45  63  83 121 165 201 247 304 356
#     4  11  22  39  64  94 121 152 201 251 298 354
#     4  11  22  39  61  89 122 157 199 246 301 357
#     4  11  23  38  59  87 122 163 200 240 297 357
#     4  10  21  39  62  89 123 159 196 243 303 358
#
# _framework density 21.602278999999999
#
# number of rings (size 3 to 8) (size 9 to 14) (size 15 to 20)
#    0.000    1.571    1.429    3.000    2.000    8.857 
#    0.000    0.000    0.000    2.143    0.000    0.000 
#    0.000    0.000    0.000    0.000    0.000    0.000 
#
# Total GULP energy -156557.497945 kJ/mol
# GULP energy per Si atom -5591.339212 kJ/mol
# Density = 2.155311 g / cm^3
# Si number density = 21.602279 Si / 1000 Ang^3
#
#
#
# Elastic Constant Matrix: (Units=GPa)
#
#
# Indices 1 2 3 4 5 6 
#
# 1 148.1021 0.9675 23.6155 0.0000 27.3310 0.0000
# 2 0.9675 26.8263 -10.2218 0.0000 0.8781 0.0000
# 3 23.6155 -10.2218 74.0931 0.0000 21.7305 0.0000
# 4 0.0000 0.0000 0.0000 10.9328 0.0000 34.2580
# 5 27.3310 0.8781 21.7305 0.0000 38.4808 0.0000
# 6 0.0000 0.0000 0.0000 34.2580 0.0000 -6.0404
#
#
#
# Elastic Compliance Matrix: (Units=1/GPa)
#
#
# Indices 1 2 3 4 5 6 
#
# 1 0.007844 -0.000554 -0.001134 0.000000 -0.004918 0.000000
# 2 -0.000554 0.040122 0.007029 0.000000 -0.004491 0.000000
# 3 -0.001134 0.007029 0.017544 0.000000 -0.009262 0.000000
# 4 0.000000 0.000000 0.000000 0.004873 0.000000 0.027635
# 5 -0.004918 -0.004491 -0.009262 0.000000 0.034813 0.000000
# 6 0.000000 0.000000 0.000000 0.027635 0.000000 -0.008819
#
#
# Mechanical properties :
#
#
# Convention : Reuss Voigt Hill
#
# Bulk Modulus (GPa) = 13.12468 30.86045 21.99256
# Shear Modulus (GPa) = 45.00741 24.31867 34.66304
#
# Velocity S-wave (km/s) = 4.56944 3.35885 4.01009
# Velocity P-wave (km/s) = 5.82482 5.41842 5.62529
#
# Compressibility (1/GPa) = 0.07619234
#
# Stress axis : x y z
#
# Youngs Moduli (GPa) = 127.48309 24.92388 56.99876
#
# Poissons Ratio (x) = 0.01381 0.06464
# Poissons Ratio (y) = 0.07063 -0.40065
# Poissons Ratio (z) = 0.14458 -0.17519
#
# Static dielectric constant tensor:
#      x y z
#    x 1.789970 0.000000 0.008670 
#    y 0.000000 1.796750 0.000000 
#    z 0.008670 0.000000 1.735800 
# 
# From -- ./inp_files/49542.got.cif
#   From: 2010.05.17/outbox.cif.g08.bks.cpg/sg10_25_cif.got.tgz:49542.got - 2010.06.03 11:33:40.
