data_PCOD9152353
_publ_section_title
;
Structure prediction by ZEFSAII (Michael W. Deem and Ramdas Pophale) SiO2 
 PCOD9152353
Probable space group: P 2/M
;
_chemical_formula_sum "Si O2"
_cell_formula_units_Z 32
_cell_length_a 9.190550
_cell_length_b 13.788999
_cell_length_c 14.692923
_cell_angle_alpha 90.000000
_cell_angle_beta 96.476778
_cell_angle_gamma 90.000000
_cell_volume 1850.127867
_symmetry_space_group_name_H-M "P 2/M"
_symmetry_group_IT_number 10
_symmetry_cell_setting 'monoclinic'
loop_
_space_group_symop_operation_xyz
x,y,z
-x,y,-z
-x,-y,-z
x,-y,z
loop_
_atom_site_type_symbol
_atom_site_label
_atom_site_fract_x
_atom_site_fract_y
_atom_site_fract_z
Si Si1 0.426088 0.266880 0.592197
Si Si2 0.983898 0.614140 0.765982
Si Si3 0.632995 0.386166 0.939476
Si Si4 0.874128 0.733085 0.059066
Si Si5 0.374149 0.112505 0.917852
Si Si6 0.130677 0.386195 0.579241
Si Si7 0.338705 0.697799 0.253417
Si Si8 0.479112 0.111975 0.270265
O O1 0.500000 0.253056 0.500000
O O2 0.271514 0.319482 0.574512
O O3 0.539221 0.328647 0.663011
O O4 0.421418 0.164780 0.646428
O O5 0.984217 0.500000 0.790790
O O6 0.056389 0.678361 0.849999
O O7 0.071051 0.624987 0.677687
O O8 0.817437 0.650070 0.741109
O O9 0.649364 0.500000 0.923103
O O10 0.607115 0.333610 0.842172
O O11 0.500000 0.372230 0.000000
O O12 0.777986 0.343550 0.995172
O O13 0.763254 0.817334 0.080706
O O14 0.000000 0.769720 0.000000
O O15 0.441633 0.118800 0.821685
O O16 0.334413 0.000000 0.932000
O O17 0.500000 0.138565 0.000000
O O18 0.168377 0.500000 0.568205
O O19 0.000000 0.362690 0.500000
O O20 0.339492 0.815530 0.256716
O O21 0.447393 0.000000 0.287191
#
# Coordination Sequence:
#
# PCOD9152353 Si02
#       8
#     4   4   4   4   4   4   4   4
#     4  10  22  39  63  90 114 150 192 245 293 344
#     4  11  23  38  56  82 121 159 193 235 289 347
#     4  11  23  37  56  83 120 159 202 246 285 345
#     4  12  23  35  56  85 121 158 196 239 295 349
#     4  10  21  39  62  83 114 156 199 246 292 347
#     4  10  22  39  60  86 118 156 191 232 290 352
#     4  10  21  37  58  85 111 154 194 239 287 344
#     4   9  20  38  62  88 111 145 195 245 295 341
#
# _framework density 17.296102000000001
#
# number of rings (size 3 to 8) (size 9 to 14) (size 15 to 20)
#    0.750    0.875    1.250    4.125    1.750    2.250 
#    0.000    0.625    0.000    1.125    0.000    0.000 
#    0.000    0.000    0.000    0.000    0.000    0.000 
#
# Total GULP energy -178512.155299 kJ/mol
# GULP energy per Si atom -5578.504853 kJ/mol
# Density = 1.725673 g / cm^3
# Si number density = 17.296102 Si / 1000 Ang^3
#
#
#
# Elastic Constant Matrix: (Units=GPa)
#
#
# Indices 1 2 3 4 5 6 
#
# 1 86.8179 51.7786 37.0521 0.0000 2.6201 0.0000
# 2 51.7786 112.1405 34.0017 0.0000 2.3078 0.0000
# 3 37.0521 34.0017 109.5131 0.0000 7.2222 0.0000
# 4 0.0000 0.0000 0.0000 19.4634 0.0000 5.2130
# 5 2.6201 2.3078 7.2222 0.0000 25.5778 0.0000
# 6 0.0000 0.0000 0.0000 5.2130 0.0000 18.6815
#
#
#
# Elastic Compliance Matrix: (Units=1/GPa)
#
#
# Indices 1 2 3 4 5 6 
#
# 1 0.017149 -0.006799 -0.003684 0.000000 -0.000103 0.000000
# 2 -0.006799 0.012540 -0.001594 0.000000 0.000015 0.000000
# 3 -0.003684 -0.001594 0.011044 0.000000 -0.002597 0.000000
# 4 0.000000 0.000000 0.000000 0.055529 0.000000 -0.015495
# 5 -0.000103 0.000015 -0.002597 0.000000 0.039839 0.000000
# 6 0.000000 0.000000 0.000000 -0.015495 0.000000 0.057853
#
#
# Mechanical properties :
#
#
# Convention : Reuss Voigt Hill
#
# Bulk Modulus (GPa) = 60.32078 61.57068 60.94573
# Shear Modulus (GPa) = 22.35805 25.12048 23.73926
#
# Velocity S-wave (km/s) = 3.59926 3.81514 3.70877
# Velocity P-wave (km/s) = 7.22662 7.42175 7.32483
#
# Compressibility (1/GPa) = 0.01657804
#
# Stress axis : x y z
#
# Youngs Moduli (GPa) = 58.31337 79.74722 90.54645
#
# Poissons Ratio (x) = 0.54219 0.33360
# Poissons Ratio (y) = 0.39646 0.14433
# Poissons Ratio (z) = 0.21484 0.12712
#
# Static dielectric constant tensor:
#      x y z
#    x 1.566750 0.000000 -0.002400 
#    y 0.000000 1.585310 0.000000 
#    z -0.002400 0.000000 1.584360 
# 
# From -- ./inp_files/61583.got.cif
#   From: 2010.05.17/outbox.cif.g08.bks.cpg/sg10_31_cif.got.tgz:61583.got - 2010.06.03 11:33:40.
