data_PCOD9152307
_publ_section_title
;
Structure prediction by ZEFSAII (Michael W. Deem and Ramdas Pophale) SiO2 
 PCOD9152307
Probable space group: P 2/M
;
_chemical_formula_sum "Si O2"
_cell_formula_units_Z 30
_cell_length_a 12.932022
_cell_length_b 18.044439
_cell_length_c 15.008230
_cell_angle_alpha 90.000000
_cell_angle_beta 28.758002
_cell_angle_gamma 90.000000
_cell_volume 1684.941283
_symmetry_space_group_name_H-M "P 2/M"
_symmetry_group_IT_number 10
_symmetry_cell_setting 'monoclinic'
loop_
_space_group_symop_operation_xyz
x,y,z
-x,y,-z
-x,-y,-z
x,-y,z
loop_
_atom_site_type_symbol
_atom_site_label
_atom_site_fract_x
_atom_site_fract_y
_atom_site_fract_z
Si Si1 0.967134 0.082754 0.247294
Si Si2 0.649994 0.310393 0.645341
Si Si3 0.575644 0.802396 0.541484
Si Si4 0.227523 0.916175 0.878039
Si Si5 0.007019 0.414552 0.603991
Si Si6 0.000000 0.222972 0.500000
Si Si7 0.328431 0.697115 0.049545
Si Si8 0.259621 0.141431 0.162876
O O1 0.789313 0.146490 0.372977
O O2 0.086786 0.087423 0.250941
O O3 0.875985 0.000000 0.300166
O O4 0.159898 0.093181 0.031235
O O5 0.606031 0.263511 0.589688
O O6 0.848528 0.269556 0.547677
O O7 0.450328 0.316595 0.864363
O O8 0.752703 0.390531 0.550268
O O9 0.500000 0.778436 0.500000
O O10 0.393979 0.856745 0.717964
O O11 0.308928 0.000000 0.802245
O O12 0.000000 0.909376 0.000000
O O13 0.956066 0.500000 0.661456
O O14 0.000000 0.407117 0.500000
O O15 0.850352 0.360896 0.780425
O O16 0.831905 0.172061 0.676690
O O17 0.500000 0.693514 0.000000
O O18 0.258422 0.783348 0.103225
O O19 0.500000 0.114135 0.000000
#
# Coordination Sequence:
#
# PCOD9152307 Si02
#       8
#     4   4   4   4   4   2   4   4
#     4  11  23  38  56  80 114 154 195 246 303 358
#     4  12  21  37  59  85 117 152 195 240 288 346
#     4  12  24  39  62  87 113 153 204 252 297 343
#     4  10  21  37  57  82 113 146 189 247 309 356
#     4  11  21  34  56  89 126 154 182 226 283 350
#     4  12  18  34  56  80 110 150 192 234 288 344
#     4  11  18  32  55  84 114 154 187 227 281 344
#     4  11  21  34  55  78 111 153 195 235 286 347
#
# _framework density 17.804774999999999
#
# number of rings (size 3 to 8) (size 9 to 14) (size 15 to 20)
#    0.000    0.800    8.667    1.200    0.000    1.600 
#    0.000    0.333    0.000    0.400    0.000    0.933 
#    0.000    0.000    0.000    0.000    0.000    0.000 
#
# Total GULP energy -167233.299087 kJ/mol
# GULP energy per Si atom -5574.443303 kJ/mol
# Density = 1.776425 g / cm^3
# Si number density = 17.804775 Si / 1000 Ang^3
#
#
#
# Elastic Constant Matrix: (Units=GPa)
#
#
# Indices 1 2 3 4 5 6 
#
# 1 84.3594 35.5931 20.4889 0.0000 2.6545 0.0000
# 2 35.5931 74.6364 28.2532 0.0000 7.4902 0.0000
# 3 20.4889 28.2532 85.2044 0.0000 7.6963 0.0000
# 4 0.0000 0.0000 0.0000 15.2412 0.0000 3.7331
# 5 2.6545 7.4902 7.6963 0.0000 17.7041 0.0000
# 6 0.0000 0.0000 0.0000 3.7331 0.0000 20.6516
#
#
#
# Elastic Compliance Matrix: (Units=1/GPa)
#
#
# Indices 1 2 3 4 5 6 
#
# 1 0.015012 -0.006718 -0.001494 0.000000 0.001241 0.000000
# 2 -0.006718 0.018672 -0.004115 0.000000 -0.005103 0.000000
# 3 -0.001494 -0.004115 0.013826 0.000000 -0.004045 0.000000
# 4 0.000000 0.000000 0.000000 0.068651 0.000000 -0.012410
# 5 0.001241 -0.005103 -0.004045 0.000000 0.060216 0.000000
# 6 0.000000 0.000000 0.000000 -0.012410 0.000000 0.050666
#
#
# Mechanical properties :
#
#
# Convention : Reuss Voigt Hill
#
# Bulk Modulus (GPa) = 43.75393 45.87451 44.81422
# Shear Modulus (GPa) = 19.28148 21.37706 20.32927
#
# Velocity S-wave (km/s) = 3.29437 3.46878 3.38270
# Velocity P-wave (km/s) = 6.25285 6.47027 6.36249
#
# Compressibility (1/GPa) = 0.02285509
#
# Stress axis : x y z
#
# Youngs Moduli (GPa) = 66.61134 53.55638 72.32871
#
# Poissons Ratio (x) = 0.35980 0.10809
# Poissons Ratio (y) = 0.44750 0.29763
# Poissons Ratio (z) = 0.09955 0.22039
#
# Static dielectric constant tensor:
#      x y z
#    x 1.679220 0.000000 0.026680 
#    y 0.000000 1.665970 0.000000 
#    z 0.026680 0.000000 1.665870 
# 
# From -- ./inp_files/65327.got.cif
#   From: 2010.05.17/outbox.cif.g08.bks.cpg/sg10_33_cif.got.tgz:65327.got - 2010.06.03 11:33:40.
