data_PCOD9152147
_publ_section_title
;
Structure prediction by ZEFSAII (Michael W. Deem and Ramdas Pophale) SiO2 
 PCOD9152147
Probable space group: P 2/M
;
_chemical_formula_sum "Si O2"
_cell_formula_units_Z 28
_cell_length_a 11.470184
_cell_length_b 13.785394
_cell_length_c 8.163938
_cell_angle_alpha 90.000000
_cell_angle_beta 102.243591
_cell_angle_gamma 90.000000
_cell_volume 1261.528578
_symmetry_space_group_name_H-M "P 2/M"
_symmetry_group_IT_number 10
_symmetry_cell_setting 'monoclinic'
loop_
_space_group_symop_operation_xyz
x,y,z
-x,y,-z
-x,-y,-z
x,-y,z
loop_
_atom_site_type_symbol
_atom_site_label
_atom_site_fract_x
_atom_site_fract_y
_atom_site_fract_z
Si Si1 0.748669 0.248035 0.386728
Si Si2 0.037752 0.296436 0.770260
Si Si3 0.663389 0.112445 0.662593
Si Si4 0.087518 0.103223 0.178442
Si Si5 0.565409 0.113027 0.191995
Si Si6 0.168802 0.386344 0.120251
Si Si7 0.367801 0.384776 0.426147
O O1 0.877161 0.276448 0.356922
O O2 0.717341 0.177397 0.532457
O O3 0.672431 0.189633 0.229759
O O4 0.699496 0.350357 0.432744
O O5 0.960943 0.198249 0.751757
O O6 0.933781 0.375867 0.769599
O O7 0.123604 0.321380 0.953660
O O8 0.773210 0.113747 0.824440
O O9 0.536380 0.138486 0.702693
O O10 0.651124 0.000000 0.607001
O O11 0.078142 0.000000 0.268616
O O12 0.000000 0.096351 0.000000
O O13 0.602870 0.000000 0.226178
O O14 0.500000 0.117606 0.000000
O O15 0.176567 0.500000 0.074494
O O16 0.292277 0.353508 0.243037
O O17 0.500000 0.346587 0.500000
O O18 0.372603 0.500000 0.414532
#
# Coordination Sequence:
#
# PCOD9152147 Si02
#       7
#     4   4   4   4   4   4   4
#     4  12  25  36  62  94 129 166 201 260 319 376
#     4  11  23  38  61  96 125 162 212 256 309 381
#     4  10  22  41  62  87 125 170 215 259 311 369
#     4  10  21  36  59  87 121 165 205 257 310 359
#     4  10  23  41  64  92 124 169 222 264 301 362
#     4  10  22  44  70  89 121 165 210 264 315 372
#     4  10  23  43  65  89 119 161 207 256 318 381
#
# _framework density 22.195295999999999
#
# number of rings (size 3 to 8) (size 9 to 14) (size 15 to 20)
#    0.000    1.571    1.429    3.429    2.000    6.857 
#    0.000    2.857    0.000    3.000    0.000    0.000 
#    0.000    0.000    0.000    0.000    0.000    0.000 
#
# Total GULP energy -156010.996560 kJ/mol
# GULP energy per Si atom -5571.821306 kJ/mol
# Density = 2.214478 g / cm^3
# Si number density = 22.195296 Si / 1000 Ang^3
#
#
#
# Elastic Constant Matrix: (Units=GPa)
#
#
# Indices 1 2 3 4 5 6 
#
# 1 102.3066 11.2838 22.2383 0.0000 3.8264 0.0000
# 2 11.2838 61.5127 20.0653 0.0000 1.1771 0.0000
# 3 22.2383 20.0653 65.8958 0.0000 20.0625 0.0000
# 4 0.0000 0.0000 0.0000 58.4889 0.0000 -24.7582
# 5 3.8264 1.1771 20.0625 0.0000 43.3494 0.0000
# 6 0.0000 0.0000 0.0000 -24.7582 0.0000 53.1353
#
#
#
# Elastic Compliance Matrix: (Units=1/GPa)
#
#
# Indices 1 2 3 4 5 6 
#
# 1 0.010609 -0.000799 -0.003560 0.000000 0.000733 0.000000
# 2 -0.000799 0.018325 -0.006030 0.000000 0.002364 0.000000
# 3 -0.003560 -0.006030 0.021031 0.000000 -0.009255 0.000000
# 4 0.000000 0.000000 0.000000 0.021298 0.000000 0.009924
# 5 0.000733 0.002364 -0.009255 0.000000 0.027223 0.000000
# 6 0.000000 0.000000 0.000000 0.009924 0.000000 0.023444
#
#
# Mechanical properties :
#
#
# Convention : Reuss Voigt Hill
#
# Bulk Modulus (GPa) = 34.26185 37.43221 35.84703
# Shear Modulus (GPa) = 32.80044 42.73659 37.76852
#
# Velocity S-wave (km/s) = 3.84840 4.39279 4.12958
# Velocity P-wave (km/s) = 5.93439 6.52919 6.23888
#
# Compressibility (1/GPa) = 0.02918698
#
# Stress axis : x y z
#
# Youngs Moduli (GPa) = 94.25854 54.56997 47.54893
#
# Poissons Ratio (x) = 0.04359 0.16929
# Poissons Ratio (y) = 0.07529 0.28672
# Poissons Ratio (z) = 0.33558 0.32906
#
# Static dielectric constant tensor:
#      x y z
#    x 1.842760 0.000000 0.033450 
#    y 0.000000 1.874410 0.000000 
#    z 0.033450 0.000000 1.928300 
# 
# From -- ./inp_files/29207.got.cif
#   From: 2010.05.17/outbox.cif.g08.bks.cpg/sg10_15_cif.got.tgz:29207.got - 2010.06.03 11:33:40.
