data_PCOD9152546
_publ_section_title
;
Structure prediction by ZEFSAII (Michael W. Deem and Ramdas Pophale) SiO2 
 PCOD9152546
Probable space group: P 2/M
;
_chemical_formula_sum "Si O2"
_cell_formula_units_Z 20
_cell_length_a 12.238090
_cell_length_b 11.029989
_cell_length_c 13.513408
_cell_angle_alpha 90.000000
_cell_angle_beta 146.224907
_cell_angle_gamma 90.000000
_cell_volume 1014.091405
_symmetry_space_group_name_H-M "P 2/M"
_symmetry_group_IT_number 10
_symmetry_cell_setting 'monoclinic'
loop_
_space_group_symop_operation_xyz
x,y,z
-x,y,-z
-x,-y,-z
x,-y,z
loop_
_atom_site_type_symbol
_atom_site_label
_atom_site_fract_x
_atom_site_fract_y
_atom_site_fract_z
Si Si1 0.236308 0.858687 0.388713
Si Si2 0.721580 0.363963 0.948786
Si Si3 0.696920 0.853680 0.782383
Si Si4 0.031313 0.700981 0.682858
Si Si5 0.708184 0.364531 0.284260
O O1 0.460210 0.839763 0.593646
O O2 0.220404 0.815677 0.263156
O O3 0.082252 0.810309 0.351195
O O4 0.209135 0.000000 0.359236
O O5 0.716662 0.500000 0.898268
O O6 0.761654 0.247443 0.909936
O O7 0.507229 0.341646 0.836439
O O8 0.875870 0.366789 0.154334
O O9 0.736441 0.000000 0.830957
O O10 0.206283 0.723230 0.735823
O O11 0.863085 0.637298 0.490907
O O12 0.709294 0.500000 0.240393
#
# Coordination Sequence:
#
# PCOD9152546 Si02
#       5
#     4   4   4   4   4
#     4   9  19  38  63  85 112 154 200 240 288 349
#     4  11  22  37  59  91 121 151 193 242 288 342
#     4   9  19  40  64  85 115 156 196 239 293 349
#     4  11  20  35  59  86 113 150 197 236 286 342
#     4  10  21  38  56  81 118 159 193 234 289 345
#
# _framework density 19.722089
#
# number of rings (size 3 to 8) (size 9 to 14) (size 15 to 20)
#    0.000    2.000    2.000    4.200    0.000    3.200 
#    0.000   11.000    0.000    2.400    0.000    0.000 
#    0.000    0.000    0.000    0.000    0.000    0.000 
#
# Total GULP energy -111419.504073 kJ/mol
# GULP energy per Si atom -5570.975204 kJ/mol
# Density = 1.967720 g / cm^3
# Si number density = 19.722089 Si / 1000 Ang^3
#
#
#
# Elastic Constant Matrix: (Units=GPa)
#
#
# Indices 1 2 3 4 5 6 
#
# 1 70.3410 36.0512 38.7688 0.0000 -12.4972 0.0000
# 2 36.0512 55.5362 47.4870 0.0000 -18.7712 0.0000
# 3 38.7688 47.4870 79.1514 0.0000 -13.0338 0.0000
# 4 0.0000 0.0000 0.0000 -491.5357 0.0000 -251.8696
# 5 -12.4972 -18.7712 -13.0338 0.0000 32.6499 0.0000
# 6 0.0000 0.0000 0.0000 -251.8696 0.0000 -149.6883
#
#
#
# Elastic Compliance Matrix: (Units=1/GPa)
#
#
# Indices 1 2 3 4 5 6 
#
# 1 0.022090 -0.010128 -0.004614 0.000000 0.000791 0.000000
# 2 -0.010128 0.047906 -0.021283 0.000000 0.015170 0.000000
# 3 -0.004614 -0.021283 0.027141 0.000000 -0.003167 0.000000
# 4 0.000000 0.000000 0.000000 -0.014764 0.000000 0.024842
# 5 0.000791 0.015170 -0.003167 0.000000 0.038388 0.000000
# 6 0.000000 0.000000 0.000000 0.024842 0.000000 -0.048480
#
#
# Mechanical properties :
#
#
# Convention : Reuss Voigt Hill
#
# Bulk Modulus (GPa) = 39.85761 49.96030 44.90895
# Shear Modulus (GPa) = 32.74561 -116.20004 -41.72722
#
# Velocity S-wave (km/s) = 4.07916 -7.68418 -4.60473
# Velocity P-wave (km/s) = 6.51457 7.30354 2.33475
#
# Compressibility (1/GPa) = 0.02508931
#
# Stress axis : x y z
#
# Youngs Moduli (GPa) = 45.26843 20.87421 36.84472
#
# Poissons Ratio (x) = 0.21140 0.16999
# Poissons Ratio (y) = 0.45846 0.78416
# Poissons Ratio (z) = 0.20886 0.44426
#
# Static dielectric constant tensor:
#      x y z
#    x 1.735890 0.000000 0.016170 
#    y 0.000000 1.683070 0.000000 
#    z 0.016170 0.000000 1.739770 
# 
# From -- ./inp_files/23469.got.cif
#   From: 2010.05.17/outbox.cif.g08.bks.cpg/sg10_12_cif.got.tgz:23469.got - 2010.06.03 11:33:40.
