data_PCOD9152462
_publ_section_title
;
Structure prediction by ZEFSAII (Michael W. Deem and Ramdas Pophale) SiO2 
 PCOD9152462
Probable space group: P 2/M
;
_chemical_formula_sum "Si O2"
_cell_formula_units_Z 28
_cell_length_a 21.511622
_cell_length_b 11.002747
_cell_length_c 5.161931
_cell_angle_alpha 90.000000
_cell_angle_beta 98.256882
_cell_angle_gamma 90.000000
_cell_volume 1209.097019
_symmetry_space_group_name_H-M "P 2/M"
_symmetry_group_IT_number 10
_symmetry_cell_setting 'monoclinic'
loop_
_space_group_symop_operation_xyz
x,y,z
-x,y,-z
-x,-y,-z
x,-y,z
loop_
_atom_site_type_symbol
_atom_site_label
_atom_site_fract_x
_atom_site_fract_y
_atom_site_fract_z
Si Si1 0.572960 0.359002 0.970465
Si Si2 0.773836 0.000000 0.915458
Si Si3 0.363744 0.256067 0.480551
Si Si4 0.763039 0.637027 0.537999
Si Si5 0.835994 0.792062 0.234771
Si Si6 0.102031 0.635659 0.092676
Si Si7 0.688208 0.000000 0.375980
Si Si8 0.941636 0.869611 0.660926
O O1 0.583869 0.500000 0.901439
O O2 0.611839 0.328236 0.252945
O O3 0.500000 0.344880 0.000000
O O4 0.591261 0.274459 0.738375
O O5 0.815719 0.118853 0.994283
O O6 0.718781 0.000000 0.105519
O O7 0.745646 0.000000 0.614884
O O8 0.297355 0.314464 0.349638
O O9 0.351305 0.119712 0.573179
O O10 0.752162 0.500000 0.439169
O O11 0.774314 0.732940 0.317067
O O12 0.828887 0.636478 0.731237
O O13 0.877621 0.866743 0.458252
O O14 0.880214 0.678642 0.183977
O O15 0.076418 0.500000 0.096903
O O16 0.061364 0.745768 0.179492
O O17 0.000000 0.865617 0.500000
O O18 0.943859 0.000000 0.804316
#
# Coordination Sequence:
#
# PCOD9152462 Si02
#       8
#     4   2   4   4   4   4   2   4
#     4  11  25  46  71 100 134 178 231 282 332 389
#     4  12  24  40  67  95 144 182 218 275 344 406
#     4  12  24  43  68 100 137 180 224 279 334 399
#     4  10  21  37  60  93 129 163 210 268 334 399
#     4  11  22  37  62  93 125 171 210 272 336 405
#     4  10  23  40  62  91 128 168 211 275 341 412
#     4  12  26  44  63 106 140 179 222 271 328 420
#     4  10  23  42  62  88 122 166 226 280 333 398
#
# _framework density 23.157778
#
# number of rings (size 3 to 8) (size 9 to 14) (size 15 to 20)
#    0.000    1.143    2.143    3.857    5.000    2.571 
#    0.000    4.286    0.000    0.000    0.000    0.000 
#    0.000    0.000    0.000    0.000    0.000    0.000 
#
# Total GULP energy -156666.889681 kJ/mol
# GULP energy per Si atom -5595.246060 kJ/mol
# Density = 2.310507 g / cm^3
# Si number density = 23.157778 Si / 1000 Ang^3
#
#
#
# Elastic Constant Matrix: (Units=GPa)
#
#
# Indices 1 2 3 4 5 6 
#
# 1 86.4984 49.9882 17.1568 0.0000 -16.2692 0.0000
# 2 49.9882 180.2284 14.5377 0.0000 -16.5853 0.0000
# 3 17.1568 14.5377 61.8737 0.0000 -11.3771 0.0000
# 4 0.0000 0.0000 0.0000 22.4512 0.0000 -8.2942
# 5 -16.2692 -16.5853 -11.3771 0.0000 40.1925 0.0000
# 6 0.0000 0.0000 0.0000 -8.2942 0.0000 40.1967
#
#
#
# Elastic Compliance Matrix: (Units=1/GPa)
#
#
# Indices 1 2 3 4 5 6 
#
# 1 0.014846 -0.003559 -0.002580 0.000000 0.003811 0.000000
# 2 -0.003559 0.006676 -0.000359 0.000000 0.001213 0.000000
# 3 -0.002580 -0.000359 0.017662 0.000000 0.003807 0.000000
# 4 0.000000 0.000000 0.000000 0.048217 0.000000 0.009949
# 5 0.003811 0.001213 0.003807 0.000000 0.028001 0.000000
# 6 0.000000 0.000000 0.000000 0.009949 0.000000 0.026931
#
#
# Mechanical properties :
#
#
# Convention : Reuss Voigt Hill
#
# Bulk Modulus (GPa) = 38.18408 54.66287 46.42348
# Shear Modulus (GPa) = 30.47733 37.02927 33.75330
#
# Velocity S-wave (km/s) = 3.63171 4.00309 3.82191
# Velocity P-wave (km/s) = 5.84039 6.70985 6.29016
#
# Compressibility (1/GPa) = 0.02618892
#
# Stress axis : x y z
#
# Youngs Moduli (GPa) = 67.35788 149.78651 56.61995
#
# Poissons Ratio (x) = 0.53308 0.14607
# Poissons Ratio (y) = 0.23972 0.02031
# Poissons Ratio (z) = 0.17377 0.05374
#
# Static dielectric constant tensor:
#      x y z
#    x 1.865570 0.000000 -0.022790 
#    y 0.000000 1.864880 0.000000 
#    z -0.022790 0.000000 1.897160 
# 
# From -- ./inp_files/12281.got.cif
#   From: 2010.05.17/outbox.cif.g08.bks.cpg/sg10_7_cif.got.tgz:12281.got - 2010.06.03 11:33:40.
