data_PCOD9152641
_publ_section_title
;
Structure prediction by ZEFSAII (Michael W. Deem and Ramdas Pophale) SiO2 
 PCOD9152641
Probable space group: P 2/M
;
_chemical_formula_sum "Si O2"
_cell_formula_units_Z 32
_cell_length_a 14.880214
_cell_length_b 7.716227
_cell_length_c 12.624470
_cell_angle_alpha 90.000000
_cell_angle_beta 85.146646
_cell_angle_gamma 90.000000
_cell_volume 1444.333115
_symmetry_space_group_name_H-M "P 2/M"
_symmetry_group_IT_number 10
_symmetry_cell_setting 'monoclinic'
loop_
_space_group_symop_operation_xyz
x,y,z
-x,y,-z
-x,-y,-z
x,-y,z
loop_
_atom_site_type_symbol
_atom_site_label
_atom_site_fract_x
_atom_site_fract_y
_atom_site_fract_z
Si Si1 0.367616 0.296464 0.276943
Si Si2 0.263519 0.799959 0.881691
Si Si3 0.229805 0.300919 0.652159
Si Si4 0.533745 0.209705 0.113303
Si Si5 0.174387 0.709232 0.238697
Si Si6 0.600755 0.800754 0.491417
Si Si7 0.903900 0.796083 0.972547
Si Si8 0.103465 0.288354 0.475909
O O1 0.355709 0.500000 0.301019
O O2 0.460565 0.269806 0.206125
O O3 0.279929 0.240456 0.218460
O O4 0.367982 0.205008 0.390265
O O5 0.232153 0.793708 0.763425
O O6 0.364405 0.724606 0.879038
O O7 0.273566 0.000000 0.915329
O O8 0.184375 0.719477 0.960632
O O9 0.204523 0.500000 0.675908
O O10 0.328459 0.293966 0.589698
O O11 0.163175 0.228110 0.569042
O O12 0.534031 0.000000 0.119890
O O13 0.500000 0.259958 0.000000
O O14 0.168347 0.500000 0.234314
O O15 0.113720 0.779712 0.150317
O O16 0.141836 0.765697 0.358298
O O17 0.500000 0.726885 0.500000
O O18 0.596183 0.000000 0.454223
O O19 0.905709 0.000000 0.001375
O O20 0.000000 0.722134 0.000000
O O21 0.108174 0.500000 0.476415
O O22 0.000000 0.237571 0.500000
#
# Coordination Sequence:
#
# PCOD9152641 Si02
#       8
#     4   4   4   4   4   4   4   4
#     4  11  22  37  58  87 120 151 191 247 299 344
#     4  10  22  40  59  84 122 158 195 244 295 355
#     4  11  22  38  61  89 121 155 196 244 296 349
#     4  10  21  38  60  84 113 158 206 242 292 359
#     4  10  21  39  62  89 120 152 196 246 295 356
#     4  11  23  38  57  83 117 159 200 235 285 353
#     4  10  23  42  63  88 120 157 198 248 300 348
#     4   9  19  37  60  86 118 155 192 239 296 352
#
# _framework density 22.155555
#
# number of rings (size 3 to 8) (size 9 to 14) (size 15 to 20)
#    0.000    1.750    1.250    2.625    1.750    7.500 
#    0.000    0.000    0.000    1.875    0.000    0.000 
#    0.000    0.000    0.000    0.000    0.000    0.000 
#
# Total GULP energy -178891.500477 kJ/mol
# GULP energy per Si atom -5590.359390 kJ/mol
# Density = 2.210513 g / cm^3
# Si number density = 22.155555 Si / 1000 Ang^3
#
#
#
# Elastic Constant Matrix: (Units=GPa)
#
#
# Indices 1 2 3 4 5 6 
#
# 1 156.7036 3.4709 40.3282 0.0000 10.1332 0.0000
# 2 3.4709 37.7590 -9.8939 0.0000 -3.1948 0.0000
# 3 40.3282 -9.8939 85.9422 0.0000 7.1184 0.0000
# 4 0.0000 0.0000 0.0000 15.0583 0.0000 34.4058
# 5 10.1332 -3.1948 7.1184 0.0000 37.2904 0.0000
# 6 0.0000 0.0000 0.0000 34.4058 0.0000 -16.4362
#
#
#
# Elastic Compliance Matrix: (Units=1/GPa)
#
#
# Indices 1 2 3 4 5 6 
#
# 1 0.007434 -0.001744 -0.003566 0.000000 -0.001489 0.000000
# 2 -0.001744 0.027832 0.003846 0.000000 0.002124 0.000000
# 3 -0.003566 0.003846 0.013863 0.000000 -0.001348 0.000000
# 4 0.000000 0.000000 0.000000 0.011484 0.000000 0.024039
# 5 -0.001489 0.002124 -0.001348 0.000000 0.027660 0.000000
# 6 0.000000 0.000000 0.000000 0.024039 0.000000 -0.010521
#
#
# Mechanical properties :
#
#
# Convention : Reuss Voigt Hill
#
# Bulk Modulus (GPa) = 21.64375 38.69058 30.16717
# Shear Modulus (GPa) = 52.04026 23.61581 37.82804
#
# Velocity S-wave (km/s) = 4.85176 3.26837 4.13653
# Velocity P-wave (km/s) = 6.41688 5.63418 6.03823
#
# Compressibility (1/GPa) = 0.04620272
#
# Stress axis : x y z
#
# Youngs Moduli (GPa) = 134.51616 35.93037 72.13223
#
# Poissons Ratio (x) = 0.06265 0.25721
# Poissons Ratio (y) = 0.23455 -0.27744
# Poissons Ratio (z) = 0.47966 -0.13820
#
# Static dielectric constant tensor:
#      x y z
#    x 1.822740 0.000000 0.007620 
#    y 0.000000 1.832360 0.000000 
#    z 0.007620 0.000000 1.762110 
# 
# From -- ./inp_files/49879.got.cif
#   From: 2010.05.17/outbox.cif.g08.bks.cpg/sg10_25_cif.got.tgz:49879.got - 2010.06.03 11:33:40.
