data_PCOD9152387
_publ_section_title
;
Structure prediction by ZEFSAII (Michael W. Deem and Ramdas Pophale) SiO2 
 PCOD9152387
Probable space group: P 2/M
;
_chemical_formula_sum "Si O2"
_cell_formula_units_Z 26
_cell_length_a 8.765701
_cell_length_b 7.467909
_cell_length_c 21.059572
_cell_angle_alpha 90.000000
_cell_angle_beta 130.648545
_cell_angle_gamma 90.000000
_cell_volume 1045.963536
_symmetry_space_group_name_H-M "P 2/M"
_symmetry_group_IT_number 10
_symmetry_cell_setting 'monoclinic'
loop_
_space_group_symop_operation_xyz
x,y,z
-x,y,-z
-x,-y,-z
x,-y,z
loop_
_atom_site_type_symbol
_atom_site_label
_atom_site_fract_x
_atom_site_fract_y
_atom_site_fract_z
Si Si1 0.471748 0.701447 0.061000
Si Si2 0.980107 0.791525 0.607458
Si Si3 0.428682 0.715433 0.684437
Si Si4 0.566072 0.297069 0.451205
Si Si5 0.891799 0.198847 0.224487
Si Si6 0.964105 0.000000 0.857559
Si Si7 0.762012 0.717448 0.880244
O O1 0.398532 0.500000 0.028019
O O2 0.691630 0.696855 0.152306
O O3 0.325906 0.772512 0.075374
O O4 0.500000 0.793863 0.000000
O O5 0.808045 0.697392 0.520590
O O6 0.203800 0.770885 0.641407
O O7 0.987075 0.727304 0.682799
O O8 0.924772 0.000000 0.591278
O O9 0.427740 0.500000 0.680723
O O10 0.488930 0.786417 0.631228
O O11 0.586031 0.764505 0.781374
O O12 0.500000 0.212214 0.500000
O O13 0.484685 0.500000 0.429416
O O14 0.010775 0.154614 0.192817
O O15 0.819119 0.000000 0.226882
O O16 0.939544 0.159654 0.903846
O O17 0.794957 0.500000 0.888454
#
# Coordination Sequence:
#
# PCOD9152387 Si02
#       7
#     4   4   4   4   4   2   4
#     4  10  21  40  68  98 125 159 212 270 316 375
#     4  11  22  37  58  83 119 151 204 256 308 365
#     4  10  21  37  59  85 115 158 211 255 310 370
#     4  10  23  39  56  82 118 160 204 252 305 374
#     4   9  22  40  57  92 122 165 208 250 319 376
#     4  10  24  40  63  95 134 168 212 262 304 399
#     4  10  22  41  66  95 127 171 212 263 326 370
#
# _framework density 24.857464
#
# number of rings (size 3 to 8) (size 9 to 14) (size 15 to 20)
#    0.462    1.538    1.538    0.923    4.308    4.308 
#    0.000    1.538    0.000    2.769    0.000    0.000 
#    0.000    0.000    0.000    0.000    0.000    0.000 
#
# Total GULP energy -144762.967289 kJ/mol
# GULP energy per Si atom -5567.806434 kJ/mol
# Density = 2.480089 g / cm^3
# Si number density = 24.857464 Si / 1000 Ang^3
#
#
#
# Elastic Constant Matrix: (Units=GPa)
#
#
# Indices 1 2 3 4 5 6 
#
# 1 124.1129 16.2229 66.3879 0.0000 -54.9224 0.0000
# 2 16.2229 89.8492 18.6664 0.0000 -10.8697 0.0000
# 3 66.3879 18.6664 123.9341 0.0000 -22.3836 0.0000
# 4 0.0000 0.0000 0.0000 11.8776 0.0000 58.6914
# 5 -54.9224 -10.8697 -22.3836 0.0000 56.2420 0.0000
# 6 0.0000 0.0000 0.0000 58.6914 0.0000 307.7897
#
#
#
# Elastic Compliance Matrix: (Units=1/GPa)
#
#
# Indices 1 2 3 4 5 6 
#
# 1 0.018783 -0.000012 -0.007270 0.000000 0.015446 0.000000
# 2 -0.000012 0.011633 -0.001446 0.000000 0.001661 0.000000
# 3 -0.007270 -0.001446 0.011688 0.000000 -0.002727 0.000000
# 4 0.000000 0.000000 0.000000 1.457887 0.000000 -0.278000
# 5 0.015446 0.001661 -0.002727 0.000000 0.032100 0.000000
# 6 0.000000 0.000000 0.000000 -0.278000 0.000000 0.056260
#
#
# Mechanical properties :
#
#
# Convention : Reuss Voigt Hill
#
# Bulk Modulus (GPa) = 40.56984 60.05005 50.30994
# Shear Modulus (GPa) = 3.09785 90.95646 47.02715
#
# Velocity S-wave (km/s) = 1.11756 6.05563 4.35428
# Velocity P-wave (km/s) = 4.24520 8.55011 6.75004
#
# Compressibility (1/GPa) = 0.02464885
#
# Stress axis : x y z
#
# Youngs Moduli (GPa) = 53.24066 85.96050 85.55619
#
# Poissons Ratio (x) = 0.00106 0.62197
# Poissons Ratio (y) = 0.00066 0.12367
# Poissons Ratio (z) = 0.38704 0.12426
#
# Static dielectric constant tensor:
#      x y z
#    x 1.991270 0.000000 -0.001400 
#    y 0.000000 1.898150 0.000000 
#    z -0.001400 0.000000 2.019180 
# 
# From -- ./inp_files/82227.got.cif
#   From: 2010.05.17/outbox.cif.g08.bks.cpg/sg10_42_cif.got.tgz:82227.got - 2010.06.03 11:33:40.
