data_PCOD9152341
_publ_section_title
;
Structure prediction by ZEFSAII (Michael W. Deem and Ramdas Pophale) SiO2 
 PCOD9152341
Probable space group: P 2/M
;
_chemical_formula_sum "Si O2"
_cell_formula_units_Z 28
_cell_length_a 25.124643
_cell_length_b 8.477775
_cell_length_c 9.626329
_cell_angle_alpha 90.000000
_cell_angle_beta 47.000352
_cell_angle_gamma 90.000000
_cell_volume 1499.589663
_symmetry_space_group_name_H-M "P 2/M"
_symmetry_group_IT_number 10
_symmetry_cell_setting 'monoclinic'
loop_
_space_group_symop_operation_xyz
x,y,z
-x,y,-z
-x,-y,-z
x,-y,z
loop_
_atom_site_type_symbol
_atom_site_label
_atom_site_fract_x
_atom_site_fract_y
_atom_site_fract_z
Si Si1 0.565350 0.683626 0.991464
Si Si2 0.823442 0.321013 0.587830
Si Si3 0.734425 0.687647 0.009966
Si Si4 0.569159 0.186872 0.286969
Si Si5 0.204207 0.184744 0.818026
Si Si6 0.917109 0.308205 0.178477
Si Si7 0.698035 0.319820 0.580368
O O1 0.582752 0.500000 0.996202
O O2 0.552420 0.773278 0.156563
O O3 0.500000 0.684216 0.000000
O O4 0.632400 0.750019 0.784584
O O5 0.845071 0.500000 0.590780
O O6 0.889915 0.250033 0.379549
O O7 0.763036 0.331332 0.574842
O O8 0.781453 0.248571 0.794416
O O9 0.728301 0.500000 0.001792
O O10 0.651171 0.749268 0.168480
O O11 0.779751 0.727626 0.066986
O O12 0.500000 0.248831 0.500000
O O13 0.572702 0.000000 0.302858
O O14 0.136363 0.247680 0.847851
O O15 0.274483 0.219554 0.596867
O O16 0.195818 0.000000 0.857815
O O17 0.911779 0.500000 0.189723
O O18 0.000000 0.264359 0.000000
O O19 0.679907 0.500000 0.567127
#
# Coordination Sequence:
#
# PCOD9152341 Si02
#       7
#     4   4   4   4   4   4   4
#     4  10  21  37  58  83 107 141 194 242 282 337
#     4   8  15  31  57  84 107 136 183 232 275 323
#     4  11  21  38  61  82 110 151 197 242 281 333
#     4  11  25  41  55  80 118 154 190 238 297 350
#     4  11  23  36  54  85 120 151 186 229 285 345
#     4   9  18  37  64  90 116 147 186 233 280 333
#     4   9  17  35  56  79 107 141 190 239 278 331
#
# _framework density 18.671775
#
# number of rings (size 3 to 8) (size 9 to 14) (size 15 to 20)
#    0.000    2.143    1.429    3.000    2.000    2.286 
#    0.000    1.429    0.000    4.286    0.000    0.000 
#    0.000    0.000    0.000    0.000    0.000    0.000 
#
# Total GULP energy -155998.788452 kJ/mol
# GULP energy per Si atom -5571.385302 kJ/mol
# Density = 1.862928 g / cm^3
# Si number density = 18.671775 Si / 1000 Ang^3
#
#
#
# Elastic Constant Matrix: (Units=GPa)
#
#
# Indices 1 2 3 4 5 6 
#
# 1 67.9843 11.0917 61.7552 0.0000 2.1401 0.0000
# 2 11.0917 29.5372 18.7954 0.0000 -4.5049 0.0000
# 3 61.7552 18.7954 168.2828 0.0000 -15.6506 0.0000
# 4 0.0000 0.0000 0.0000 -19.0329 0.0000 -9.7675
# 5 2.1401 -4.5049 -15.6506 0.0000 27.1101 0.0000
# 6 0.0000 0.0000 0.0000 -9.7675 0.0000 12.5472
#
#
#
# Elastic Compliance Matrix: (Units=1/GPa)
#
#
# Indices 1 2 3 4 5 6 
#
# 1 0.023831 -0.004426 -0.008976 0.000000 -0.007799 0.000000
# 2 -0.004426 0.037666 -0.002080 0.000000 0.005408 0.000000
# 3 -0.008976 -0.002080 0.010042 0.000000 0.006160 0.000000
# 4 0.000000 0.000000 0.000000 -0.037543 0.000000 -0.029225
# 5 -0.007799 0.005408 0.006160 0.000000 0.041957 0.000000
# 6 0.000000 0.000000 0.000000 -0.029225 0.000000 0.056948
#
#
# Mechanical properties :
#
#
# Convention : Reuss Voigt Hill
#
# Bulk Modulus (GPa) = 24.64646 49.89877 37.27261
# Shear Modulus (GPa) = 28.18654 15.73568 21.96111
#
# Velocity S-wave (km/s) = 3.88955 2.90617 3.43325
# Velocity P-wave (km/s) = 5.77927 6.16792 5.97676
#
# Compressibility (1/GPa) = 0.04057378
#
# Stress axis : x y z
#
# Youngs Moduli (GPa) = 41.96276 26.54926 99.58659
#
# Poissons Ratio (x) = 0.11752 0.89390
# Poissons Ratio (y) = 0.18575 0.20709
# Poissons Ratio (z) = 0.37666 0.05521
#
# Static dielectric constant tensor:
#      x y z
#    x 1.656530 0.000000 -0.034860 
#    y 0.000000 1.659760 0.000000 
#    z -0.034860 0.000000 1.706730 
# 
# From -- ./inp_files/37043.got.cif
#   From: 2010.05.17/outbox.cif.g08.bks.cpg/sg10_19_cif.got.tgz:37043.got - 2010.06.03 11:33:40.
