data_PCOD9152469
_publ_section_title
;
Structure prediction by ZEFSAII (Michael W. Deem and Ramdas Pophale) SiO2 
 PCOD9152469
Probable space group: P 2/M
;
_chemical_formula_sum "Si O2"
_cell_formula_units_Z 24
_cell_length_a 24.093035
_cell_length_b 8.161002
_cell_length_c 19.896308
_cell_angle_alpha 90.000000
_cell_angle_beta 17.394633
_cell_angle_gamma 90.000000
_cell_volume 1169.521178
_symmetry_space_group_name_H-M "P 2/M"
_symmetry_group_IT_number 10
_symmetry_cell_setting 'monoclinic'
loop_
_space_group_symop_operation_xyz
x,y,z
-x,y,-z
-x,-y,-z
x,-y,z
loop_
_atom_site_type_symbol
_atom_site_label
_atom_site_fract_x
_atom_site_fract_y
_atom_site_fract_z
Si Si1 0.610577 0.306066 0.575740
Si Si2 0.451260 0.186643 0.893866
Si Si3 0.861266 0.187529 0.482306
Si Si4 0.997423 0.195892 0.817400
Si Si5 0.799155 0.187549 0.699791
Si Si6 0.592065 0.697886 0.324368
O O1 0.631471 0.500000 0.545624
O O2 0.471324 0.269262 0.798556
O O3 0.814584 0.239337 0.359489
O O4 0.522045 0.241084 0.608983
O O5 0.659315 0.178335 0.681936
O O6 0.382107 0.000000 0.963368
O O7 0.330567 0.264382 0.093085
O O8 0.985291 0.262578 0.279599
O O9 0.828672 0.266270 0.592679
O O10 0.928270 0.000000 0.418005
O O11 0.993545 0.000000 0.816244
O O12 0.807529 0.254996 0.069568
O O13 0.000000 0.175553 0.500000
O O14 0.724485 0.000000 0.774473
O O15 0.500000 0.756331 0.500000
O O16 0.582336 0.500000 0.334922
#
# Coordination Sequence:
#
# PCOD9152469 Si02
#       6
#     4   4   4   4   4   4
#     4  10  21  38  60  83 113 152 190 229 278 341
#     4   9  17  30  50  74 104 141 184 233 274 317
#     4   8  15  28  45  71 104 140 178 220 273 321
#     4  10  21  37  61  89 117 147 184 236 286 331
#     4   9  16  24  41  72 105 139 179 225 272 317
#     4  10  23  42  62  84 112 150 190 227 276 342
#
# _framework density 20.52122
#
# number of rings (size 3 to 8) (size 9 to 14) (size 15 to 20)
#    0.000    2.667    0.000    2.500    2.333    4.333 
#    0.000    3.333    0.000    9.500    0.000    0.000 
#    0.000    0.000    0.000    0.000    0.000    0.000 
#
# Total GULP energy -133767.419520 kJ/mol
# GULP energy per Si atom -5573.642480 kJ/mol
# Density = 2.047451 g / cm^3
# Si number density = 20.521220 Si / 1000 Ang^3
#
#
#
# Elastic Constant Matrix: (Units=GPa)
#
#
# Indices 1 2 3 4 5 6 
#
# 1 172.8112 9.6727 105.9165 0.0000 36.5498 0.0000
# 2 9.6727 17.7930 4.8650 0.0000 5.0969 0.0000
# 3 105.9165 4.8650 202.4223 0.0000 40.0519 0.0000
# 4 0.0000 0.0000 0.0000 28.7267 0.0000 0.8790
# 5 36.5498 5.0969 40.0519 0.0000 34.5404 0.0000
# 6 0.0000 0.0000 0.0000 0.8790 0.0000 15.7184
#
#
#
# Elastic Compliance Matrix: (Units=1/GPa)
#
#
# Indices 1 2 3 4 5 6 
#
# 1 0.009350 -0.002583 -0.003826 0.000000 -0.005076 0.000000
# 2 -0.002583 0.059420 0.001450 0.000000 -0.007717 0.000000
# 3 -0.003826 0.001450 0.007979 0.000000 -0.005418 0.000000
# 4 0.000000 0.000000 0.000000 0.034870 0.000000 -0.001950
# 5 -0.005076 -0.007717 -0.005418 0.000000 0.041745 0.000000
# 6 0.000000 0.000000 0.000000 -0.001950 0.000000 0.063729
#
#
# Mechanical properties :
#
#
# Convention : Reuss Voigt Hill
#
# Bulk Modulus (GPa) = 14.96278 70.43721 42.70000
# Shear Modulus (GPa) = 20.05727 33.96859 27.01293
#
# Velocity S-wave (km/s) = 3.12972 4.07294 3.63208
# Velocity P-wave (km/s) = 4.51302 7.51778 6.20018
#
# Compressibility (1/GPa) = 0.06683248
#
# Stress axis : x y z
#
# Youngs Moduli (GPa) = 106.95622 16.82935 125.32739
#
# Poissons Ratio (x) = 0.04346 0.47946
# Poissons Ratio (y) = 0.27622 -0.18174
# Poissons Ratio (z) = 0.40918 -0.02440
#
# Static dielectric constant tensor:
#      x y z
#    x 1.749210 0.000000 0.042580 
#    y 0.000000 1.746960 0.000000 
#    z 0.042580 0.000000 1.746930 
# 
# From -- ./inp_files/80057.got.cif
#   From: 2010.05.17/outbox.cif.g08.bks.cpg/sg10_41_cif.got.tgz:80057.got - 2010.06.03 11:33:40.
