data_PCOD9152135
_publ_section_title
;
Structure prediction by ZEFSAII (Michael W. Deem and Ramdas Pophale) SiO2 
 PCOD9152135
Probable space group: P 2/M
;
_chemical_formula_sum "Si O2"
_cell_formula_units_Z 32
_cell_length_a 12.146210
_cell_length_b 13.551725
_cell_length_c 7.996844
_cell_angle_alpha 90.000000
_cell_angle_beta 96.021130
_cell_angle_gamma 90.000000
_cell_volume 1309.035652
_symmetry_space_group_name_H-M "P 2/M"
_symmetry_group_IT_number 10
_symmetry_cell_setting 'monoclinic'
loop_
_space_group_symop_operation_xyz
x,y,z
-x,y,-z
-x,-y,-z
x,-y,z
loop_
_atom_site_type_symbol
_atom_site_label
_atom_site_fract_x
_atom_site_fract_y
_atom_site_fract_z
Si Si1 0.247764 0.112533 0.355539
Si Si2 0.926912 0.302542 0.319204
Si Si3 0.666354 0.618045 0.974134
Si Si4 0.125942 0.613263 0.160393
Si Si5 0.468421 0.681813 0.726247
Si Si6 0.267610 0.669889 0.502148
Si Si7 0.006027 0.889472 0.802976
Si Si8 0.535568 0.109474 0.810896
O O1 0.268997 0.211825 0.465247
O O2 0.119761 0.122169 0.281318
O O3 0.333247 0.116395 0.211518
O O4 0.261481 0.000000 0.427773
O O5 0.811517 0.350246 0.350513
O O6 0.000000 0.310426 0.500000
O O7 0.007138 0.344029 0.188444
O O8 0.915832 0.188170 0.273877
O O9 0.670011 0.500000 0.998531
O O10 0.789527 0.658994 0.960238
O O11 0.586262 0.638700 0.802086
O O12 0.605959 0.666631 0.119851
O O13 0.110736 0.500000 0.114919
O O14 0.202394 0.620763 0.339175
O O15 0.391851 0.639337 0.567470
O O16 0.484210 0.798616 0.706034
O O17 0.043415 0.000000 0.773925
O O18 0.000000 0.874532 0.000000
O O19 0.499801 0.000000 0.750049
O O20 0.500000 0.118917 0.000000
#
# Coordination Sequence:
#
# PCOD9152135 Si02
#       8
#     4   4   4   4   4   4   4   4
#     4  10  21  39  60  87 128 164 201 251 300 358
#     4  10  21  39  58  88 125 160 200 246 305 366
#     4  10  22  42  64  88 120 159 201 256 318 364
#     4  10  22  41  65  87 118 160 202 251 310 368
#     4  11  22  38  62  90 123 161 202 253 302 364
#     4  11  24  38  60  93 121 163 205 245 305 361
#     4  10  21  37  62  90 118 158 204 252 300 353
#     4  10  21  36  58  88 121 162 203 245 299 354
#
# _framework density 24.445478000000001
#
# number of rings (size 3 to 8) (size 9 to 14) (size 15 to 20)
#    0.000    1.750    3.750    1.500    0.000    8.500 
#    0.000    3.750    0.000    1.875    0.000    0.000 
#    0.000    0.000    0.000    0.000    0.000    0.000 
#
# Total GULP energy -178879.911392 kJ/mol
# GULP energy per Si atom -5589.997231 kJ/mol
# Density = 2.438984 g / cm^3
# Si number density = 24.445478 Si / 1000 Ang^3
#
#
#
# Elastic Constant Matrix: (Units=GPa)
#
#
# Indices 1 2 3 4 5 6 
#
# 1 119.4506 14.5599 22.4498 0.0000 -15.8024 0.0000
# 2 14.5599 74.5431 -9.0635 0.0000 -8.0848 0.0000
# 3 22.4498 -9.0635 55.2392 0.0000 -10.6377 0.0000
# 4 0.0000 0.0000 0.0000 27.0043 0.0000 -27.7632
# 5 -15.8024 -8.0848 -10.6377 0.0000 51.8664 0.0000
# 6 0.0000 0.0000 0.0000 -27.7632 0.0000 34.4043
#
#
#
# Elastic Compliance Matrix: (Units=1/GPa)
#
#
# Indices 1 2 3 4 5 6 
#
# 1 0.009607 -0.002158 -0.003914 0.000000 0.001788 0.000000
# 2 -0.002158 0.014546 0.003721 0.000000 0.002373 0.000000
# 3 -0.003914 0.003721 0.021017 0.000000 0.003698 0.000000
# 4 0.000000 0.000000 0.000000 0.217376 0.000000 0.175416
# 5 0.001788 0.002373 0.003698 0.000000 0.020953 0.000000
# 6 0.000000 0.000000 0.000000 0.175416 0.000000 0.170621
#
#
# Mechanical properties :
#
#
# Convention : Reuss Voigt Hill
#
# Bulk Modulus (GPa) = 24.71188 33.90281 29.30734
# Shear Modulus (GPa) = 10.58621 37.40746 23.99684
#
# Velocity S-wave (km/s) = 2.08325 3.91607 3.13652
# Velocity P-wave (km/s) = 3.98968 5.86058 5.01318
#
# Compressibility (1/GPa) = 0.04046637
#
# Stress axis : x y z
#
# Youngs Moduli (GPa) = 104.09175 68.74529 47.58164
#
# Poissons Ratio (x) = 0.14838 0.18625
# Poissons Ratio (y) = 0.22468 -0.17705
# Poissons Ratio (z) = 0.40744 -0.25580
#
# Static dielectric constant tensor:
#      x y z
#    x 1.944140 0.000000 -0.011720 
#    y 0.000000 1.912370 0.000000 
#    z -0.011720 0.000000 1.999070 
# 
# From -- ./inp_files/25328.got.cif
#   From: 2010.05.17/outbox.cif.g08.bks.cpg/sg10_13_cif.got.tgz:25328.got - 2010.06.03 11:33:40.
