data_PCOD9152010
_publ_section_title
;
Structure prediction by ZEFSAII (Michael W. Deem and Ramdas Pophale) SiO2 
 PCOD9152010
Probable space group: P 2/M
;
_chemical_formula_sum "Si O2"
_cell_formula_units_Z 20
_cell_length_a 28.156586
_cell_length_b 7.880259
_cell_length_c 9.895840
_cell_angle_alpha 90.000000
_cell_angle_beta 152.389305
_cell_angle_gamma 90.000000
_cell_volume 1017.622653
_symmetry_space_group_name_H-M "P 2/M"
_symmetry_group_IT_number 10
_symmetry_cell_setting 'monoclinic'
loop_
_space_group_symop_operation_xyz
x,y,z
-x,y,-z
-x,-y,-z
x,-y,z
loop_
_atom_site_type_symbol
_atom_site_label
_atom_site_fract_x
_atom_site_fract_y
_atom_site_fract_z
Si Si1 0.592098 0.205468 0.137600
Si Si2 0.821889 0.794241 0.409826
Si Si3 0.009148 0.197676 0.372521
Si Si4 0.590434 0.206980 0.824187
Si Si5 0.175299 0.302743 0.270139
O O1 0.706014 0.264240 0.462419
O O2 0.593732 0.000000 0.145068
O O3 0.500000 0.264929 0.000000
O O4 0.572822 0.258255 0.934559
O O5 0.842089 0.741286 0.615652
O O6 0.904804 0.729336 0.511645
O O7 0.824600 0.000000 0.418104
O O8 0.706233 0.740797 0.080229
O O9 0.000000 0.272849 0.500000
O O10 0.038133 0.000000 0.464119
O O11 0.902350 0.206470 0.023354
O O12 0.500000 0.268164 0.500000
O O13 0.589390 0.000000 0.817717
O O14 0.155064 0.500000 0.200087
#
# Coordination Sequence:
#
# PCOD9152010 Si02
#       5
#     4   4   4   4   4
#     4   9  18  33  54  77 101 133 174 217 258 304
#     4   9  18  34  55  77 103 137 177 218 259 309
#     4  10  21  36  55  79 105 134 174 225 272 312
#     4   8  14  26  47  75 101 125 159 205 255 302
#     4  11  22  35  53  76 106 143 178 213 258 317
#
# _framework density 19.653651
#
# number of rings (size 3 to 8) (size 9 to 14) (size 15 to 20)
#    0.000    2.600    0.000    3.600    0.000    5.600 
#    0.000    6.000    0.000    9.600    0.000    0.000 
#    0.000    0.000    0.000    0.000    0.000    0.000 
#
# Total GULP energy -111579.228524 kJ/mol
# GULP energy per Si atom -5578.961426 kJ/mol
# Density = 1.960892 g / cm^3
# Si number density = 19.653651 Si / 1000 Ang^3
#
#
#
# Elastic Constant Matrix: (Units=GPa)
#
#
# Indices 1 2 3 4 5 6 
#
# 1 160.7243 1.2080 73.9095 0.0000 22.1300 0.0000
# 2 1.2080 25.9368 -17.8155 0.0000 1.2965 0.0000
# 3 73.9095 -17.8155 123.9153 0.0000 -2.0062 0.0000
# 4 0.0000 0.0000 0.0000 -32.8904 0.0000 17.8427
# 5 22.1300 1.2965 -2.0062 0.0000 18.2279 0.0000
# 6 0.0000 0.0000 0.0000 17.8427 0.0000 -7.3416
#
#
#
# Elastic Compliance Matrix: (Units=1/GPa)
#
#
# Indices 1 2 3 4 5 6 
#
# 1 0.012199 -0.005515 -0.008318 0.000000 -0.015334 0.000000
# 2 -0.005515 0.045375 0.009887 0.000000 0.004556 0.000000
# 3 -0.008318 0.009887 0.014631 0.000000 0.011005 0.000000
# 4 0.000000 0.000000 0.000000 0.095476 0.000000 0.232041
# 5 -0.015334 0.004556 0.011005 0.000000 0.074365 0.000000
# 6 0.000000 0.000000 0.000000 0.232041 0.000000 0.427734
#
#
# Mechanical properties :
#
#
# Convention : Reuss Voigt Hill
#
# Bulk Modulus (GPa) = 15.54862 47.24227 31.39544
# Shear Modulus (GPa) = 7.15195 12.48415 9.81805
#
# Velocity S-wave (km/s) = 1.90968 2.52307 2.23749
# Velocity P-wave (km/s) = 3.57645 5.70766 4.76279
#
# Compressibility (1/GPa) = 0.06431438
#
# Stress axis : x y z
#
# Youngs Moduli (GPa) = 81.97064 22.03837 68.34962
#
# Poissons Ratio (x) = 0.12154 0.56850
# Poissons Ratio (y) = 0.45205 -0.67576
# Poissons Ratio (z) = 0.68179 -0.21789
#
# Static dielectric constant tensor:
#      x y z
#    x 1.693580 0.000000 0.011510 
#    y 0.000000 1.700250 0.000000 
#    z 0.011510 0.000000 1.657160 
# 
# From -- ./inp_files/26752.got.cif
#   From: 2010.05.17/outbox.cif.g08.bks.cpg/sg10_14_cif.got.tgz:26752.got - 2010.06.03 11:33:40.
