data_PCOD9152534
_publ_section_title
;
Structure prediction by ZEFSAII (Michael W. Deem and Ramdas Pophale) SiO2 
 PCOD9152534
Probable space group: P 2/M
;
_chemical_formula_sum "Si O2"
_cell_formula_units_Z 30
_cell_length_a 8.524849
_cell_length_b 16.236001
_cell_length_c 12.472712
_cell_angle_alpha 90.000000
_cell_angle_beta 108.380210
_cell_angle_gamma 90.000000
_cell_volume 1638.271959
_symmetry_space_group_name_H-M "P 2/M"
_symmetry_group_IT_number 10
_symmetry_cell_setting 'monoclinic'
loop_
_space_group_symop_operation_xyz
x,y,z
-x,y,-z
-x,-y,-z
x,-y,z
loop_
_atom_site_type_symbol
_atom_site_label
_atom_site_fract_x
_atom_site_fract_y
_atom_site_fract_z
Si Si1 0.307340 0.590658 0.693982
Si Si2 0.712373 0.909198 0.658380
Si Si3 0.622224 0.405619 0.628810
Si Si4 0.870384 0.753587 0.377751
Si Si5 0.128253 0.738942 0.248996
Si Si6 0.681509 0.909564 0.398913
Si Si7 0.315340 0.594747 0.949956
Si Si8 0.000000 0.674272 0.000000
O O1 0.249037 0.500000 0.644428
O O2 0.500309 0.595139 0.705101
O O3 0.221809 0.667856 0.619970
O O4 0.279793 0.596403 0.815020
O O5 0.787072 0.827810 0.724652
O O6 0.736442 0.903053 0.535080
O O7 0.516606 0.908016 0.638863
O O8 0.775269 0.000000 0.705603
O O9 0.500000 0.391221 0.500000
O O10 0.688550 0.500000 0.632219
O O11 0.756358 0.334391 0.677238
O O12 0.750264 0.831782 0.350807
O O13 0.000000 0.768434 0.500000
O O14 0.967321 0.743714 0.288511
O O15 0.078631 0.721748 0.116916
O O16 0.735028 0.000000 0.370124
O O17 0.332863 0.500000 0.989040
O O18 0.158159 0.627822 0.981485
O O19 0.500000 0.633765 0.000000
#
# Coordination Sequence:
#
# PCOD9152534 Si02
#       8
#     4   4   4   4   4   4   4   2
#     4  10  21  38  55  79 115 156 203 248 294 357
#     4   9  19  38  62  89 116 151 197 247 304 372
#     4  10  22  39  61  89 123 164 209 254 313 377
#     4  12  22  34  55  85 122 153 186 238 308 366
#     4  12  24  37  60  89 123 164 200 247 312 370
#     4   9  19  35  60  90 118 146 189 246 306 366
#     4  10  21  39  62  84 112 158 215 271 313 348
#     4  12  25  42  57  90 128 164 218 262 316 370
#
# _framework density 18.311976000000001
#
# number of rings (size 3 to 8) (size 9 to 14) (size 15 to 20)
#    0.000    1.600    2.667    3.400    1.867    3.733 
#    0.000    0.333    0.000    0.000    0.000    1.867 
#    0.000    0.000    0.000    0.000    0.000    0.000 
#
# Total GULP energy -167309.916220 kJ/mol
# GULP energy per Si atom -5576.997207 kJ/mol
# Density = 1.827030 g / cm^3
# Si number density = 18.311976 Si / 1000 Ang^3
#
#
#
# Elastic Constant Matrix: (Units=GPa)
#
#
# Indices 1 2 3 4 5 6 
#
# 1 91.4754 70.8168 25.3311 0.0000 -15.4525 0.0000
# 2 70.8168 174.2942 42.5329 0.0000 8.7667 0.0000
# 3 25.3311 42.5329 55.4520 0.0000 -6.4170 0.0000
# 4 0.0000 0.0000 0.0000 18.2070 0.0000 1.7947
# 5 -15.4525 8.7667 -6.4170 0.0000 31.1168 0.0000
# 6 0.0000 0.0000 0.0000 1.7947 0.0000 67.7003
#
#
#
# Elastic Compliance Matrix: (Units=1/GPa)
#
#
# Indices 1 2 3 4 5 6 
#
# 1 0.019709 -0.008295 -0.001268 0.000000 0.011863 0.000000
# 2 -0.008295 0.010871 -0.005512 0.000000 -0.008319 0.000000
# 3 -0.001268 -0.005512 0.023508 0.000000 0.005771 0.000000
# 4 0.000000 0.000000 0.000000 0.055068 0.000000 -0.001460
# 5 0.011863 -0.008319 0.005771 0.000000 0.041562 0.000000
# 6 0.000000 0.000000 0.000000 -0.001460 0.000000 0.014810
#
#
# Mechanical properties :
#
#
# Convention : Reuss Voigt Hill
#
# Bulk Modulus (GPa) = 41.77346 66.50927 54.14136
# Shear Modulus (GPa) = 24.55117 35.57422 30.06269
#
# Velocity S-wave (km/s) = 3.66555 4.41236 4.05618
# Velocity P-wave (km/s) = 6.38566 7.89668 7.18102
#
# Compressibility (1/GPa) = 0.02393864
#
# Stress axis : x y z
#
# Youngs Moduli (GPa) = 50.73935 91.98613 42.53805
#
# Poissons Ratio (x) = 0.76302 0.05393
# Poissons Ratio (y) = 0.42088 0.23446
# Poissons Ratio (z) = 0.06433 0.50701
#
# Static dielectric constant tensor:
#      x y z
#    x 1.664060 0.000000 0.003490 
#    y 0.000000 1.655080 0.000000 
#    z 0.003490 0.000000 1.623980 
# 
# From -- ./inp_files/43004.got.cif
#   From: 2010.05.17/outbox.cif.g08.bks.cpg/sg10_22_cif.got.tgz:43004.got - 2010.06.03 11:33:40.
