data_PCOD9152203
_publ_section_title
;
Structure prediction by ZEFSAII (Michael W. Deem and Ramdas Pophale) SiO2 
 PCOD9152203
Probable space group: P 2/M
;
_chemical_formula_sum "Si O2"
_cell_formula_units_Z 26
_cell_length_a 25.779932
_cell_length_b 7.829000
_cell_length_c 13.501581
_cell_angle_alpha 90.000000
_cell_angle_beta 28.271813
_cell_angle_gamma 90.000000
_cell_volume 1290.728230
_symmetry_space_group_name_H-M "P 2/M"
_symmetry_group_IT_number 10
_symmetry_cell_setting 'monoclinic'
loop_
_space_group_symop_operation_xyz
x,y,z
-x,y,-z
-x,-y,-z
x,-y,z
loop_
_atom_site_type_symbol
_atom_site_label
_atom_site_fract_x
_atom_site_fract_y
_atom_site_fract_z
Si Si1 0.129147 0.295017 0.079353
Si Si2 0.730723 0.000000 0.671837
Si Si3 0.125494 0.304897 0.512023
Si Si4 0.588405 0.000000 0.107464
Si Si5 0.648049 0.000000 0.601096
Si Si6 0.712950 0.304048 0.362754
Si Si7 0.476003 0.305437 0.654458
Si Si8 0.872423 0.798710 0.703193
O O1 0.132516 0.500000 0.079016
O O2 0.173925 0.230643 0.109445
O O3 0.001937 0.247235 0.278127
O O4 0.202317 0.243170 0.863603
O O5 0.805347 0.168996 0.543315
O O6 0.648219 0.000000 0.718821
O O7 0.671904 0.000000 0.876884
O O8 0.131262 0.500000 0.537665
O O9 0.167452 0.297038 0.327279
O O10 0.594142 0.165992 0.168323
O O11 0.470541 0.000000 0.251072
O O12 0.707559 0.830467 0.460202
O O13 0.739168 0.500000 0.347695
O O14 0.593732 0.307748 0.511215
O O15 0.500000 0.258363 0.500000
O O16 0.431355 0.500000 0.730959
O O17 0.000000 0.744442 0.500000
O O18 0.870031 0.000000 0.685307
#
# Coordination Sequence:
#
# PCOD9152203 Si02
#       8
#     4   2   4   2   2   4   4   4
#     4   9  18  32  54  82 114 153 187 215 263 334
#     4  12  25  40  58  81 104 140 193 239 287 327
#     4  10  21  37  53  78 117 151 183 227 272 321
#     4  10  22  40  60  83 109 143 182 227 274 337
#     4  10  23  42  61  78 102 139 182 242 294 330
#     4   9  19  36  58  84 110 144 186 224 272 336
#     4   9  18  35  59  89 122 146 171 216 271 329
#     4   9  16  28  49  77 112 151 184 212 252 314
#
# _framework density 20.143667000000001
#
# number of rings (size 3 to 8) (size 9 to 14) (size 15 to 20)
#    0.000    2.462    0.769    0.923    2.154    4.308 
#    0.000    3.077    0.000    7.385    0.000    0.000 
#    0.000    0.000    0.000    0.000    0.000    0.000 
#
# Total GULP energy -145140.048076 kJ/mol
# GULP energy per Si atom -5582.309541 kJ/mol
# Density = 2.009782 g / cm^3
# Si number density = 20.143667 Si / 1000 Ang^3
#
#
#
# Elastic Constant Matrix: (Units=GPa)
#
#
# Indices 1 2 3 4 5 6 
#
# 1 67.1500 32.8624 12.2089 0.0000 14.0193 0.0000
# 2 32.8624 80.4777 25.5111 0.0000 6.0471 0.0000
# 3 12.2089 25.5111 74.4515 0.0000 8.5594 0.0000
# 4 0.0000 0.0000 0.0000 18.1235 0.0000 0.1102
# 5 14.0193 6.0471 8.5594 0.0000 20.0594 0.0000
# 6 0.0000 0.0000 0.0000 0.1102 0.0000 9.4435
#
#
#
# Elastic Compliance Matrix: (Units=1/GPa)
#
#
# Indices 1 2 3 4 5 6 
#
# 1 0.021342 -0.007976 0.000706 0.000000 -0.012813 0.000000
# 2 -0.007976 0.017020 -0.004811 0.000000 0.002496 0.000000
# 3 0.000706 -0.004811 0.015621 0.000000 -0.005709 0.000000
# 4 0.000000 0.000000 0.000000 0.055181 0.000000 -0.000644
# 5 -0.012813 0.002496 -0.005709 0.000000 0.060490 0.000000
# 6 0.000000 0.000000 0.000000 -0.000644 0.000000 0.105901
#
#
# Mechanical properties :
#
#
# Convention : Reuss Voigt Hill
#
# Bulk Modulus (GPa) = 33.53326 40.36047 36.94686
# Shear Modulus (GPa) = 16.14693 19.62507 17.88600
#
# Velocity S-wave (km/s) = 2.83431 3.12469 2.98303
# Velocity P-wave (km/s) = 5.23395 5.75309 5.49965
#
# Compressibility (1/GPa) = 0.02982114
#
# Stress axis : x y z
#
# Youngs Moduli (GPa) = 46.85618 58.75363 64.01812
#
# Poissons Ratio (x) = 0.46861 -0.04521
# Poissons Ratio (y) = 0.37372 0.30800
# Poissons Ratio (z) = -0.03309 0.28267
#
# Static dielectric constant tensor:
#      x y z
#    x 1.701680 0.000000 -0.033980 
#    y 0.000000 1.717620 0.000000 
#    z -0.033980 0.000000 1.739540 
# 
# From -- ./inp_files/57455.got.cif
#   From: 2010.05.17/outbox.cif.g08.bks.cpg/sg10_29_cif.got.tgz:57455.got - 2010.06.03 11:33:40.
