data_PCOD9152871
_publ_section_title
;
Structure prediction by ZEFSAII (Michael W. Deem and Ramdas Pophale) SiO2 
 PCOD9152871
Probable space group: P 2/M
;
_chemical_formula_sum "Si O2"
_cell_formula_units_Z 28
_cell_length_a 9.559387
_cell_length_b 8.627397
_cell_length_c 27.902148
_cell_angle_alpha 90.000000
_cell_angle_beta 141.525300
_cell_angle_gamma 90.000000
_cell_volume 1431.712557
_symmetry_space_group_name_H-M "P 2/M"
_symmetry_group_IT_number 10
_symmetry_cell_setting 'monoclinic'
loop_
_space_group_symop_operation_xyz
x,y,z
-x,y,-z
-x,-y,-z
x,-y,z
loop_
_atom_site_type_symbol
_atom_site_label
_atom_site_fract_x
_atom_site_fract_y
_atom_site_fract_z
Si Si1 0.187725 0.313983 0.011396
Si Si2 0.460483 0.314211 0.267975
Si Si3 0.266759 0.678155 0.563774
Si Si4 0.686303 0.813052 0.152570
Si Si5 0.279111 0.184210 0.465684
Si Si6 0.041015 0.813867 0.869015
Si Si7 0.821281 0.187334 0.293442
O O1 0.186781 0.500000 0.010800
O O2 0.129240 0.253105 0.942779
O O3 0.436596 0.254441 0.090154
O O4 0.000000 0.262420 0.000000
O O5 0.440854 0.500000 0.260281
O O6 0.603654 0.272575 0.353749
O O7 0.602479 0.255404 0.260715
O O8 0.215505 0.240210 0.205277
O O9 0.332450 0.500000 0.570754
O O10 0.306893 0.783708 0.528951
O O11 0.000000 0.680060 0.500000
O O12 0.810872 0.762349 0.137186
O O13 0.821424 0.772473 0.237248
O O14 0.669238 0.000000 0.146105
O O15 0.500000 0.250935 0.500000
O O16 0.044570 0.244596 0.380973
O O17 0.273601 0.000000 0.455633
O O18 0.051106 0.000000 0.873707
O O19 0.810449 0.000000 0.294325
#
# Coordination Sequence:
#
# PCOD9152871 Si02
#       7
#     4   4   4   4   4   4   4
#     4  11  24  42  65  93 124 157 196 240 289 348
#     4  11  23  39  60  87 120 157 202 250 296 353
#     4  10  21  39  59  83 118 159 201 248 300 354
#     4  10  23  41  62  89 123 158 197 242 294 353
#     4  10  22  37  59  88 119 155 201 253 301 352
#     4  11  24  41  64  92 122 157 196 243 297 352
#     4  10  21  39  60  86 119 158 199 246 300 353
#
# _framework density 19.556998
#
# number of rings (size 3 to 8) (size 9 to 14) (size 15 to 20)
#    0.000    1.571    1.429    2.571    2.000    8.571 
#    0.000    0.000    0.000    0.000    0.000    0.000 
#    0.000    0.000    0.000    0.000    0.000    0.000 
#
# Total GULP energy -156432.829495 kJ/mol
# GULP energy per Si atom -5586.886768 kJ/mol
# Density = 1.951249 g / cm^3
# Si number density = 19.556998 Si / 1000 Ang^3
#
#
#
# Elastic Constant Matrix: (Units=GPa)
#
#
# Indices 1 2 3 4 5 6 
#
# 1 138.0375 22.8313 27.0711 0.0000 -6.1722 0.0000
# 2 22.8313 12.5017 12.5536 0.0000 -2.7290 0.0000
# 3 27.0711 12.5536 66.9386 0.0000 -14.3542 0.0000
# 4 0.0000 0.0000 0.0000 27.1772 0.0000 -11.3549
# 5 -6.1722 -2.7290 -14.3542 0.0000 33.7023 0.0000
# 6 0.0000 0.0000 0.0000 -11.3549 0.0000 13.3006
#
#
#
# Elastic Compliance Matrix: (Units=1/GPa)
#
#
# Indices 1 2 3 4 5 6 
#
# 1 0.010414 -0.018221 -0.000773 0.000000 0.000103 0.000000
# 2 -0.018221 0.130427 -0.017104 0.000000 -0.000061 0.000000
# 3 -0.000773 -0.017104 0.019954 0.000000 0.006972 0.000000
# 4 0.000000 0.000000 0.000000 0.057198 0.000000 0.048831
# 5 0.000103 -0.000061 0.006972 0.000000 0.032655 0.000000
# 6 0.000000 0.000000 0.000000 0.048831 0.000000 0.116872
#
#
# Mechanical properties :
#
#
# Convention : Reuss Voigt Hill
#
# Bulk Modulus (GPa) = 11.28666 38.04331 24.66498
# Shear Modulus (GPa) = 10.65533 25.17080 17.91307
#
# Velocity S-wave (km/s) = 2.33670 3.59144 3.02974
# Velocity P-wave (km/s) = 3.61440 6.05745 4.98781
#
# Compressibility (1/GPa) = 0.08860021
#
# Stress axis : x y z
#
# Youngs Moduli (GPa) = 96.02259 7.66714 50.11447
#
# Poissons Ratio (x) = 0.13970 0.03872
# Poissons Ratio (y) = 1.74961 0.85717
# Poissons Ratio (z) = 0.07418 0.13114
#
# Static dielectric constant tensor:
#      x y z
#    x 1.747170 0.000000 -0.040490 
#    y 0.000000 1.673000 0.000000 
#    z -0.040490 0.000000 1.690230 
# 
# From -- ./inp_files/34309.got.cif
#   From: 2010.05.17/outbox.cif.g08.bks.cpg/sg10_18_cif.got.tgz:34309.got - 2010.06.03 11:33:40.
