data_PCOD9152697
_publ_section_title
;
Structure prediction by ZEFSAII (Michael W. Deem and Ramdas Pophale) SiO2 
 PCOD9152697
Probable space group: P 2/M
;
_chemical_formula_sum "Si O2"
_cell_formula_units_Z 26
_cell_length_a 8.985345
_cell_length_b 12.310752
_cell_length_c 12.072264
_cell_angle_alpha 90.000000
_cell_angle_beta 97.140420
_cell_angle_gamma 90.000000
_cell_volume 1325.033205
_symmetry_space_group_name_H-M "P 2/M"
_symmetry_group_IT_number 10
_symmetry_cell_setting 'monoclinic'
loop_
_space_group_symop_operation_xyz
x,y,z
-x,y,-z
-x,-y,-z
x,-y,z
loop_
_atom_site_type_symbol
_atom_site_label
_atom_site_fract_x
_atom_site_fract_y
_atom_site_fract_z
Si Si1 0.253355 0.757683 0.572265
Si Si2 0.500000 0.731554 0.000000
Si Si3 0.484691 0.217860 0.243620
Si Si4 0.175654 0.000000 0.502514
Si Si5 0.063292 0.619590 0.696955
Si Si6 0.289927 0.376238 0.353155
Si Si7 0.585650 0.000000 0.629310
Si Si8 0.839124 0.371829 0.041920
O O1 0.370660 0.736505 0.680331
O O2 0.104392 0.706026 0.608036
O O3 0.305539 0.696782 0.465778
O O4 0.235021 0.886303 0.556108
O O5 0.492615 0.796383 0.884096
O O6 0.333372 0.672243 0.992695
O O7 0.362611 0.309283 0.260279
O O8 0.448907 0.106554 0.303925
O O9 0.000000 0.000000 0.500000
O O10 0.238595 0.000000 0.384158
O O11 0.117499 0.500000 0.664547
O O12 0.130028 0.641526 0.823988
O O13 0.885333 0.616407 0.688583
O O14 0.347661 0.500000 0.371719
O O15 0.500000 0.000000 0.500000
O O16 0.832461 0.500000 0.013481
O O17 0.000000 0.331772 0.000000
#
# Coordination Sequence:
#
# PCOD9152697 Si02
#       8
#     4   2   4   2   4   4   2   4
#     4  12  22  40  63  96 130 167 213 267 330 398
#     4  12  25  43  64  96 128 176 231 275 324 392
#     4  12  25  42  66  92 128 174 220 271 324 390
#     4  12  24  40  70  98 126 167 212 261 324 402
#     4  10  21  38  60  91 133 171 209 267 334 396
#     4  11  23  38  62  97 133 168 211 267 335 404
#     4  12  22  47  68  93 128 164 212 269 330 389
#     4  10  21  40  64  90 129 180 229 275 325 390
#
# _framework density 19.622149
#
# number of rings (size 3 to 8) (size 9 to 14) (size 15 to 20)
#    0.000    0.769    4.615    3.462    0.000    5.846 
#    0.000    0.000    0.000    0.000    0.000    3.769 
#    0.000    0.000    0.000    0.000    0.000    0.000 
#
# Total GULP energy -144923.767959 kJ/mol
# GULP energy per Si atom -5573.991075 kJ/mol
# Density = 1.957749 g / cm^3
# Si number density = 19.622149 Si / 1000 Ang^3
#
#
#
# Elastic Constant Matrix: (Units=GPa)
#
#
# Indices 1 2 3 4 5 6 
#
# 1 106.7189 27.8016 34.8056 0.0000 -11.8701 0.0000
# 2 27.8016 112.3103 48.5354 0.0000 -19.4059 0.0000
# 3 34.8056 48.5354 121.9160 0.0000 -4.9469 0.0000
# 4 0.0000 0.0000 0.0000 25.4449 0.0000 -28.2167
# 5 -11.8701 -19.4059 -4.9469 0.0000 34.7438 0.0000
# 6 0.0000 0.0000 0.0000 -28.2167 0.0000 -80.0294
#
#
#
# Elastic Compliance Matrix: (Units=1/GPa)
#
#
# Indices 1 2 3 4 5 6 
#
# 1 0.010785 -0.001110 -0.002527 0.000000 0.002705 0.000000
# 2 -0.001110 0.011993 -0.004225 0.000000 0.005717 0.000000
# 3 -0.002527 -0.004225 0.010536 0.000000 -0.001723 0.000000
# 4 0.000000 0.000000 0.000000 0.028254 0.000000 -0.009962
# 5 0.002705 0.005717 -0.001723 0.000000 0.032654 0.000000
# 6 0.000000 0.000000 0.000000 -0.009962 0.000000 -0.008983
#
#
# Mechanical properties :
#
#
# Convention : Reuss Voigt Hill
#
# Bulk Modulus (GPa) = 56.85741 62.58117 59.71929
# Shear Modulus (GPa) = 46.80489 11.35205 29.07847
#
# Velocity S-wave (km/s) = 4.88926 2.40788 3.85375
# Velocity P-wave (km/s) = 7.80463 6.30023 7.09243
#
# Compressibility (1/GPa) = 0.01758786
#
# Stress axis : x y z
#
# Youngs Moduli (GPa) = 92.72410 83.38425 94.91204
#
# Poissons Ratio (x) = 0.09257 0.23986
# Poissons Ratio (y) = 0.10294 0.40104
# Poissons Ratio (z) = 0.23433 0.35233
#
# Static dielectric constant tensor:
#      x y z
#    x 1.815210 0.000000 -0.013570 
#    y 0.000000 1.704310 0.000000 
#    z -0.013570 0.000000 1.683280 
# 
# From -- ./inp_files/42066.got.cif
#   From: 2010.05.17/outbox.cif.g08.bks.cpg/sg10_22_cif.got.tgz:42066.got - 2010.06.03 11:33:40.
