data_PCOD9152007
_publ_section_title
;
Structure prediction by ZEFSAII (Michael W. Deem and Ramdas Pophale) SiO2 
 PCOD9152007
Probable space group: P 2/M
;
_chemical_formula_sum "Si O2"
_cell_formula_units_Z 28
_cell_length_a 14.857199
_cell_length_b 7.594321
_cell_length_c 20.953674
_cell_angle_alpha 90.000000
_cell_angle_beta 32.017905
_cell_angle_gamma 90.000000
_cell_volume 1253.466984
_symmetry_space_group_name_H-M "P 2/M"
_symmetry_group_IT_number 10
_symmetry_cell_setting 'monoclinic'
loop_
_space_group_symop_operation_xyz
x,y,z
-x,y,-z
-x,-y,-z
x,-y,z
loop_
_atom_site_type_symbol
_atom_site_label
_atom_site_fract_x
_atom_site_fract_y
_atom_site_fract_z
Si Si1 0.680044 0.295522 0.729948
Si Si2 0.319701 0.700772 0.626481
Si Si3 0.949684 0.286539 0.825520
Si Si4 0.750953 0.286281 0.546151
Si Si5 0.883092 0.285226 0.728141
Si Si6 0.624471 0.204955 0.267418
Si Si7 0.313484 0.793179 0.910356
O O1 0.732774 0.500000 0.697553
O O2 0.746935 0.222455 0.622192
O O3 0.756548 0.220692 0.749068
O O4 0.477048 0.286688 0.847266
O O5 0.500000 0.785334 0.500000
O O6 0.325524 0.500000 0.597293
O O7 0.312912 0.699672 0.707140
O O8 0.143706 0.778784 0.707921
O O9 0.955512 0.500000 0.822448
O O10 0.856080 0.227558 0.817120
O O11 0.851216 0.232443 0.948058
O O12 0.740745 0.500000 0.552433
O O13 0.579788 0.221069 0.615498
O O14 0.925893 0.237480 0.407592
O O15 0.874061 0.500000 0.734996
O O16 0.694194 0.274655 0.157712
O O17 0.671243 0.000000 0.246137
O O18 0.350024 0.000000 0.882371
#
# Coordination Sequence:
#
# PCOD9152007 Si02
#       7
#     4   4   4   4   4   4   4
#     4   9  17  31  55  82 106 137 177 218 261 313
#     4  10  21  38  60  85 110 135 166 210 264 317
#     4  10  21  36  55  78 105 138 176 217 260 311
#     4   9  16  30  54  82 110 138 172 216 265 316
#     4   9  17  31  53  81 109 137 173 219 267 312
#     4  10  21  36  55  78 106 142 178 216 262 309
#     4  10  22  39  54  73 106 143 180 220 261 305
#
# _framework density 22.338042999999999
#
# number of rings (size 3 to 8) (size 9 to 14) (size 15 to 20)
#    0.000    2.429    0.000    2.143    0.000    7.714 
#    0.000    9.286    0.000    3.429    0.000    0.000 
#    0.000    0.000    0.000    0.000    0.000    0.000 
#
# Total GULP energy -156364.542046 kJ/mol
# GULP energy per Si atom -5584.447930 kJ/mol
# Density = 2.228720 g / cm^3
# Si number density = 22.338043 Si / 1000 Ang^3
#
#
#
# Elastic Constant Matrix: (Units=GPa)
#
#
# Indices 1 2 3 4 5 6 
#
# 1 102.5737 -3.3415 5.0076 0.0000 12.0527 0.0000
# 2 -3.3415 50.9492 -8.8008 0.0000 4.4622 0.0000
# 3 5.0076 -8.8008 71.2559 0.0000 10.7886 0.0000
# 4 0.0000 0.0000 0.0000 51.4288 0.0000 -35.7479
# 5 12.0527 4.4622 10.7886 0.0000 10.5120 0.0000
# 6 0.0000 0.0000 0.0000 -35.7479 0.0000 11.6395
#
#
#
# Elastic Compliance Matrix: (Units=1/GPa)
#
#
# Indices 1 2 3 4 5 6 
#
# 1 0.011676 0.002558 0.001997 0.000000 -0.016523 0.000000
# 2 0.002558 0.022262 0.005262 0.000000 -0.017783 0.000000
# 3 0.001997 0.005262 0.018030 0.000000 -0.023028 0.000000
# 4 0.000000 0.000000 0.000000 -0.017134 0.000000 -0.052624
# 5 -0.016523 -0.017783 -0.023028 0.000000 0.145258 0.000000
# 6 0.000000 0.000000 0.000000 -0.052624 0.000000 -0.075707
#
#
# Mechanical properties :
#
#
# Convention : Reuss Voigt Hill
#
# Bulk Modulus (GPa) = 13.96593 23.38992 18.67793
# Shear Modulus (GPa) = 46.03316 30.17695 38.10505
#
# Velocity S-wave (km/s) = 4.54448 3.67948 4.13466
# Velocity P-wave (km/s) = 5.81395 5.34275 5.58332
#
# Compressibility (1/GPa) = 0.07160281
#
# Stress axis : x y z
#
# Youngs Moduli (GPa) = 85.64257 44.92031 55.46257
#
# Poissons Ratio (x) = -0.11490 -0.11076
# Poissons Ratio (y) = -0.21906 -0.29186
# Poissons Ratio (z) = -0.17104 -0.23638
#
# Static dielectric constant tensor:
#      x y z
#    x 1.820360 0.000000 0.016180 
#    y 0.000000 1.874430 0.000000 
#    z 0.016180 0.000000 1.793780 
# 
# From -- ./inp_files/49061.got.cif
#   From: 2010.05.17/outbox.cif.g08.bks.cpg/sg10_25_cif.got.tgz:49061.got - 2010.06.03 11:33:40.
