data_PCOD9152316
_publ_section_title
;
Structure prediction by ZEFSAII (Michael W. Deem and Ramdas Pophale) SiO2 
 PCOD9152316
Probable space group: P 2/M
;
_chemical_formula_sum "Si O2"
_cell_formula_units_Z 32
_cell_length_a 28.838691
_cell_length_b 9.115981
_cell_length_c 11.819445
_cell_angle_alpha 90.000000
_cell_angle_beta 31.694968
_cell_angle_gamma 90.000000
_cell_volume 1632.539008
_symmetry_space_group_name_H-M "P 2/M"
_symmetry_group_IT_number 10
_symmetry_cell_setting 'monoclinic'
loop_
_space_group_symop_operation_xyz
x,y,z
-x,y,-z
-x,-y,-z
x,-y,z
loop_
_atom_site_type_symbol
_atom_site_label
_atom_site_fract_x
_atom_site_fract_y
_atom_site_fract_z
Si Si1 0.223198 0.675541 0.025026
Si Si2 0.846957 0.676029 0.590785
Si Si3 0.658143 0.328980 0.603325
Si Si4 0.339630 0.671741 0.131433
Si Si5 0.001641 0.175711 0.127713
Si Si6 0.406165 0.170601 0.645051
Si Si7 0.189103 0.175078 0.856310
Si Si8 0.481978 0.831759 0.241945
O O1 0.225529 0.500000 0.007137
O O2 0.159798 0.712245 0.262185
O O3 0.321501 0.733504 0.850128
O O4 0.194433 0.751335 0.968405
O O5 0.855713 0.500000 0.562307
O O6 0.752439 0.716750 0.732952
O O7 0.925035 0.751443 0.360491
O O8 0.664511 0.500000 0.559415
O O9 0.667797 0.315116 0.717601
O O10 0.733773 0.239622 0.382077
O O11 0.564872 0.266159 0.755034
O O12 0.355670 0.500000 0.070540
O O13 0.422873 0.768346 0.923159
O O14 0.988728 0.000000 0.154631
O O15 0.000000 0.225222 0.000000
O O16 0.096032 0.206320 0.988834
O O17 0.500000 0.221047 0.500000
O O18 0.419972 0.173224 0.481215
O O19 0.393199 0.000000 0.706832
O O20 0.199820 0.000000 0.845223
O O21 0.489914 0.000000 0.188555
#
# Coordination Sequence:
#
# PCOD9152316 Si02
#       8
#     4   4   4   4   4   4   4   4
#     4  11  23  39  61  89 121 160 204 249 299 357
#     4  10  23  42  63  90 122 157 200 248 298 355
#     4  11  22  37  59  86 118 158 201 247 301 361
#     4  10  22  39  58  84 120 159 200 248 302 358
#     4  10  23  43  67  95 123 155 198 247 304 367
#     4  10  21  37  57  83 118 161 207 253 299 351
#     4  11  23  40  63  90 122 158 199 251 306 364
#     4  11  22  35  55  85 119 158 203 248 297 356
#
# _framework density 19.601368000000001
#
# number of rings (size 3 to 8) (size 9 to 14) (size 15 to 20)
#    0.000    1.500    1.250    3.375    0.000    6.500 
#    0.000    2.500    0.000    0.000    0.000    0.000 
#    0.000    0.000    0.000    0.000    0.000    0.000 
#
# Total GULP energy -178932.433082 kJ/mol
# GULP energy per Si atom -5591.638534 kJ/mol
# Density = 1.955675 g / cm^3
# Si number density = 19.601368 Si / 1000 Ang^3
#
#
#
# Elastic Constant Matrix: (Units=GPa)
#
#
# Indices 1 2 3 4 5 6 
#
# 1 75.1938 35.9649 31.5300 0.0000 -3.0468 0.0000
# 2 35.9649 62.9357 49.6012 0.0000 -3.7206 0.0000
# 3 31.5300 49.6012 126.3196 0.0000 -2.2877 0.0000
# 4 0.0000 0.0000 0.0000 39.9356 0.0000 0.2698
# 5 -3.0468 -3.7206 -2.2877 0.0000 23.8045 0.0000
# 6 0.0000 0.0000 0.0000 0.2698 0.0000 30.1398
#
#
#
# Elastic Compliance Matrix: (Units=1/GPa)
#
#
# Indices 1 2 3 4 5 6 
#
# 1 0.018353 -0.009912 -0.000676 0.000000 0.000735 0.000000
# 2 -0.009912 0.028542 -0.008691 0.000000 0.002357 0.000000
# 3 -0.000676 -0.008691 0.011491 0.000000 -0.000340 0.000000
# 4 0.000000 0.000000 0.000000 0.025042 0.000000 -0.000224
# 5 0.000735 0.002357 -0.000340 0.000000 0.042439 0.000000
# 6 0.000000 0.000000 0.000000 -0.000224 0.000000 0.033181
#
#
# Mechanical properties :
#
#
# Convention : Reuss Voigt Hill
#
# Bulk Modulus (GPa) = 50.42871 55.40456 52.91663
# Shear Modulus (GPa) = 24.48408 28.59951 26.54179
#
# Velocity S-wave (km/s) = 3.53810 3.82390 3.68377
# Velocity P-wave (km/s) = 6.51719 6.91544 6.71927
#
# Compressibility (1/GPa) = 0.01982997
#
# Stress axis : x y z
#
# Youngs Moduli (GPa) = 54.48738 35.03581 87.02129
#
# Poissons Ratio (x) = 0.34727 0.05879
# Poissons Ratio (y) = 0.54008 0.75628
# Poissons Ratio (z) = 0.03681 0.30449
#
# Static dielectric constant tensor:
#      x y z
#    x 1.698680 0.000000 0.010440 
#    y 0.000000 1.658210 0.000000 
#    z 0.010440 0.000000 1.658560 
# 
# From -- ./inp_files/58148.got.cif
#   From: 2010.05.17/outbox.cif.g08.bks.cpg/sg10_30_cif.got.tgz:58148.got - 2010.06.03 11:33:40.
