data_PCOD9152733
_publ_section_title
;
Structure prediction by ZEFSAII (Michael W. Deem and Ramdas Pophale) SiO2 
 PCOD9152733
Probable space group: P 2/M
;
_chemical_formula_sum "Si O2"
_cell_formula_units_Z 10
_cell_length_a 10.502380
_cell_length_b 10.189618
_cell_length_c 8.763435
_cell_angle_alpha 90.000000
_cell_angle_beta 29.252766
_cell_angle_gamma 90.000000
_cell_volume 458.278812
_symmetry_space_group_name_H-M "P 2/M"
_symmetry_group_IT_number 10
_symmetry_cell_setting 'monoclinic'
loop_
_space_group_symop_operation_xyz
x,y,z
-x,y,-z
-x,-y,-z
x,-y,z
loop_
_atom_site_type_symbol
_atom_site_label
_atom_site_fract_x
_atom_site_fract_y
_atom_site_fract_z
Si Si1 0.576424 0.350891 0.088835
Si Si2 0.230194 0.849309 0.876679
Si Si3 0.740426 0.500000 0.367729
O O1 0.693349 0.500000 0.956061
O O2 0.745320 0.249954 0.008230
O O3 0.316158 0.378453 0.461135
O O4 0.500000 0.307766 0.000000
O O5 0.500000 0.843355 0.500000
O O6 0.193332 0.000000 0.966984
O O7 0.000000 0.817594 0.000000
O O8 0.500000 0.500000 0.500000
O O9 0.000000 0.500000 0.000000
#
# Coordination Sequence:
#
# PCOD9152733 Si02
#       3
#     4   4   2
#     4   9  21  41  63  98 134 170 208 268 325 388
#     4  10  22  41  65  94 126 167 220 266 311 380
#     4  10  21  38  61  88 125 168 209 256 313 372
#
# _framework density 21.820775999999999
#
# number of rings (size 3 to 8) (size 9 to 14) (size 15 to 20)
#    1.200    1.200    0.000    1.200    0.000    8.000 
#    0.000   10.000    0.000    7.200    0.000    0.000 
#    0.000    0.000    0.000    0.000    0.000    0.000 
#
# Total GULP energy -55852.935157 kJ/mol
# GULP energy per Si atom -5585.293516 kJ/mol
# Density = 2.177111 g / cm^3
# Si number density = 21.820776 Si / 1000 Ang^3
#
#
#
# Elastic Constant Matrix: (Units=GPa)
#
#
# Indices 1 2 3 4 5 6 
#
# 1 244.5229 119.7394 80.1311 0.0000 -12.2127 0.0000
# 2 119.7394 150.2438 14.2985 0.0000 -18.3268 0.0000
# 3 80.1311 14.2985 125.0420 0.0000 -14.3443 0.0000
# 4 0.0000 0.0000 0.0000 11.0580 0.0000 -8.8590
# 5 -12.2127 -18.3268 -14.3443 0.0000 31.4385 0.0000
# 6 0.0000 0.0000 0.0000 -8.8590 0.0000 43.2664
#
#
#
# Elastic Compliance Matrix: (Units=1/GPa)
#
#
# Indices 1 2 3 4 5 6 
#
# 1 0.009282 -0.007257 -0.005477 0.000000 -0.003124 0.000000
# 2 -0.007257 0.012855 0.003922 0.000000 0.006464 0.000000
# 3 -0.005477 0.003922 0.011689 0.000000 0.005492 0.000000
# 4 0.000000 0.000000 0.000000 0.108177 0.000000 0.022150
# 5 -0.003124 0.006464 0.005492 0.000000 0.036869 0.000000
# 6 0.000000 0.000000 0.000000 0.022150 0.000000 0.027648
#
#
# Mechanical properties :
#
#
# Convention : Reuss Voigt Hill
#
# Bulk Modulus (GPa) = 61.72070 105.34963 83.53516
# Shear Modulus (GPa) = 21.78234 37.52856 29.65545
#
# Velocity S-wave (km/s) = 3.16292 4.15161 3.69052
# Velocity P-wave (km/s) = 6.45643 8.44781 7.51834
#
# Compressibility (1/GPa) = 0.01620202
#
# Stress axis : x y z
#
# Youngs Moduli (GPa) = 107.73279 77.79073 85.55381
#
# Poissons Ratio (x) = 0.56456 0.46856
# Poissons Ratio (y) = 0.78186 -0.33558
# Poissons Ratio (z) = 0.59003 -0.30513
#
# Static dielectric constant tensor:
#      x y z
#    x 1.772790 0.000000 -0.011070 
#    y 0.000000 1.872210 0.000000 
#    z -0.011070 0.000000 1.822360 
# 
# From -- ./inp_files/13900.got.cif
#   From: 2010.05.17/outbox.cif.g08.bks.cpg/sg10_7_cif.got.tgz:13900.got - 2010.06.03 11:33:40.
