data_PCOD9152889
_publ_section_title
;
Structure prediction by ZEFSAII (Michael W. Deem and Ramdas Pophale) SiO2 
 PCOD9152889
Probable space group: P 2/M
;
_chemical_formula_sum "Si O2"
_cell_formula_units_Z 32
_cell_length_a 9.210804
_cell_length_b 14.224917
_cell_length_c 11.992955
_cell_angle_alpha 90.000000
_cell_angle_beta 94.120837
_cell_angle_gamma 90.000000
_cell_volume 1567.289620
_symmetry_space_group_name_H-M "P 2/M"
_symmetry_group_IT_number 10
_symmetry_cell_setting 'monoclinic'
loop_
_space_group_symop_operation_xyz
x,y,z
-x,y,-z
-x,-y,-z
x,-y,z
loop_
_atom_site_type_symbol
_atom_site_label
_atom_site_fract_x
_atom_site_fract_y
_atom_site_fract_z
Si Si1 0.268689 0.736032 0.257116
Si Si2 0.465724 0.609929 0.120514
Si Si3 0.759764 0.390622 0.281329
Si Si4 0.326630 0.720403 0.505156
Si Si5 0.145492 0.108900 0.583922
Si Si6 0.449056 0.107809 0.180524
Si Si7 0.941995 0.220804 0.201122
Si Si8 0.734535 0.890713 0.057169
O O1 0.336492 0.662441 0.175250
O O2 0.256607 0.697570 0.381394
O O3 0.386891 0.820394 0.266088
O O4 0.114532 0.773230 0.207776
O O5 0.429755 0.500000 0.105926
O O6 0.610309 0.618119 0.202959
O O7 0.500000 0.650000 0.000000
O O8 0.802352 0.500000 0.284933
O O9 0.725485 0.351393 0.402438
O O10 0.876671 0.321924 0.231083
O O11 0.500000 0.716587 0.500000
O O12 0.267340 0.822392 0.539997
O O13 0.102960 0.149081 0.702417
O O14 0.000000 0.115713 0.500000
O O15 0.189981 0.000000 0.592100
O O16 0.609773 0.128947 0.143356
O O17 0.444982 0.000000 0.217507
O O18 0.344780 0.117216 0.066129
O O19 0.864504 0.179967 0.087630
O O20 0.779454 0.000000 0.071301
#
# Coordination Sequence:
#
# PCOD9152889 Si02
#       8
#     4   4   4   4   4   4   4   4
#     4  12  24  38  62  94 128 161 204 257 317 367
#     4  10  23  44  68  93 120 159 209 261 318 379
#     4  10  23  43  68  92 121 163 206 254 319 383
#     4  11  23  41  62  92 125 157 211 265 303 368
#     4  10  21  39  60  84 126 171 204 249 309 369
#     4   9  21  38  60  89 123 164 214 256 298 359
#     4  11  23  38  60  93 130 161 206 253 315 381
#     4   9  19  39  62  86 120 168 212 252 301 361
#
# _framework density 20.417413
#
# number of rings (size 3 to 8) (size 9 to 14) (size 15 to 20)
#    0.000    1.750    2.500    1.875    5.250    3.500 
#    0.000    1.875    0.000    2.250    0.000    0.000 
#    0.000    0.000    0.000    0.000    0.000    0.000 
#
# Total GULP energy -178965.396056 kJ/mol
# GULP energy per Si atom -5592.668627 kJ/mol
# Density = 2.037094 g / cm^3
# Si number density = 20.417413 Si / 1000 Ang^3
#
#
#
# Elastic Constant Matrix: (Units=GPa)
#
#
# Indices 1 2 3 4 5 6 
#
# 1 60.3636 25.7017 12.3118 0.0000 -0.6992 0.0000
# 2 25.7017 101.4224 31.7855 0.0000 -4.2130 0.0000
# 3 12.3118 31.7855 82.6275 0.0000 -2.1181 0.0000
# 4 0.0000 0.0000 0.0000 -25.6421 0.0000 21.6545
# 5 -0.6992 -4.2130 -2.1181 0.0000 28.9148 0.0000
# 6 0.0000 0.0000 0.0000 21.6545 0.0000 10.0156
#
#
#
# Elastic Compliance Matrix: (Units=1/GPa)
#
#
# Indices 1 2 3 4 5 6 
#
# 1 0.018658 -0.004396 -0.001096 0.000000 -0.000270 0.000000
# 2 -0.004396 0.012298 -0.004040 0.000000 0.001390 0.000000
# 3 -0.001096 -0.004040 0.013830 0.000000 0.000398 0.000000
# 4 0.000000 0.000000 0.000000 -0.013801 0.000000 0.029838
# 5 -0.000270 0.001390 0.000398 0.000000 0.034809 0.000000
# 6 0.000000 0.000000 0.000000 0.029838 0.000000 0.035332
#
#
# Mechanical properties :
#
#
# Convention : Reuss Voigt Hill
#
# Bulk Modulus (GPa) = 38.87712 42.66795 40.77254
# Shear Modulus (GPa) = 38.83022 14.29862 26.56442
#
# Velocity S-wave (km/s) = 4.36572 2.64922 3.61094
# Velocity P-wave (km/s) = 6.67047 5.50463 6.11540
#
# Compressibility (1/GPa) = 0.02572207
#
# Stress axis : x y z
#
# Youngs Moduli (GPa) = 53.59508 81.31651 72.30567
#
# Poissons Ratio (x) = 0.35747 0.07925
# Poissons Ratio (y) = 0.23560 0.29212
# Poissons Ratio (z) = 0.05874 0.32852
#
# Static dielectric constant tensor:
#      x y z
#    x 1.691030 0.000000 0.020630 
#    y 0.000000 1.717970 0.000000 
#    z 0.020630 0.000000 1.747770 
# 
# From -- ./inp_files/42991.got.cif
#   From: 2010.05.17/outbox.cif.g08.bks.cpg/sg10_22_cif.got.tgz:42991.got - 2010.06.03 11:33:40.
