data_PCOD9152599
_publ_section_title
;
Structure prediction by ZEFSAII (Michael W. Deem and Ramdas Pophale) SiO2 
 PCOD9152599
Probable space group: P 2/M
;
_chemical_formula_sum "Si O2"
_cell_formula_units_Z 17
_cell_length_a 15.058019
_cell_length_b 7.453182
_cell_length_c 6.838790
_cell_angle_alpha 90.000000
_cell_angle_beta 96.226255
_cell_angle_gamma 90.000000
_cell_volume 762.991163
_symmetry_space_group_name_H-M "P 2/M"
_symmetry_group_IT_number 10
_symmetry_cell_setting 'monoclinic'
loop_
_space_group_symop_operation_xyz
x,y,z
-x,y,-z
-x,-y,-z
x,-y,z
loop_
_atom_site_type_symbol
_atom_site_label
_atom_site_fract_x
_atom_site_fract_y
_atom_site_fract_z
Si Si1 0.813505 0.000000 0.189292
Si Si2 0.478563 0.718915 0.271304
Si Si3 0.855629 0.000000 0.660289
Si Si4 0.713329 0.294422 0.686539
Si Si5 0.668563 0.707742 0.211037
Si Si6 0.000000 0.000000 0.000000
O O1 0.847211 0.000000 0.422711
O O2 0.747647 0.829483 0.148362
O O3 0.898443 0.000000 0.070216
O O4 0.500000 0.773091 0.500000
O O5 0.478892 0.500000 0.264850
O O6 0.375163 0.770019 0.218655
O O7 0.565705 0.773296 0.169083
O O8 0.799021 0.828817 0.719142
O O9 0.954185 0.000000 0.769221
O O10 0.732942 0.500000 0.741421
O O11 0.685240 0.292177 0.450475
O O12 0.673279 0.500000 0.149404
#
# Coordination Sequence:
#
# PCOD9152599 Si02
#       6
#     2   4   2   4   4   1
#     4  10  21  38  59  78 102 139 177 220 273 317
#     4   7  10  19  41  77 115 142 167 202 242 298
#     4  10  21  38  59  78 102 139 177 220 273 317
#     4   8  14  27  50  81 113 142 173 208 251 311
#     4   8  14  27  50  81 113 142 173 208 251 311
#     4  12  26  44  58  76 104 130 178 244 282 312
#
# _framework density 22.280729999999998
#
# number of rings (size 3 to 8) (size 9 to 14) (size 15 to 20)
#    0.000    3.529    0.000    3.176    0.000    0.941 
#    0.000    8.235    0.000    8.471    0.000    4.941 
#    0.000    0.000    0.000    0.000    0.000    1.412 
#
# Total GULP energy -94712.543327 kJ/mol
# GULP energy per Si atom -5571.326078 kJ/mol
# Density = 2.223002 g / cm^3
# Si number density = 22.280730 Si / 1000 Ang^3
#
#
#
# Elastic Constant Matrix: (Units=GPa)
#
#
# Indices 1 2 3 4 5 6 
#
# 1 211.3594 71.2552 49.9880 0.0000 -4.8034 0.0000
# 2 71.2552 92.5924 11.2708 0.0000 2.9976 0.0000
# 3 49.9880 11.2708 104.6656 0.0000 1.4098 0.0000
# 4 0.0000 0.0000 0.0000 -6.4275 0.0000 -0.8398
# 5 -4.8034 2.9976 1.4098 0.0000 68.4750 0.0000
# 6 0.0000 0.0000 0.0000 -0.8398 0.0000 -2.5307
#
#
#
# Elastic Compliance Matrix: (Units=1/GPa)
#
#
# Indices 1 2 3 4 5 6 
#
# 1 0.007185 -0.005204 -0.002882 0.000000 0.000791 0.000000
# 2 -0.005204 0.014727 0.000914 0.000000 -0.001029 0.000000
# 3 -0.002882 0.000914 0.010839 0.000000 -0.000465 0.000000
# 4 0.000000 0.000000 0.000000 -0.162631 0.000000 0.053966
# 5 0.000791 -0.001029 -0.000465 0.000000 0.014714 0.000000
# 6 0.000000 0.000000 0.000000 0.053966 0.000000 -0.413054
#
#
# Mechanical properties :
#
#
# Convention : Reuss Voigt Hill
#
# Bulk Modulus (GPa) = 54.33131 74.84950 64.59040
# Shear Modulus (GPa) = -9.84756 30.31024 10.23134
#
# Velocity S-wave (km/s) = -2.10460 3.69233 2.14522
# Velocity P-wave (km/s) = 4.30488 7.20031 5.93197
#
# Compressibility (1/GPa) = 0.01840559
#
# Stress axis : x y z
#
# Youngs Moduli (GPa) = 139.17087 67.90155 92.26331
#
# Poissons Ratio (x) = 0.35339 0.26590
# Poissons Ratio (y) = 0.72430 -0.08429
# Poissons Ratio (z) = 0.40108 -0.06203
#
# Static dielectric constant tensor:
#      x y z
#    x 1.747380 0.000000 -0.028330 
#    y 0.000000 1.814830 0.000000 
#    z -0.028330 0.000000 1.925140 
# 
# From -- ./inp_files/21761.got.cif
#   From: 2010.05.17/outbox.cif.g08.bks.cpg/sg10_11_cif.got.tgz:21761.got - 2010.06.03 11:33:40.
