data_PCOD9152993
_publ_section_title
;
Structure prediction by ZEFSAII (Michael W. Deem and Ramdas Pophale) SiO2 
 PCOD9152993
Probable space group: P 2/M
;
_chemical_formula_sum "Si O2"
_cell_formula_units_Z 24
_cell_length_a 9.268768
_cell_length_b 13.979384
_cell_length_c 13.237528
_cell_angle_alpha 90.000000
_cell_angle_beta 132.885794
_cell_angle_gamma 90.000000
_cell_volume 1256.753311
_symmetry_space_group_name_H-M "P 2/M"
_symmetry_group_IT_number 10
_symmetry_cell_setting 'monoclinic'
loop_
_space_group_symop_operation_xyz
x,y,z
-x,y,-z
-x,-y,-z
x,-y,z
loop_
_atom_site_type_symbol
_atom_site_label
_atom_site_fract_x
_atom_site_fract_y
_atom_site_fract_z
Si Si1 0.222015 0.886446 0.629565
Si Si2 0.017620 0.887214 0.129641
Si Si3 0.582865 0.604391 0.429054
Si Si4 0.449029 0.200385 0.357697
Si Si5 0.724005 0.776035 0.140950
Si Si6 0.026611 0.612384 0.633298
O O1 0.381888 0.853866 0.623735
O O2 0.280837 0.848923 0.767335
O O3 0.000000 0.850877 0.500000
O O4 0.216437 0.000000 0.627066
O O5 0.859821 0.823753 0.117601
O O6 0.237465 0.848456 0.252679
O O7 0.998620 0.000000 0.149125
O O8 0.000000 0.880638 0.000000
O O9 0.500000 0.591017 0.500000
O O10 0.585637 0.500000 0.377594
O O11 0.462392 0.690457 0.321850
O O12 0.804528 0.636201 0.558415
O O13 0.500000 0.204102 0.500000
O O14 0.825232 0.681500 0.237737
O O15 0.500000 0.758246 0.000000
O O16 0.068081 0.500000 0.672442
O O17 0.000000 0.624396 0.500000
#
# Coordination Sequence:
#
# PCOD9152993 Si02
#       6
#     4   4   4   4   4   4
#     4  11  23  38  58  86 119 155 199 250 302 357
#     4  11  25  43  60  82 117 161 204 245 298 361
#     4   9  17  31  55  84 112 144 183 230 283 340
#     4  11  21  36  60  87 117 151 195 245 293 350
#     4  12  24  39  62  88 119 157 201 253 305 355
#     4  10  21  39  63  90 121 156 194 239 294 358
#
# _framework density 19.096827999999999
#
# number of rings (size 3 to 8) (size 9 to 14) (size 15 to 20)
#    0.000    1.333    0.000    7.500    0.000    5.667 
#    0.000    0.000    0.000    4.000    0.000    0.000 
#    0.000    0.000    0.000    0.000    0.000    0.000 
#
# Total GULP energy -133863.267542 kJ/mol
# GULP energy per Si atom -5577.636148 kJ/mol
# Density = 1.905336 g / cm^3
# Si number density = 19.096828 Si / 1000 Ang^3
#
#
#
# Elastic Constant Matrix: (Units=GPa)
#
#
# Indices 1 2 3 4 5 6 
#
# 1 137.0296 43.0737 62.3214 0.0000 24.7098 0.0000
# 2 43.0737 121.6562 43.1126 0.0000 3.1357 0.0000
# 3 62.3214 43.1126 102.8790 0.0000 14.4561 0.0000
# 4 0.0000 0.0000 0.0000 57.5560 0.0000 -11.9077
# 5 24.7098 3.1357 14.4561 0.0000 30.1855 0.0000
# 6 0.0000 0.0000 0.0000 -11.9077 0.0000 27.4535
#
#
#
# Elastic Compliance Matrix: (Units=1/GPa)
#
#
# Indices 1 2 3 4 5 6 
#
# 1 0.011510 -0.002074 -0.005156 0.000000 -0.006737 0.000000
# 2 -0.002074 0.010056 -0.003269 0.000000 0.002219 0.000000
# 3 -0.005156 -0.003269 0.014552 0.000000 -0.002409 0.000000
# 4 0.000000 0.000000 0.000000 0.019087 0.000000 0.008279
# 5 -0.006737 0.002219 -0.002409 0.000000 0.039566 0.000000
# 6 0.000000 0.000000 0.000000 0.008279 0.000000 0.040016
#
#
# Mechanical properties :
#
#
# Convention : Reuss Voigt Hill
#
# Bulk Modulus (GPa) = 66.14686 73.17556 69.66121
# Shear Modulus (GPa) = 31.08949 37.24280 34.16615
#
# Velocity S-wave (km/s) = 4.03922 4.42091 4.23436
# Velocity P-wave (km/s) = 7.51442 8.02874 7.77583
#
# Compressibility (1/GPa) = 0.01511788
#
# Stress axis : x y z
#
# Youngs Moduli (GPa) = 86.88371 99.44681 68.71792
#
# Poissons Ratio (x) = 0.20627 0.35434
# Poissons Ratio (y) = 0.18021 0.22466
# Poissons Ratio (z) = 0.44801 0.32512
#
# Static dielectric constant tensor:
#      x y z
#    x 1.647140 0.000000 0.006850 
#    y 0.000000 1.747590 0.000000 
#    z 0.006850 0.000000 1.672810 
# 
# From -- ./inp_files/61945.got.cif
#   From: 2010.05.17/outbox.cif.g08.bks.cpg/sg10_31_cif.got.tgz:61945.got - 2010.06.03 11:33:40.
