data_PCOD9152363
_publ_section_title
;
Structure prediction by ZEFSAII (Michael W. Deem and Ramdas Pophale) SiO2 
 PCOD9152363
Probable space group: P 2/M
;
_chemical_formula_sum "Si O2"
_cell_formula_units_Z 16
_cell_length_a 11.737883
_cell_length_b 7.971998
_cell_length_c 10.500016
_cell_angle_alpha 90.000000
_cell_angle_beta 54.045274
_cell_angle_gamma 90.000000
_cell_volume 795.341573
_symmetry_space_group_name_H-M "P 2/M"
_symmetry_group_IT_number 10
_symmetry_cell_setting 'monoclinic'
loop_
_space_group_symop_operation_xyz
x,y,z
-x,y,-z
-x,-y,-z
x,-y,z
loop_
_atom_site_type_symbol
_atom_site_label
_atom_site_fract_x
_atom_site_fract_y
_atom_site_fract_z
Si Si1 0.493462 0.809908 0.862402
Si Si2 0.240229 0.000000 0.363811
Si Si3 0.063298 0.690988 0.818118
Si Si4 0.622765 0.700162 0.327526
Si Si5 0.976878 0.000000 0.720321
O O1 0.409145 0.733220 0.800213
O O2 0.435258 0.000000 0.919704
O O3 0.652995 0.842470 0.708442
O O4 0.500000 0.731815 0.000000
O O5 0.126397 0.000000 0.548668
O O6 0.149412 0.000000 0.295879
O O7 0.062101 0.500000 0.764916
O O8 0.223386 0.755907 0.728736
O O9 0.975491 0.828617 0.800123
O O10 0.000000 0.680177 0.000000
O O11 0.500000 0.769982 0.500000
O O12 0.624598 0.500000 0.341609
#
# Coordination Sequence:
#
# PCOD9152363 Si02
#       5
#     4   2   4   4   2
#     4   9  20  35  56  79 115 144 185 235 281 335
#     4   9  21  37  53  89 109 145 199 233 269 365
#     4  10  23  38  57  88 118 147 193 239 283 346
#     4  10  21  37  58  86 114 146 192 240 286 341
#     4  11  21  37  63  79 117 157 187 233 293 335
#
# _framework density 20.117146000000002
#
# number of rings (size 3 to 8) (size 9 to 14) (size 15 to 20)
#    0.750    1.500    0.000    1.875    5.250    1.000 
#    0.000    3.750    0.000    0.000    0.000    0.000 
#    0.000    0.000    0.000    0.000    0.000    0.000 
#
# Total GULP energy -89164.031670 kJ/mol
# GULP energy per Si atom -5572.751979 kJ/mol
# Density = 2.007136 g / cm^3
# Si number density = 20.117146 Si / 1000 Ang^3
#
#
#
# Elastic Constant Matrix: (Units=GPa)
#
#
# Indices 1 2 3 4 5 6 
#
# 1 50.5516 23.4373 -11.8099 0.0000 15.1401 0.0000
# 2 23.4373 55.5525 1.5111 0.0000 13.0558 0.0000
# 3 -11.8099 1.5111 40.0620 0.0000 7.1828 0.0000
# 4 0.0000 0.0000 0.0000 36.5164 0.0000 64.2571
# 5 15.1401 13.0558 7.1828 0.0000 40.2953 0.0000
# 6 0.0000 0.0000 0.0000 64.2571 0.0000 121.3651
#
#
#
# Elastic Compliance Matrix: (Units=1/GPa)
#
#
# Indices 1 2 3 4 5 6 
#
# 1 0.030340 -0.010778 0.011124 0.000000 -0.009890 0.000000
# 2 -0.010778 0.023320 -0.003542 0.000000 -0.002875 0.000000
# 3 0.011124 -0.003542 0.029872 0.000000 -0.008357 0.000000
# 4 0.000000 0.000000 0.000000 0.400750 0.000000 -0.212178
# 5 -0.009890 -0.002875 -0.008357 0.000000 0.030954 0.000000
# 6 0.000000 0.000000 0.000000 -0.212178 0.000000 0.120578
#
#
# Mechanical properties :
#
#
# Convention : Reuss Voigt Hill
#
# Bulk Modulus (GPa) = 12.96349 19.16034 16.06192
# Shear Modulus (GPa) = 7.48593 48.50387 27.99490
#
# Velocity S-wave (km/s) = 1.93113 4.91559 3.73445
# Velocity P-wave (km/s) = 3.38088 6.46239 5.15717
#
# Compressibility (1/GPa) = 0.07713971
#
# Stress axis : x y z
#
# Youngs Moduli (GPa) = 32.96010 42.88110 33.47581
#
# Poissons Ratio (x) = 0.46219 -0.37237
# Poissons Ratio (y) = 0.35526 0.11856
# Poissons Ratio (z) = -0.36664 0.15186
#
# Static dielectric constant tensor:
#      x y z
#    x 1.699520 0.000000 -0.034690 
#    y 0.000000 1.736470 0.000000 
#    z -0.034690 0.000000 1.754720 
# 
# From -- ./inp_files/22010.got.cif
#   From: 2010.05.17/outbox.cif.g08.bks.cpg/sg10_12_cif.got.tgz:22010.got - 2010.06.03 11:33:40.
