data_PCOD9152924
_publ_section_title
;
Structure prediction by ZEFSAII (Michael W. Deem and Ramdas Pophale) SiO2 
 PCOD9152924
Probable space group: P 2/M
;
_chemical_formula_sum "Si O2"
_cell_formula_units_Z 26
_cell_length_a 20.281027
_cell_length_b 9.936548
_cell_length_c 7.545894
_cell_angle_alpha 90.000000
_cell_angle_beta 54.671179
_cell_angle_gamma 90.000000
_cell_volume 1240.637200
_symmetry_space_group_name_H-M "P 2/M"
_symmetry_group_IT_number 10
_symmetry_cell_setting 'monoclinic'
loop_
_space_group_symop_operation_xyz
x,y,z
-x,y,-z
-x,-y,-z
x,-y,z
loop_
_atom_site_type_symbol
_atom_site_label
_atom_site_fract_x
_atom_site_fract_y
_atom_site_fract_z
Si Si1 0.149289 0.845484 0.977007
Si Si2 0.023959 0.154921 0.667714
Si Si3 0.427751 0.850664 0.753414
Si Si4 0.710481 0.656500 0.152475
Si Si5 0.330214 0.351092 0.363741
Si Si6 0.500000 0.759941 0.000000
Si Si7 0.196900 0.847691 0.492113
O O1 0.208052 0.745373 0.990436
O O2 0.182026 0.854675 0.726783
O O3 0.147698 0.000000 0.051706
O O4 0.056867 0.793312 0.112295
O O5 0.113083 0.214065 0.550367
O O6 0.000000 0.154462 0.500000
O O7 0.033982 0.000000 0.715980
O O8 0.500000 0.831329 0.500000
O O9 0.361880 0.734623 0.831343
O O10 0.467077 0.843711 0.885612
O O11 0.392197 0.000000 0.776220
O O12 0.719251 0.500000 0.087286
O O13 0.687487 0.658284 0.398269
O O14 0.307044 0.500000 0.340696
O O15 0.424227 0.325965 0.185215
O O16 0.275564 0.242419 0.347879
O O17 0.209200 0.000000 0.405080
#
# Coordination Sequence:
#
# PCOD9152924 Si02
#       7
#     4   4   4   4   4   2   4
#     4   9  17  32  56  83 112 149 193 239 291 350
#     4   9  17  30  51  80 111 144 187 239 293 350
#     4  11  24  42  64  90 120 154 198 251 301 354
#     4  10  21  39  61  87 120 159 198 242 299 359
#     4  10  22  39  60  86 118 156 200 247 299 360
#     4  12  24  42  64  92 118 160 202 250 302 362
#     4   9  18  33  55  81 112 149 191 242 295 352
#
# _framework density 20.956972
#
# number of rings (size 3 to 8) (size 9 to 14) (size 15 to 20)
#    0.000    2.154    1.538    1.385    0.000    6.462 
#    0.000    2.308    0.000    4.615    0.000    0.000 
#    0.000    0.000    0.000    0.000    0.000    0.000 
#
# Total GULP energy -145172.630662 kJ/mol
# GULP energy per Si atom -5583.562718 kJ/mol
# Density = 2.090927 g / cm^3
# Si number density = 20.956972 Si / 1000 Ang^3
#
#
#
# Elastic Constant Matrix: (Units=GPa)
#
#
# Indices 1 2 3 4 5 6 
#
# 1 125.3011 71.3087 19.1212 0.0000 -28.1197 0.0000
# 2 71.3087 117.6402 29.5815 0.0000 -23.8326 0.0000
# 3 19.1212 29.5815 65.0566 0.0000 -21.1598 0.0000
# 4 0.0000 0.0000 0.0000 68.5848 0.0000 103.3426
# 5 -28.1197 -23.8326 -21.1598 0.0000 42.2064 0.0000
# 6 0.0000 0.0000 0.0000 103.3426 0.0000 131.6693
#
#
#
# Elastic Compliance Matrix: (Units=1/GPa)
#
#
# Indices 1 2 3 4 5 6 
#
# 1 0.013037 -0.007123 0.001104 0.000000 0.005217 0.000000
# 2 -0.007123 0.014047 -0.003892 0.000000 0.001235 0.000000
# 3 0.001104 -0.003892 0.019525 0.000000 0.008326 0.000000
# 4 0.000000 0.000000 0.000000 -0.079840 0.000000 0.062663
# 5 0.005217 0.001235 0.008326 0.000000 0.032041 0.000000
# 6 0.000000 0.000000 0.000000 0.062663 0.000000 -0.041587
#
#
# Mechanical properties :
#
#
# Convention : Reuss Voigt Hill
#
# Bulk Modulus (GPa) = 37.33238 60.89118 49.11178
# Shear Modulus (GPa) = -356.46018 61.02453 -147.71783
#
# Velocity S-wave (km/s) = -13.05606 5.40205 -8.40472
# Velocity P-wave (km/s) = 14.47164 8.24791 8.40834
#
# Compressibility (1/GPa) = 0.02678640
#
# Stress axis : x y z
#
# Youngs Moduli (GPa) = 76.70570 71.18905 51.21739
#
# Poissons Ratio (x) = 0.50709 -0.05655
# Poissons Ratio (y) = 0.54638 0.19934
# Poissons Ratio (z) = -0.08468 0.27707
#
# Static dielectric constant tensor:
#      x y z
#    x 1.754280 0.000000 0.014960 
#    y 0.000000 1.737850 0.000000 
#    z 0.014960 0.000000 1.787110 
# 
# From -- ./inp_files/34183.got.cif
#   From: 2010.05.17/outbox.cif.g08.bks.cpg/sg10_18_cif.got.tgz:34183.got - 2010.06.03 11:33:40.
