data_PCOD9152647
_publ_section_title
;
Structure prediction by ZEFSAII (Michael W. Deem and Ramdas Pophale) SiO2 
 PCOD9152647
Probable space group: P 2/M
;
_chemical_formula_sum "Si O2"
_cell_formula_units_Z 28
_cell_length_a 26.067606
_cell_length_b 8.845790
_cell_length_c 9.599989
_cell_angle_alpha 90.000000
_cell_angle_beta 139.953134
_cell_angle_gamma 90.000000
_cell_volume 1424.291919
_symmetry_space_group_name_H-M "P 2/M"
_symmetry_group_IT_number 10
_symmetry_cell_setting 'monoclinic'
loop_
_space_group_symop_operation_xyz
x,y,z
-x,y,-z
-x,-y,-z
x,-y,z
loop_
_atom_site_type_symbol
_atom_site_label
_atom_site_fract_x
_atom_site_fract_y
_atom_site_fract_z
Si Si1 0.996442 0.323558 0.157316
Si Si2 0.834078 0.824265 0.814396
Si Si3 0.729939 0.818789 0.337852
Si Si4 0.921547 0.179002 0.425095
Si Si5 0.246986 0.320326 0.918467
Si Si6 0.409455 0.679846 0.766435
Si Si7 0.672675 0.176720 0.659633
O O1 0.013149 0.500000 0.218244
O O2 0.056123 0.222143 0.370533
O O3 0.906448 0.279517 0.011348
O O4 0.000000 0.294725 0.000000
O O5 0.802633 0.783173 0.594819
O O6 0.756869 0.812835 0.751610
O O7 0.860582 0.000000 0.870633
O O8 0.739421 0.743277 0.208160
O O9 0.651210 0.760192 0.253177
O O10 0.727022 0.000000 0.318244
O O11 0.840750 0.263528 0.218216
O O12 0.000000 0.222288 0.500000
O O13 0.908889 0.000000 0.382420
O O14 0.249639 0.500000 0.923892
O O15 0.311572 0.254101 0.160058
O O16 0.394609 0.500000 0.737948
O O17 0.390152 0.743108 0.572621
O O18 0.500000 0.708113 0.000000
O O19 0.653638 0.000000 0.636103
#
# Coordination Sequence:
#
# PCOD9152647 Si02
#       7
#     4   4   4   4   4   4   4
#     4  11  23  35  50  76 107 141 185 237 290 340
#     4   9  19  35  55  78 104 141 188 235 282 336
#     4  10  21  38  61  87 117 155 196 236 284 345
#     4  11  24  40  57  78 109 151 197 243 292 347
#     4  12  24  38  58  85 118 152 192 244 297 346
#     4  10  21  39  64  94 125 153 185 230 283 337
#     4  10  21  38  60  85 114 150 192 232 277 340
#
# _framework density 19.658891000000001
#
# number of rings (size 3 to 8) (size 9 to 14) (size 15 to 20)
#    0.000    1.571    0.000    6.000    0.000   12.571 
#    0.000    0.714    0.000    4.286    0.000    0.000 
#    0.000    0.000    0.000    0.000    0.000    0.000 
#
# Total GULP energy -156579.329492 kJ/mol
# GULP energy per Si atom -5592.118910 kJ/mol
# Density = 1.961415 g / cm^3
# Si number density = 19.658891 Si / 1000 Ang^3
#
#
#
# Elastic Constant Matrix: (Units=GPa)
#
#
# Indices 1 2 3 4 5 6 
#
# 1 39.2483 17.7613 22.3155 0.0000 -13.6691 0.0000
# 2 17.7613 66.7919 51.5837 0.0000 -5.4117 0.0000
# 3 22.3155 51.5837 116.5058 0.0000 -12.9492 0.0000
# 4 0.0000 0.0000 0.0000 25.1077 0.0000 -4.2776
# 5 -13.6691 -5.4117 -12.9492 0.0000 32.5150 0.0000
# 6 0.0000 0.0000 0.0000 -4.2776 0.0000 31.6582
#
#
#
# Elastic Compliance Matrix: (Units=1/GPa)
#
#
# Indices 1 2 3 4 5 6 
#
# 1 0.033909 -0.006170 -0.002399 0.000000 0.012273 0.000000
# 2 -0.006170 0.023876 -0.009664 0.000000 -0.002469 0.000000
# 3 -0.002399 -0.009664 0.013634 0.000000 0.002813 0.000000
# 4 0.000000 0.000000 0.000000 0.040767 0.000000 0.005508
# 5 0.012273 -0.002469 0.002813 0.000000 0.036624 0.000000
# 6 0.000000 0.000000 0.000000 0.005508 0.000000 0.032332
#
#
# Mechanical properties :
#
#
# Convention : Reuss Voigt Hill
#
# Bulk Modulus (GPa) = 28.60929 45.09635 36.85282
# Shear Modulus (GPa) = 21.80941 26.58189 24.19565
#
# Velocity S-wave (km/s) = 3.33437 3.68116 3.51204
# Velocity P-wave (km/s) = 5.42296 6.40758 5.93572
#
# Compressibility (1/GPa) = 0.03495369
#
# Stress axis : x y z
#
# Youngs Moduli (GPa) = 29.49039 41.88309 73.34516
#
# Poissons Ratio (x) = 0.25842 0.17597
# Poissons Ratio (y) = 0.18195 0.70880
# Poissons Ratio (z) = 0.07075 0.40475
#
# Static dielectric constant tensor:
#      x y z
#    x 1.700920 0.000000 -0.021470 
#    y 0.000000 1.656220 0.000000 
#    z -0.021470 0.000000 1.687070 
# 
# From -- ./inp_files/37282.got.cif
#   From: 2010.05.17/outbox.cif.g08.bks.cpg/sg10_19_cif.got.tgz:37282.got - 2010.06.03 11:33:40.
