data_PCOD9152058
_publ_section_title
;
Structure prediction by ZEFSAII (Michael W. Deem and Ramdas Pophale) SiO2 
 PCOD9152058
Probable space group: P 2/M
;
_chemical_formula_sum "Si O2"
_cell_formula_units_Z 24
_cell_length_a 7.476538
_cell_length_b 15.302872
_cell_length_c 12.831056
_cell_angle_alpha 90.000000
_cell_angle_beta 133.684895
_cell_angle_gamma 90.000000
_cell_volume 1061.607155
_symmetry_space_group_name_H-M "P 2/M"
_symmetry_group_IT_number 10
_symmetry_cell_setting 'monoclinic'
loop_
_space_group_symop_operation_xyz
x,y,z
-x,y,-z
-x,-y,-z
x,-y,z
loop_
_atom_site_type_symbol
_atom_site_label
_atom_site_fract_x
_atom_site_fract_y
_atom_site_fract_z
Si Si1 0.495549 0.725441 0.338765
Si Si2 0.634208 0.093086 0.943013
Si Si3 0.028604 0.399905 0.171061
Si Si4 0.877923 0.594600 0.564200
Si Si5 0.374969 0.717230 0.062917
Si Si6 0.290237 0.098168 0.604903
O O1 0.238342 0.674403 0.246717
O O2 0.688327 0.672719 0.484757
O O3 0.546476 0.715070 0.234223
O O4 0.544916 0.826957 0.382949
O O5 0.762020 0.187695 0.983720
O O6 0.418981 0.092335 0.769800
O O7 0.773391 0.000000 0.989837
O O8 0.500000 0.093087 0.000000
O O9 0.101653 0.500000 0.175610
O O10 0.957363 0.399603 0.265829
O O11 0.804295 0.365531 0.011405
O O12 0.747608 0.500000 0.520590
O O13 0.000000 0.595282 0.500000
O O14 0.500000 0.718059 0.000000
O O15 0.000000 0.123447 0.500000
O O16 0.297539 0.000000 0.561682
#
# Coordination Sequence:
#
# PCOD9152058 Si02
#       6
#     4   4   4   4   4   4
#     4  11  21  35  57  83 115 150 185 229 286 344
#     4   8  15  30  52  79 110 141 178 225 274 325
#     4  11  24  40  57  80 113 151 188 236 297 348
#     4  10  21  38  60  83 106 140 189 238 285 341
#     4  10  21  36  56  83 112 147 194 238 281 336
#     4   9  18  33  55  84 116 151 190 231 278 331
#
# _framework density 22.607234999999999
#
# number of rings (size 3 to 8) (size 9 to 14) (size 15 to 20)
#    0.000    2.167    0.000    3.000    0.000    6.333 
#    0.000    0.833    0.000    6.000    0.000    0.000 
#    0.000    0.000    0.000    0.000    0.000    1.000 
#
# Total GULP energy -133686.416444 kJ/mol
# GULP energy per Si atom -5570.267352 kJ/mol
# Density = 2.255578 g / cm^3
# Si number density = 22.607235 Si / 1000 Ang^3
#
#
#
# Elastic Constant Matrix: (Units=GPa)
#
#
# Indices 1 2 3 4 5 6 
#
# 1 59.7364 29.5888 -2.3763 0.0000 -12.6009 0.0000
# 2 29.5888 178.5251 35.0728 0.0000 13.1721 0.0000
# 3 -2.3763 35.0728 57.9257 0.0000 -16.7724 0.0000
# 4 0.0000 0.0000 0.0000 30.5714 0.0000 3.6660
# 5 -12.6009 13.1721 -16.7724 0.0000 28.4950 0.0000
# 6 0.0000 0.0000 0.0000 3.6660 0.0000 24.1048
#
#
#
# Elastic Compliance Matrix: (Units=1/GPa)
#
#
# Indices 1 2 3 4 5 6 
#
# 1 0.026556 -0.008730 0.013193 0.000000 0.023544 0.000000
# 2 -0.008730 0.010318 -0.010975 0.000000 -0.015090 0.000000
# 3 0.013193 -0.010975 0.033280 0.000000 0.030496 0.000000
# 4 0.000000 0.000000 0.000000 0.033318 0.000000 -0.005067
# 5 0.023544 -0.015090 0.030496 0.000000 0.070431 0.000000
# 6 0.000000 0.000000 0.000000 -0.005067 0.000000 0.042256
#
#
# Mechanical properties :
#
#
# Convention : Reuss Voigt Hill
#
# Bulk Modulus (GPa) = 17.50431 46.75087 32.12759
# Shear Modulus (GPa) = 20.14288 32.22770 26.18529
#
# Velocity S-wave (km/s) = 2.98819 3.77974 3.40703
# Velocity P-wave (km/s) = 4.43456 6.30659 5.45153
#
# Compressibility (1/GPa) = 0.05712880
#
# Stress axis : x y z
#
# Youngs Moduli (GPa) = 37.65647 96.91902 30.04828
#
# Poissons Ratio (x) = 0.84614 -0.39642
# Poissons Ratio (y) = 0.32875 0.32977
# Poissons Ratio (z) = -0.49679 1.06366
#
# Static dielectric constant tensor:
#      x y z
#    x 1.907710 0.000000 0.004580 
#    y 0.000000 1.917250 0.000000 
#    z 0.004580 0.000000 1.781570 
# 
# From -- ./inp_files/18783.got.cif
#   From: 2010.05.17/outbox.cif.g08.bks.cpg/sg10_10_cif.got.tgz:18783.got - 2010.06.03 11:33:40.
