data_PCOD9152057
_publ_section_title
;
Structure prediction by ZEFSAII (Michael W. Deem and Ramdas Pophale) SiO2 
 PCOD9152057
Probable space group: P 2/M
;
_chemical_formula_sum "Si O2"
_cell_formula_units_Z 28
_cell_length_a 15.619304
_cell_length_b 8.568224
_cell_length_c 21.327864
_cell_angle_alpha 90.000000
_cell_angle_beta 152.467212
_cell_angle_gamma 90.000000
_cell_volume 1319.418405
_symmetry_space_group_name_H-M "P 2/M"
_symmetry_group_IT_number 10
_symmetry_cell_setting 'monoclinic'
loop_
_space_group_symop_operation_xyz
x,y,z
-x,y,-z
-x,-y,-z
x,-y,z
loop_
_atom_site_type_symbol
_atom_site_label
_atom_site_fract_x
_atom_site_fract_y
_atom_site_fract_z
Si Si1 0.145117 0.816992 0.179599
Si Si2 0.303501 0.812663 0.406445
Si Si3 0.182390 0.814956 0.585233
Si Si4 0.110123 0.686301 0.402992
Si Si5 0.303351 0.310494 0.903896
Si Si6 0.457420 0.317069 0.134476
Si Si7 0.278879 0.816885 0.139547
O O1 0.163965 0.754238 0.261389
O O2 0.276270 0.754668 0.209148
O O3 0.197584 0.000000 0.217582
O O4 0.935406 0.812941 0.020655
O O5 0.500000 0.779880 0.500000
O O6 0.242348 0.738354 0.431815
O O7 0.293721 0.000000 0.409324
O O8 0.191261 0.745952 0.521354
O O9 0.350542 0.773390 0.740015
O O10 0.000000 0.751405 0.500000
O O11 0.170294 0.000000 0.570741
O O12 0.103424 0.500000 0.400118
O O13 0.895795 0.743858 0.252529
O O14 0.300229 0.500000 0.896867
O O15 0.500000 0.260417 0.000000
O O16 0.324367 0.267925 0.991147
O O17 0.492957 0.500000 0.149759
O O18 0.380166 0.281737 0.153155
O O19 0.339253 0.000000 0.177227
#
# Coordination Sequence:
#
# PCOD9152057 Si02
#       7
#     4   4   4   4   4   4   4
#     4   8  16  32  53  78 109 152 201 243 289 343
#     4  10  21  36  56  82 117 163 210 251 297 356
#     4  11  25  44  64  88 120 159 203 252 306 366
#     4  11  23  40  64  93 126 164 204 253 310 366
#     4   9  19  37  61  88 120 158 198 243 303 373
#     4  11  22  36  59  90 120 152 196 244 300 362
#     4   9  17  32  55  79 109 150 196 244 292 348
#
# _framework density 21.221471999999999
#
# number of rings (size 3 to 8) (size 9 to 14) (size 15 to 20)
#    0.000    2.143    0.000    3.857    2.000    2.571 
#    0.000    4.286    0.000    5.143    0.000    0.000 
#    0.000    0.000    0.000    0.000    0.000    0.000 
#
# Total GULP energy -156182.865625 kJ/mol
# GULP energy per Si atom -5577.959487 kJ/mol
# Density = 2.117317 g / cm^3
# Si number density = 21.221472 Si / 1000 Ang^3
#
#
#
# Elastic Constant Matrix: (Units=GPa)
#
#
# Indices 1 2 3 4 5 6 
#
# 1 68.9351 16.8227 -3.9833 0.0000 -9.0895 0.0000
# 2 16.8227 23.1753 11.6369 0.0000 -4.2561 0.0000
# 3 -3.9833 11.6369 61.6934 0.0000 -7.1318 0.0000
# 4 0.0000 0.0000 0.0000 11.9993 0.0000 9.8299
# 5 -9.0895 -4.2561 -7.1318 0.0000 31.0748 0.0000
# 6 0.0000 0.0000 0.0000 9.8299 0.0000 23.4825
#
#
#
# Elastic Compliance Matrix: (Units=1/GPa)
#
#
# Indices 1 2 3 4 5 6 
#
# 1 0.019134 -0.015395 0.004666 0.000000 0.004559 0.000000
# 2 -0.015395 0.060695 -0.012329 0.000000 0.000980 0.000000
# 3 0.004666 -0.012329 0.019311 0.000000 0.004108 0.000000
# 4 0.000000 0.000000 0.000000 0.126832 0.000000 -0.053093
# 5 0.004559 0.000980 0.004108 0.000000 0.034591 0.000000
# 6 0.000000 0.000000 0.000000 -0.053093 0.000000 0.064810
#
#
# Mechanical properties :
#
#
# Convention : Reuss Voigt Hill
#
# Bulk Modulus (GPa) = 18.85920 22.52847 20.69384
# Shear Modulus (GPa) = 12.84803 21.93315 17.39059
#
# Velocity S-wave (km/s) = 2.46321 3.21835 2.86576
# Velocity P-wave (km/s) = 4.12262 4.94463 4.55222
#
# Compressibility (1/GPa) = 0.05302451
#
# Stress axis : x y z
#
# Youngs Moduli (GPa) = 52.26258 16.47572 51.78399
#
# Poissons Ratio (x) = 0.25364 -0.24164
# Poissons Ratio (y) = 0.80459 0.63846
# Poissons Ratio (z) = -0.24387 0.20313
#
# Static dielectric constant tensor:
#      x y z
#    x 1.803630 0.000000 0.032380 
#    y 0.000000 1.727730 0.000000 
#    z 0.032380 0.000000 1.840690 
# 
# From -- ./inp_files/84974.got.cif
#   From: 2010.05.17/outbox.cif.g08.bks.cpg/sg10_43_cif.got.tgz:84974.got - 2010.06.03 11:33:40.
