data_PCOD9152055
_publ_section_title
;
Structure prediction by ZEFSAII (Michael W. Deem and Ramdas Pophale) SiO2 
 PCOD9152055
Probable space group: P 2/M
;
_chemical_formula_sum "Si O2"
_cell_formula_units_Z 28
_cell_length_a 9.051858
_cell_length_b 20.560546
_cell_length_c 15.643488
_cell_angle_alpha 90.000000
_cell_angle_beta 150.000328
_cell_angle_gamma 90.000000
_cell_volume 1455.699280
_symmetry_space_group_name_H-M "P 2/M"
_symmetry_group_IT_number 10
_symmetry_cell_setting 'monoclinic'
loop_
_space_group_symop_operation_xyz
x,y,z
-x,y,-z
-x,-y,-z
x,-y,z
loop_
_atom_site_type_symbol
_atom_site_label
_atom_site_fract_x
_atom_site_fract_y
_atom_site_fract_z
Si Si1 0.636661 0.929121 0.433579
Si Si2 0.349193 0.800005 0.666075
Si Si3 0.299836 0.199996 0.982954
Si Si4 0.713816 0.345677 0.023729
Si Si5 0.356444 0.654323 0.666358
Si Si6 0.027411 0.929121 0.230499
Si Si7 0.675271 0.577803 0.675271
O O1 0.590402 0.865432 0.354919
O O2 0.342447 0.933908 0.342450
O O3 0.906321 0.920309 0.635438
O O4 0.674332 0.000000 0.408665
O O5 0.506024 0.804922 0.835342
O O6 0.426164 0.728323 0.669546
O O7 0.000000 0.798168 0.500000
O O8 0.156305 0.271677 0.912925
O O9 0.500000 0.201836 0.000000
O O10 0.116052 0.134569 0.880561
O O11 0.515761 0.353589 0.838587
O O12 0.500000 0.353015 0.000000
O O13 0.993512 0.393269 0.163297
O O14 0.497135 0.606732 0.666919
O O15 0.000000 0.646985 0.500000
O O16 0.877327 0.000000 0.143000
O O17 0.500000 0.594278 0.500000
O O18 0.689644 0.500000 0.689647
#
# Coordination Sequence:
#
# PCOD9152055 Si02
#       7
#     4   4   4   4   4   4   4
#     4   9  19  35  53  76 108 147 190 235 287 344
#     4  10  21  36  56  82 111 145 190 237 287 344
#     4  10  21  36  56  82 111 145 190 237 287 344
#     4  10  22  41  64  92 126 162 203 251 302 358
#     4  10  22  41  64  92 126 162 203 251 302 358
#     4   9  19  35  53  76 108 147 190 235 287 344
#     4  11  25  43  65  95 126 161 204 243 293 362
#
# _framework density 19.234741
#
# number of rings (size 3 to 8) (size 9 to 14) (size 15 to 20)
#    0.000    2.143    0.000    3.000    2.000    6.857 
#    0.000    1.429    0.000    0.000    0.000    0.000 
#    0.000    0.000    0.000    0.000    0.000    0.000 
#
# Total GULP energy -156060.057638 kJ/mol
# GULP energy per Si atom -5573.573487 kJ/mol
# Density = 1.919096 g / cm^3
# Si number density = 19.234741 Si / 1000 Ang^3
#
#
#
# Elastic Constant Matrix: (Units=GPa)
#
#
# Indices 1 2 3 4 5 6 
#
# 1 82.1031 67.7165 43.1201 0.0000 -7.4851 0.0000
# 2 67.7165 149.6498 81.3130 0.0000 -10.1532 0.0000
# 3 43.1201 81.3130 97.7337 0.0000 -4.1887 0.0000
# 4 0.0000 0.0000 0.0000 41.8638 0.0000 5.2075
# 5 -7.4851 -10.1532 -4.1887 0.0000 22.0427 0.0000
# 6 0.0000 0.0000 0.0000 5.2075 0.0000 48.8446
#
#
#
# Elastic Compliance Matrix: (Units=1/GPa)
#
#
# Indices 1 2 3 4 5 6 
#
# 1 0.019889 -0.007492 -0.002420 0.000000 0.002843 0.000000
# 2 -0.007492 0.015328 -0.009329 0.000000 0.002743 0.000000
# 3 -0.002420 -0.009329 0.018997 0.000000 -0.001509 0.000000
# 4 0.000000 0.000000 0.000000 0.024208 0.000000 -0.002581
# 5 0.002843 0.002743 -0.001509 0.000000 0.047309 0.000000
# 6 0.000000 0.000000 0.000000 -0.002581 0.000000 0.020748
#
#
# Mechanical properties :
#
#
# Convention : Reuss Voigt Hill
#
# Bulk Modulus (GPa) = 63.56920 79.30954 71.43937
# Shear Modulus (GPa) = 26.28742 31.70602 28.99672
#
# Velocity S-wave (km/s) = 3.70085 4.06442 3.88689
# Velocity P-wave (km/s) = 7.16817 7.95914 7.57399
#
# Compressibility (1/GPa) = 0.01573089
#
# Stress axis : x y z
#
# Youngs Moduli (GPa) = 50.27855 65.24148 52.64050
#
# Poissons Ratio (x) = 0.48879 0.12739
# Poissons Ratio (y) = 0.37669 0.49110
# Poissons Ratio (z) = 0.12167 0.60866
#
# Static dielectric constant tensor:
#      x y z
#    x 1.660840 0.000000 -0.003990 
#    y 0.000000 1.737520 0.000000 
#    z -0.003990 0.000000 1.666180 
# 
# From -- ./inp_files/62611.got.cif
#   From: 2010.05.17/outbox.cif.g08.bks.cpg/sg10_32_cif.got.tgz:62611.got - 2010.06.03 11:33:40.
