data_PCOD9152874
_publ_section_title
;
Structure prediction by ZEFSAII (Michael W. Deem and Ramdas Pophale) SiO2 
 PCOD9152874
Probable space group: P 2/M
;
_chemical_formula_sum "Si O2"
_cell_formula_units_Z 32
_cell_length_a 12.019648
_cell_length_b 8.172370
_cell_length_c 29.121735
_cell_angle_alpha 90.000000
_cell_angle_beta 31.624693
_cell_angle_gamma 90.000000
_cell_volume 1499.963581
_symmetry_space_group_name_H-M "P 2/M"
_symmetry_group_IT_number 10
_symmetry_cell_setting 'monoclinic'
loop_
_space_group_symop_operation_xyz
x,y,z
-x,y,-z
-x,-y,-z
x,-y,z
loop_
_atom_site_type_symbol
_atom_site_label
_atom_site_fract_x
_atom_site_fract_y
_atom_site_fract_z
Si Si1 0.448367 0.693286 0.785033
Si Si2 0.874969 0.696539 0.340880
Si Si3 0.145355 0.188627 0.408030
Si Si4 0.628611 0.191841 0.339695
Si Si5 0.636581 0.302775 0.815458
Si Si6 0.101913 0.804104 0.841379
Si Si7 0.796283 0.310018 0.469114
Si Si8 0.618107 0.801908 0.005030
O O1 0.420730 0.500000 0.798765
O O2 0.635215 0.728450 0.682614
O O3 0.530109 0.758635 0.805545
O O4 0.230035 0.765512 0.842563
O O5 0.866675 0.500000 0.335252
O O6 0.776071 0.785573 0.332328
O O7 0.751422 0.728133 0.431793
O O8 0.118281 0.746342 0.264468
O O9 0.000000 0.260516 0.500000
O O10 0.990124 0.203378 0.419166
O O11 0.191359 0.000000 0.403360
O O12 0.755934 0.257284 0.251102
O O13 0.409139 0.281062 0.427873
O O14 0.580993 0.000000 0.349549
O O15 0.638794 0.500000 0.811672
O O16 0.507231 0.250985 0.905655
O O17 0.091295 0.000000 0.840190
O O18 0.861355 0.742311 0.922716
O O19 0.863813 0.500000 0.447324
O O20 0.620933 0.000000 0.002808
O O21 0.500000 0.745810 0.000000
#
# Coordination Sequence:
#
# PCOD9152874 Si02
#       8
#     4   4   4   4   4   4   4   4
#     4  11  23  41  63  89 122 161 206 250 302 366
#     4  10  21  39  59  83 120 160 199 247 305 364
#     4  11  23  38  58  86 121 161 207 257 304 355
#     4  11  23  38  58  87 121 158 204 255 305 360
#     4  10  22  41  63  90 123 158 201 254 306 362
#     4  10  23  42  61  87 125 159 197 252 306 360
#     4  11  22  38  58  84 120 161 203 249 303 363
#     4  10  22  42  67  94 123 159 202 248 305 369
#
# _framework density 21.333853000000001
#
# number of rings (size 3 to 8) (size 9 to 14) (size 15 to 20)
#    0.000    1.500    1.250    3.375    0.000   11.250 
#    0.000    2.500    0.000    0.000    0.000    0.000 
#    0.000    0.000    0.000    0.000    0.000    0.000 
#
# Total GULP energy -178920.322922 kJ/mol
# GULP energy per Si atom -5591.260091 kJ/mol
# Density = 2.128530 g / cm^3
# Si number density = 21.333853 Si / 1000 Ang^3
#
#
#
# Elastic Constant Matrix: (Units=GPa)
#
#
# Indices 1 2 3 4 5 6 
#
# 1 96.9235 1.4226 33.1237 0.0000 -15.8012 0.0000
# 2 1.4226 8.5805 3.1156 0.0000 -1.8428 0.0000
# 3 33.1237 3.1156 113.4640 0.0000 -7.9910 0.0000
# 4 0.0000 0.0000 0.0000 18.1617 0.0000 -10.8554
# 5 -15.8012 -1.8428 -7.9910 0.0000 38.9749 0.0000
# 6 0.0000 0.0000 0.0000 -10.8554 0.0000 36.8764
#
#
#
# Elastic Compliance Matrix: (Units=1/GPa)
#
#
# Indices 1 2 3 4 5 6 
#
# 1 0.012117 0.000081 -0.003240 0.000000 0.004252 0.000000
# 2 0.000081 0.118676 -0.002927 0.000000 0.005044 0.000000
# 3 -0.003240 -0.002927 0.009880 0.000000 0.000574 0.000000
# 4 0.000000 0.000000 0.000000 0.066817 0.000000 0.019669
# 5 0.004252 0.005044 0.000574 0.000000 0.027737 0.000000
# 6 0.000000 0.000000 0.000000 0.019669 0.000000 0.032908
#
#
# Mechanical properties :
#
#
# Convention : Reuss Voigt Hill
#
# Bulk Modulus (GPa) = 7.78207 32.69906 20.24057
# Shear Modulus (GPa) = 15.47309 30.88967 23.18138
#
# Velocity S-wave (km/s) = 2.69603 3.80928 3.29994
# Velocity P-wave (km/s) = 3.65337 5.89136 4.90179
#
# Compressibility (1/GPa) = 0.12850050
#
# Stress axis : x y z
#
# Youngs Moduli (GPa) = 82.53094 8.42628 101.21451
#
# Poissons Ratio (x) = -0.00068 0.32794
# Poissons Ratio (y) = -0.00666 0.29626
# Poissons Ratio (z) = 0.26740 0.02466
#
# Static dielectric constant tensor:
#      x y z
#    x 1.780540 0.000000 0.003410 
#    y 0.000000 1.743710 0.000000 
#    z 0.003410 0.000000 1.749080 
# 
# From -- ./inp_files/94941.got.cif
#   From: 2010.05.17/outbox.cif.g08.bks.cpg/sg10_48_cif.got.tgz:94941.got - 2010.06.03 11:33:40.
