data_PCOD9152910
_publ_section_title
;
Structure prediction by ZEFSAII (Michael W. Deem and Ramdas Pophale) SiO2 
 PCOD9152910
Probable space group: P 2/M
;
_chemical_formula_sum "Si O2"
_cell_formula_units_Z 18
_cell_length_a 9.292101
_cell_length_b 10.221816
_cell_length_c 10.153450
_cell_angle_alpha 90.000000
_cell_angle_beta 90.189181
_cell_angle_gamma 90.000000
_cell_volume 964.391220
_symmetry_space_group_name_H-M "P 2/M"
_symmetry_group_IT_number 10
_symmetry_cell_setting 'monoclinic'
loop_
_space_group_symop_operation_xyz
x,y,z
-x,y,-z
-x,-y,-z
x,-y,z
loop_
_atom_site_type_symbol
_atom_site_label
_atom_site_fract_x
_atom_site_fract_y
_atom_site_fract_z
Si Si1 0.399489 0.500000 0.370909
Si Si2 0.330601 0.730119 0.978639
Si Si3 0.909371 0.000000 0.779439
Si Si4 0.794396 0.000000 0.082064
Si Si5 0.034721 0.500000 0.653422
Si Si6 0.183892 0.712206 0.263797
Si Si7 0.683653 0.500000 0.213555
O O1 0.500000 0.500000 0.500000
O O2 0.299569 0.629542 0.351688
O O3 0.517845 0.500000 0.254777
O O4 0.281865 0.623386 0.875367
O O5 0.299025 0.870156 0.915145
O O6 0.500000 0.714967 0.000000
O O7 0.246848 0.710565 0.115675
O O8 0.852576 0.865695 0.712235
O O9 0.081028 0.000000 0.807227
O O10 0.855423 0.000000 0.931802
O O11 0.205546 0.500000 0.666928
O O12 0.000000 0.500000 0.500000
O O13 0.960279 0.626279 0.720221
#
# Coordination Sequence:
#
# PCOD9152910 Si02
#       7
#     2   4   2   2   2   4   2
#     4  11  22  39  58  80 112 161 200 240 288 335
#     4  11  20  34  57  91 125 147 188 232 298 351
#     4   9  18  36  58  86 115 153 193 227 290 350
#     4   9  19  32  54  86 127 157 174 221 294 367
#     4  11  24  40  58  83 113 157 205 239 290 338
#     4  10  21  39  61  83 120 152 187 245 291 343
#     4  12  21  34  58  85 115 148 197 245 280 347
#
# _framework density 18.664625999999998
#
# number of rings (size 3 to 8) (size 9 to 14) (size 15 to 20)
#    0.000    1.556    2.222    4.667    0.000    3.556 
#    0.000    1.111    0.000    2.667    0.000    0.000 
#    0.000    0.000    0.000    0.000    0.000    0.000 
#
# Total GULP energy -100366.371986 kJ/mol
# GULP energy per Si atom -5575.909555 kJ/mol
# Density = 1.862214 g / cm^3
# Si number density = 18.664626 Si / 1000 Ang^3
#
#
#
# Elastic Constant Matrix: (Units=GPa)
#
#
# Indices 1 2 3 4 5 6 
#
# 1 83.3962 25.0531 20.6305 0.0000 19.7494 0.0000
# 2 25.0531 157.5470 44.7736 0.0000 20.9791 0.0000
# 3 20.6305 44.7736 48.4928 0.0000 16.3522 0.0000
# 4 0.0000 0.0000 0.0000 24.6089 0.0000 6.7026
# 5 19.7494 20.9791 16.3522 0.0000 40.3027 0.0000
# 6 0.0000 0.0000 0.0000 6.7026 0.0000 24.5209
#
#
#
# Elastic Compliance Matrix: (Units=1/GPa)
#
#
# Indices 1 2 3 4 5 6 
#
# 1 0.014329 -0.000478 -0.003905 0.000000 -0.005188 0.000000
# 2 -0.000478 0.008695 -0.007389 0.000000 -0.001294 0.000000
# 3 -0.003905 -0.007389 0.031468 0.000000 -0.007008 0.000000
# 4 0.000000 0.000000 0.000000 0.043904 0.000000 -0.012001
# 5 -0.005188 -0.001294 -0.007008 0.000000 0.030872 0.000000
# 6 0.000000 0.000000 0.000000 -0.012001 0.000000 0.044062
#
#
# Mechanical properties :
#
#
# Convention : Reuss Voigt Hill
#
# Bulk Modulus (GPa) = 32.31127 52.26116 42.28622
# Shear Modulus (GPa) = 24.13229 31.15178 27.64203
#
# Velocity S-wave (km/s) = 3.59965 4.08981 3.85253
# Velocity P-wave (km/s) = 5.88436 7.09668 6.51877
#
# Compressibility (1/GPa) = 0.03094896
#
# Stress axis : x y z
#
# Youngs Moduli (GPa) = 69.78704 115.00202 31.77798
#
# Poissons Ratio (x) = 0.05496 0.12410
# Poissons Ratio (y) = 0.03335 0.23480
# Poissons Ratio (z) = 0.27254 0.84973
#
# Static dielectric constant tensor:
#      x y z
#    x 1.653520 0.000000 -0.000730 
#    y 0.000000 1.633830 0.000000 
#    z -0.000730 0.000000 1.641610 
# 
# From -- ./inp_files/17910.got.cif
#   From: 2010.05.17/outbox.cif.g08.bks.cpg/sg10_9_cif.got.tgz:17910.got - 2010.06.03 11:33:40.
