data_PCOD9152526
_publ_section_title
;
Structure prediction by ZEFSAII (Michael W. Deem and Ramdas Pophale) SiO2 
 PCOD9152526
Probable space group: P 2/M
;
_chemical_formula_sum "Si O2"
_cell_formula_units_Z 32
_cell_length_a 11.470353
_cell_length_b 14.522021
_cell_length_c 9.344401
_cell_angle_alpha 90.000000
_cell_angle_beta 76.680182
_cell_angle_gamma 90.000000
_cell_volume 1514.650546
_symmetry_space_group_name_H-M "P 2/M"
_symmetry_group_IT_number 10
_symmetry_cell_setting 'monoclinic'
loop_
_space_group_symop_operation_xyz
x,y,z
-x,y,-z
-x,-y,-z
x,-y,z
loop_
_atom_site_type_symbol
_atom_site_label
_atom_site_fract_x
_atom_site_fract_y
_atom_site_fract_z
Si Si1 0.193364 0.721022 0.748768
Si Si2 0.558246 0.104777 0.833799
Si Si3 0.942090 0.894278 0.361433
Si Si4 0.476002 0.732222 0.672436
Si Si5 0.607701 0.603899 0.856442
Si Si6 0.022768 0.606507 0.661541
Si Si7 0.184520 0.097502 0.114007
Si Si8 0.837850 0.302213 0.932215
O O1 0.141474 0.817239 0.693448
O O2 0.334050 0.726209 0.736997
O O3 0.156569 0.644083 0.644692
O O4 0.137924 0.674493 0.909929
O O5 0.518849 0.169317 0.718418
O O6 0.701319 0.103755 0.813789
O O7 0.516822 0.000000 0.826778
O O8 0.500000 0.139119 0.000000
O O9 0.000000 0.866754 0.500000
O O10 0.059237 0.903533 0.230092
O O11 0.891044 0.000000 0.390627
O O12 0.500000 0.721876 0.500000
O O13 0.553986 0.659103 0.738807
O O14 0.644577 0.500000 0.808219
O O15 0.717228 0.655421 0.901553
O O16 0.500000 0.600003 0.000000
O O17 0.006415 0.500000 0.708046
O O18 0.936297 0.670519 0.784952
O O19 0.000000 0.615439 0.500000
O O20 0.181777 0.193094 0.034966
O O21 0.197624 0.000000 0.029210
#
# Coordination Sequence:
#
# PCOD9152526 Si02
#       8
#     4   4   4   4   4   4   4   4
#     4  12  26  42  67 101 135 174 224 278 339 401
#     4  10  21  41  67  94 131 178 227 276 329 401
#     4  10  23  42  66  96 136 184 228 276 336 402
#     4  12  27  42  66 101 138 177 218 285 344 408
#     4  11  24  46  71  94 127 175 231 285 344 413
#     4  11  27  47  69  98 132 176 225 280 343 401
#     4  10  21  37  67  97 127 172 221 267 323 391
#     4  12  23  43  73 100 134 176 223 282 335 406
#
# _framework density 21.126987
#
# number of rings (size 3 to 8) (size 9 to 14) (size 15 to 20)
#    0.000    1.000    3.750    2.250    3.500    3.500 
#    0.000    1.250    0.000    0.000    0.000    0.000 
#    0.000    0.000    0.000    0.000    0.000    0.000 
#
# Total GULP energy -178518.115272 kJ/mol
# GULP energy per Si atom -5578.691102 kJ/mol
# Density = 2.107890 g / cm^3
# Si number density = 21.126987 Si / 1000 Ang^3
#
#
#
# Elastic Constant Matrix: (Units=GPa)
#
#
# Indices 1 2 3 4 5 6 
#
# 1 68.7691 14.6336 4.2353 0.0000 8.9055 0.0000
# 2 14.6336 98.8903 36.3436 0.0000 14.9337 0.0000
# 3 4.2353 36.3436 85.2037 0.0000 19.8882 0.0000
# 4 0.0000 0.0000 0.0000 13.4805 0.0000 -12.7120
# 5 8.9055 14.9337 19.8882 0.0000 29.8253 0.0000
# 6 0.0000 0.0000 0.0000 -12.7120 0.0000 4.0138
#
#
#
# Elastic Compliance Matrix: (Units=1/GPa)
#
#
# Indices 1 2 3 4 5 6 
#
# 1 0.015470 -0.002044 0.001116 0.000000 -0.004340 0.000000
# 2 -0.002044 0.012505 -0.004635 0.000000 -0.002560 0.000000
# 3 0.001116 -0.004635 0.015626 0.000000 -0.008433 0.000000
# 4 0.000000 0.000000 0.000000 -0.037342 0.000000 -0.118265
# 5 -0.004340 -0.002560 -0.008433 0.000000 0.041729 0.000000
# 6 0.000000 0.000000 0.000000 -0.118265 0.000000 -0.125416
#
#
# Mechanical properties :
#
#
# Convention : Reuss Voigt Hill
#
# Bulk Modulus (GPa) = 30.79267 40.36533 35.57900
# Shear Modulus (GPa) = -90.12729 22.64062 -33.74334
#
# Velocity S-wave (km/s) = -6.53853 3.27715 -4.00079
# Velocity P-wave (km/s) = 6.51126 5.78508 2.11298
#
# Compressibility (1/GPa) = 0.03247526
#
# Stress axis : x y z
#
# Youngs Moduli (GPa) = 64.64286 79.97063 63.99461
#
# Poissons Ratio (x) = 0.16345 -0.07141
# Poissons Ratio (y) = 0.13212 0.29659
# Poissons Ratio (z) = -0.07213 0.37063
#
# Static dielectric constant tensor:
#      x y z
#    x 1.756000 0.000000 -0.052000 
#    y 0.000000 1.824890 0.000000 
#    z -0.052000 0.000000 1.735190 
# 
# From -- ./inp_files/25311.got.cif
#   From: 2010.05.17/outbox.cif.g08.bks.cpg/sg10_13_cif.got.tgz:25311.got - 2010.06.03 11:33:40.
