data_PCOD9152166
_publ_section_title
;
Structure prediction by ZEFSAII (Michael W. Deem and Ramdas Pophale) SiO2 
 PCOD9152166
Probable space group: P 2/M
;
_chemical_formula_sum "Si O2"
_cell_formula_units_Z 28
_cell_length_a 9.877048
_cell_length_b 14.046365
_cell_length_c 10.279941
_cell_angle_alpha 90.000000
_cell_angle_beta 72.124669
_cell_angle_gamma 90.000000
_cell_volume 1357.356623
_symmetry_space_group_name_H-M "P 2/M"
_symmetry_group_IT_number 10
_symmetry_cell_setting 'monoclinic'
loop_
_space_group_symop_operation_xyz
x,y,z
-x,y,-z
-x,-y,-z
x,-y,z
loop_
_atom_site_type_symbol
_atom_site_label
_atom_site_fract_x
_atom_site_fract_y
_atom_site_fract_z
Si Si1 0.367380 0.190071 0.867342
Si Si2 0.315644 0.114702 0.158927
Si Si3 0.168460 0.795863 0.440092
Si Si4 0.650555 0.111359 0.401738
Si Si5 0.649918 0.606427 0.030507
Si Si6 0.869555 0.607074 0.437788
Si Si7 0.038924 0.613837 0.132878
O O1 0.528202 0.150762 0.840543
O O2 0.310536 0.155882 0.747194
O O3 0.360464 0.304068 0.872313
O O4 0.291945 0.147998 0.017808
O O5 0.210843 0.169090 0.285791
O O6 0.309725 0.000000 0.170688
O O7 0.234912 0.869123 0.522172
O O8 0.222336 0.690952 0.469904
O O9 0.000000 0.794530 0.500000
O O10 0.500000 0.150019 0.500000
O O11 0.631279 0.000000 0.384617
O O12 0.670500 0.500000 0.081170
O O13 0.500000 0.606274 0.000000
O O14 0.790564 0.625163 0.900850
O O15 0.807810 0.500000 0.439354
O O16 0.000000 0.595753 0.500000
O O17 0.939601 0.644487 0.281802
O O18 0.015571 0.500000 0.136756
O O19 0.000000 0.651465 0.000000
#
# Coordination Sequence:
#
# PCOD9152166 Si02
#       7
#     4   4   4   4   4   4   4
#     4  11  22  39  66  95 122 161 216 260 304 377
#     4  11  22  41  65  89 121 166 217 263 310 377
#     4  11  25  41  64  96 130 167 208 262 327 380
#     4  11  23  43  68  91 122 166 217 266 318 384
#     4  10  21  36  59  93 130 162 200 254 314 369
#     4   9  20  38  60  88 125 168 211 246 296 381
#     4   9  19  36  59  83 116 164 210 246 295 366
#
# _framework density 20.628330999999999
#
# number of rings (size 3 to 8) (size 9 to 14) (size 15 to 20)
#    0.000    1.714    2.857    2.143    6.000    1.143 
#    0.000    1.429    0.000    2.571    0.000    0.000 
#    0.000    0.000    0.000    0.000    0.000    0.000 
#
# Total GULP energy -156209.387452 kJ/mol
# GULP energy per Si atom -5578.906695 kJ/mol
# Density = 2.058138 g / cm^3
# Si number density = 20.628331 Si / 1000 Ang^3
#
#
#
# Elastic Constant Matrix: (Units=GPa)
#
#
# Indices 1 2 3 4 5 6 
#
# 1 48.0012 6.5660 26.3677 0.0000 -5.8987 0.0000
# 2 6.5660 128.8357 49.9566 0.0000 -21.9381 0.0000
# 3 26.3677 49.9566 139.3417 0.0000 -3.0453 0.0000
# 4 0.0000 0.0000 0.0000 121.8815 0.0000 -96.6333
# 5 -5.8987 -21.9381 -3.0453 0.0000 21.3163 0.0000
# 6 0.0000 0.0000 0.0000 -96.6333 0.0000 132.9243
#
#
#
# Elastic Compliance Matrix: (Units=1/GPa)
#
#
# Indices 1 2 3 4 5 6 
#
# 1 0.024419 0.002189 -0.005225 0.000000 0.008263 0.000000
# 2 0.002189 0.011249 -0.004194 0.000000 0.011584 0.000000
# 3 -0.005225 -0.004194 0.009573 0.000000 -0.004395 0.000000
# 4 0.000000 0.000000 0.000000 0.019368 0.000000 0.014080
# 5 0.008263 0.011584 -0.004395 0.000000 0.060493 0.000000
# 6 0.000000 0.000000 0.000000 0.014080 0.000000 0.017759
#
#
# Mechanical properties :
#
#
# Convention : Reuss Voigt Hill
#
# Bulk Modulus (GPa) = 32.48831 53.55101 43.01966
# Shear Modulus (GPa) = 29.83625 70.77699 50.30662
#
# Velocity S-wave (km/s) = 3.80725 5.86388 4.94369
# Velocity P-wave (km/s) = 5.92540 8.47721 7.31346
#
# Compressibility (1/GPa) = 0.03078030
#
# Stress axis : x y z
#
# Youngs Moduli (GPa) = 40.95173 88.89724 104.46193
#
# Poissons Ratio (x) = -0.19456 0.54580
# Poissons Ratio (y) = -0.08962 0.43811
# Poissons Ratio (z) = 0.21397 0.37283
#
# Static dielectric constant tensor:
#      x y z
#    x 1.755040 0.000000 -0.030380 
#    y 0.000000 1.794200 0.000000 
#    z -0.030380 0.000000 1.768090 
# 
# From -- ./inp_files/24916.got.cif
#   From: 2010.05.17/outbox.cif.g08.bks.cpg/sg10_13_cif.got.tgz:24916.got - 2010.06.03 11:33:40.
