data_PCOD9152580
_publ_section_title
;
Structure prediction by ZEFSAII (Michael W. Deem and Ramdas Pophale) SiO2 
 PCOD9152580
Probable space group: P 2/M
;
_chemical_formula_sum "Si O2"
_cell_formula_units_Z 22
_cell_length_a 10.887420
_cell_length_b 14.342997
_cell_length_c 12.002927
_cell_angle_alpha 90.000000
_cell_angle_beta 38.355727
_cell_angle_gamma 90.000000
_cell_volume 1163.116588
_symmetry_space_group_name_H-M "P 2/M"
_symmetry_group_IT_number 10
_symmetry_cell_setting 'monoclinic'
loop_
_space_group_symop_operation_xyz
x,y,z
-x,y,-z
-x,-y,-z
x,-y,z
loop_
_atom_site_type_symbol
_atom_site_label
_atom_site_fract_x
_atom_site_fract_y
_atom_site_fract_z
Si Si1 0.749718 0.104026 0.049011
Si Si2 0.515064 0.392637 0.678383
Si Si3 0.780275 0.102824 0.293778
Si Si4 0.347708 0.708551 0.006699
Si Si5 0.017243 0.609898 0.620050
Si Si6 0.500000 0.258047 0.500000
O O1 0.658732 0.191081 0.049547
O O2 0.985419 0.108402 0.859694
O O3 0.679214 0.000000 0.066163
O O4 0.732582 0.110146 0.195410
O O5 0.474140 0.500000 0.681800
O O6 0.753057 0.378981 0.509710
O O7 0.423285 0.324851 0.651395
O O8 0.428422 0.364786 0.859041
O O9 0.666650 0.188482 0.428183
O O10 0.717598 0.000000 0.377998
O O11 0.134991 0.673985 0.203523
O O12 0.500000 0.711742 0.000000
O O13 0.965038 0.500000 0.672887
O O14 0.000000 0.629613 0.500000
#
# Coordination Sequence:
#
# PCOD9152580 Si02
#       6
#     4   4   4   4   4   2
#     4   9  19  37  56  83 116 147 186 234 286 339
#     4  11  24  39  56  86 120 152 190 236 287 339
#     4   9  18  34  60  84 111 148 190 235 278 337
#     4  12  22  37  63  85 112 154 196 234 282 340
#     4  10  21  38  58  82 112 147 193 241 277 325
#     4  12  20  36  58  86 120 148 184 240 288 340
#
# _framework density 18.914698000000001
#
# number of rings (size 3 to 8) (size 9 to 14) (size 15 to 20)
#    0.000    1.636    3.636    3.273    0.000    1.091 
#    0.000    0.000    0.000    4.909    0.000    0.000 
#    0.000    0.000    0.000    0.000    0.000    0.000 
#
# Total GULP energy -122808.636967 kJ/mol
# GULP energy per Si atom -5582.210771 kJ/mol
# Density = 1.887165 g / cm^3
# Si number density = 18.914698 Si / 1000 Ang^3
#
#
#
# Elastic Constant Matrix: (Units=GPa)
#
#
# Indices 1 2 3 4 5 6 
#
# 1 21.1644 14.4207 0.4770 0.0000 5.8463 0.0000
# 2 14.4207 133.2708 28.5442 0.0000 3.2426 0.0000
# 3 0.4770 28.5442 55.2903 0.0000 -6.2121 0.0000
# 4 0.0000 0.0000 0.0000 28.2688 0.0000 1.1577
# 5 5.8463 3.2426 -6.2121 0.0000 23.2934 0.0000
# 6 0.0000 0.0000 0.0000 1.1577 0.0000 13.5256
#
#
#
# Elastic Compliance Matrix: (Units=1/GPa)
#
#
# Indices 1 2 3 4 5 6 
#
# 1 0.054696 -0.005854 0.001134 0.000000 -0.012611 0.000000
# 2 -0.005854 0.009196 -0.004820 0.000000 -0.001096 0.000000
# 3 0.001134 -0.004820 0.021245 0.000000 0.006052 0.000000
# 4 0.000000 0.000000 0.000000 0.035499 0.000000 -0.003038
# 5 -0.012611 -0.001096 0.006052 0.000000 0.047862 0.000000
# 6 0.000000 0.000000 0.000000 -0.003038 0.000000 0.074194
#
#
# Mechanical properties :
#
#
# Convention : Reuss Voigt Hill
#
# Bulk Modulus (GPa) = 15.13882 32.95657 24.04769
# Shear Modulus (GPa) = 17.61846 24.10313 20.86079
#
# Velocity S-wave (km/s) = 3.05531 3.57362 3.32458
# Velocity P-wave (km/s) = 4.52412 5.87276 5.24199
#
# Compressibility (1/GPa) = 0.06605535
#
# Stress axis : x y z
#
# Youngs Moduli (GPa) = 18.28282 108.74192 47.06971
#
# Poissons Ratio (x) = 0.63662 -0.05336
# Poissons Ratio (y) = 0.10704 0.22689
# Poissons Ratio (z) = -0.02073 0.52416
#
# Static dielectric constant tensor:
#      x y z
#    x 1.634410 0.000000 -0.010560 
#    y 0.000000 1.662840 0.000000 
#    z -0.010560 0.000000 1.658290 
# 
# From -- ./inp_files/46458.got.cif
#   From: 2010.05.17/outbox.cif.g08.bks.cpg/sg10_24_cif.got.tgz:46458.got - 2010.06.03 11:33:40.
