data_PCOD9152292
_publ_section_title
;
Structure prediction by ZEFSAII (Michael W. Deem and Ramdas Pophale) SiO2 
 PCOD9152292
Probable space group: P 2/M
;
_chemical_formula_sum "Si O2"
_cell_formula_units_Z 32
_cell_length_a 29.182710
_cell_length_b 7.732004
_cell_length_c 12.532050
_cell_angle_alpha 90.000000
_cell_angle_beta 148.899935
_cell_angle_gamma 90.000000
_cell_volume 1460.625823
_symmetry_space_group_name_H-M "P 2/M"
_symmetry_group_IT_number 10
_symmetry_cell_setting 'monoclinic'
loop_
_space_group_symop_operation_xyz
x,y,z
-x,y,-z
-x,-y,-z
x,-y,z
loop_
_atom_site_type_symbol
_atom_site_label
_atom_site_fract_x
_atom_site_fract_y
_atom_site_fract_z
Si Si1 0.110973 0.209456 0.903885
Si Si2 0.493139 0.290574 0.660813
Si Si3 0.899002 0.300826 0.789562
Si Si4 0.162101 0.295135 0.776802
Si Si5 0.640618 0.289403 0.783463
Si Si6 0.074998 0.799306 0.383304
Si Si7 0.249234 0.200871 0.342596
Si Si8 0.440359 0.202481 0.785835
O O1 0.105774 0.262090 0.770843
O O2 0.024323 0.270673 0.794821
O O3 0.110591 0.000000 0.907540
O O4 0.199855 0.275519 0.139694
O O5 0.492302 0.500000 0.665982
O O6 0.576779 0.240757 0.754497
O O7 0.406741 0.234251 0.420486
O O8 0.491155 0.217531 0.775003
O O9 0.900706 0.500000 0.827993
O O10 0.878171 0.291457 0.622339
O O11 0.825301 0.209373 0.713896
O O12 0.000000 0.231105 0.000000
O O13 0.166912 0.500000 0.768234
O O14 0.123936 0.215300 0.593511
O O15 0.260276 0.227473 0.000477
O O16 0.641864 0.500000 0.783144
O O17 0.068549 0.000000 0.341023
O O18 0.342160 0.279014 0.567418
O O19 0.267615 0.000000 0.354292
O O20 0.426345 0.000000 0.785166
O O21 0.500000 0.278216 0.000000
#
# Coordination Sequence:
#
# PCOD9152292 Si02
#       8
#     4   4   4   4   4   4   4   4
#     4  10  21  37  57  80 108 147 194 233 273 338
#     4   9  17  35  61  81 105 145 190 228 274 336
#     4  11  23  39  61  88 115 141 185 245 290 330
#     4  11  22  35  54  83 118 148 183 234 289 335
#     4   8  17  34  56  83 111 142 180 229 283 336
#     4  11  23  39  58  79 111 153 192 229 276 341
#     4  10  21  39  62  84 112 155 195 230 282 346
#     4  10  22  38  55  82 119 150 184 235 286 329
#
# _framework density 21.908417
#
# number of rings (size 3 to 8) (size 9 to 14) (size 15 to 20)
#    0.000    2.000    1.250    3.000    0.000    5.250 
#    0.000    5.625    0.000    0.000    0.000    0.000 
#    0.000    0.000    0.000    0.000    0.000    0.000 
#
# Total GULP energy -178797.747114 kJ/mol
# GULP energy per Si atom -5587.429597 kJ/mol
# Density = 2.185855 g / cm^3
# Si number density = 21.908417 Si / 1000 Ang^3
#
#
#
# Elastic Constant Matrix: (Units=GPa)
#
#
# Indices 1 2 3 4 5 6 
#
# 1 72.2473 -11.6443 26.0827 0.0000 -25.0858 0.0000
# 2 -11.6443 42.6350 3.3408 0.0000 1.8456 0.0000
# 3 26.0827 3.3408 99.5692 0.0000 -24.2056 0.0000
# 4 0.0000 0.0000 0.0000 14.8678 0.0000 -2.7404
# 5 -25.0858 1.8456 -24.2056 0.0000 34.8456 0.0000
# 6 0.0000 0.0000 0.0000 -2.7404 0.0000 19.9971
#
#
#
# Elastic Compliance Matrix: (Units=1/GPa)
#
#
# Indices 1 2 3 4 5 6 
#
# 1 0.019793 0.005056 -0.002353 0.000000 0.012347 0.000000
# 2 0.005056 0.024944 -0.001922 0.000000 0.000983 0.000000
# 3 -0.002353 -0.001922 0.012437 0.000000 0.007048 0.000000
# 4 0.000000 0.000000 0.000000 0.069002 0.000000 0.009456
# 5 0.012347 0.000983 0.007048 0.000000 0.042430 0.000000
# 6 0.000000 0.000000 0.000000 0.009456 0.000000 0.051303
#
#
# Mechanical properties :
#
#
# Convention : Reuss Voigt Hill
#
# Bulk Modulus (GPa) = 17.02568 27.77888 22.40228
# Shear Modulus (GPa) = 21.01490 27.05361 24.03425
#
# Velocity S-wave (km/s) = 3.10048 3.51786 3.31574
# Velocity P-wave (km/s) = 4.53933 5.40439 4.99064
#
# Compressibility (1/GPa) = 0.05873480
#
# Stress axis : x y z
#
# Youngs Moduli (GPa) = 50.52368 40.09017 80.40260
#
# Poissons Ratio (x) = -0.20268 0.18918
# Poissons Ratio (y) = -0.25543 0.15455
# Poissons Ratio (z) = 0.11888 0.07706
#
# Static dielectric constant tensor:
#      x y z
#    x 1.764180 0.000000 0.007910 
#    y 0.000000 1.833490 0.000000 
#    z 0.007910 0.000000 1.831450 
# 
# From -- ./inp_files/58261.got.cif
#   From: 2010.05.17/outbox.cif.g08.bks.cpg/sg10_30_cif.got.tgz:58261.got - 2010.06.03 11:33:40.
