data_PCOD9152140
_publ_section_title
;
Structure prediction by ZEFSAII (Michael W. Deem and Ramdas Pophale) SiO2 
 PCOD9152140
Probable space group: P 2/M
;
_chemical_formula_sum "Si O2"
_cell_formula_units_Z 32
_cell_length_a 12.225829
_cell_length_b 15.076649
_cell_length_c 8.908198
_cell_angle_alpha 90.000000
_cell_angle_beta 92.494096
_cell_angle_gamma 90.000000
_cell_volume 1640.443984
_symmetry_space_group_name_H-M "P 2/M"
_symmetry_group_IT_number 10
_symmetry_cell_setting 'monoclinic'
loop_
_space_group_symop_operation_xyz
x,y,z
-x,y,-z
-x,-y,-z
x,-y,z
loop_
_atom_site_type_symbol
_atom_site_label
_atom_site_fract_x
_atom_site_fract_y
_atom_site_fract_z
Si Si1 0.907547 0.216157 0.868603
Si Si2 0.413394 0.144683 0.376114
Si Si3 0.879958 0.400719 0.418421
Si Si4 0.056429 0.100563 0.664591
Si Si5 0.032438 0.597228 0.172909
Si Si6 0.744876 0.233333 0.388069
Si Si7 0.298975 0.900462 0.067969
Si Si8 0.431240 0.226077 0.862145
O O1 0.893198 0.315639 0.802536
O O2 0.799990 0.169350 0.925446
O O3 0.965148 0.150178 0.756361
O O4 0.000000 0.226132 0.000000
O O5 0.500000 0.101883 0.500000
O O6 0.327830 0.191654 0.482723
O O7 0.349068 0.094216 0.240021
O O8 0.486059 0.206630 0.270315
O O9 0.836757 0.500000 0.438378
O O10 0.803386 0.320450 0.454536
O O11 0.000000 0.393731 0.500000
O O12 0.916983 0.388312 0.249072
O O13 0.164775 0.160987 0.658068
O O14 0.000000 0.094798 0.500000
O O15 0.079866 0.000000 0.718754
O O16 0.076372 0.500000 0.225073
O O17 0.000000 0.589839 0.000000
O O18 0.673195 0.260683 0.237482
O O19 0.265712 0.000000 0.022387
O O20 0.383617 0.859859 0.950846
O O21 0.500000 0.274062 0.000000
#
# Coordination Sequence:
#
# PCOD9152140 Si02
#       8
#     4   4   4   4   4   4   4   4
#     4  11  22  35  54  82 119 156 186 227 274 340
#     4   9  21  39  59  81 105 143 196 252 298 335
#     4  10  21  36  58  93 127 154 188 231 281 345
#     4  11  23  36  51  79 120 157 190 228 276 346
#     4   9  19  35  55  82 120 154 188 229 271 325
#     4  11  20  36  62  83 113 157 193 232 292 351
#     4  11  23  37  57  83 113 154 197 237 290 348
#     4   9  21  40  58  81 107 144 198 256 296 331
#
# _framework density 19.506913000000001
#
# number of rings (size 3 to 8) (size 9 to 14) (size 15 to 20)
#    0.000    1.875    1.250    2.250    3.500    6.500 
#    0.000    3.750    0.000    3.750    0.000    3.500 
#    0.000    0.000    0.000    0.000    0.000    0.000 
#
# Total GULP energy -178158.217540 kJ/mol
# GULP energy per Si atom -5567.444298 kJ/mol
# Density = 1.946251 g / cm^3
# Si number density = 19.506913 Si / 1000 Ang^3
#
#
#
# Elastic Constant Matrix: (Units=GPa)
#
#
# Indices 1 2 3 4 5 6 
#
# 1 80.9451 38.0591 0.5565 0.0000 -8.1940 0.0000
# 2 38.0591 125.4291 -13.5085 0.0000 -10.1486 0.0000
# 3 0.5565 -13.5085 75.7846 0.0000 0.4964 0.0000
# 4 0.0000 0.0000 0.0000 11.5945 0.0000 -0.9411
# 5 -8.1940 -10.1486 0.4964 0.0000 45.6037 0.0000
# 6 0.0000 0.0000 0.0000 -0.9411 0.0000 22.5456
#
#
#
# Elastic Compliance Matrix: (Units=1/GPa)
#
#
# Indices 1 2 3 4 5 6 
#
# 1 0.014592 -0.004391 -0.000901 0.000000 0.001655 0.000000
# 2 -0.004391 0.009599 0.001735 0.000000 0.001328 0.000000
# 3 -0.000901 0.001735 0.013511 0.000000 0.000077 0.000000
# 4 0.000000 0.000000 0.000000 0.086541 0.000000 0.003613
# 5 0.001655 0.001328 0.000077 0.000000 0.022520 0.000000
# 6 0.000000 0.000000 0.000000 0.003613 0.000000 0.044505
#
#
# Mechanical properties :
#
#
# Convention : Reuss Voigt Hill
#
# Bulk Modulus (GPa) = 32.69230 36.93032 34.81131
# Shear Modulus (GPa) = 23.97176 33.08553 28.52865
#
# Velocity S-wave (km/s) = 3.50935 4.12283 3.82840
# Velocity P-wave (km/s) = 5.76337 6.45265 6.11772
#
# Compressibility (1/GPa) = 0.03058824
#
# Stress axis : x y z
#
# Youngs Moduli (GPa) = 68.52950 104.17477 74.01598
#
# Poissons Ratio (x) = 0.45742 0.06666
# Poissons Ratio (y) = 0.30090 -0.12839
# Poissons Ratio (z) = 0.06172 -0.18070
#
# Static dielectric constant tensor:
#      x y z
#    x 1.705660 0.000000 0.021650 
#    y 0.000000 1.727340 0.000000 
#    z 0.021650 0.000000 1.774550 
# 
# From -- ./inp_files/25344.got.cif
#   From: 2010.05.17/outbox.cif.g08.bks.cpg/sg10_13_cif.got.tgz:25344.got - 2010.06.03 11:33:40.
