data_PCOD9152451
_publ_section_title
;
Structure prediction by ZEFSAII (Michael W. Deem and Ramdas Pophale) SiO2 
 PCOD9152451
Probable space group: P 2/M
;
_chemical_formula_sum "Si O2"
_cell_formula_units_Z 18
_cell_length_a 10.312126
_cell_length_b 13.093529
_cell_length_c 14.111553
_cell_angle_alpha 90.000000
_cell_angle_beta 150.071220
_cell_angle_gamma 90.000000
_cell_volume 950.634058
_symmetry_space_group_name_H-M "P 2/M"
_symmetry_group_IT_number 10
_symmetry_cell_setting 'monoclinic'
loop_
_space_group_symop_operation_xyz
x,y,z
-x,y,-z
-x,-y,-z
x,-y,z
loop_
_atom_site_type_symbol
_atom_site_label
_atom_site_fract_x
_atom_site_fract_y
_atom_site_fract_z
Si Si1 0.000000 0.775346 0.000000
Si Si2 0.945144 0.615748 0.135042
Si Si3 0.519716 0.880582 0.398473
Si Si4 0.652020 0.383330 0.231656
Si Si5 0.855227 0.695751 0.551107
O O1 0.253336 0.843762 0.180079
O O2 0.976571 0.700655 0.075162
O O3 0.978449 0.500000 0.120605
O O4 0.133835 0.637307 0.342393
O O5 0.648228 0.624736 0.984386
O O6 0.500000 0.865925 0.500000
O O7 0.744741 0.807587 0.500953
O O8 0.565661 0.000000 0.410043
O O9 0.737355 0.500000 0.266271
O O10 0.679911 0.360135 0.361253
O O11 0.854793 0.309342 0.308714
#
# Coordination Sequence:
#
# PCOD9152451 Si02
#       5
#     2   4   4   4   4
#     4  12  22  42  60  88 118 156 198 250 298 352
#     4  11  22  36  59  91 126 158 191 233 293 362
#     4  11  24  43  65  84 110 157 208 255 301 342
#     4  10  21  37  60  90 125 161 195 230 290 363
#     4  11  20  38  61  87 118 156 197 244 289 346
#
# _framework density 18.934730999999999
#
# number of rings (size 3 to 8) (size 9 to 14) (size 15 to 20)
#    0.000    1.111    4.444    4.000    0.000    1.778 
#    0.000    3.333    0.000    1.333    0.000    0.000 
#    0.000    0.000    0.000    0.000    0.000    0.000 
#
# Total GULP energy -100548.773787 kJ/mol
# GULP energy per Si atom -5586.042988 kJ/mol
# Density = 1.889163 g / cm^3
# Si number density = 18.934731 Si / 1000 Ang^3
#
#
#
# Elastic Constant Matrix: (Units=GPa)
#
#
# Indices 1 2 3 4 5 6 
#
# 1 63.6202 58.6368 22.3980 0.0000 -3.0004 0.0000
# 2 58.6368 146.0938 48.5454 0.0000 13.9259 0.0000
# 3 22.3980 48.5454 92.0612 0.0000 -18.5508 0.0000
# 4 0.0000 0.0000 0.0000 27.0918 0.0000 1.1013
# 5 -3.0004 13.9259 -18.5508 0.0000 29.6340 0.0000
# 6 0.0000 0.0000 0.0000 1.1013 0.0000 32.9279
#
#
#
# Elastic Compliance Matrix: (Units=1/GPa)
#
#
# Indices 1 2 3 4 5 6 
#
# 1 0.026896 -0.012371 0.001946 0.000000 0.009755 0.000000
# 2 -0.012371 0.015813 -0.008100 0.000000 -0.013754 0.000000
# 3 0.001946 -0.008100 0.017700 0.000000 0.015083 0.000000
# 4 0.000000 0.000000 0.000000 0.036962 0.000000 -0.001236
# 5 0.009755 -0.013754 0.015083 0.000000 0.050638 0.000000
# 6 0.000000 0.000000 0.000000 -0.001236 0.000000 0.030411
#
#
# Mechanical properties :
#
#
# Convention : Reuss Voigt Hill
#
# Bulk Modulus (GPa) = 42.81416 62.32619 52.57018
# Shear Modulus (GPa) = 22.39579 29.41040 25.90309
#
# Velocity S-wave (km/s) = 3.44290 3.94541 3.70269
# Velocity P-wave (km/s) = 6.20204 7.33095 6.78999
#
# Compressibility (1/GPa) = 0.02335676
#
# Stress axis : x y z
#
# Youngs Moduli (GPa) = 37.18081 63.23923 56.49814
#
# Poissons Ratio (x) = 0.78235 -0.10993
# Poissons Ratio (y) = 0.45997 0.45764
# Poissons Ratio (z) = -0.07234 0.51225
#
# Static dielectric constant tensor:
#      x y z
#    x 1.681030 0.000000 -0.015580 
#    y 0.000000 1.608330 0.000000 
#    z -0.015580 0.000000 1.675420 
# 
# From -- ./inp_files/64216.got.cif
#   From: 2010.05.17/outbox.cif.g08.bks.cpg/sg10_33_cif.got.tgz:64216.got - 2010.06.03 11:33:40.
