data_PCOD9152676
_publ_section_title
;
Structure prediction by ZEFSAII (Michael W. Deem and Ramdas Pophale) SiO2 
 PCOD9152676
Probable space group: P 2/M
;
_chemical_formula_sum "Si O2"
_cell_formula_units_Z 20
_cell_length_a 24.257336
_cell_length_b 8.234583
_cell_length_c 14.661906
_cell_angle_alpha 90.000000
_cell_angle_beta 160.001750
_cell_angle_gamma 90.000000
_cell_volume 1001.590933
_symmetry_space_group_name_H-M "P 2/M"
_symmetry_group_IT_number 10
_symmetry_cell_setting 'monoclinic'
loop_
_space_group_symop_operation_xyz
x,y,z
-x,y,-z
-x,-y,-z
x,-y,z
loop_
_atom_site_type_symbol
_atom_site_label
_atom_site_fract_x
_atom_site_fract_y
_atom_site_fract_z
Si Si1 0.122128 0.319947 0.104344
Si Si2 0.537478 0.000000 0.164036
Si Si3 0.174454 0.817986 0.820758
Si Si4 0.192719 0.000000 0.288254
Si Si5 0.003913 0.309217 0.291590
Si Si6 0.659602 0.313571 0.086369
O O1 0.198028 0.500000 0.213501
O O2 0.233829 0.165788 0.298999
O O3 0.024799 0.284896 0.859984
O O4 0.000000 0.330256 0.000000
O O5 0.722162 0.000000 0.482126
O O6 0.500000 0.000000 0.000000
O O7 0.463252 0.832149 0.086930
O O8 0.130493 0.778533 0.856192
O O9 0.282929 0.699125 0.929407
O O10 0.000000 0.813495 0.500000
O O11 0.239768 0.000000 0.913567
O O12 0.000000 0.000000 0.000000
O O13 0.985003 0.500000 0.281553
O O14 0.183295 0.270610 0.606704
O O15 0.609337 0.500000 0.028750
#
# Coordination Sequence:
#
# PCOD9152676 Si02
#       6
#     4   2   4   2   4   4
#     4   9  19  35  57  84 117 154 202 248 287 349
#     4  12  28  42  60  92 124 156 205 249 304 371
#     4   9  16  29  53  89 125 161 198 245 297 350
#     4  10  24  42  61  84 111 161 200 244 302 356
#     4   9  18  31  57  94 123 160 206 246 296 354
#     4  10  21  38  60  87 127 163 196 249 306 356
#
# _framework density 19.968233000000001
#
# number of rings (size 3 to 8) (size 9 to 14) (size 15 to 20)
#    0.000    2.400    1.000    0.600    8.400    3.600 
#    0.000    0.000    0.000    2.400    0.000    4.200 
#    0.000    0.000    0.000    0.000    0.000    0.000 
#
# Total GULP energy -111431.102600 kJ/mol
# GULP energy per Si atom -5571.555130 kJ/mol
# Density = 1.992278 g / cm^3
# Si number density = 19.968233 Si / 1000 Ang^3
#
#
#
# Elastic Constant Matrix: (Units=GPa)
#
#
# Indices 1 2 3 4 5 6 
#
# 1 102.1313 21.2759 29.7670 0.0000 -18.7371 0.0000
# 2 21.2759 120.0382 39.3639 0.0000 -2.3750 0.0000
# 3 29.7670 39.3639 61.7786 0.0000 -14.9760 0.0000
# 4 0.0000 0.0000 0.0000 -4.1491 0.0000 -14.2129
# 5 -18.7371 -2.3750 -14.9760 0.0000 21.0004 0.0000
# 6 0.0000 0.0000 0.0000 -14.2129 0.0000 23.4898
#
#
#
# Elastic Compliance Matrix: (Units=1/GPa)
#
#
# Indices 1 2 3 4 5 6 
#
# 1 0.012562 -0.000964 -0.003322 0.000000 0.008730 0.000000
# 2 -0.000964 0.010944 -0.007758 0.000000 -0.005155 0.000000
# 3 -0.003322 -0.007758 0.026356 0.000000 0.014954 0.000000
# 4 0.000000 0.000000 0.000000 -0.078439 0.000000 -0.047461
# 5 0.008730 -0.005155 0.014954 0.000000 0.065488 0.000000
# 6 0.000000 0.000000 0.000000 -0.047461 0.000000 0.013855
#
#
# Mechanical properties :
#
#
# Convention : Reuss Voigt Hill
#
# Bulk Modulus (GPa) = 38.80115 51.64018 45.22066
# Shear Modulus (GPa) = 59.91911 20.97100 40.44505
#
# Velocity S-wave (km/s) = 5.48383 3.24422 4.50540
# Velocity P-wave (km/s) = 7.71817 6.32065 7.05410
#
# Compressibility (1/GPa) = 0.02577243
#
# Stress axis : x y z
#
# Youngs Moduli (GPa) = 79.60468 91.37657 37.94235
#
# Poissons Ratio (x) = 0.08813 0.12604
# Poissons Ratio (y) = 0.07677 0.29436
# Poissons Ratio (z) = 0.26445 0.70891
#
# Static dielectric constant tensor:
#      x y z
#    x 1.709870 0.000000 0.000240 
#    y 0.000000 1.808800 0.000000 
#    z 0.000240 0.000000 1.693820 
# 
# From -- ./inp_files/34092.got.cif
#   From: 2010.05.17/outbox.cif.g08.bks.cpg/sg10_18_cif.got.tgz:34092.got - 2010.06.03 11:33:40.
