data_PCOD9152626
_publ_section_title
;
Structure prediction by ZEFSAII (Michael W. Deem and Ramdas Pophale) SiO2 
 PCOD9152626
Probable space group: P 2/M
;
_chemical_formula_sum "Si O2"
_cell_formula_units_Z 32
_cell_length_a 23.154329
_cell_length_b 13.606305
_cell_length_c 16.342456
_cell_angle_alpha 90.000000
_cell_angle_beta 19.418413
_cell_angle_gamma 90.000000
_cell_volume 1711.727626
_symmetry_space_group_name_H-M "P 2/M"
_symmetry_group_IT_number 10
_symmetry_cell_setting 'monoclinic'
loop_
_space_group_symop_operation_xyz
x,y,z
-x,y,-z
-x,-y,-z
x,-y,z
loop_
_atom_site_type_symbol
_atom_site_label
_atom_site_fract_x
_atom_site_fract_y
_atom_site_fract_z
Si Si1 0.210623 0.615940 0.712651
Si Si2 0.972298 0.884716 0.283114
Si Si3 0.894584 0.113948 0.065212
Si Si4 0.269494 0.117914 0.018526
Si Si5 0.557534 0.784950 0.517957
Si Si6 0.556710 0.615851 0.757790
Si Si7 0.676627 0.757101 0.738376
Si Si8 0.798581 0.725340 0.756541
O O1 0.240960 0.500000 0.691516
O O2 0.325856 0.689318 0.614759
O O3 0.297872 0.634243 0.506639
O O4 0.000000 0.629443 0.000000
O O5 0.796228 0.827692 0.527653
O O6 0.095441 0.873687 0.196777
O O7 0.940262 0.000000 0.317679
O O8 0.062728 0.844146 0.080553
O O9 0.692377 0.126007 0.347743
O O10 0.941460 0.000000 0.999064
O O11 0.000000 0.157774 0.000000
O O12 0.233889 0.171000 0.152823
O O13 0.312436 0.000000 0.966675
O O14 0.406729 0.183941 0.782942
O O15 0.500000 0.778870 0.500000
O O16 0.542215 0.500000 0.787882
O O17 0.619980 0.667087 0.756743
O O18 0.363738 0.658197 0.995655
O O19 0.771454 0.729819 0.695434
O O20 0.500000 0.810053 0.000000
O O21 0.000000 0.694854 0.500000
#
# Coordination Sequence:
#
# PCOD9152626 Si02
#       8
#     4   4   4   4   4   4   4   4
#     4  10  23  43  67  94 124 162 206 254 317 384
#     4  10  21  38  59  87 125 162 205 253 304 365
#     4  10  22  36  55  86 122 160 202 249 297 358
#     4  11  23  39  62  92 128 169 209 249 309 369
#     4  12  23  37  63  93 126 164 202 255 307 370
#     4  10  23  44  67  92 124 159 202 261 319 375
#     4  10  23  38  61  88 120 156 204 257 306 370
#     4  11  22  41  64  92 124 159 210 259 307 365
#
# _framework density 18.694562000000001
#
# number of rings (size 3 to 8) (size 9 to 14) (size 15 to 20)
#    0.000    1.500    3.750    0.750    3.500    4.250 
#    0.000    3.125    0.000    0.750    0.000    0.000 
#    0.000    0.000    0.000    0.000    0.000    0.000 
#
# Total GULP energy -178226.341279 kJ/mol
# GULP energy per Si atom -5569.573165 kJ/mol
# Density = 1.865201 g / cm^3
# Si number density = 18.694562 Si / 1000 Ang^3
#
#
#
# Elastic Constant Matrix: (Units=GPa)
#
#
# Indices 1 2 3 4 5 6 
#
# 1 105.7636 38.9843 30.9011 0.0000 -12.3929 0.0000
# 2 38.9843 71.9610 46.3370 0.0000 -6.4474 0.0000
# 3 30.9011 46.3370 115.7007 0.0000 -6.7866 0.0000
# 4 0.0000 0.0000 0.0000 34.6035 0.0000 -6.4061
# 5 -12.3929 -6.4474 -6.7866 0.0000 27.6337 0.0000
# 6 0.0000 0.0000 0.0000 -6.4061 0.0000 -26.2420
#
#
#
# Elastic Compliance Matrix: (Units=1/GPa)
#
#
# Indices 1 2 3 4 5 6 
#
# 1 0.012280 -0.005841 -0.000707 0.000000 0.003971 0.000000
# 2 -0.005841 0.021685 -0.007083 0.000000 0.000700 0.000000
# 3 -0.000707 -0.007083 0.011722 0.000000 0.000909 0.000000
# 4 0.000000 0.000000 0.000000 0.027649 0.000000 -0.006750
# 5 0.003971 0.000700 0.000909 0.000000 0.038355 0.000000
# 6 0.000000 0.000000 0.000000 -0.006750 0.000000 -0.036459
#
#
# Mechanical properties :
#
#
# Convention : Reuss Voigt Hill
#
# Bulk Modulus (GPa) = 54.28116 58.43003 56.35560
# Shear Modulus (GPa) = 46.02472 19.01257 32.51865
#
# Velocity S-wave (km/s) = 4.96717 3.19252 4.17522
# Velocity P-wave (km/s) = 7.87374 6.70168 7.31124
#
# Compressibility (1/GPa) = 0.01842260
#
# Stress axis : x y z
#
# Youngs Moduli (GPa) = 81.43240 46.11527 85.30915
#
# Poissons Ratio (x) = 0.26938 0.06035
# Poissons Ratio (y) = 0.47568 0.60428
# Poissons Ratio (z) = 0.05761 0.32665
#
# Static dielectric constant tensor:
#      x y z
#    x 1.684870 0.000000 0.026370 
#    y 0.000000 1.644030 0.000000 
#    z 0.026370 0.000000 1.658160 
# 
# From -- ./inp_files/36401.got.cif
#   From: 2010.05.17/outbox.cif.g08.bks.cpg/sg10_19_cif.got.tgz:36401.got - 2010.06.03 11:33:40.
