data_PCOD9152811
_publ_section_title
;
Structure prediction by ZEFSAII (Michael W. Deem and Ramdas Pophale) SiO2 
 PCOD9152811
Probable space group: P 2/M
;
_chemical_formula_sum "Si O2"
_cell_formula_units_Z 30
_cell_length_a 12.093493
_cell_length_b 21.817867
_cell_length_c 11.327316
_cell_angle_alpha 90.000000
_cell_angle_beta 153.572415
_cell_angle_gamma 90.000000
_cell_volume 1330.196622
_symmetry_space_group_name_H-M "P 2/M"
_symmetry_group_IT_number 10
_symmetry_cell_setting 'monoclinic'
loop_
_space_group_symop_operation_xyz
x,y,z
-x,y,-z
-x,-y,-z
x,-y,z
loop_
_atom_site_type_symbol
_atom_site_label
_atom_site_fract_x
_atom_site_fract_y
_atom_site_fract_z
Si Si1 0.802431 0.567362 0.665888
Si Si2 0.842312 0.133474 0.472750
Si Si3 0.285213 0.295199 0.387010
Si Si4 0.267183 0.000000 0.690362
Si Si5 0.671417 0.433919 0.961321
Si Si6 0.238113 0.311977 0.808815
Si Si7 0.940886 0.176223 0.069905
Si Si8 0.542331 0.228429 0.820678
O O1 0.764232 0.500000 0.689494
O O2 0.783840 0.634437 0.706117
O O3 0.082407 0.565994 0.884561
O O4 0.582769 0.570199 0.357194
O O5 0.729202 0.065203 0.370858
O O6 0.972225 0.144453 0.724704
O O7 0.630401 0.185332 0.267284
O O8 0.000000 0.137744 0.500000
O O9 0.500000 0.280827 0.500000
O O10 0.077343 0.242700 0.188087
O O11 0.398665 0.286062 0.626656
O O12 0.000000 0.000000 0.500000
O O13 0.500000 0.000000 0.000000
O O14 0.665184 0.500000 0.017705
O O15 0.719207 0.377760 0.092574
O O16 0.000000 0.312568 0.500000
O O17 0.500000 0.297414 0.000000
O O18 0.222812 0.257582 0.888660
O O19 0.000000 0.145422 0.000000
O O20 0.650603 0.188345 0.816810
#
# Coordination Sequence:
#
# PCOD9152811 Si02
#       8
#     4   4   4   2   4   4   4   4
#     4  10  21  38  63  89 120 166 226 293 360 429
#     4  10  26  45  75 112 150 193 240 295 352 420
#     4  11  22  40  65  93 130 180 232 291 366 435
#     4  10  24  48  77 113 155 199 247 289 353 422
#     4  10  21  41  61  81 119 170 221 280 356 435
#     4  12  27  39  60  95 129 169 227 291 357 424
#     4  11  24  43  71 105 145 193 246 294 361 430
#     4  11  25  42  65  97 146 180 234 290 361 419
#
# _framework density 22.553056999999999
#
# number of rings (size 3 to 8) (size 9 to 14) (size 15 to 20)
#    0.000    1.333    2.667    1.600    9.333    0.800 
#    0.000    0.333    0.000    3.600    0.000    0.000 
#    0.000    0.000    0.000    0.000    0.000    0.000 
#
# Total GULP energy -167465.335373 kJ/mol
# GULP energy per Si atom -5582.177846 kJ/mol
# Density = 2.250173 g / cm^3
# Si number density = 22.553057 Si / 1000 Ang^3
#
#
#
# Elastic Constant Matrix: (Units=GPa)
#
#
# Indices 1 2 3 4 5 6 
#
# 1 114.5008 52.1896 31.3877 0.0000 -2.4998 0.0000
# 2 52.1896 164.9097 46.4104 0.0000 -14.7068 0.0000
# 3 31.3877 46.4104 120.0502 0.0000 -25.4577 0.0000
# 4 0.0000 0.0000 0.0000 17.0383 0.0000 -0.7712
# 5 -2.4998 -14.7068 -25.4577 0.0000 37.7180 0.0000
# 6 0.0000 0.0000 0.0000 -0.7712 0.0000 -0.4758
#
#
#
# Elastic Compliance Matrix: (Units=1/GPa)
#
#
# Indices 1 2 3 4 5 6 
#
# 1 0.010588 -0.002946 -0.002012 0.000000 -0.001805 0.000000
# 2 -0.002946 0.007658 -0.001866 0.000000 0.001532 0.000000
# 3 -0.002012 -0.001866 0.010964 0.000000 0.006539 0.000000
# 4 0.000000 0.000000 0.000000 0.054680 0.000000 -0.088626
# 5 -0.001805 0.001532 0.006539 0.000000 0.031404 0.000000
# 6 0.000000 0.000000 0.000000 -0.088626 0.000000 -1.958103
#
#
# Mechanical properties :
#
#
# Convention : Reuss Voigt Hill
#
# Bulk Modulus (GPa) = 64.25491 73.27069 68.76280
# Shear Modulus (GPa) = -2.74127 28.82095 13.03984
#
# Velocity S-wave (km/s) = -1.10368 3.57868 2.40716
# Velocity P-wave (km/s) = 5.18924 7.04518 6.18720
#
# Compressibility (1/GPa) = 0.01556301
#
# Stress axis : x y z
#
# Youngs Moduli (GPa) = 94.44290 130.58734 91.20826
#
# Poissons Ratio (x) = 0.38465 0.18355
# Poissons Ratio (y) = 0.27819 0.17015
# Poissons Ratio (z) = 0.19006 0.24361
#
# Static dielectric constant tensor:
#      x y z
#    x 2.061070 0.000000 -0.011990 
#    y 0.000000 1.823700 0.000000 
#    z -0.011990 0.000000 1.918150 
# 
# From -- ./inp_files/48059.got.cif
#   From: 2010.05.17/outbox.cif.g08.bks.cpg/sg10_25_cif.got.tgz:48059.got - 2010.06.03 11:33:40.
