data_PCOD9152182
_publ_section_title
;
Structure prediction by ZEFSAII (Michael W. Deem and Ramdas Pophale) SiO2 
 PCOD9152182
Probable space group: P 2/M
;
_chemical_formula_sum "Si O2"
_cell_formula_units_Z 32
_cell_length_a 10.638989
_cell_length_b 12.727292
_cell_length_c 12.626050
_cell_angle_alpha 90.000000
_cell_angle_beta 106.220570
_cell_angle_gamma 90.000000
_cell_volume 1641.582136
_symmetry_space_group_name_H-M "P 2/M"
_symmetry_group_IT_number 10
_symmetry_cell_setting 'monoclinic'
loop_
_space_group_symop_operation_xyz
x,y,z
-x,y,-z
-x,-y,-z
x,-y,z
loop_
_atom_site_type_symbol
_atom_site_label
_atom_site_fract_x
_atom_site_fract_y
_atom_site_fract_z
Si Si1 0.851054 0.718549 0.999968
Si Si2 0.043776 0.381262 0.767922
Si Si3 0.344097 0.876073 0.937158
Si Si4 0.344506 0.375753 0.214281
Si Si5 0.197599 0.704026 0.378657
Si Si6 0.220664 0.612646 0.601200
Si Si7 0.587423 0.222320 0.263295
Si Si8 0.631365 0.120809 0.479286
O O1 0.776870 0.651353 0.892328
O O2 0.869986 0.649304 0.110800
O O3 0.755757 0.816103 0.007900
O O4 0.000000 0.746724 0.000000
O O5 0.988955 0.500000 0.770585
O O6 0.125121 0.383059 0.678432
O O7 0.931951 0.294553 0.723086
O O8 0.340270 0.815069 0.824849
O O9 0.312132 0.000000 0.922461
O O10 0.500000 0.869580 0.000000
O O11 0.378923 0.500000 0.211796
O O12 0.303381 0.349323 0.325720
O O13 0.456208 0.289324 0.210976
O O14 0.161616 0.633281 0.472153
O O15 0.251078 0.811322 0.442313
O O16 0.286040 0.500000 0.615576
O O17 0.328107 0.698145 0.647783
O O18 0.592321 0.125486 0.345863
O O19 0.500000 0.165785 0.500000
O O20 0.650836 0.000000 0.514052
#
# Coordination Sequence:
#
# PCOD9152182 Si02
#       8
#     4   4   4   4   4   4   4   4
#     4  12  25  43  65  95 132 168 218 269 317 384
#     4  11  22  39  63  89 124 173 214 255 313 378
#     4  11  24  45  70  92 120 166 218 272 331 380
#     4  12  24  38  61  96 136 174 211 257 321 385
#     4  11  22  38  60  90 129 166 210 259 310 377
#     4  10  21  36  61  91 124 165 209 255 309 376
#     4  11  21  40  63  94 126 160 208 266 318 382
#     4  10  21  39  62  90 122 161 207 259 319 373
#
# _framework density 19.493390000000002
#
# number of rings (size 3 to 8) (size 9 to 14) (size 15 to 20)
#    0.000    1.000    5.000    2.625    0.000    1.750 
#    0.000    3.750    0.000    1.500    0.000    0.000 
#    0.000    0.000    0.000    0.000    0.000    0.000 
#
# Total GULP energy -178225.531155 kJ/mol
# GULP energy per Si atom -5569.547849 kJ/mol
# Density = 1.944902 g / cm^3
# Si number density = 19.493390 Si / 1000 Ang^3
#
#
#
# Elastic Constant Matrix: (Units=GPa)
#
#
# Indices 1 2 3 4 5 6 
#
# 1 61.3945 26.2321 23.4428 0.0000 0.0183 0.0000
# 2 26.2321 93.8104 34.8396 0.0000 6.3202 0.0000
# 3 23.4428 34.8396 105.8172 0.0000 -1.5335 0.0000
# 4 0.0000 0.0000 0.0000 36.2740 0.0000 -12.8112
# 5 0.0183 6.3202 -1.5335 0.0000 41.0262 0.0000
# 6 0.0000 0.0000 0.0000 -12.8112 0.0000 34.6215
#
#
#
# Elastic Compliance Matrix: (Units=1/GPa)
#
#
# Indices 1 2 3 4 5 6 
#
# 1 0.019229 -0.004370 -0.002813 0.000000 0.000559 0.000000
# 2 -0.004370 0.013308 -0.003445 0.000000 -0.002177 0.000000
# 3 -0.002813 -0.003445 0.011221 0.000000 0.000951 0.000000
# 4 0.000000 0.000000 0.000000 0.031712 0.000000 0.011735
# 5 0.000559 -0.002177 0.000951 0.000000 0.024745 0.000000
# 6 0.000000 0.000000 0.000000 0.011735 0.000000 0.033226
#
#
# Mechanical properties :
#
#
# Convention : Reuss Voigt Hill
#
# Bulk Modulus (GPa) = 44.43967 47.78348 46.11158
# Shear Modulus (GPa) = 30.82625 34.15150 32.48888
#
# Velocity S-wave (km/s) = 3.98096 4.19017 4.08691
# Velocity P-wave (km/s) = 6.63155 6.92647 6.78061
#
# Compressibility (1/GPa) = 0.02250242
#
# Stress axis : x y z
#
# Youngs Moduli (GPa) = 52.00403 75.14372 89.11468
#
# Poissons Ratio (x) = 0.32838 0.25069
# Poissons Ratio (y) = 0.22726 0.30699
# Poissons Ratio (z) = 0.14630 0.25886
#
# Static dielectric constant tensor:
#      x y z
#    x 1.718900 0.000000 0.002600 
#    y 0.000000 1.731170 0.000000 
#    z 0.002600 0.000000 1.741430 
# 
# From -- ./inp_files/47012.got.cif
#   From: 2010.05.17/outbox.cif.g08.bks.cpg/sg10_24_cif.got.tgz:47012.got - 2010.06.03 11:33:40.
