data_PCOD9152120
_publ_section_title
;
Structure prediction by ZEFSAII (Michael W. Deem and Ramdas Pophale) SiO2 
 PCOD9152120
Probable space group: P 2/M
;
_chemical_formula_sum "Si O2"
_cell_formula_units_Z 28
_cell_length_a 14.246513
_cell_length_b 7.599856
_cell_length_c 12.969181
_cell_angle_alpha 90.000000
_cell_angle_beta 109.766612
_cell_angle_gamma 90.000000
_cell_volume 1321.454199
_symmetry_space_group_name_H-M "P 2/M"
_symmetry_group_IT_number 10
_symmetry_cell_setting 'monoclinic'
loop_
_space_group_symop_operation_xyz
x,y,z
-x,y,-z
-x,-y,-z
x,-y,z
loop_
_atom_site_type_symbol
_atom_site_label
_atom_site_fract_x
_atom_site_fract_y
_atom_site_fract_z
Si Si1 0.794277 0.797068 0.250861
Si Si2 0.935731 0.713746 0.132430
Si Si3 0.703177 0.789839 0.657745
Si Si4 0.662393 0.500000 0.099876
Si Si5 0.504638 0.789215 0.681525
Si Si6 0.452603 0.500000 0.138578
Si Si7 0.273106 0.787246 0.554773
Si Si8 0.856687 0.291229 0.888565
O O1 0.897504 0.784368 0.227092
O O2 0.721441 0.670283 0.160246
O O3 0.790220 0.734372 0.368427
O O4 0.760225 0.000000 0.236665
O O5 0.933293 0.500000 0.138660
O O6 0.045991 0.771474 0.138846
O O7 0.865175 0.772185 0.009885
O O8 0.586017 0.745901 0.623875
O O9 0.749935 0.719314 0.568694
O O10 0.760995 0.741071 0.783031
O O11 0.707834 0.000000 0.654024
O O12 0.554800 0.500000 0.112460
O O13 0.642607 0.500000 0.970933
O O14 0.541884 0.674188 0.790727
O O15 0.389596 0.743487 0.618093
O O16 0.508652 0.000000 0.700521
O O17 0.265996 0.000000 0.548335
O O18 0.869164 0.500000 0.901583
#
# Coordination Sequence:
#
# PCOD9152120 Si02
#       8
#     4   4   4   2   4   2   4   4
#     4  11  22  38  63  87 113 157 198 235 290 348
#     4   9  19  38  62  83 119 155 186 241 296 348
#     4  10  21  36  58  83 116 155 190 245 298 337
#     4  11  24  40  55  84 124 157 198 240 286 349
#     4  10  21  38  59  85 116 154 199 242 291 344
#     4  11  24  38  58  84 119 162 195 241 293 337
#     4   9  19  39  58  80 116 155 195 238 288 343
#     4   9  20  38  58  87 118 150 188 238 298 348
#
# _framework density 21.188776000000001
#
# number of rings (size 3 to 8) (size 9 to 14) (size 15 to 20)
#    0.000    2.143    2.143    1.286    3.000    3.429 
#    2.571    4.286    0.000    4.286    0.000    0.000 
#    0.000    0.000    0.000    0.000    0.000    0.000 
#
# Total GULP energy -156215.372009 kJ/mol
# GULP energy per Si atom -5579.120429 kJ/mol
# Density = 2.114055 g / cm^3
# Si number density = 21.188776 Si / 1000 Ang^3
#
#
#
# Elastic Constant Matrix: (Units=GPa)
#
#
# Indices 1 2 3 4 5 6 
#
# 1 80.1311 -2.6106 22.0274 0.0000 -25.3214 0.0000
# 2 -2.6106 52.5040 -2.5590 0.0000 -5.8719 0.0000
# 3 22.0274 -2.5590 63.6257 0.0000 -19.3059 0.0000
# 4 0.0000 0.0000 0.0000 9.4025 0.0000 -5.2205
# 5 -25.3214 -5.8719 -19.3059 0.0000 32.0434 0.0000
# 6 0.0000 0.0000 0.0000 -5.2205 0.0000 19.7975
#
#
#
# Elastic Compliance Matrix: (Units=1/GPa)
#
#
# Indices 1 2 3 4 5 6 
#
# 1 0.017118 0.002179 -0.001974 0.000000 0.012737 0.000000
# 2 0.002179 0.019996 0.002061 0.000000 0.006628 0.000000
# 3 -0.001974 0.002061 0.019732 0.000000 0.010706 0.000000
# 4 0.000000 0.000000 0.000000 0.124597 0.000000 0.032856
# 5 0.012737 0.006628 0.010706 0.000000 0.048938 0.000000
# 6 0.000000 0.000000 0.000000 0.032856 0.000000 0.059175
#
#
# Mechanical properties :
#
#
# Convention : Reuss Voigt Hill
#
# Bulk Modulus (GPa) = 16.29223 25.55293 20.92258
# Shear Modulus (GPa) = 16.36752 24.20888 20.28820
#
# Velocity S-wave (km/s) = 2.78233 3.38380 3.09770
# Velocity P-wave (km/s) = 4.24590 5.22998 4.76342
#
# Compressibility (1/GPa) = 0.06137895
#
# Stress axis : x y z
#
# Youngs Moduli (GPa) = 58.41771 50.00941 50.67993
#
# Poissons Ratio (x) = -0.10899 0.10003
# Poissons Ratio (y) = -0.12732 -0.10445
# Poissons Ratio (z) = 0.11531 -0.10306
#
# Static dielectric constant tensor:
#      x y z
#    x 1.800790 0.000000 -0.033200 
#    y 0.000000 1.784200 0.000000 
#    z -0.033200 0.000000 1.798130 
# 
# From -- ./inp_files/49442.got.cif
#   From: 2010.05.17/outbox.cif.g08.bks.cpg/sg10_25_cif.got.tgz:49442.got - 2010.06.03 11:33:40.
