data_PCOD9152559
_publ_section_title
;
Structure prediction by ZEFSAII (Michael W. Deem and Ramdas Pophale) SiO2 
 PCOD9152559
Probable space group: P 2/M
;
_chemical_formula_sum "Si O2"
_cell_formula_units_Z 24
_cell_length_a 5.693377
_cell_length_b 18.016037
_cell_length_c 10.481346
_cell_angle_alpha 90.000000
_cell_angle_beta 95.224483
_cell_angle_gamma 90.000000
_cell_volume 1070.627182
_symmetry_space_group_name_H-M "P 2/M"
_symmetry_group_IT_number 10
_symmetry_cell_setting 'monoclinic'
loop_
_space_group_symop_operation_xyz
x,y,z
-x,y,-z
-x,-y,-z
x,-y,z
loop_
_atom_site_type_symbol
_atom_site_label
_atom_site_fract_x
_atom_site_fract_y
_atom_site_fract_z
Si Si1 0.512239 0.640218 0.853485
Si Si2 0.008700 0.588155 0.850734
Si Si3 0.748871 0.779241 0.465333
Si Si4 0.170487 0.922287 0.888890
Si Si5 0.777511 0.914414 0.664348
Si Si6 0.541470 0.806245 0.188198
O O1 0.738876 0.604981 0.794275
O O2 0.565318 0.728096 0.854566
O O3 0.240648 0.624864 0.797318
O O4 0.500000 0.612378 0.000000
O O5 0.046429 0.500000 0.848865
O O6 0.000000 0.612755 0.000000
O O7 0.500000 0.744943 0.500000
O O8 0.766501 0.858480 0.543222
O O9 0.714249 0.788448 0.314653
O O10 0.000000 0.740988 0.500000
O O11 0.306746 0.846373 0.910232
O O12 0.027218 0.919636 0.748872
O O13 0.310121 0.000000 0.891673
O O14 0.000000 0.926716 0.000000
O O15 0.622438 0.870510 0.761185
O O16 0.705830 0.000000 0.633058
#
# Coordination Sequence:
#
# PCOD9152559 Si02
#       6
#     4   4   4   4   4   4
#     4  10  22  33  55  86 119 157 189 228 289 348
#     4   9  18  36  58  84 118 156 193 227 270 340
#     4  10  21  38  57  80 106 142 193 254 301 344
#     4  10  22  36  53  76 108 156 203 243 297 358
#     4  10  22  38  57  78 106 151 206 258 306 345
#     4  11  23  35  55  79 119 148 198 243 303 347
#
# _framework density 22.416765000000002
#
# number of rings (size 3 to 8) (size 9 to 14) (size 15 to 20)
#    0.000    2.000    1.667    1.000    4.667    6.667 
#    0.000    2.500    0.000    0.000    0.000    0.000 
#    0.000   56.000    0.000    0.000    0.000    0.000 
#
# Total GULP energy -133717.091861 kJ/mol
# GULP energy per Si atom -5571.545494 kJ/mol
# Density = 2.236574 g / cm^3
# Si number density = 22.416765 Si / 1000 Ang^3
#
#
#
# Elastic Constant Matrix: (Units=GPa)
#
#
# Indices 1 2 3 4 5 6 
#
# 1 149.7143 25.2140 3.8084 0.0000 -1.5947 0.0000
# 2 25.2140 81.2872 -3.1423 0.0000 -12.6235 0.0000
# 3 3.8084 -3.1423 38.1457 0.0000 7.2445 0.0000
# 4 0.0000 0.0000 0.0000 11.0236 0.0000 16.8811
# 5 -1.5947 -12.6235 7.2445 0.0000 34.9295 0.0000
# 6 0.0000 0.0000 0.0000 16.8811 0.0000 60.7179
#
#
#
# Elastic Compliance Matrix: (Units=1/GPa)
#
#
# Indices 1 2 3 4 5 6 
#
# 1 0.007081 -0.002279 -0.000832 0.000000 -0.000328 0.000000
# 2 -0.002279 0.013769 0.000454 0.000000 0.004778 0.000000
# 3 -0.000832 0.000454 0.027391 0.000000 -0.005555 0.000000
# 4 0.000000 0.000000 0.000000 0.157971 0.000000 -0.043920
# 5 -0.000328 0.004778 -0.005555 0.000000 0.031493 0.000000
# 6 0.000000 0.000000 0.000000 -0.043920 0.000000 0.028680
#
#
# Mechanical properties :
#
#
# Convention : Reuss Voigt Hill
#
# Bulk Modulus (GPa) = 23.29625 35.65636 29.47630
# Shear Modulus (GPa) = 17.48199 37.55202 27.51701
#
# Velocity S-wave (km/s) = 2.79563 4.09733 3.50740
# Velocity P-wave (km/s) = 4.56461 6.19070 5.43877
#
# Compressibility (1/GPa) = 0.04292537
#
# Stress axis : x y z
#
# Youngs Moduli (GPa) = 141.22358 72.62886 36.50862
#
# Poissons Ratio (x) = 0.16556 0.03039
# Poissons Ratio (y) = 0.32192 -0.01659
# Poissons Ratio (z) = 0.11756 -0.03301
#
# Static dielectric constant tensor:
#      x y z
#    x 1.984590 0.000000 0.002290 
#    y 0.000000 1.814940 0.000000 
#    z 0.002290 0.000000 1.852170 
# 
# From -- ./inp_files/7233.got.cif
#   From: 2010.05.17/outbox.cif.g08.bks.cpg/sg10_4_cif.got.tgz:7233.got - 2010.06.03 11:33:40.
