data_PCOD9152787
_publ_section_title
;
Structure prediction by ZEFSAII (Michael W. Deem and Ramdas Pophale) SiO2 
 PCOD9152787
Probable space group: P 2/M
;
_chemical_formula_sum "Si O2"
_cell_formula_units_Z 28
_cell_length_a 10.415298
_cell_length_b 12.475339
_cell_length_c 19.749464
_cell_angle_alpha 90.000000
_cell_angle_beta 33.380472
_cell_angle_gamma 90.000000
_cell_volume 1411.877221
_symmetry_space_group_name_H-M "P 2/M"
_symmetry_group_IT_number 10
_symmetry_cell_setting 'monoclinic'
loop_
_space_group_symop_operation_xyz
x,y,z
-x,y,-z
-x,-y,-z
x,-y,z
loop_
_atom_site_type_symbol
_atom_site_label
_atom_site_fract_x
_atom_site_fract_y
_atom_site_fract_z
Si Si1 0.988589 0.377577 0.652076
Si Si2 0.853857 0.000000 0.271966
Si Si3 0.643647 0.236249 0.569096
Si Si4 0.142710 0.800083 0.112994
Si Si5 0.787286 0.626754 0.298212
Si Si6 0.261701 0.119473 0.353331
Si Si7 0.637641 0.205811 0.834834
Si Si8 0.294724 0.000000 0.519463
O O1 0.966372 0.500000 0.644227
O O2 0.132941 0.312592 0.533489
O O3 0.145316 0.367885 0.651777
O O4 0.739370 0.323722 0.774512
O O5 0.957235 0.896094 0.190050
O O6 0.576411 0.000000 0.399276
O O7 0.889791 0.000000 0.337468
O O8 0.434301 0.299242 0.623816
O O9 0.590140 0.206103 0.670132
O O10 0.722582 0.121771 0.502288
O O11 0.247572 0.817450 0.142620
O O12 0.008672 0.687021 0.167409
O O13 0.361493 0.804405 0.966723
O O14 0.754995 0.500000 0.296037
O O15 0.278329 0.137183 0.266145
O O16 0.000000 0.124191 0.500000
O O17 0.348898 0.000000 0.330723
#
# Coordination Sequence:
#
# PCOD9152787 Si02
#       8
#     4   2   4   4   4   4   4   2
#     4  10  21  38  62  92 123 158 203 254 306 353
#     4  11  22  33  56  93 123 158 189 261 306 361
#     4  12  21  38  58  89 122 162 197 249 305 360
#     4  10  22  38  63  92 124 157 202 249 311 358
#     4  10  21  38  62  90 121 157 203 254 303 355
#     4  11  24  39  58  85 124 166 201 239 295 368
#     4  10  22  40  60  89 123 164 201 250 298 364
#     4  11  22  34  57  88 131 153 195 245 315 366
#
# _framework density 19.831752999999999
#
# number of rings (size 3 to 8) (size 9 to 14) (size 15 to 20)
#    0.000    1.429    3.571    2.571    4.000    2.286 
#    0.000    5.714    0.000    2.571    0.000    0.000 
#    0.000    0.000    0.000    0.000    0.000    0.000 
#
# Total GULP energy -155997.709371 kJ/mol
# GULP energy per Si atom -5571.346763 kJ/mol
# Density = 1.978662 g / cm^3
# Si number density = 19.831753 Si / 1000 Ang^3
#
#
#
# Elastic Constant Matrix: (Units=GPa)
#
#
# Indices 1 2 3 4 5 6 
#
# 1 23.8704 38.9411 27.1215 0.0000 1.7052 0.0000
# 2 38.9411 134.9746 51.0772 0.0000 -2.1698 0.0000
# 3 27.1215 51.0772 130.7580 0.0000 -5.3795 0.0000
# 4 0.0000 0.0000 0.0000 15.4300 0.0000 -6.5451
# 5 1.7052 -2.1698 -5.3795 0.0000 23.0609 0.0000
# 6 0.0000 0.0000 0.0000 -6.5451 0.0000 23.6270
#
#
#
# Elastic Compliance Matrix: (Units=1/GPa)
#
#
# Indices 1 2 3 4 5 6 
#
# 1 0.091689 -0.022603 -0.010657 0.000000 -0.011392 0.000000
# 2 -0.022603 0.014266 -0.000768 0.000000 0.002834 0.000000
# 3 -0.010657 -0.000768 0.010286 0.000000 0.003115 0.000000
# 4 0.000000 0.000000 0.000000 0.073438 0.000000 0.020344
# 5 -0.011392 0.002834 0.003115 0.000000 0.045199 0.000000
# 6 0.000000 0.000000 0.000000 0.020344 0.000000 0.047960
#
#
# Mechanical properties :
#
#
# Convention : Reuss Voigt Hill
#
# Bulk Modulus (GPa) = 20.75331 58.20920 39.48125
# Shear Modulus (GPa) = 13.62558 23.92112 18.77335
#
# Velocity S-wave (km/s) = 2.62402 3.47681 3.08007
# Velocity P-wave (km/s) = 4.43487 6.74780 5.70968
#
# Compressibility (1/GPa) = 0.04818509
#
# Stress axis : x y z
#
# Youngs Moduli (GPa) = 10.90642 70.09642 97.21666
#
# Poissons Ratio (x) = 1.58440 1.03607
# Poissons Ratio (y) = 0.24652 0.07464
# Poissons Ratio (z) = 0.11623 0.05382
#
# Static dielectric constant tensor:
#      x y z
#    x 1.937810 0.000000 -0.007600 
#    y 0.000000 1.694950 0.000000 
#    z -0.007600 0.000000 1.682180 
# 
# From -- ./inp_files/83975.got.cif
#   From: 2010.05.17/outbox.cif.g08.bks.cpg/sg10_42_cif.got.tgz:83975.got - 2010.06.03 11:33:40.
