data_PCOD9152240
_publ_section_title
;
Structure prediction by ZEFSAII (Michael W. Deem and Ramdas Pophale) SiO2 
 PCOD9152240
Probable space group: P 2/M
;
_chemical_formula_sum "Si O2"
_cell_formula_units_Z 28
_cell_length_a 24.482235
_cell_length_b 8.970692
_cell_length_c 8.128809
_cell_angle_alpha 90.000000
_cell_angle_beta 44.005182
_cell_angle_gamma 90.000000
_cell_volume 1240.268950
_symmetry_space_group_name_H-M "P 2/M"
_symmetry_group_IT_number 10
_symmetry_cell_setting 'monoclinic'
loop_
_space_group_symop_operation_xyz
x,y,z
-x,y,-z
-x,-y,-z
x,-y,z
loop_
_atom_site_type_symbol
_atom_site_label
_atom_site_fract_x
_atom_site_fract_y
_atom_site_fract_z
Si Si1 0.591362 0.171807 0.475457
Si Si2 0.731337 0.674686 0.347568
Si Si3 0.975547 0.322366 0.319501
Si Si4 0.879428 0.320347 0.190877
Si Si5 0.454597 0.676983 0.933679
Si Si6 0.825718 0.325077 0.800452
Si Si7 0.315065 0.172209 0.072977
O O1 0.655361 0.230785 0.467779
O O2 0.514111 0.270380 0.662679
O O3 0.633703 0.181792 0.207512
O O4 0.570102 0.000000 0.550724
O O5 0.709199 0.500000 0.420572
O O6 0.790574 0.733007 0.359084
O O7 0.786609 0.682601 0.064294
O O8 0.988976 0.500000 0.315904
O O9 0.920586 0.300993 0.276727
O O10 0.916345 0.271442 0.591218
O O11 0.059259 0.260329 0.078911
O O12 0.873846 0.500000 0.179788
O O13 0.448033 0.500000 0.950829
O O14 0.368747 0.743957 0.089194
O O15 0.500000 0.727193 0.000000
O O16 0.826598 0.500000 0.753084
O O17 0.767596 0.242907 0.800835
O O18 0.305880 0.000000 0.136624
#
# Coordination Sequence:
#
# PCOD9152240 Si02
#       7
#     4   4   4   4   4   4   4
#     4  10  21  37  56  77 103 136 171 206 249 302
#     4   9  17  29  47  72  99 127 163 207 251 295
#     4   8  14  25  42  66  96 128 162 203 251 298
#     4   8  14  25  42  66  96 128 162 203 251 298
#     4  11  24  39  56  80 106 131 164 207 252 298
#     4   9  17  29  47  72  99 127 163 207 251 295
#     4  10  21  37  56  77 103 136 171 206 249 302
#
# _framework density 22.575748999999998
#
# number of rings (size 3 to 8) (size 9 to 14) (size 15 to 20)
#    0.000    2.714    0.000    2.571    0.000    6.286 
#    0.000    5.714    0.000    0.857    0.000    6.000 
#    0.000    0.000    0.000    0.000    0.000    0.000 
#
# Total GULP energy -156360.177709 kJ/mol
# GULP energy per Si atom -5584.292061 kJ/mol
# Density = 2.252437 g / cm^3
# Si number density = 22.575749 Si / 1000 Ang^3
#
#
#
# Elastic Constant Matrix: (Units=GPa)
#
#
# Indices 1 2 3 4 5 6 
#
# 1 93.9511 22.8348 -7.4981 0.0000 -12.9956 0.0000
# 2 22.8348 27.8337 3.6144 0.0000 -1.6237 0.0000
# 3 -7.4981 3.6144 78.0187 0.0000 -13.3686 0.0000
# 4 0.0000 0.0000 0.0000 9.1100 0.0000 -6.1956
# 5 -12.9956 -1.6237 -13.3686 0.0000 41.1309 0.0000
# 6 0.0000 0.0000 0.0000 -6.1956 0.0000 -40.6360
#
#
#
# Elastic Compliance Matrix: (Units=1/GPa)
#
#
# Indices 1 2 3 4 5 6 
#
# 1 0.014461 -0.011935 0.002801 0.000000 0.005008 0.000000
# 2 -0.011935 0.046030 -0.003828 0.000000 -0.003198 0.000000
# 3 0.002801 -0.003828 0.014179 0.000000 0.005343 0.000000
# 4 0.000000 0.000000 0.000000 0.099457 0.000000 -0.015164
# 5 0.005008 -0.003198 0.005343 0.000000 0.027505 0.000000
# 6 0.000000 0.000000 0.000000 -0.015164 0.000000 -0.022297
#
#
# Mechanical properties :
#
#
# Convention : Reuss Voigt Hill
#
# Bulk Modulus (GPa) = 20.51435 26.41175 23.46305
# Shear Modulus (GPa) = 22.57245 13.97779 18.27512
#
# Velocity S-wave (km/s) = 3.16548 2.49097 2.84826
# Velocity P-wave (km/s) = 4.73993 4.47189 4.60786
#
# Compressibility (1/GPa) = 0.04874635
#
# Stress axis : x y z
#
# Youngs Moduli (GPa) = 69.15135 21.72497 70.52485
#
# Poissons Ratio (x) = 0.25930 -0.19753
# Poissons Ratio (y) = 0.82535 0.26994
# Poissons Ratio (z) = -0.19369 0.08315
#
# Static dielectric constant tensor:
#      x y z
#    x 1.893690 0.000000 0.049990 
#    y 0.000000 1.753380 0.000000 
#    z 0.049990 0.000000 1.913330 
# 
# From -- ./inp_files/36978.got.cif
#   From: 2010.05.17/outbox.cif.g08.bks.cpg/sg10_19_cif.got.tgz:36978.got - 2010.06.03 11:33:40.
