data_PCOD9152020
_publ_section_title
;
Structure prediction by ZEFSAII (Michael W. Deem and Ramdas Pophale) SiO2 
 PCOD9152020
Probable space group: P 2/M
;
_chemical_formula_sum "Si O2"
_cell_formula_units_Z 28
_cell_length_a 30.096181
_cell_length_b 8.811724
_cell_length_c 9.563574
_cell_angle_alpha 90.000000
_cell_angle_beta 37.328320
_cell_angle_gamma 90.000000
_cell_volume 1537.936659
_symmetry_space_group_name_H-M "P 2/M"
_symmetry_group_IT_number 10
_symmetry_cell_setting 'monoclinic'
loop_
_space_group_symop_operation_xyz
x,y,z
-x,y,-z
-x,-y,-z
x,-y,z
loop_
_atom_site_type_symbol
_atom_site_label
_atom_site_fract_x
_atom_site_fract_y
_atom_site_fract_z
Si Si1 0.136377 0.680545 0.999534
Si Si2 0.298404 0.818130 0.917415
Si Si3 0.868945 0.182588 0.683013
Si Si4 0.427787 0.683388 0.093320
Si Si5 0.006147 0.182630 0.146725
Si Si6 0.570534 0.683078 0.234621
Si Si7 0.704511 0.181895 0.400111
O O1 0.140759 0.500000 0.987435
O O2 0.215734 0.750689 0.766371
O O3 0.117079 0.738977 0.203537
O O4 0.074605 0.739137 0.049296
O O5 0.356182 0.741241 0.874534
O O6 0.312720 0.777059 0.718904
O O7 0.305042 0.000000 0.913266
O O8 0.213495 0.777143 0.158454
O O9 0.931682 0.221301 0.415808
O O10 0.869689 0.000000 0.703406
O O11 0.421982 0.500000 0.112026
O O12 0.357177 0.753923 0.344013
O O13 0.500000 0.726844 0.000000
O O14 0.434073 0.730759 0.915709
O O15 0.015560 0.000000 0.132258
O O16 0.000000 0.224202 0.000000
O O17 0.500000 0.735467 0.500000
O O18 0.570715 0.500000 0.236509
O O19 0.707920 0.000000 0.399584
#
# Coordination Sequence:
#
# PCOD9152020 Si02
#       7
#     4   4   4   4   4   4   4
#     4  11  22  36  57  84 112 143 183 229 277 327
#     4   9  19  35  55  80 107 139 182 229 272 317
#     4   9  19  37  58  80 109 145 185 225 269 327
#     4  10  21  37  57  82 113 147 183 225 274 326
#     4  10  21  37  57  81 112 150 187 225 273 326
#     4  10  21  36  55  80 110 146 183 219 267 325
#     4  10  21  38  59  82 109 143 185 227 272 328
#
# _framework density 18.206211
#
# number of rings (size 3 to 8) (size 9 to 14) (size 15 to 20)
#    0.000    2.143    0.000    3.857    0.000    8.857 
#    0.000    1.429    0.000    0.000    0.000    0.000 
#    0.000    0.000    0.000    0.000    0.000    0.000 
#
# Total GULP energy -156386.019685 kJ/mol
# GULP energy per Si atom -5585.214989 kJ/mol
# Density = 1.816477 g / cm^3
# Si number density = 18.206211 Si / 1000 Ang^3
#
#
#
# Elastic Constant Matrix: (Units=GPa)
#
#
# Indices 1 2 3 4 5 6 
#
# 1 188.4058 56.0630 116.1466 0.0000 -3.6933 0.0000
# 2 56.0630 31.2864 56.3764 0.0000 2.0198 0.0000
# 3 116.1466 56.3764 185.6849 0.0000 8.6139 0.0000
# 4 0.0000 0.0000 0.0000 28.2726 0.0000 -8.9085
# 5 -3.6933 2.0198 8.6139 0.0000 14.5200 0.0000
# 6 0.0000 0.0000 0.0000 -8.9085 0.0000 40.1140
#
#
#
# Elastic Compliance Matrix: (Units=1/GPa)
#
#
# Indices 1 2 3 4 5 6 
#
# 1 0.012431 -0.017942 -0.002664 0.000000 0.007238 0.000000
# 2 -0.017942 0.096596 -0.017758 0.000000 -0.007465 0.000000
# 3 -0.002664 -0.017758 0.012710 0.000000 -0.005747 0.000000
# 4 0.000000 0.000000 0.000000 0.038031 0.000000 0.008446
# 5 0.007238 -0.007465 -0.005747 0.000000 0.075159 0.000000
# 6 0.000000 0.000000 0.000000 0.008446 0.000000 0.026805
#
#
# Mechanical properties :
#
#
# Convention : Reuss Voigt Hill
#
# Bulk Modulus (GPa) = 22.21851 95.83876 59.02864
# Shear Modulus (GPa) = 14.14575 28.36738 21.25657
#
# Velocity S-wave (km/s) = 2.79045 3.95158 3.42064
# Velocity P-wave (km/s) = 4.75525 8.57758 6.93496
#
# Compressibility (1/GPa) = 0.04500752
#
# Stress axis : x y z
#
# Youngs Moduli (GPa) = 80.44640 10.35241 78.67872
#
# Poissons Ratio (x) = 0.18575 0.20957
# Poissons Ratio (y) = 1.44339 1.39721
# Poissons Ratio (z) = 0.21428 0.18384
#
# Static dielectric constant tensor:
#      x y z
#    x 1.595510 0.000000 0.003890 
#    y 0.000000 1.613670 0.000000 
#    z 0.003890 0.000000 1.610610 
# 
# From -- ./inp_files/37089.got.cif
#   From: 2010.05.17/outbox.cif.g08.bks.cpg/sg10_19_cif.got.tgz:37089.got - 2010.06.03 11:33:40.
