data_PCOD9152251
_publ_section_title
;
Structure prediction by ZEFSAII (Michael W. Deem and Ramdas Pophale) SiO2 
 PCOD9152251
Probable space group: P 2/M
;
_chemical_formula_sum "Si O2"
_cell_formula_units_Z 32
_cell_length_a 24.649000
_cell_length_b 10.455939
_cell_length_c 23.462833
_cell_angle_alpha 90.000000
_cell_angle_beta 16.750628
_cell_angle_gamma 90.000000
_cell_volume 1742.797643
_symmetry_space_group_name_H-M "P 2/M"
_symmetry_group_IT_number 10
_symmetry_cell_setting 'monoclinic'
loop_
_space_group_symop_operation_xyz
x,y,z
-x,y,-z
-x,-y,-z
x,-y,z
loop_
_atom_site_type_symbol
_atom_site_label
_atom_site_fract_x
_atom_site_fract_y
_atom_site_fract_z
Si Si1 0.323354 0.148729 0.754601
Si Si2 0.581235 0.353458 0.652369
Si Si3 0.121283 0.848718 0.598788
Si Si4 0.710029 0.155949 0.797001
Si Si5 0.815921 0.265236 0.987310
Si Si6 0.767019 0.149797 0.278757
Si Si7 0.997207 0.154837 0.408662
Si Si8 0.856620 0.636080 0.273078
O O1 0.270832 0.207239 0.867700
O O2 0.546784 0.157150 0.518084
O O3 0.225574 0.194857 0.794342
O O4 0.275714 0.000000 0.805770
O O5 0.606851 0.500000 0.648124
O O6 0.360486 0.319607 0.870447
O O7 0.669628 0.353337 0.499667
O O8 0.704780 0.243951 0.559365
O O9 0.048570 0.807832 0.609401
O O10 0.173866 0.000000 0.545758
O O11 0.947402 0.828122 0.817382
O O12 0.809221 0.197070 0.755986
O O13 0.837069 0.192549 0.615131
O O14 0.707282 0.000000 0.800457
O O15 0.500000 0.202471 0.000000
O O16 0.970926 0.362469 0.856066
O O17 0.869974 0.242944 0.218679
O O18 0.821882 0.000000 0.227696
O O19 0.000885 0.000000 0.404178
O O20 0.853158 0.500000 0.245395
#
# Coordination Sequence:
#
# PCOD9152251 Si02
#       8
#     4   4   4   4   4   4   4   4
#     4   9  18  33  54  78 103 134 171 213 266 327
#     4  10  22  40  58  75 105 149 189 226 271 328
#     4  10  22  36  55  85 116 144 180 231 279 320
#     4   8  13  23  44  70 104 150 183 208 254 315
#     4  11  21  36  55  79 105 141 181 222 272 327
#     4   9  18  35  56  77 102 132 169 215 267 327
#     4   8  15  28  43  71 112 144 176 217 263 314
#     4  10  21  37  56  79 103 130 171 223 275 325
#
# _framework density 18.361284000000001
#
# number of rings (size 3 to 8) (size 9 to 14) (size 15 to 20)
#    0.000    2.625    1.250    2.250    0.000    5.500 
#    0.000    6.875    0.000    0.000    0.000    1.750 
#    0.000    5.000    0.000    0.000    0.000    0.000 
#
# Total GULP energy -178210.061902 kJ/mol
# GULP energy per Si atom -5569.064434 kJ/mol
# Density = 1.831949 g / cm^3
# Si number density = 18.361284 Si / 1000 Ang^3
#
#
#
# Elastic Constant Matrix: (Units=GPa)
#
#
# Indices 1 2 3 4 5 6 
#
# 1 111.0823 48.6361 31.2686 0.0000 -13.8025 0.0000
# 2 48.6361 75.2706 23.9855 0.0000 -15.3346 0.0000
# 3 31.2686 23.9855 82.3232 0.0000 -30.8011 0.0000
# 4 0.0000 0.0000 0.0000 -12.7950 0.0000 -5.2371
# 5 -13.8025 -15.3346 -30.8011 0.0000 23.8001 0.0000
# 6 0.0000 0.0000 0.0000 -5.2371 0.0000 -8.8108
#
#
#
# Elastic Compliance Matrix: (Units=1/GPa)
#
#
# Indices 1 2 3 4 5 6 
#
# 1 0.013138 -0.007771 -0.003390 0.000000 -0.001775 0.000000
# 2 -0.007771 0.019984 0.000505 0.000000 0.009022 0.000000
# 3 -0.003390 0.000505 0.024572 0.000000 0.030159 0.000000
# 4 0.000000 0.000000 0.000000 -0.103283 0.000000 0.061390
# 5 -0.001775 0.009022 0.030159 0.000000 0.085831 0.000000
# 6 0.000000 0.000000 0.000000 0.061390 0.000000 -0.149986
#
#
# Mechanical properties :
#
#
# Convention : Reuss Voigt Hill
#
# Bulk Modulus (GPa) = 27.48651 52.93962 40.21306
# Shear Modulus (GPa) = -65.52596 11.42458 -27.05069
#
# Velocity S-wave (km/s) = -5.98034 2.49712 -3.84245
# Velocity P-wave (km/s) = 5.71696 6.09991 1.50420
#
# Compressibility (1/GPa) = 0.03638149
#
# Stress axis : x y z
#
# Youngs Moduli (GPa) = 76.11260 50.04092 40.69714
#
# Poissons Ratio (x) = 0.38885 0.13798
# Poissons Ratio (y) = 0.59144 -0.02055
# Poissons Ratio (z) = 0.25805 -0.02526
#
# Static dielectric constant tensor:
#      x y z
#    x 1.639940 0.000000 -0.016870 
#    y 0.000000 1.633250 0.000000 
#    z -0.016870 0.000000 1.679850 
# 
# From -- ./inp_files/86260.got.cif
#   From: 2010.05.17/outbox.cif.g08.bks.cpg/sg10_44_cif.got.tgz:86260.got - 2010.06.03 11:33:40.
