data_PCOD9152484
_publ_section_title
;
Structure prediction by ZEFSAII (Michael W. Deem and Ramdas Pophale) SiO2 
 PCOD9152484
Probable space group: P 2/M
;
_chemical_formula_sum "Si O2"
_cell_formula_units_Z 32
_cell_length_a 14.297615
_cell_length_b 8.708820
_cell_length_c 24.778554
_cell_angle_alpha 90.000000
_cell_angle_beta 30.004686
_cell_angle_gamma 90.000000
_cell_volume 1542.873753
_symmetry_space_group_name_H-M "P 2/M"
_symmetry_group_IT_number 10
_symmetry_cell_setting 'monoclinic'
loop_
_space_group_symop_operation_xyz
x,y,z
-x,y,-z
-x,-y,-z
x,-y,z
loop_
_atom_site_type_symbol
_atom_site_label
_atom_site_fract_x
_atom_site_fract_y
_atom_site_fract_z
Si Si1 0.908209 0.316398 0.603380
Si Si2 0.219004 0.681798 0.877767
Si Si3 0.497081 0.818128 0.826927
Si Si4 0.720795 0.678923 0.379305
Si Si5 0.023840 0.181512 0.654323
Si Si6 0.173711 0.820922 0.788320
Si Si7 0.702417 0.321759 0.880885
Si Si8 0.795711 0.324972 0.955733
O O1 0.887614 0.500000 0.617032
O O2 0.704843 0.239666 0.710648
O O3 0.000000 0.277706 0.500000
O O4 0.033225 0.258884 0.591046
O O5 0.247346 0.500000 0.871122
O O6 0.357356 0.772521 0.848045
O O7 0.256927 0.728686 0.797082
O O8 0.000000 0.715296 0.000000
O O9 0.406246 0.729185 0.923158
O O10 0.496673 0.000000 0.836213
O O11 0.500000 0.687722 0.500000
O O12 0.775723 0.500000 0.347724
O O13 0.831104 0.752948 0.374319
O O14 0.761887 0.760791 0.302031
O O15 0.819510 0.224774 0.780283
O O16 0.044311 0.000000 0.639625
O O17 0.212430 0.000000 0.774766
O O18 0.951624 0.787438 0.900835
O O19 0.683297 0.500000 0.872171
O O20 0.500000 0.263047 0.000000
O O21 0.810637 0.323014 0.883858
O O22 0.830374 0.500000 0.956976
#
# Coordination Sequence:
#
# PCOD9152484 Si02
#       8
#     4   4   4   4   4   4   4   4
#     4  11  26  49  74  96 127 175 227 274 325 394
#     4  11  23  40  65  93 130 180 227 270 326 402
#     4  12  25  41  66 100 137 172 218 280 337 392
#     4  11  25  46  71  97 131 178 228 272 322 396
#     4  12  25  42  69 101 135 170 213 275 335 390
#     4  12  24  39  63  95 132 169 214 275 335 386
#     4  10  21  37  61  92 129 173 219 263 317 389
#     4  11  21  36  61  91 131 176 217 262 320 394
#
# _framework density 20.740517000000001
#
# number of rings (size 3 to 8) (size 9 to 14) (size 15 to 20)
#    0.000    0.750    2.500    5.625    0.000    5.250 
#    0.000    1.250    0.000    0.000    0.000    0.000 
#    0.000    0.000    0.000    0.000    0.000    0.000 
#
# Total GULP energy -179090.608232 kJ/mol
# GULP energy per Si atom -5596.581507 kJ/mol
# Density = 2.069331 g / cm^3
# Si number density = 20.740517 Si / 1000 Ang^3
#
#
#
# Elastic Constant Matrix: (Units=GPa)
#
#
# Indices 1 2 3 4 5 6 
#
# 1 99.6547 20.8915 33.9421 0.0000 24.2743 0.0000
# 2 20.8915 89.2396 30.0006 0.0000 12.5627 0.0000
# 3 33.9421 30.0006 89.2189 0.0000 15.6800 0.0000
# 4 0.0000 0.0000 0.0000 -10.1807 0.0000 -11.6828
# 5 24.2743 12.5627 15.6800 0.0000 37.6927 0.0000
# 6 0.0000 0.0000 0.0000 -11.6828 0.0000 12.7902
#
#
#
# Elastic Compliance Matrix: (Units=1/GPa)
#
#
# Indices 1 2 3 4 5 6 
#
# 1 0.013032 -0.000950 -0.003473 0.000000 -0.006631 0.000000
# 2 -0.000950 0.012951 -0.003606 0.000000 -0.002205 0.000000
# 3 -0.003473 -0.003606 0.014174 0.000000 -0.002458 0.000000
# 4 0.000000 0.000000 0.000000 -0.047957 0.000000 -0.043805
# 5 -0.006631 -0.002205 -0.002458 0.000000 0.032558 0.000000
# 6 0.000000 0.000000 0.000000 -0.043805 0.000000 0.038173
#
#
# Mechanical properties :
#
#
# Convention : Reuss Voigt Hill
#
# Bulk Modulus (GPa) = 41.49501 49.75350 45.62425
# Shear Modulus (GPa) = 57.45713 20.94570 39.20142
#
# Velocity S-wave (km/s) = 5.26906 3.18133 4.35223
# Velocity P-wave (km/s) = 7.55430 6.12659 6.87759
#
# Compressibility (1/GPa) = 0.02409928
#
# Stress axis : x y z
#
# Youngs Moduli (GPa) = 76.73456 77.21555 70.55090
#
# Poissons Ratio (x) = 0.07334 0.24502
# Poissons Ratio (y) = 0.07288 0.25441
# Poissons Ratio (z) = 0.26650 0.27844
#
# Static dielectric constant tensor:
#      x y z
#    x 1.770520 0.000000 -0.003680 
#    y 0.000000 1.688500 0.000000 
#    z -0.003680 0.000000 1.736930 
# 
# From -- ./inp_files/89483.got.cif
#   From: 2010.05.17/outbox.cif.g08.bks.cpg/sg10_45_cif.got.tgz:89483.got - 2010.06.03 11:33:40.
