data_PCOD9152311
_publ_section_title
;
Structure prediction by ZEFSAII (Michael W. Deem and Ramdas Pophale) SiO2 
 PCOD9152311
Probable space group: P 2/M
;
_chemical_formula_sum "Si O2"
_cell_formula_units_Z 32
_cell_length_a 29.945707
_cell_length_b 9.910897
_cell_length_c 11.819107
_cell_angle_alpha 90.000000
_cell_angle_beta 152.137561
_cell_angle_gamma 90.000000
_cell_volume 1639.361645
_symmetry_space_group_name_H-M "P 2/M"
_symmetry_group_IT_number 10
_symmetry_cell_setting 'monoclinic'
loop_
_space_group_symop_operation_xyz
x,y,z
-x,y,-z
-x,-y,-z
x,-y,z
loop_
_atom_site_type_symbol
_atom_site_label
_atom_site_fract_x
_atom_site_fract_y
_atom_site_fract_z
Si Si1 0.963267 0.652607 0.105075
Si Si2 0.389024 0.659488 0.429245
Si Si3 0.314159 0.155086 0.714525
Si Si4 0.393272 0.348852 0.709440
Si Si5 0.847277 0.652363 0.623975
Si Si6 0.958954 0.842046 0.533953
Si Si7 0.737643 0.159242 0.004788
Si Si8 0.565089 0.846690 0.795939
O O1 0.950820 0.500000 0.120357
O O2 0.060038 0.656768 0.247312
O O3 0.978326 0.756056 0.239029
O O4 0.881152 0.678158 0.828785
O O5 0.387851 0.500000 0.398197
O O6 0.391387 0.671091 0.570810
O O7 0.300465 0.741292 0.177941
O O8 0.483605 0.736172 0.595963
O O9 0.338420 0.234601 0.655103
O O10 0.227319 0.234969 0.576494
O O11 0.290735 0.000000 0.641650
O O12 0.400752 0.161226 0.997511
O O13 0.354466 0.500000 0.644988
O O14 0.500000 0.346986 0.000000
O O15 0.808274 0.500000 0.528352
O O16 0.000000 0.824017 0.500000
O O17 0.965528 0.000000 0.578169
O O18 0.846014 0.805689 0.283186
O O19 0.658847 0.171397 0.928211
O O20 0.738589 0.000000 0.972776
O O21 0.528407 0.000000 0.693888
#
# Coordination Sequence:
#
# PCOD9152311 Si02
#       8
#     4   4   4   4   4   4   4   4
#     4   9  19  37  60  84 112 149 189 233 284 341
#     4  11  23  38  59  85 112 148 196 241 280 332
#     4  11  22  34  56  88 116 148 194 235 274 335
#     4  10  21  39  57  76 111 153 186 226 283 331
#     4   9  19  36  57  84 118 150 183 230 291 342
#     4  10  22  40  61  84 115 153 191 236 290 343
#     4  10  22  40  59  82 116 153 187 231 290 344
#     4  10  21  37  57  82 116 154 188 231 288 340
#
# _framework density 19.519793
#
# number of rings (size 3 to 8) (size 9 to 14) (size 15 to 20)
#    0.000    2.000    1.250    2.625    0.000    7.500 
#    0.000    3.750    0.000    0.000    0.000    0.000 
#    0.000    0.000    0.000    0.000    0.000    0.000 
#
# Total GULP energy -178652.476831 kJ/mol
# GULP energy per Si atom -5582.889901 kJ/mol
# Density = 1.947537 g / cm^3
# Si number density = 19.519793 Si / 1000 Ang^3
#
#
#
# Elastic Constant Matrix: (Units=GPa)
#
#
# Indices 1 2 3 4 5 6 
#
# 1 42.7318 24.5548 2.3464 0.0000 -13.8359 0.0000
# 2 24.5548 104.0530 40.7204 0.0000 -16.8923 0.0000
# 3 2.3464 40.7204 37.4315 0.0000 -10.8603 0.0000
# 4 0.0000 0.0000 0.0000 3.9087 0.0000 6.8175
# 5 -13.8359 -16.8923 -10.8603 0.0000 31.0331 0.0000
# 6 0.0000 0.0000 0.0000 6.8175 0.0000 24.6627
#
#
#
# Elastic Compliance Matrix: (Units=1/GPa)
#
#
# Indices 1 2 3 4 5 6 
#
# 1 0.033508 -0.011167 0.014045 0.000000 0.013776 0.000000
# 2 -0.011167 0.020720 -0.022274 0.000000 -0.001495 0.000000
# 3 0.014045 -0.022274 0.053831 0.000000 0.012976 0.000000
# 4 0.000000 0.000000 0.000000 0.494049 0.000000 -0.136570
# 5 0.013776 -0.001495 0.012976 0.000000 0.042092 0.000000
# 6 0.000000 0.000000 0.000000 -0.136570 0.000000 0.078299
#
#
# Mechanical properties :
#
#
# Convention : Reuss Voigt Hill
#
# Bulk Modulus (GPa) = 14.43712 35.49548 24.96630
# Shear Modulus (GPa) = 6.37444 19.69387 13.03416
#
# Velocity S-wave (km/s) = 1.80907 3.17979 2.58687
# Velocity P-wave (km/s) = 3.43159 5.63074 4.66268
#
# Compressibility (1/GPa) = 0.06926590
#
# Stress axis : x y z
#
# Youngs Moduli (GPa) = 29.84361 48.26269 18.57652
#
# Poissons Ratio (x) = 0.53897 -0.26091
# Poissons Ratio (y) = 0.33327 0.41378
# Poissons Ratio (z) = -0.41915 1.07502
#
# Static dielectric constant tensor:
#      x y z
#    x 1.693550 0.000000 0.008670 
#    y 0.000000 1.661720 0.000000 
#    z 0.008670 0.000000 1.690050 
# 
# From -- ./inp_files/58126.got.cif
#   From: 2010.05.17/outbox.cif.g08.bks.cpg/sg10_30_cif.got.tgz:58126.got - 2010.06.03 11:33:40.
