data_PCOD9152675
_publ_section_title
;
Structure prediction by ZEFSAII (Michael W. Deem and Ramdas Pophale) SiO2 
 PCOD9152675
Probable space group: P 2/M
;
_chemical_formula_sum "Si O2"
_cell_formula_units_Z 32
_cell_length_a 17.499687
_cell_length_b 14.214197
_cell_length_c 11.191959
_cell_angle_alpha 90.000000
_cell_angle_beta 149.169852
_cell_angle_gamma 90.000000
_cell_volume 1426.750895
_symmetry_space_group_name_H-M "P 2/M"
_symmetry_group_IT_number 10
_symmetry_cell_setting 'monoclinic'
loop_
_space_group_symop_operation_xyz
x,y,z
-x,y,-z
-x,-y,-z
x,-y,z
loop_
_atom_site_type_symbol
_atom_site_label
_atom_site_fract_x
_atom_site_fract_y
_atom_site_fract_z
Si Si1 0.396946 0.745691 0.454956
Si Si2 0.860739 0.750336 0.224615
Si Si3 0.360256 0.732470 0.876520
Si Si4 0.051323 0.891721 0.867106
Si Si5 0.483662 0.396825 0.734561
Si Si6 0.818700 0.606450 0.541675
Si Si7 0.837254 0.611406 0.990002
Si Si8 0.766457 0.107512 0.637806
O O1 0.500000 0.801670 0.500000
O O2 0.508693 0.667862 0.655561
O O3 0.353681 0.811780 0.507199
O O4 0.260706 0.685756 0.217336
O O5 0.724767 0.781053 0.127944
O O6 0.894705 0.823597 0.164235
O O7 0.834568 0.650545 0.122913
O O8 0.000000 0.742649 0.500000
O O9 0.238260 0.687502 0.623925
O O10 0.500000 0.783472 0.000000
O O11 0.440411 0.643630 0.046595
O O12 0.886055 0.870719 0.695722
O O13 0.052835 0.000000 0.827923
O O14 0.152108 0.887867 0.122571
O O15 0.534901 0.500000 0.778276
O O16 0.305991 0.395469 0.522573
O O17 0.814859 0.500000 0.482380
O O18 0.987492 0.621577 0.810390
O O19 0.798131 0.500000 0.924788
O O20 0.714963 0.000000 0.552613
#
# Coordination Sequence:
#
# PCOD9152675 Si02
#       8
#     4   4   4   4   4   4   4   4
#     4  12  25  38  59  90 128 169 212 259 323 384
#     4  12  23  37  64  95 126 168 215 268 314 369
#     4  10  21  38  60  87 125 172 221 263 308 369
#     4   9  20  40  68  98 123 155 205 262 327 386
#     4  10  22  37  58  85 125 174 215 255 313 377
#     4   9  19  37  59  86 115 163 223 271 309 357
#     4  11  24  40  58  89 131 169 215 267 314 367
#     4   9  20  41  69  92 119 159 206 265 321 384
#
# _framework density 22.428584000000001
#
# number of rings (size 3 to 8) (size 9 to 14) (size 15 to 20)
#    0.000    1.750    2.500    2.250    1.750    5.750 
#    0.000    1.875    0.000    0.375    0.000    0.000 
#    0.000    0.000    0.000    0.000    0.000    0.000 
#
# Total GULP energy -178690.648538 kJ/mol
# GULP energy per Si atom -5584.082767 kJ/mol
# Density = 2.237754 g / cm^3
# Si number density = 22.428584 Si / 1000 Ang^3
#
#
#
# Elastic Constant Matrix: (Units=GPa)
#
#
# Indices 1 2 3 4 5 6 
#
# 1 109.7336 56.1544 14.7475 0.0000 15.6609 0.0000
# 2 56.1544 97.6064 22.2619 0.0000 3.6866 0.0000
# 3 14.7475 22.2619 77.2582 0.0000 8.7662 0.0000
# 4 0.0000 0.0000 0.0000 4.1750 0.0000 -8.7880
# 5 15.6609 3.6866 8.7662 0.0000 33.8729 0.0000
# 6 0.0000 0.0000 0.0000 -8.7880 0.0000 19.5856
#
#
#
# Elastic Compliance Matrix: (Units=1/GPa)
#
#
# Indices 1 2 3 4 5 6 
#
# 1 0.013895 -0.007837 0.000245 0.000000 -0.005635 0.000000
# 2 -0.007837 0.015391 -0.003256 0.000000 0.002791 0.000000
# 3 0.000245 -0.003256 0.014225 0.000000 -0.003441 0.000000
# 4 0.000000 0.000000 0.000000 4.312922 0.000000 1.935198
# 5 -0.005635 0.002791 -0.003441 0.000000 0.032714 0.000000
# 6 0.000000 0.000000 0.000000 1.935198 0.000000 0.919377
#
#
# Mechanical properties :
#
#
# Convention : Reuss Voigt Hill
#
# Bulk Modulus (GPa) = 45.83710 52.32508 49.08109
# Shear Modulus (GPa) = 0.93677 24.28900 12.61289
#
# Velocity S-wave (km/s) = 0.64697 3.29439 2.37398
# Velocity P-wave (km/s) = 4.58687 6.15231 5.42634
#
# Compressibility (1/GPa) = 0.02181639
#
# Stress axis : x y z
#
# Youngs Moduli (GPa) = 71.97066 64.97294 70.29736
#
# Poissons Ratio (x) = 0.50918 -0.01724
# Poissons Ratio (y) = 0.56402 0.22886
# Poissons Ratio (z) = -0.01765 0.21153
#
# Static dielectric constant tensor:
#      x y z
#    x 1.897840 0.000000 0.045790 
#    y 0.000000 1.836780 0.000000 
#    z 0.045790 0.000000 1.883320 
# 
# From -- ./inp_files/54038.got.cif
#   From: 2010.05.17/outbox.cif.g08.bks.cpg/sg10_28_cif.got.tgz:54038.got - 2010.06.03 11:33:40.
