data_PCOD9152005
_publ_section_title
;
Structure prediction by ZEFSAII (Michael W. Deem and Ramdas Pophale) SiO2 
 PCOD9152005
Probable space group: P 2/M
;
_chemical_formula_sum "Si O2"
_cell_formula_units_Z 32
_cell_length_a 11.746997
_cell_length_b 10.698709
_cell_length_c 23.979097
_cell_angle_alpha 90.000000
_cell_angle_beta 145.995432
_cell_angle_gamma 90.000000
_cell_volume 1685.404068
_symmetry_space_group_name_H-M "P 2/M"
_symmetry_group_IT_number 10
_symmetry_cell_setting 'monoclinic'
loop_
_space_group_symop_operation_xyz
x,y,z
-x,y,-z
-x,-y,-z
x,-y,z
loop_
_atom_site_type_symbol
_atom_site_label
_atom_site_fract_x
_atom_site_fract_y
_atom_site_fract_z
Si Si1 0.947300 0.237439 0.640865
Si Si2 0.569334 0.355907 0.299915
Si Si3 0.434160 0.640267 0.570476
Si Si4 0.906419 0.348309 0.903083
Si Si5 0.311614 0.649812 0.851734
Si Si6 0.863440 0.862160 0.389107
Si Si7 0.670478 0.863927 0.617901
Si Si8 0.766144 0.652168 0.052976
O O1 0.153174 0.305420 0.741881
O O2 0.993103 0.151652 0.606441
O O3 0.763824 0.328738 0.547201
O O4 0.871913 0.163683 0.664636
O O5 0.596718 0.500000 0.290882
O O6 0.621826 0.355468 0.387144
O O7 0.331979 0.320431 0.198403
O O8 0.708277 0.253128 0.327232
O O9 0.509993 0.500000 0.588749
O O10 0.601632 0.746562 0.626745
O O11 0.917648 0.500000 0.906865
O O12 0.045995 0.303718 0.908297
O O13 0.000000 0.306403 0.000000
O O14 0.313849 0.500000 0.852896
O O15 0.237914 0.689556 0.883802
O O16 0.545895 0.690316 0.938858
O O17 0.000000 0.853443 0.500000
O O18 0.765665 0.000000 0.349004
O O19 0.500000 0.869652 0.500000
O O20 0.674746 0.000000 0.647757
O O21 0.771331 0.500000 0.054733
#
# Coordination Sequence:
#
# PCOD9152005 Si02
#       8
#     4   4   4   4   4   4   4   4
#     4  11  21  34  56  84 109 149 193 237 284 343
#     4  10  22  38  58  87 118 149 188 241 293 336
#     4  10  21  36  54  85 122 148 178 229 288 343
#     4   9  18  32  54  81 112 150 190 234 284 341
#     4   9  18  30  51  82 116 149 184 234 291 344
#     4  11  24  42  61  81 113 159 201 237 283 349
#     4   9  20  36  54  76 108 149 191 229 264 323
#     4   8  16  32  49  76 115 152 190 230 281 345
#
# _framework density 18.986545
#
# number of rings (size 3 to 8) (size 9 to 14) (size 15 to 20)
#    0.000    2.375    1.250    1.500    3.500    5.000 
#    0.000    0.000    0.000    0.375    0.000    7.000 
#    0.000    0.000    0.000    0.000    0.000    0.000 
#
# Total GULP energy -178416.719748 kJ/mol
# GULP energy per Si atom -5575.522492 kJ/mol
# Density = 1.894333 g / cm^3
# Si number density = 18.986545 Si / 1000 Ang^3
#
#
#
# Elastic Constant Matrix: (Units=GPa)
#
#
# Indices 1 2 3 4 5 6 
#
# 1 63.7556 43.2140 12.3926 0.0000 17.2624 0.0000
# 2 43.2140 107.7104 22.5298 0.0000 16.6154 0.0000
# 3 12.3926 22.5298 70.5481 0.0000 2.3139 0.0000
# 4 0.0000 0.0000 0.0000 1.4110 0.0000 1.9215
# 5 17.2624 16.6154 2.3139 0.0000 22.6523 0.0000
# 6 0.0000 0.0000 0.0000 1.9215 0.0000 12.7411
#
#
#
# Elastic Compliance Matrix: (Units=1/GPa)
#
#
# Indices 1 2 3 4 5 6 
#
# 1 0.024637 -0.007556 -0.001486 0.000000 -0.013081 0.000000
# 2 -0.007556 0.013509 -0.002860 0.000000 -0.003859 0.000000
# 3 -0.001486 -0.002860 0.015294 0.000000 0.001668 0.000000
# 4 0.000000 0.000000 0.000000 0.891859 0.000000 -0.134501
# 5 -0.013081 -0.003859 0.001668 0.000000 0.056774 0.000000
# 6 0.000000 0.000000 0.000000 -0.134501 0.000000 0.098770
#
#
# Mechanical properties :
#
#
# Convention : Reuss Voigt Hill
#
# Bulk Modulus (GPa) = 33.74208 44.25412 38.99810
# Shear Modulus (GPa) = 4.40712 18.28606 11.34659
#
# Velocity S-wave (km/s) = 1.52520 3.10676 2.44726
# Velocity P-wave (km/s) = 4.57294 6.01897 5.34508
#
# Compressibility (1/GPa) = 0.02963658
#
# Stress axis : x y z
#
# Youngs Moduli (GPa) = 40.58966 74.02384 65.38312
#
# Poissons Ratio (x) = 0.55931 0.09714
# Poissons Ratio (y) = 0.30669 0.18702
# Poissons Ratio (z) = 0.06031 0.21174
#
# Static dielectric constant tensor:
#      x y z
#    x 1.689100 0.000000 0.006810 
#    y 0.000000 1.664620 0.000000 
#    z 0.006810 0.000000 1.663350 
# 
# From -- ./inp_files/92812.got.cif
#   From: 2010.05.17/outbox.cif.g08.bks.cpg/sg10_47_cif.got.tgz:92812.got - 2010.06.03 11:33:40.
