data_PCOD9152750
_publ_section_title
;
Structure prediction by ZEFSAII (Michael W. Deem and Ramdas Pophale) SiO2 
 PCOD9152750
Probable space group: P 2/M
;
_chemical_formula_sum "Si O2"
_cell_formula_units_Z 24
_cell_length_a 25.897420
_cell_length_b 11.536952
_cell_length_c 9.140644
_cell_angle_alpha 90.000000
_cell_angle_beta 151.009534
_cell_angle_gamma 90.000000
_cell_volume 1323.625764
_symmetry_space_group_name_H-M "P 2/M"
_symmetry_group_IT_number 10
_symmetry_cell_setting 'monoclinic'
loop_
_space_group_symop_operation_xyz
x,y,z
-x,y,-z
-x,-y,-z
x,-y,z
loop_
_atom_site_type_symbol
_atom_site_label
_atom_site_fract_x
_atom_site_fract_y
_atom_site_fract_z
Si Si1 0.272939 0.744913 0.071966
Si Si2 0.276716 0.138226 0.762995
Si Si3 0.166553 0.500000 0.806918
Si Si4 0.098296 0.261659 0.133432
Si Si5 0.105837 0.869629 0.858890
Si Si6 0.518388 0.869765 0.370748
Si Si7 0.926308 0.500000 0.093240
O O1 0.391043 0.773652 0.425236
O O2 0.263471 0.818070 0.897699
O O3 0.237653 0.613584 0.953644
O O4 0.191318 0.790355 0.990814
O O5 0.199855 0.213725 0.471779
O O6 0.253754 0.000000 0.699603
O O7 0.399895 0.154395 0.019326
O O8 0.127991 0.500000 0.881102
O O9 0.055170 0.500000 0.439664
O O10 0.077605 0.174474 0.948881
O O11 0.107332 0.387000 0.080694
O O12 0.000000 0.264032 0.000000
O O13 0.000000 0.866228 0.500000
O O14 0.147404 0.000000 0.967440
O O15 0.500000 0.875903 0.500000
O O16 0.553131 0.000000 0.410069
#
# Coordination Sequence:
#
# PCOD9152750 Si02
#       7
#     4   4   2   4   4   4   2
#     4  11  20  37  62  87 115 155 202 244 286 343
#     4  10  21  38  61  91 124 154 190 242 301 355
#     4  11  22  38  64  85 113 154 209 249 280 338
#     4  12  24  38  59  85 120 156 195 242 296 352
#     4  11  22  35  55  84 115 150 193 242 296 350
#     4   8  16  34  60  87 117 154 193 238 292 350
#     4  11  23  42  59  81 116 162 203 241 288 348
#
# _framework density 18.132013000000001
#
# number of rings (size 3 to 8) (size 9 to 14) (size 15 to 20)
#    0.000    1.500    1.667    6.250    0.000    3.333 
#    0.000    5.417    0.000    4.000    0.000    0.000 
#    0.000    0.000    0.000    0.000    0.000    0.000 
#
# Total GULP energy -133951.282001 kJ/mol
# GULP energy per Si atom -5581.303417 kJ/mol
# Density = 1.809074 g / cm^3
# Si number density = 18.132013 Si / 1000 Ang^3
#
#
#
# Elastic Constant Matrix: (Units=GPa)
#
#
# Indices 1 2 3 4 5 6 
#
# 1 56.6558 23.3053 21.3103 0.0000 -5.7055 0.0000
# 2 23.3053 123.0197 65.8758 0.0000 8.6794 0.0000
# 3 21.3103 65.8758 111.0802 0.0000 -4.3214 0.0000
# 4 0.0000 0.0000 0.0000 18.2970 0.0000 2.9447
# 5 -5.7055 8.6794 -4.3214 0.0000 26.6057 0.0000
# 6 0.0000 0.0000 0.0000 2.9447 0.0000 37.3364
#
#
#
# Elastic Compliance Matrix: (Units=1/GPa)
#
#
# Indices 1 2 3 4 5 6 
#
# 1 0.020154 -0.003243 -0.001745 0.000000 0.005097 0.000000
# 2 -0.003243 0.013153 -0.007419 0.000000 -0.006191 0.000000
# 3 -0.001745 -0.007419 0.013904 0.000000 0.004304 0.000000
# 4 0.000000 0.000000 0.000000 0.055356 0.000000 -0.004366
# 5 0.005097 -0.006191 0.004304 0.000000 0.041398 0.000000
# 6 0.000000 0.000000 0.000000 -0.004366 0.000000 0.027128
#
#
# Mechanical properties :
#
#
# Convention : Reuss Voigt Hill
#
# Bulk Modulus (GPa) = 44.64806 56.85983 50.75395
# Shear Modulus (GPa) = 24.58538 28.46545 26.52541
#
# Velocity S-wave (km/s) = 3.68626 3.96649 3.82894
# Velocity P-wave (km/s) = 6.54182 7.23908 6.89926
#
# Compressibility (1/GPa) = 0.02239739
#
# Stress axis : x y z
#
# Youngs Moduli (GPa) = 49.61767 76.02985 71.91963
#
# Poissons Ratio (x) = 0.24659 0.12548
# Poissons Ratio (y) = 0.16093 0.53356
# Poissons Ratio (z) = 0.08657 0.56405
#
# Static dielectric constant tensor:
#      x y z
#    x 1.601960 0.000000 -0.003370 
#    y 0.000000 1.645270 0.000000 
#    z -0.003370 0.000000 1.648020 
# 
# From -- ./inp_files/36218.got.cif
#   From: 2010.05.17/outbox.cif.g08.bks.cpg/sg10_19_cif.got.tgz:36218.got - 2010.06.03 11:33:40.
