data_PCOD9152584
_publ_section_title
;
Structure prediction by ZEFSAII (Michael W. Deem and Ramdas Pophale) SiO2 
 PCOD9152584
Probable space group: P 2/M
;
_chemical_formula_sum "Si O2"
_cell_formula_units_Z 16
_cell_length_a 14.698128
_cell_length_b 8.351591
_cell_length_c 5.263396
_cell_angle_alpha 90.000000
_cell_angle_beta 95.324489
_cell_angle_gamma 90.000000
_cell_volume 643.308528
_symmetry_space_group_name_H-M "P 2/M"
_symmetry_group_IT_number 10
_symmetry_cell_setting 'monoclinic'
loop_
_space_group_symop_operation_xyz
x,y,z
-x,y,-z
-x,-y,-z
x,-y,z
loop_
_atom_site_type_symbol
_atom_site_label
_atom_site_fract_x
_atom_site_fract_y
_atom_site_fract_z
Si Si1 0.291901 0.177595 0.037099
Si Si2 0.859125 0.500000 0.362648
Si Si3 0.737720 0.500000 0.819961
Si Si4 0.916711 0.174488 0.175330
Si Si5 0.448845 0.808155 0.733357
O O1 0.314522 0.332126 0.210108
O O2 0.321928 0.000000 0.135567
O O3 0.182466 0.172991 0.987373
O O4 0.341793 0.208385 0.779510
O O5 0.813588 0.500000 0.623909
O O6 0.913335 0.334953 0.338506
O O7 0.784393 0.500000 0.113100
O O8 0.920770 0.000000 0.308710
O O9 0.000000 0.183882 0.000000
O O10 0.500000 0.742562 0.500000
O O11 0.461080 0.000000 0.727624
O O12 0.500000 0.748787 0.000000
#
# Coordination Sequence:
#
# PCOD9152584 Si02
#       5
#     4   2   2   4   4
#     4   9  19  37  59  84 118 154 190 240 291 338
#     4  10  21  38  58  83 118 154 192 239 284 334
#     4  10  22  38  59  87 114 150 198 235 283 350
#     4   9  18  35  60  89 119 154 195 236 286 346
#     4   9  18  33  55  82 110 145 189 233 283 341
#
# _framework density 24.871426
#
# number of rings (size 3 to 8) (size 9 to 14) (size 15 to 20)
#    0.000    2.750    0.000    0.375    0.000    5.000 
#    0.000   18.750    0.000   13.500    0.000    0.000 
#    0.000    0.000    0.000    0.000    0.000    0.000 
#
# Total GULP energy -89286.438561 kJ/mol
# GULP energy per Si atom -5580.402410 kJ/mol
# Density = 2.481482 g / cm^3
# Si number density = 24.871426 Si / 1000 Ang^3
#
#
#
# Elastic Constant Matrix: (Units=GPa)
#
#
# Indices 1 2 3 4 5 6 
#
# 1 146.7819 11.8108 48.9714 0.0000 -34.1078 0.0000
# 2 11.8108 253.6236 51.2606 0.0000 -32.5545 0.0000
# 3 48.9714 51.2606 119.8271 0.0000 -36.8295 0.0000
# 4 0.0000 0.0000 0.0000 55.9628 0.0000 -27.0209
# 5 -34.1078 -32.5545 -36.8295 0.0000 47.9743 0.0000
# 6 0.0000 0.0000 0.0000 -27.0209 0.0000 3.7161
#
#
#
# Elastic Compliance Matrix: (Units=1/GPa)
#
#
# Indices 1 2 3 4 5 6 
#
# 1 0.008663 0.000691 -0.002354 0.000000 0.004821 0.000000
# 2 0.000691 0.004520 -0.001469 0.000000 0.002431 0.000000
# 3 -0.002354 -0.001469 0.011930 0.000000 0.006488 0.000000
# 4 0.000000 0.000000 0.000000 -0.007117 0.000000 -0.051748
# 5 0.004821 0.002431 0.006488 0.000000 0.030902 0.000000
# 6 0.000000 0.000000 0.000000 -0.051748 0.000000 -0.107174
#
#
# Mechanical properties :
#
#
# Convention : Reuss Voigt Hill
#
# Bulk Modulus (GPa) = 53.05509 82.70203 67.87856
# Shear Modulus (GPa) = -109.33829 48.74328 -30.29750
#
# Velocity S-wave (km/s) = -6.63753 4.43178 -3.49401
# Velocity P-wave (km/s) = 6.11264 7.71437 3.32770
#
# Compressibility (1/GPa) = 0.01884833
#
# Stress axis : x y z
#
# Youngs Moduli (GPa) = 115.43503 221.26234 83.82206
#
# Poissons Ratio (x) = -0.15294 0.19736
# Poissons Ratio (y) = -0.07979 0.12312
# Poissons Ratio (z) = 0.27179 0.32499
#
# Static dielectric constant tensor:
#      x y z
#    x 2.022800 0.000000 0.051170 
#    y 0.000000 2.030660 0.000000 
#    z 0.051170 0.000000 1.944380 
# 
# From -- ./inp_files/8503.got.cif
#   From: 2010.05.17/outbox.cif.g08.bks.cpg/sg10_5_cif.got.tgz:8503.got - 2010.06.03 11:33:40.
