data_PCOD9152770
_publ_section_title
;
Structure prediction by ZEFSAII (Michael W. Deem and Ramdas Pophale) SiO2 
 PCOD9152770
Probable space group: P 2/M
;
_chemical_formula_sum "Si O2"
_cell_formula_units_Z 32
_cell_length_a 15.935230
_cell_length_b 24.233822
_cell_length_c 8.888132
_cell_angle_alpha 90.000000
_cell_angle_beta 153.956710
_cell_angle_gamma 90.000000
_cell_volume 1506.970789
_symmetry_space_group_name_H-M "P 2/M"
_symmetry_group_IT_number 10
_symmetry_cell_setting 'monoclinic'
loop_
_space_group_symop_operation_xyz
x,y,z
-x,y,-z
-x,-y,-z
x,-y,z
loop_
_atom_site_type_symbol
_atom_site_label
_atom_site_fract_x
_atom_site_fract_y
_atom_site_fract_z
Si Si1 0.287985 0.730001 0.088002
Si Si2 0.198078 0.381256 0.758048
Si Si3 0.780975 0.146249 0.086255
Si Si4 0.190313 0.654059 0.404967
Si Si5 0.648959 0.936738 0.108604
Si Si6 0.015377 0.882411 0.202813
Si Si7 0.076468 0.237316 0.289786
Si Si8 0.448979 0.559600 0.739665
O O1 0.500000 0.721862 0.500000
O O2 0.245392 0.677913 0.911640
O O3 0.288900 0.790701 0.014574
O O4 0.100776 0.737120 0.897685
O O5 0.171448 0.373596 0.536768
O O6 0.000000 0.401739 0.500000
O O7 0.361325 0.426180 0.045450
O O8 0.652512 0.104280 0.972981
O O9 0.000000 0.143311 0.500000
O O10 0.814946 0.128073 0.966711
O O11 0.239430 0.716894 0.529433
O O12 0.328076 0.615380 0.531862
O O13 0.000000 0.657019 0.000000
O O14 0.859286 0.930100 0.521291
O O15 0.613510 0.000000 0.007742
O O16 0.500000 0.921483 0.000000
O O17 0.127518 0.824337 0.419344
O O18 0.000000 0.890927 0.000000
O O19 0.000000 0.227450 0.000000
O O20 0.363969 0.500000 0.562087
O O21 0.500000 0.556806 0.000000
#
# Coordination Sequence:
#
# PCOD9152770 Si02
#       8
#     4   4   4   4   4   4   4   4
#     4  11  23  36  60  91 127 156 192 253 311 369
#     4  11  22  37  61  90 120 158 198 249 310 361
#     4   9  20  38  60  83 118 160 199 243 304 369
#     4  10  21  38  62  87 120 158 201 247 298 366
#     4  10  22  39  57  84 120 158 202 252 293 349
#     4   9  19  36  59  84 116 151 199 249 299 365
#     4   9  19  35  57  86 122 154 192 243 304 364
#     4   9  21  41  60  85 120 159 208 253 294 358
#
# _framework density 21.234650999999999
#
# number of rings (size 3 to 8) (size 9 to 14) (size 15 to 20)
#    0.000    2.250    1.250    0.375    7.000    6.000 
#    0.000    0.000    0.000    3.000    0.000    0.000 
#    0.000    0.000    0.000    0.000    0.000    0.000 
#
# Total GULP energy -178238.370480 kJ/mol
# GULP energy per Si atom -5569.949078 kJ/mol
# Density = 2.118632 g / cm^3
# Si number density = 21.234651 Si / 1000 Ang^3
#
#
#
# Elastic Constant Matrix: (Units=GPa)
#
#
# Indices 1 2 3 4 5 6 
#
# 1 88.2614 44.6083 7.9762 0.0000 2.6840 0.0000
# 2 44.6083 100.7108 10.5457 0.0000 23.8809 0.0000
# 3 7.9762 10.5457 42.5064 0.0000 7.0186 0.0000
# 4 0.0000 0.0000 0.0000 16.7757 0.0000 10.5621
# 5 2.6840 23.8809 7.0186 0.0000 26.1401 0.0000
# 6 0.0000 0.0000 0.0000 10.5621 0.0000 14.8666
#
#
#
# Elastic Compliance Matrix: (Units=1/GPa)
#
#
# Indices 1 2 3 4 5 6 
#
# 1 0.015425 -0.008141 -0.001927 0.000000 0.006371 0.000000
# 2 -0.008141 0.017040 -0.000280 0.000000 -0.014656 0.000000
# 3 -0.001927 -0.000280 0.024990 0.000000 -0.006256 0.000000
# 4 0.000000 0.000000 0.000000 0.107854 0.000000 -0.076625
# 5 0.006371 -0.014656 -0.006256 0.000000 0.052671 0.000000
# 6 0.000000 0.000000 0.000000 -0.076625 0.000000 0.121704
#
#
# Mechanical properties :
#
#
# Convention : Reuss Voigt Hill
#
# Bulk Modulus (GPa) = 27.20387 39.74877 33.47632
# Shear Modulus (GPa) = 13.41805 22.77971 18.09888
#
# Velocity S-wave (km/s) = 2.51648 3.27886 2.92263
# Velocity P-wave (km/s) = 4.61329 5.75274 5.21423
#
# Compressibility (1/GPa) = 0.03675947
#
# Stress axis : x y z
#
# Youngs Moduli (GPa) = 64.82953 58.68479 40.01620
#
# Poissons Ratio (x) = 0.47777 0.07710
# Poissons Ratio (y) = 0.52780 0.01120
# Poissons Ratio (z) = 0.12490 0.01642
#
# Static dielectric constant tensor:
#      x y z
#    x 1.834120 0.000000 0.002040 
#    y 0.000000 1.825720 0.000000 
#    z 0.002040 0.000000 1.795060 
# 
# From -- ./inp_files/30600.got.cif
#   From: 2010.05.17/outbox.cif.g08.bks.cpg/sg10_16_cif.got.tgz:30600.got - 2010.06.03 11:33:40.
