data_PCOD9152431
_publ_section_title
;
Structure prediction by ZEFSAII (Michael W. Deem and Ramdas Pophale) SiO2 
 PCOD9152431
Probable space group: P 2/M
;
_chemical_formula_sum "Si O2"
_cell_formula_units_Z 20
_cell_length_a 7.679281
_cell_length_b 8.487894
_cell_length_c 19.295760
_cell_angle_alpha 90.000000
_cell_angle_beta 53.495863
_cell_angle_gamma 90.000000
_cell_volume 1010.969173
_symmetry_space_group_name_H-M "P 2/M"
_symmetry_group_IT_number 10
_symmetry_cell_setting 'monoclinic'
loop_
_space_group_symop_operation_xyz
x,y,z
-x,y,-z
-x,-y,-z
x,-y,z
loop_
_atom_site_type_symbol
_atom_site_label
_atom_site_fract_x
_atom_site_fract_y
_atom_site_fract_z
Si Si1 0.182140 0.320411 0.906714
Si Si2 0.858798 0.689287 0.721062
Si Si3 0.462045 0.187615 0.723968
Si Si4 0.339175 0.809352 0.599142
Si Si5 0.597679 0.679990 0.907726
O O1 0.114434 0.500000 0.905529
O O2 0.255450 0.233913 0.820094
O O3 0.397106 0.328736 0.902471
O O4 0.000000 0.249117 0.000000
O O5 0.854854 0.500000 0.725411
O O6 0.676123 0.741998 0.709506
O O7 0.786776 0.749999 0.815059
O O8 0.096108 0.748441 0.646452
O O9 0.425128 0.242693 0.654216
O O10 0.484929 0.000000 0.718771
O O11 0.500000 0.758101 0.500000
O O12 0.333357 0.000000 0.600552
O O13 0.663049 0.500000 0.911699
O O14 0.500000 0.757172 0.000000
#
# Coordination Sequence:
#
# PCOD9152431 Si02
#       5
#     4   4   4   4   4
#     4   9  18  31  51  79 111 149 190 232 279 336
#     4  10  21  37  60  87 117 150 189 243 291 338
#     4  10  21  38  59  82 116 155 191 237 287 345
#     4  10  23  42  62  84 112 153 199 238 289 351
#     4   8  15  28  47  75 107 142 182 220 270 330
#
# _framework density 19.782997000000002
#
# number of rings (size 3 to 8) (size 9 to 14) (size 15 to 20)
#    0.000    2.600    0.000    2.400    2.800    3.200 
#    0.000    4.000    0.000    3.000    0.000    0.000 
#    0.000    0.000    0.000    0.000    0.000    0.000 
#
# Total GULP energy -111521.782957 kJ/mol
# GULP energy per Si atom -5576.089148 kJ/mol
# Density = 1.973797 g / cm^3
# Si number density = 19.782997 Si / 1000 Ang^3
#
#
#
# Elastic Constant Matrix: (Units=GPa)
#
#
# Indices 1 2 3 4 5 6 
#
# 1 92.3379 17.6240 81.8480 0.0000 3.4436 0.0000
# 2 17.6240 20.2940 29.6250 0.0000 4.1681 0.0000
# 3 81.8480 29.6250 216.9237 0.0000 -1.6829 0.0000
# 4 0.0000 0.0000 0.0000 28.7505 0.0000 0.9221
# 5 3.4436 4.1681 -1.6829 0.0000 36.7884 0.0000
# 6 0.0000 0.0000 0.0000 0.9221 0.0000 25.1811
#
#
#
# Elastic Compliance Matrix: (Units=1/GPa)
#
#
# Indices 1 2 3 4 5 6 
#
# 1 0.017023 -0.006451 -0.005550 0.000000 -0.001116 0.000000
# 2 -0.006451 0.066049 -0.006642 0.000000 -0.007183 0.000000
# 3 -0.005550 -0.006642 0.007624 0.000000 0.001621 0.000000
# 4 0.000000 0.000000 0.000000 0.034823 0.000000 -0.001275
# 5 -0.001116 -0.007183 0.001621 0.000000 0.028175 0.000000
# 6 0.000000 0.000000 0.000000 -0.001275 0.000000 0.039759
#
#
# Mechanical properties :
#
#
# Convention : Reuss Voigt Hill
#
# Bulk Modulus (GPa) = 18.72356 65.30553 42.01455
# Shear Modulus (GPa) = 20.11724 31.50788 25.81256
#
# Velocity S-wave (km/s) = 3.19234 3.99516 3.61610
# Velocity P-wave (km/s) = 4.80344 7.37322 6.22244
#
# Compressibility (1/GPa) = 0.05340863
#
# Stress axis : x y z
#
# Youngs Moduli (GPa) = 58.74520 15.14019 131.16767
#
# Poissons Ratio (x) = 0.09767 0.72804
# Poissons Ratio (y) = 0.37898 0.87120
# Poissons Ratio (z) = 0.32606 0.10056
#
# Static dielectric constant tensor:
#      x y z
#    x 1.682560 0.000000 0.012610 
#    y 0.000000 1.692420 0.000000 
#    z 0.012610 0.000000 1.728250 
# 
# From -- ./inp_files/26779.got.cif
#   From: 2010.05.17/outbox.cif.g08.bks.cpg/sg10_14_cif.got.tgz:26779.got - 2010.06.03 11:33:40.
