data_PCOD9152531
_publ_section_title
;
Structure prediction by ZEFSAII (Michael W. Deem and Ramdas Pophale) SiO2 
 PCOD9152531
Probable space group: P 2/M
;
_chemical_formula_sum "Si O2"
_cell_formula_units_Z 28
_cell_length_a 15.461245
_cell_length_b 8.688050
_cell_length_c 12.909857
_cell_angle_alpha 90.000000
_cell_angle_beta 74.580656
_cell_angle_gamma 90.000000
_cell_volume 1671.736421
_symmetry_space_group_name_H-M "P 2/M"
_symmetry_group_IT_number 10
_symmetry_cell_setting 'monoclinic'
loop_
_space_group_symop_operation_xyz
x,y,z
-x,y,-z
-x,-y,-z
x,-y,z
loop_
_atom_site_type_symbol
_atom_site_label
_atom_site_fract_x
_atom_site_fract_y
_atom_site_fract_z
Si Si1 0.395346 0.185360 0.415043
Si Si2 0.094870 0.312747 0.019182
Si Si3 0.599082 0.185348 0.343920
Si Si4 0.777381 0.315443 0.204303
Si Si5 0.917153 0.313755 0.739979
Si Si6 0.112791 0.816399 0.635562
Si Si7 0.213327 0.683976 0.403088
O O1 0.496579 0.229633 0.351611
O O2 0.384372 0.226500 0.540381
O O3 0.315595 0.260121 0.376416
O O4 0.388976 0.000000 0.411000
O O5 0.094011 0.500000 0.019947
O O6 0.101580 0.263512 0.136094
O O7 0.174813 0.265140 0.917390
O O8 0.000000 0.262893 0.000000
O O9 0.675782 0.259988 0.250527
O O10 0.605285 0.000000 0.335472
O O11 0.781221 0.500000 0.208937
O O12 0.834411 0.248260 0.281696
O O13 0.926454 0.500000 0.736642
O O14 0.838459 0.272557 0.685409
O O15 0.011085 0.243320 0.673167
O O16 0.161219 0.756814 0.516868
O O17 0.115471 0.000000 0.636718
O O18 0.210333 0.500000 0.414246
#
# Coordination Sequence:
#
# PCOD9152531 Si02
#       7
#     4   4   4   4   4   4   4
#     4   9  18  33  53  75 106 140 169 204 258 314
#     4   9  17  33  56  76 100 135 173 215 261 302
#     4   9  18  33  52  77 106 138 168 208 261 307
#     4  11  20  32  55  81 105 135 173 215 259 306
#     4  10  21  38  55  74 103 139 177 216 257 302
#     4  12  23  34  50  75 109 143 173 208 255 310
#     4  11  22  34  53  79 106 136 174 215 255 305
#
# _framework density 16.749051000000001
#
# number of rings (size 3 to 8) (size 9 to 14) (size 15 to 20)
#    0.000    1.857    2.857    3.429    0.000    3.429 
#    0.000    3.571    0.000    0.857    0.000    6.000 
#    0.000    0.000    0.000    0.000    0.000    0.000 
#
# Total GULP energy -156308.286019 kJ/mol
# GULP energy per Si atom -5582.438786 kJ/mol
# Density = 1.671093 g / cm^3
# Si number density = 16.749051 Si / 1000 Ang^3
#
#
#
# Elastic Constant Matrix: (Units=GPa)
#
#
# Indices 1 2 3 4 5 6 
#
# 1 158.9841 43.1466 81.5418 0.0000 -8.7556 0.0000
# 2 43.1466 34.8436 29.1353 0.0000 -1.0518 0.0000
# 3 81.5418 29.1353 84.8129 0.0000 -2.6181 0.0000
# 4 0.0000 0.0000 0.0000 9.7094 0.0000 -10.6424
# 5 -8.7556 -1.0518 -2.6181 0.0000 29.1003 0.0000
# 6 0.0000 0.0000 0.0000 -10.6424 0.0000 29.5443
#
#
#
# Elastic Compliance Matrix: (Units=1/GPa)
#
#
# Indices 1 2 3 4 5 6 
#
# 1 0.014273 -0.008680 -0.010648 0.000000 0.003023 0.000000
# 2 -0.008680 0.045546 -0.007351 0.000000 -0.001627 0.000000
# 3 -0.010648 -0.007351 0.024514 0.000000 -0.001264 0.000000
# 4 0.000000 0.000000 0.000000 0.170190 0.000000 0.061306
# 5 0.003023 -0.001627 -0.001264 0.000000 0.035101 0.000000
# 6 0.000000 0.000000 0.000000 0.061306 0.000000 0.055931
#
#
# Mechanical properties :
#
#
# Convention : Reuss Voigt Hill
#
# Bulk Modulus (GPa) = 32.28367 65.14311 48.71339
# Shear Modulus (GPa) = 12.21786 21.99192 17.10489
#
# Velocity S-wave (km/s) = 2.70379 3.62750 3.19916
# Velocity P-wave (km/s) = 5.39111 7.51818 6.54168
#
# Compressibility (1/GPa) = 0.03097541
#
# Stress axis : x y z
#
# Youngs Moduli (GPa) = 70.06200 21.95606 40.79324
#
# Poissons Ratio (x) = 0.19057 0.43435
# Poissons Ratio (y) = 0.60812 0.29988
# Poissons Ratio (z) = 0.74599 0.16140
#
# Static dielectric constant tensor:
#      x y z
#    x 1.559240 0.000000 -0.004470 
#    y 0.000000 1.565810 0.000000 
#    z -0.004470 0.000000 1.549500 
# 
# From -- ./inp_files/49136.got.cif
#   From: 2010.05.17/outbox.cif.g08.bks.cpg/sg10_25_cif.got.tgz:49136.got - 2010.06.03 11:33:40.
