data_PCOD9152305
_publ_section_title
;
Structure prediction by ZEFSAII (Michael W. Deem and Ramdas Pophale) SiO2 
 PCOD9152305
Probable space group: P 2/M
;
_chemical_formula_sum "Si O2"
_cell_formula_units_Z 28
_cell_length_a 14.619087
_cell_length_b 8.899632
_cell_length_c 14.776041
_cell_angle_alpha 90.000000
_cell_angle_beta 59.335025
_cell_angle_gamma 90.000000
_cell_volume 1653.604912
_symmetry_space_group_name_H-M "P 2/M"
_symmetry_group_IT_number 10
_symmetry_cell_setting 'monoclinic'
loop_
_space_group_symop_operation_xyz
x,y,z
-x,y,-z
-x,-y,-z
x,-y,z
loop_
_atom_site_type_symbol
_atom_site_label
_atom_site_fract_x
_atom_site_fract_y
_atom_site_fract_z
Si Si1 0.390364 0.319429 0.505057
Si Si2 0.325446 0.827108 0.845181
Si Si3 0.425191 0.172545 0.298436
Si Si4 0.228154 0.321754 0.060191
Si Si5 0.009718 0.179995 0.102480
Si Si6 0.598775 0.680917 0.885420
Si Si7 0.205325 0.680284 0.739139
O O1 0.500000 0.268748 0.500000
O O2 0.397133 0.500000 0.495193
O O3 0.380975 0.253158 0.409626
O O4 0.287123 0.282022 0.617293
O O5 0.447221 0.825380 0.754307
O O6 0.253870 0.757417 0.803437
O O7 0.293869 0.000000 0.880004
O O8 0.310355 0.725049 0.940350
O O9 0.404287 0.249740 0.212621
O O10 0.389660 0.000000 0.313100
O O11 0.209036 0.500000 0.068204
O O12 0.290019 0.282137 0.120909
O O13 0.120423 0.236519 0.088503
O O14 0.913346 0.255944 0.205880
O O15 0.002379 0.000000 0.110945
O O16 0.000000 0.222002 0.000000
O O17 0.590841 0.500000 0.882778
O O18 0.500000 0.730959 0.000000
O O19 0.203399 0.500000 0.750079
#
# Coordination Sequence:
#
# PCOD9152305 Si02
#       7
#     4   4   4   4   4   4   4
#     4  10  21  37  57  82 112 148 188 230 277 328
#     4  11  21  32  50  81 118 150 182 225 274 328
#     4  11  23  35  54  83 116 153 187 225 277 336
#     4  11  22  36  57  82 110 149 192 229 271 328
#     4  11  23  37  55  82 116 149 182 226 285 335
#     4  10  21  37  57  82 112 148 188 230 277 328
#     4  11  22  36  57  82 110 149 192 229 271 328
#
# _framework density 16.932701999999999
#
# number of rings (size 3 to 8) (size 9 to 14) (size 15 to 20)
#    0.000    1.286    4.286    2.143    0.000    4.571 
#    0.000    0.000    0.000    0.857    0.000    6.000 
#    0.000    0.000    0.000    0.000    0.000    0.000 
#
# Total GULP energy -156307.632736 kJ/mol
# GULP energy per Si atom -5582.415455 kJ/mol
# Density = 1.689416 g / cm^3
# Si number density = 16.932702 Si / 1000 Ang^3
#
#
#
# Elastic Constant Matrix: (Units=GPa)
#
#
# Indices 1 2 3 4 5 6 
#
# 1 82.8393 31.9556 33.2300 0.0000 0.8585 0.0000
# 2 31.9556 16.9499 9.0029 0.0000 1.3863 0.0000
# 3 33.2300 9.0029 75.3464 0.0000 6.3391 0.0000
# 4 0.0000 0.0000 0.0000 -2.4649 0.0000 -20.0246
# 5 0.8585 1.3863 6.3391 0.0000 29.2826 0.0000
# 6 0.0000 0.0000 0.0000 -20.0246 0.0000 13.4640
#
#
#
# Elastic Compliance Matrix: (Units=1/GPa)
#
#
# Indices 1 2 3 4 5 6 
#
# 1 0.053980 -0.095391 -0.012891 0.000000 0.005724 0.000000
# 2 -0.095391 0.231618 0.015362 0.000000 -0.011494 0.000000
# 3 -0.012891 0.015362 0.017469 0.000000 -0.004131 0.000000
# 4 0.000000 0.000000 0.000000 -0.031011 0.000000 -0.046121
# 5 0.005724 -0.011494 -0.004131 0.000000 0.035421 0.000000
# 6 0.000000 0.000000 0.000000 -0.046121 0.000000 0.005677
#
#
# Mechanical properties :
#
#
# Convention : Reuss Voigt Hill
#
# Bulk Modulus (GPa) = 8.53033 35.94584 22.23809
# Shear Modulus (GPa) = 9.29248 14.78615 12.03931
#
# Velocity S-wave (km/s) = 2.34517 2.95825 2.66937
# Velocity P-wave (km/s) = 3.51878 5.73961 4.76051
#
# Compressibility (1/GPa) = 0.11722869
#
# Stress axis : x y z
#
# Youngs Moduli (GPa) = 18.52523 4.31746 57.24360
#
# Poissons Ratio (x) = 0.41184 0.73791
# Poissons Ratio (y) = 1.76713 -0.87937
# Poissons Ratio (z) = 0.23880 -0.06632
#
# Static dielectric constant tensor:
#      x y z
#    x 1.581290 0.000000 -0.006370 
#    y 0.000000 1.571020 0.000000 
#    z -0.006370 0.000000 1.557040 
# 
# From -- ./inp_files/49575.got.cif
#   From: 2010.05.17/outbox.cif.g08.bks.cpg/sg10_25_cif.got.tgz:49575.got - 2010.06.03 11:33:40.
