data_PCOD9152753
_publ_section_title
;
Structure prediction by ZEFSAII (Michael W. Deem and Ramdas Pophale) SiO2 
 PCOD9152753
Probable space group: P 2/M
;
_chemical_formula_sum "Si O2"
_cell_formula_units_Z 30
_cell_length_a 5.111691
_cell_length_b 10.673837
_cell_length_c 28.131105
_cell_angle_alpha 90.000000
_cell_angle_beta 105.812355
_cell_angle_gamma 90.000000
_cell_volume 1476.790582
_symmetry_space_group_name_H-M "P 2/M"
_symmetry_group_IT_number 10
_symmetry_cell_setting 'monoclinic'
loop_
_space_group_symop_operation_xyz
x,y,z
-x,y,-z
-x,-y,-z
x,-y,z
loop_
_atom_site_type_symbol
_atom_site_label
_atom_site_fract_x
_atom_site_fract_y
_atom_site_fract_z
Si Si1 0.503671 0.800381 0.553009
Si Si2 0.301922 0.142798 0.035264
Si Si3 0.309184 0.000000 0.356185
Si Si4 0.966704 0.642026 0.429343
Si Si5 0.087484 0.644479 0.184040
Si Si6 0.103640 0.234207 0.283509
Si Si7 0.486869 0.356140 0.116858
Si Si8 0.349602 0.362481 0.685743
O O1 0.500000 0.858241 0.500000
O O2 0.590669 0.891916 0.599900
O O3 0.213930 0.738366 0.549574
O O4 0.729169 0.691197 0.561443
O O5 0.376134 0.250335 0.076268
O O6 0.324398 0.000000 0.056043
O O7 0.500000 0.151710 0.000000
O O8 0.000000 0.159170 0.000000
O O9 0.205212 0.891433 0.313469
O O10 0.957781 0.500000 0.446448
O O11 0.820784 0.642375 0.370950
O O12 0.087052 0.500000 0.203007
O O13 0.101051 0.745350 0.226814
O O14 0.807776 0.659091 0.141298
O O15 0.336033 0.656173 0.160020
O O16 0.802949 0.265522 0.287707
O O17 0.338220 0.333443 0.309977
O O18 0.436617 0.500000 0.097656
O O19 0.326866 0.500000 0.706406
#
# Coordination Sequence:
#
# PCOD9152753 Si02
#       8
#     4   4   2   4   4   4   4   4
#     4  12  26  45  68  92 125 166 199 245 317 383
#     4  10  21  38  61  91 128 177 224 265 315 374
#     4  12  27  48  62  92 128 166 212 258 294 378
#     4  11  23  43  68  96 122 149 193 253 312 367
#     4  10  21  39  62  92 123 162 206 260 330 376
#     4  12  24  41  66  90 126 163 210 259 307 382
#     4  10  21  39  62  93 133 166 213 274 320 377
#     4  11  21  39  66  93 116 151 199 256 313 362
#
# _framework density 20.314323000000002
#
# number of rings (size 3 to 8) (size 9 to 14) (size 15 to 20)
#    0.000    1.067    2.667    3.800    0.000    7.467 
#    2.400    1.333    0.000    0.000    0.000    0.000 
#    0.000    0.000    0.000    0.000    0.000    0.000 
#
# Total GULP energy -167057.167382 kJ/mol
# GULP energy per Si atom -5568.572246 kJ/mol
# Density = 2.026809 g / cm^3
# Si number density = 20.314323 Si / 1000 Ang^3
#
#
#
# Elastic Constant Matrix: (Units=GPa)
#
#
# Indices 1 2 3 4 5 6 
#
# 1 67.1400 -1.2787 -3.5684 0.0000 4.4505 0.0000
# 2 -1.2787 131.6848 62.5563 0.0000 -1.0527 0.0000
# 3 -3.5684 62.5563 86.0431 0.0000 6.9185 0.0000
# 4 0.0000 0.0000 0.0000 145.3578 0.0000 35.8292
# 5 4.4505 -1.0527 6.9185 0.0000 23.8713 0.0000
# 6 0.0000 0.0000 0.0000 35.8292 0.0000 3.3368
#
#
#
# Elastic Compliance Matrix: (Units=1/GPa)
#
#
# Indices 1 2 3 4 5 6 
#
# 1 0.015162 -0.000457 0.001219 0.000000 -0.003200 0.000000
# 2 -0.000457 0.011832 -0.008877 0.000000 0.003180 0.000000
# 3 0.001219 -0.008877 0.018610 0.000000 -0.006012 0.000000
# 4 0.000000 0.000000 0.000000 -0.004178 0.000000 0.044859
# 5 -0.003200 0.003180 -0.006012 0.000000 0.044371 0.000000
# 6 0.000000 0.000000 0.000000 0.044859 0.000000 -0.181991
#
#
# Mechanical properties :
#
#
# Convention : Reuss Voigt Hill
#
# Bulk Modulus (GPa) = 34.04475 44.47626 39.26050
# Shear Modulus (GPa) = -71.25340 49.65709 -10.79816
#
# Velocity S-wave (km/s) = -5.92888 4.94949 -2.30805
# Velocity P-wave (km/s) = 5.48392 7.38951 3.50224
#
# Compressibility (1/GPa) = 0.02937311
#
# Stress axis : x y z
#
# Youngs Moduli (GPa) = 65.95252 84.51877 53.73548
#
# Poissons Ratio (x) = 0.03864 -0.06548
# Poissons Ratio (y) = 0.03015 0.47699
# Poissons Ratio (z) = -0.08037 0.75025
#
# Static dielectric constant tensor:
#      x y z
#    x 1.697260 0.000000 -0.011350 
#    y 0.000000 1.697610 0.000000 
#    z -0.011350 0.000000 1.731550 
# 
# From -- ./inp_files/94349.got.cif
#   From: 2010.05.17/outbox.cif.g08.bks.cpg/sg10_48_cif.got.tgz:94349.got - 2010.06.03 11:33:40.
