data_PCOD9152977
_publ_section_title
;
Structure prediction by ZEFSAII (Michael W. Deem and Ramdas Pophale) SiO2 
 PCOD9152977
Probable space group: P 2/M
;
_chemical_formula_sum "Si O2"
_cell_formula_units_Z 28
_cell_length_a 19.309962
_cell_length_b 7.917168
_cell_length_c 14.237741
_cell_angle_alpha 90.000000
_cell_angle_beta 143.244370
_cell_angle_gamma 90.000000
_cell_volume 1302.525907
_symmetry_space_group_name_H-M "P 2/M"
_symmetry_group_IT_number 10
_symmetry_cell_setting 'monoclinic'
loop_
_space_group_symop_operation_xyz
x,y,z
-x,y,-z
-x,-y,-z
x,-y,z
loop_
_atom_site_type_symbol
_atom_site_label
_atom_site_fract_x
_atom_site_fract_y
_atom_site_fract_z
Si Si1 0.800847 0.799010 0.534059
Si Si2 0.801205 0.700753 0.002476
Si Si3 0.541725 0.202981 0.253313
Si Si4 0.305995 0.296399 0.917808
Si Si5 0.565730 0.204677 0.664883
Si Si6 0.980717 0.297006 0.873628
Si Si7 0.886372 0.703141 0.430948
O O1 0.670866 0.731554 0.376332
O O2 0.880571 0.746259 0.533587
O O3 0.858086 0.741802 0.693366
O O4 0.795041 0.000000 0.529416
O O5 0.816783 0.500000 0.032578
O O6 0.696436 0.731272 0.816438
O O7 0.757335 0.767518 0.055539
O O8 0.918872 0.770223 0.086487
O O9 0.498941 0.260514 0.310043
O O10 0.546534 0.000000 0.260717
O O11 0.440409 0.249414 0.070780
O O12 0.301731 0.500000 0.914134
O O13 0.230106 0.235486 0.747796
O O14 0.500000 0.260921 0.500000
O O15 0.568369 0.000000 0.667590
O O16 0.992798 0.500000 0.890093
O O17 0.000000 0.232556 0.000000
O O18 0.888318 0.500000 0.426090
O O19 0.000000 0.766348 0.500000
#
# Coordination Sequence:
#
# PCOD9152977 Si02
#       7
#     4   4   4   4   4   4   4
#     4  11  24  39  57  84 117 151 188 234 285 342
#     4   9  18  34  54  79 108 137 179 231 280 330
#     4   9  20  37  53  77 115 152 185 229 283 333
#     4   9  18  34  58  84 108 143 188 232 280 334
#     4   9  18  32  53  77 104 144 188 228 273 328
#     4  10  22  39  58  81 112 151 191 235 288 340
#     4  10  21  39  63  87 114 150 189 235 286 335
#
# _framework density 21.496691999999999
#
# number of rings (size 3 to 8) (size 9 to 14) (size 15 to 20)
#    0.000    2.429    0.000    1.286    2.000    6.000 
#    0.000    5.714    0.000    0.000    0.000    0.000 
#    0.000    0.000    0.000    0.000    0.000    0.000 
#
# Total GULP energy -156342.369585 kJ/mol
# GULP energy per Si atom -5583.656057 kJ/mol
# Density = 2.144777 g / cm^3
# Si number density = 21.496692 Si / 1000 Ang^3
#
#
#
# Elastic Constant Matrix: (Units=GPa)
#
#
# Indices 1 2 3 4 5 6 
#
# 1 63.9205 7.2945 51.3569 0.0000 10.7119 0.0000
# 2 7.2945 11.9270 -2.1806 0.0000 1.9483 0.0000
# 3 51.3569 -2.1806 135.4690 0.0000 -8.7969 0.0000
# 4 0.0000 0.0000 0.0000 38.8931 0.0000 -5.8772
# 5 10.7119 1.9483 -8.7969 0.0000 32.6773 0.0000
# 6 0.0000 0.0000 0.0000 -5.8772 0.0000 11.8649
#
#
#
# Elastic Compliance Matrix: (Units=1/GPa)
#
#
# Indices 1 2 3 4 5 6 
#
# 1 0.029632 -0.018424 -0.012305 0.000000 -0.011928 0.000000
# 2 -0.018424 0.096271 0.008706 0.000000 0.002643 0.000000
# 3 -0.012305 0.008706 0.012636 0.000000 0.006916 0.000000
# 4 0.000000 0.000000 0.000000 0.027792 0.000000 0.013766
# 5 -0.011928 0.002643 0.006916 0.000000 0.036217 0.000000
# 6 0.000000 0.000000 0.000000 0.013766 0.000000 0.091101
#
#
# Mechanical properties :
#
#
# Convention : Reuss Voigt Hill
#
# Bulk Modulus (GPa) = 10.58275 36.02868 23.30572
# Shear Modulus (GPa) = 13.54309 27.01011 20.27660
#
# Velocity S-wave (km/s) = 2.51272 3.54853 3.07456
# Velocity P-wave (km/s) = 3.65404 5.79533 4.84448
#
# Compressibility (1/GPa) = 0.09449337
#
# Stress axis : x y z
#
# Youngs Moduli (GPa) = 33.74723 10.38732 79.14012
#
# Poissons Ratio (x) = 0.19138 0.97380
# Poissons Ratio (y) = 0.62176 -0.68899
# Poissons Ratio (z) = 0.41525 -0.09043
#
# Static dielectric constant tensor:
#      x y z
#    x 1.781550 0.000000 0.011850 
#    y 0.000000 1.770400 0.000000 
#    z 0.011850 0.000000 1.784950 
# 
# From -- ./inp_files/63932.got.cif
#   From: 2010.05.17/outbox.cif.g08.bks.cpg/sg10_32_cif.got.tgz:63932.got - 2010.06.03 11:33:40.
