data_PCOD9152864
_publ_section_title
;
Structure prediction by ZEFSAII (Michael W. Deem and Ramdas Pophale) SiO2 
 PCOD9152864
Probable space group: P 2/M
;
_chemical_formula_sum "Si O2"
_cell_formula_units_Z 28
_cell_length_a 14.874300
_cell_length_b 21.705205
_cell_length_c 8.755678
_cell_angle_alpha 90.000000
_cell_angle_beta 152.421810
_cell_angle_gamma 90.000000
_cell_volume 1308.676864
_symmetry_space_group_name_H-M "P 2/M"
_symmetry_group_IT_number 10
_symmetry_cell_setting 'monoclinic'
loop_
_space_group_symop_operation_xyz
x,y,z
-x,y,-z
-x,-y,-z
x,-y,z
loop_
_atom_site_type_symbol
_atom_site_label
_atom_site_fract_x
_atom_site_fract_y
_atom_site_fract_z
Si Si1 0.442160 0.931036 0.589211
Si Si2 0.200637 0.636898 0.990053
Si Si3 0.957807 0.500000 0.254727
Si Si4 0.701455 0.163022 0.400391
Si Si5 0.345275 0.500000 0.632097
Si Si6 0.872804 0.702067 0.655930
Si Si7 0.562236 0.367900 0.351114
Si Si8 0.843609 0.069527 0.381259
O O1 0.500000 0.924940 0.500000
O O2 0.337053 0.870093 0.495081
O O3 0.349647 0.000000 0.469138
O O4 0.637410 0.933187 0.985338
O O5 0.150380 0.564657 0.931540
O O6 0.005123 0.676698 0.716870
O O7 0.331819 0.653351 0.334169
O O8 0.335243 0.643578 0.042736
O O9 0.137527 0.500000 0.405260
O O10 0.000000 0.500000 0.500000
O O11 0.815555 0.226671 0.570197
O O12 0.823146 0.111857 0.494691
O O13 0.500000 0.171160 0.000000
O O14 0.388842 0.439484 0.599863
O O15 0.500000 0.500000 0.000000
O O16 0.671420 0.665677 0.377284
O O17 0.000000 0.689309 0.000000
O O18 0.000000 0.095277 0.500000
O O19 0.902509 0.000000 0.510576
#
# Coordination Sequence:
#
# PCOD9152864 Si02
#       8
#     4   4   2   4   2   4   4   4
#     4   9  18  35  60  90 120 155 199 249 303 355
#     4  10  21  41  63  86 115 150 198 239 295 357
#     4  12  23  38  59  90 119 148 191 245 304 354
#     4  10  21  39  58  86 121 162 200 245 305 360
#     4  12  23  36  61  90 123 146 187 247 300 358
#     4  10  22  41  60  85 119 159 206 245 288 354
#     4  10  21  40  64  87 112 155 190 243 297 353
#     4   9  18  35  59  86 118 154 197 245 299 361
#
# _framework density 21.395655999999999
#
# number of rings (size 3 to 8) (size 9 to 14) (size 15 to 20)
#    0.000    2.000    1.429    2.143    0.000    5.143 
#   12.857    0.000    0.000    4.286    0.000    0.000 
#    0.000    0.000    0.000    0.000    0.000    0.000 
#
# Total GULP energy -156234.805104 kJ/mol
# GULP energy per Si atom -5579.814468 kJ/mol
# Density = 2.134696 g / cm^3
# Si number density = 21.395656 Si / 1000 Ang^3
#
#
#
# Elastic Constant Matrix: (Units=GPa)
#
#
# Indices 1 2 3 4 5 6 
#
# 1 143.5017 63.0786 33.7094 0.0000 41.0382 0.0000
# 2 63.0786 110.8922 16.4023 0.0000 20.1648 0.0000
# 3 33.7094 16.4023 43.2820 0.0000 14.3840 0.0000
# 4 0.0000 0.0000 0.0000 45.9848 0.0000 -24.9539
# 5 41.0382 20.1648 14.3840 0.0000 35.0350 0.0000
# 6 0.0000 0.0000 0.0000 -24.9539 0.0000 52.2742
#
#
#
# Elastic Compliance Matrix: (Units=1/GPa)
#
#
# Indices 1 2 3 4 5 6 
#
# 1 0.013389 -0.004914 -0.004972 0.000000 -0.010814 0.000000
# 2 -0.004914 0.012058 -0.000404 0.000000 -0.001018 0.000000
# 3 -0.004972 -0.000404 0.029085 0.000000 -0.005885 0.000000
# 4 0.000000 0.000000 0.000000 0.029349 0.000000 0.014010
# 5 -0.010814 -0.001018 -0.005885 0.000000 0.044212 0.000000
# 6 0.000000 0.000000 0.000000 0.014010 0.000000 0.025818
#
#
# Mechanical properties :
#
#
# Convention : Reuss Voigt Hill
#
# Bulk Modulus (GPa) = 29.45287 58.22849 43.84068
# Shear Modulus (GPa) = 26.90947 38.95783 32.93365
#
# Velocity S-wave (km/s) = 3.55026 4.27175 3.92761
# Velocity P-wave (km/s) = 5.53187 7.18363 6.41117
#
# Compressibility (1/GPa) = 0.03395255
#
# Stress axis : x y z
#
# Youngs Moduli (GPa) = 74.68770 82.93243 34.38160
#
# Poissons Ratio (x) = 0.40756 0.17094
# Poissons Ratio (y) = 0.36704 0.01388
# Poissons Ratio (z) = 0.37133 0.03349
#
# Static dielectric constant tensor:
#      x y z
#    x 1.663030 0.000000 0.083420 
#    y 0.000000 1.756450 0.000000 
#    z 0.083420 0.000000 1.778400 
# 
# From -- ./inp_files/30521.got.cif
#   From: 2010.05.17/outbox.cif.g08.bks.cpg/sg10_16_cif.got.tgz:30521.got - 2010.06.03 11:33:40.
