data_PCOD9152324
_publ_section_title
;
Structure prediction by ZEFSAII (Michael W. Deem and Ramdas Pophale) SiO2 
 PCOD9152324
Probable space group: P 2/M
;
_chemical_formula_sum "Si O2"
_cell_formula_units_Z 28
_cell_length_a 16.497464
_cell_length_b 9.501636
_cell_length_c 11.437733
_cell_angle_alpha 90.000000
_cell_angle_beta 53.782086
_cell_angle_gamma 90.000000
_cell_volume 1446.466219
_symmetry_space_group_name_H-M "P 2/M"
_symmetry_group_IT_number 10
_symmetry_cell_setting 'monoclinic'
loop_
_space_group_symop_operation_xyz
x,y,z
-x,y,-z
-x,-y,-z
x,-y,z
loop_
_atom_site_type_symbol
_atom_site_label
_atom_site_fract_x
_atom_site_fract_y
_atom_site_fract_z
Si Si1 0.752702 0.162547 0.241252
Si Si2 0.877123 0.659506 0.294624
Si Si3 0.562745 0.668250 0.064277
Si Si4 0.071426 0.159339 0.096470
Si Si5 0.764660 0.165621 0.841140
Si Si6 0.437894 0.667505 0.672260
Si Si7 0.886537 0.660512 0.564655
O O1 0.784701 0.248517 0.327765
O O2 0.662718 0.241428 0.253537
O O3 0.727492 0.000000 0.284572
O O4 0.852124 0.166945 0.076207
O O5 0.869531 0.500000 0.256232
O O6 0.877309 0.657395 0.434001
O O7 0.982091 0.730388 0.168571
O O8 0.580683 0.500000 0.042381
O O9 0.517955 0.694695 0.233939
O O10 0.500000 0.705409 0.000000
O O11 0.666872 0.752419 0.967944
O O12 0.142931 0.181658 0.147148
O O13 0.028985 0.000000 0.137518
O O14 0.805265 0.236996 0.689267
O O15 0.743665 0.000000 0.847640
O O16 0.500000 0.699114 0.500000
O O17 0.416199 0.500000 0.686741
O O18 0.873049 0.500000 0.621696
O O19 0.000000 0.704964 0.500000
#
# Coordination Sequence:
#
# PCOD9152324 Si02
#       7
#     4   4   4   4   4   4   4
#     4  11  23  40  60  86 123 160 199 246 303 362
#     4  11  23  37  58  88 121 159 206 251 294 352
#     4  10  22  41  65  91 120 157 201 253 311 366
#     4  10  21  37  57  84 120 159 197 242 295 351
#     4  11  22  37  61  90 119 155 199 244 295 357
#     4  10  22  41  65  91 120 157 205 256 307 365
#     4  10  21  38  57  82 118 159 202 247 295 348
#
# _framework density 19.357521999999999
#
# number of rings (size 3 to 8) (size 9 to 14) (size 15 to 20)
#    0.000    1.571    2.857    1.714    0.000    6.571 
#    0.000    2.857    0.000    0.000    0.000    0.000 
#    0.000    0.000    0.000    0.000    0.000    0.000 
#
# Total GULP energy -156272.370109 kJ/mol
# GULP energy per Si atom -5581.156075 kJ/mol
# Density = 1.931346 g / cm^3
# Si number density = 19.357522 Si / 1000 Ang^3
#
#
#
# Elastic Constant Matrix: (Units=GPa)
#
#
# Indices 1 2 3 4 5 6 
#
# 1 81.8656 41.4423 37.0948 0.0000 20.1245 0.0000
# 2 41.4423 65.0541 40.1563 0.0000 3.8761 0.0000
# 3 37.0948 40.1563 80.5507 0.0000 12.1769 0.0000
# 4 0.0000 0.0000 0.0000 16.6900 0.0000 -3.7927
# 5 20.1245 3.8761 12.1769 0.0000 19.7621 0.0000
# 6 0.0000 0.0000 0.0000 -3.7927 0.0000 188.6927
#
#
#
# Elastic Compliance Matrix: (Units=1/GPa)
#
#
# Indices 1 2 3 4 5 6 
#
# 1 0.025403 -0.014032 -0.001333 0.000000 -0.022295 0.000000
# 2 -0.014032 0.030089 -0.010813 0.000000 0.015050 0.000000
# 3 -0.001333 -0.010813 0.019731 0.000000 -0.008679 0.000000
# 4 0.000000 0.000000 0.000000 0.060191 0.000000 0.001210
# 5 -0.022295 0.015050 -0.008679 0.000000 0.075702 0.000000
# 6 0.000000 0.000000 0.000000 0.001210 0.000000 0.005324
#
#
# Mechanical properties :
#
#
# Convention : Reuss Voigt Hill
#
# Bulk Modulus (GPa) = 43.73099 51.65080 47.69090
# Shear Modulus (GPa) = 18.08855 52.28075 35.18465
#
# Velocity S-wave (km/s) = 3.06019 5.20256 4.26798
# Velocity P-wave (km/s) = 5.92677 7.92649 6.99842
#
# Compressibility (1/GPa) = 0.02286708
#
# Stress axis : x y z
#
# Youngs Moduli (GPa) = 39.36552 33.23525 50.68136
#
# Poissons Ratio (x) = 0.46634 0.06756
# Poissons Ratio (y) = 0.55236 0.54803
# Poissons Ratio (z) = 0.05247 0.35938
#
# Static dielectric constant tensor:
#      x y z
#    x 1.679560 0.000000 0.042050 
#    y 0.000000 1.659950 0.000000 
#    z 0.042050 0.000000 1.694130 
# 
# From -- ./inp_files/49590.got.cif
#   From: 2010.05.17/outbox.cif.g08.bks.cpg/sg10_25_cif.got.tgz:49590.got - 2010.06.03 11:33:40.
