data_PCOD9152495
_publ_section_title
;
Structure prediction by ZEFSAII (Michael W. Deem and Ramdas Pophale) SiO2 
 PCOD9152495
Probable space group: P 2/M
;
_chemical_formula_sum "Si O2"
_cell_formula_units_Z 14
_cell_length_a 14.132126
_cell_length_b 10.274686
_cell_length_c 5.279325
_cell_angle_alpha 90.000000
_cell_angle_beta 96.963026
_cell_angle_gamma 90.000000
_cell_volume 760.920855
_symmetry_space_group_name_H-M "P 2/M"
_symmetry_group_IT_number 10
_symmetry_cell_setting 'monoclinic'
loop_
_space_group_symop_operation_xyz
x,y,z
-x,y,-z
-x,-y,-z
x,-y,z
loop_
_atom_site_type_symbol
_atom_site_label
_atom_site_fract_x
_atom_site_fract_y
_atom_site_fract_z
Si Si1 0.564454 0.500000 0.270809
Si Si2 0.281954 0.272712 0.663908
Si Si3 0.092383 0.353633 0.366111
Si Si4 0.785222 0.150472 0.847513
O O1 0.500000 0.500000 0.500000
O O2 0.631927 0.373075 0.294427
O O3 0.500000 0.500000 0.000000
O O4 0.183712 0.351409 0.582520
O O5 0.282592 0.181136 0.415776
O O6 0.267356 0.192268 0.914259
O O7 0.081703 0.500000 0.258561
O O8 0.123984 0.245606 0.172087
O O9 0.000000 0.319822 0.500000
O O10 0.812539 0.000000 0.861252
#
# Coordination Sequence:
#
# PCOD9152495 Si02
#       4
#     2   4   4   4
#     4  12  24  40  69  95 117 151 200 258 308 359
#     4  10  21  39  60  89 121 151 203 248 295 358
#     4   9  20  37  61  89 124 163 203 249 294 346
#     4  10  21  37  62  86 127 168 196 239 295 358
#
# _framework density 18.398758999999998
#
# number of rings (size 3 to 8) (size 9 to 14) (size 15 to 20)
#    1.714    0.286    1.429    2.571    2.000    1.714 
#    0.000    4.286    0.000   17.143    0.000    0.000 
#    0.000    0.000    0.000    0.000    0.000    0.000 
#
# Total GULP energy -77958.917825 kJ/mol
# GULP energy per Si atom -5568.494130 kJ/mol
# Density = 1.835688 g / cm^3
# Si number density = 18.398759 Si / 1000 Ang^3
#
#
#
# Elastic Constant Matrix: (Units=GPa)
#
#
# Indices 1 2 3 4 5 6 
#
# 1 93.7493 28.1010 35.8686 0.0000 0.5086 0.0000
# 2 28.1010 122.2121 41.5804 0.0000 -23.2252 0.0000
# 3 35.8686 41.5804 125.1189 0.0000 -19.4800 0.0000
# 4 0.0000 0.0000 0.0000 7.2061 0.0000 -2.5290
# 5 0.5086 -23.2252 -19.4800 0.0000 20.6839 0.0000
# 6 0.0000 0.0000 0.0000 -2.5290 0.0000 -13.5080
#
#
#
# Elastic Compliance Matrix: (Units=1/GPa)
#
#
# Indices 1 2 3 4 5 6 
#
# 1 0.013132 -0.003118 -0.003895 0.000000 -0.007493 0.000000
# 2 -0.003118 0.011552 -0.001071 0.000000 0.012039 0.000000
# 3 -0.003895 -0.001071 0.010889 0.000000 0.009149 0.000000
# 4 0.000000 0.000000 0.000000 0.130215 0.000000 -0.024379
# 5 -0.007493 0.012039 0.009149 0.000000 0.070666 0.000000
# 6 0.000000 0.000000 0.000000 -0.024379 0.000000 -0.069466
#
#
# Mechanical properties :
#
#
# Convention : Reuss Voigt Hill
#
# Bulk Modulus (GPa) = 51.53152 61.35337 56.44245
# Shear Modulus (GPa) = 26.36785 18.57842 22.47314
#
# Velocity S-wave (km/s) = 3.78978 3.18113 3.49871
# Velocity P-wave (km/s) = 6.87160 6.84921 6.86041
#
# Compressibility (1/GPa) = 0.01940560
#
# Stress axis : x y z
#
# Youngs Moduli (GPa) = 76.14814 86.56712 91.83409
#
# Poissons Ratio (x) = 0.26994 0.35769
# Poissons Ratio (y) = 0.23745 0.09831
# Poissons Ratio (z) = 0.29659 0.09268
#
# Static dielectric constant tensor:
#      x y z
#    x 1.603890 0.000000 0.013960 
#    y 0.000000 1.623140 0.000000 
#    z 0.013960 0.000000 1.646710 
# 
# From -- ./inp_files/6090.got.cif
#   From: 2010.05.17/outbox.cif.g08.bks.cpg/sg10_4_cif.got.tgz:6090.got - 2010.06.03 11:33:40.
