data_PCOD9152865
_publ_section_title
;
Structure prediction by ZEFSAII (Michael W. Deem and Ramdas Pophale) SiO2 
 PCOD9152865
Probable space group: P 2/M
;
_chemical_formula_sum "Si O2"
_cell_formula_units_Z 28
_cell_length_a 18.301239
_cell_length_b 12.755375
_cell_length_c 14.097796
_cell_angle_alpha 90.000000
_cell_angle_beta 158.737184
_cell_angle_gamma 90.000000
_cell_volume 1193.461568
_symmetry_space_group_name_H-M "P 2/M"
_symmetry_group_IT_number 10
_symmetry_cell_setting 'monoclinic'
loop_
_space_group_symop_operation_xyz
x,y,z
-x,y,-z
-x,-y,-z
x,-y,z
loop_
_atom_site_type_symbol
_atom_site_label
_atom_site_fract_x
_atom_site_fract_y
_atom_site_fract_z
Si Si1 0.715955 0.114486 0.071898
Si Si2 0.718075 0.180757 0.449739
Si Si3 0.175163 0.652975 0.080538
Si Si4 0.000000 0.708453 0.500000
Si Si5 0.282025 0.617652 0.685580
Si Si6 0.376940 0.500000 0.175085
Si Si7 0.286567 0.652364 0.422753
Si Si8 0.836385 0.886385 0.001446
O O1 0.835616 0.212931 0.257260
O O2 0.733201 0.119014 0.979125
O O3 0.794841 0.000000 0.196932
O O4 0.484452 0.123187 0.822331
O O5 0.735555 0.286597 0.408488
O O6 0.695824 0.225753 0.529710
O O7 0.922975 0.118164 0.688425
O O8 0.250998 0.591108 0.081337
O O9 0.294376 0.624207 0.320724
O O10 0.202138 0.777997 0.099834
O O11 0.941065 0.627210 0.819246
O O12 0.108357 0.637967 0.552921
O O13 0.256798 0.500000 0.616745
O O14 0.500000 0.623443 0.000000
O O15 0.525609 0.590460 0.307758
O O16 0.786782 0.000000 0.896979
#
# Coordination Sequence:
#
# PCOD9152865 Si02
#       8
#     4   4   4   2   4   2   4   4
#     4  11  23  39  63  93 120 157 206 255 308 367
#     4  11  22  42  62  91 124 160 204 255 308 363
#     4  10  21  39  58  91 126 165 209 254 312 362
#     4  12  22  44  64  92 122 160 198 252 310 374
#     4  11  24  43  65  91 126 162 198 248 310 377
#     4  12  21  36  62  88 125 168 202 255 310 359
#     4  10  22  36  59  89 127 162 208 254 299 371
#     4  10  22  42  64  88 125 165 210 263 309 362
#
# _framework density 23.461167
#
# number of rings (size 3 to 8) (size 9 to 14) (size 15 to 20)
#    0.000    1.286    2.857    3.429    1.000    1.143 
#    1.286    7.143    0.000    3.429    0.000    0.000 
#    0.000    0.000    0.000    0.000    0.000    0.000 
#
# Total GULP energy -156067.385008 kJ/mol
# GULP energy per Si atom -5573.835179 kJ/mol
# Density = 2.340777 g / cm^3
# Si number density = 23.461167 Si / 1000 Ang^3
#
#
#
# Elastic Constant Matrix: (Units=GPa)
#
#
# Indices 1 2 3 4 5 6 
#
# 1 65.2205 29.9318 13.5948 0.0000 23.9800 0.0000
# 2 29.9318 153.0650 5.6903 0.0000 12.2709 0.0000
# 3 13.5948 5.6903 55.3415 0.0000 22.0803 0.0000
# 4 0.0000 0.0000 0.0000 43.6547 0.0000 82.6936
# 5 23.9800 12.2709 22.0803 0.0000 37.1817 0.0000
# 6 0.0000 0.0000 0.0000 82.6936 0.0000 -0.4156
#
#
#
# Elastic Compliance Matrix: (Units=1/GPa)
#
#
# Indices 1 2 3 4 5 6 
#
# 1 0.021506 -0.003175 0.000209 0.000000 -0.012946 0.000000
# 2 -0.003175 0.007182 0.000223 0.000000 -0.000455 0.000000
# 3 0.000209 0.000223 0.023692 0.000000 -0.014278 0.000000
# 4 0.000000 0.000000 0.000000 0.000061 0.000000 0.012061
# 5 -0.012946 -0.000455 -0.014278 0.000000 0.043873 0.000000
# 6 0.000000 0.000000 0.000000 0.012061 0.000000 -0.006367
#
#
# Mechanical properties :
#
#
# Convention : Reuss Voigt Hill
#
# Bulk Modulus (GPa) = 21.32496 41.34006 31.33251
# Shear Modulus (GPa) = 45.01818 31.04485 38.03152
#
# Velocity S-wave (km/s) = 4.38521 3.64159 4.03058
# Velocity P-wave (km/s) = 5.89485 5.94478 5.91987
#
# Compressibility (1/GPa) = 0.04689342
#
# Stress axis : x y z
#
# Youngs Moduli (GPa) = 46.49772 139.23115 42.20835
#
# Poissons Ratio (x) = 0.44212 -0.00881
# Poissons Ratio (y) = 0.14765 -0.00941
# Poissons Ratio (z) = -0.00971 -0.03105
#
# Static dielectric constant tensor:
#      x y z
#    x 1.919620 0.000000 -0.049620 
#    y 0.000000 1.892770 0.000000 
#    z -0.049620 0.000000 1.907950 
# 
# From -- ./inp_files/79614.got.cif
#   From: 2010.05.17/outbox.cif.g08.bks.cpg/sg10_40_cif.got.tgz:79614.got - 2010.06.03 11:33:40.
