data_PCOD9152122
_publ_section_title
;
Structure prediction by ZEFSAII (Michael W. Deem and Ramdas Pophale) SiO2 
 PCOD9152122
Probable space group: P 2/M
;
_chemical_formula_sum "Si O2"
_cell_formula_units_Z 28
_cell_length_a 19.428531
_cell_length_b 7.723829
_cell_length_c 14.484957
_cell_angle_alpha 90.000000
_cell_angle_beta 144.699668
_cell_angle_gamma 90.000000
_cell_volume 1256.071111
_symmetry_space_group_name_H-M "P 2/M"
_symmetry_group_IT_number 10
_symmetry_cell_setting 'monoclinic'
loop_
_space_group_symop_operation_xyz
x,y,z
-x,y,-z
-x,-y,-z
x,-y,z
loop_
_atom_site_type_symbol
_atom_site_label
_atom_site_fract_x
_atom_site_fract_y
_atom_site_fract_z
Si Si1 0.421946 0.300060 0.330846
Si Si2 0.206900 0.289959 0.476444
Si Si3 0.524001 0.794581 0.250322
Si Si4 0.825312 0.200666 0.024442
Si Si5 0.042818 0.698682 0.142600
Si Si6 0.103592 0.701691 0.550424
Si Si7 0.718169 0.209522 0.102513
O O1 0.500000 0.225907 0.500000
O O2 0.394918 0.500000 0.324018
O O3 0.499076 0.291156 0.321863
O O4 0.296168 0.214108 0.168041
O O5 0.199201 0.500000 0.467414
O O6 0.343849 0.242122 0.638202
O O7 0.152234 0.224764 0.320190
O O8 0.129570 0.223859 0.478234
O O9 0.508730 0.000000 0.247410
O O10 0.418259 0.739361 0.065811
O O11 0.791449 0.262527 0.090439
O O12 0.931306 0.299059 0.090316
O O13 0.859903 0.000000 0.068481
O O14 0.076792 0.500000 0.157683
O O15 0.000000 0.781597 0.000000
O O16 0.072123 0.500000 0.501687
O O17 0.222103 0.714426 0.741675
O O18 0.000000 0.782388 0.500000
O O19 0.723746 0.000000 0.114581
#
# Coordination Sequence:
#
# PCOD9152122 Si02
#       7
#     4   4   4   4   4   4   4
#     4  10  21  36  58  84 112 150 194 239 287 342
#     4  10  22  39  58  85 120 154 194 245 296 351
#     4  10  22  39  58  84 119 155 193 239 293 349
#     4  10  21  37  57  84 116 148 188 238 291 345
#     4  10  22  39  59  82 113 154 197 241 290 348
#     4  10  21  37  60  88 116 150 194 242 292 343
#     4   9  20  38  58  83 115 151 190 234 288 348
#
# _framework density 22.291730999999999
#
# number of rings (size 3 to 8) (size 9 to 14) (size 15 to 20)
#    0.000    2.143    0.000    3.000    2.000    8.000 
#    0.000    2.857    0.000    0.000    0.000    0.000 
#    0.000    0.000    0.000    0.000    0.000    0.000 
#
# Total GULP energy -156441.530306 kJ/mol
# GULP energy per Si atom -5587.197511 kJ/mol
# Density = 2.224099 g / cm^3
# Si number density = 22.291731 Si / 1000 Ang^3
#
#
#
# Elastic Constant Matrix: (Units=GPa)
#
#
# Indices 1 2 3 4 5 6 
#
# 1 47.4476 -6.2257 34.3741 0.0000 8.1977 0.0000
# 2 -6.2257 43.6641 -6.0501 0.0000 -3.2615 0.0000
# 3 34.3741 -6.0501 94.9185 0.0000 -13.9783 0.0000
# 4 0.0000 0.0000 0.0000 -84.6140 0.0000 -112.3512
# 5 8.1977 -3.2615 -13.9783 0.0000 35.2872 0.0000
# 6 0.0000 0.0000 0.0000 -112.3512 0.0000 -112.8412
#
#
#
# Elastic Compliance Matrix: (Units=1/GPa)
#
#
# Indices 1 2 3 4 5 6 
#
# 1 0.033811 0.001880 -0.014077 0.000000 -0.013257 0.000000
# 2 0.001880 0.023491 0.001138 0.000000 0.002185 0.000000
# 3 -0.014077 0.001138 0.017207 0.000000 0.010192 0.000000
# 4 0.000000 0.000000 0.000000 0.036698 0.000000 -0.036539
# 5 -0.013257 0.002185 0.010192 0.000000 0.035658 0.000000
# 6 0.000000 0.000000 0.000000 -0.036539 0.000000 0.027518
#
#
# Mechanical properties :
#
#
# Convention : Reuss Voigt Hill
#
# Bulk Modulus (GPa) = 19.08697 25.58077 22.33387
# Shear Modulus (GPa) = 23.36831 -21.50480 0.93175
#
# Velocity S-wave (km/s) = 3.24125 -3.10933 0.64722
# Velocity P-wave (km/s) = 4.75274 1.17907 3.25564
#
# Compressibility (1/GPa) = 0.05239176
#
# Stress axis : x y z
#
# Youngs Moduli (GPa) = 29.57577 42.56930 58.11681
#
# Poissons Ratio (x) = -0.08003 0.81812
# Poissons Ratio (y) = -0.05560 -0.06615
# Poissons Ratio (z) = 0.41634 -0.04846
#
# Static dielectric constant tensor:
#      x y z
#    x 1.797420 0.000000 -0.010680 
#    y 0.000000 1.855050 0.000000 
#    z -0.010680 0.000000 1.832900 
# 
# From -- ./inp_files/70205.got.cif
#   From: 2010.05.17/outbox.cif.g08.bks.cpg/sg10_36_cif.got.tgz:70205.got - 2010.06.03 11:33:40.
