data_PCOD9153945
_publ_section_title
;
Structure prediction by ZEFSAII (Michael W. Deem and Ramdas Pophale) SiO2 
 PCOD9153945
Probable space group: P 2/M
;
_chemical_formula_sum "Si O2"
_cell_formula_units_Z 30
_cell_length_a 7.807483
_cell_length_b 15.122243
_cell_length_c 12.897908
_cell_angle_alpha 90.000000
_cell_angle_beta 78.653598
_cell_angle_gamma 90.000000
_cell_volume 1493.050463
_symmetry_space_group_name_H-M "P 2/M"
_symmetry_group_IT_number 10
_symmetry_cell_setting 'monoclinic'
loop_
_space_group_symop_operation_xyz
x,y,z
-x,y,-z
-x,-y,-z
x,-y,z
loop_
_atom_site_type_symbol
_atom_site_label
_atom_site_fract_x
_atom_site_fract_y
_atom_site_fract_z
Si Si1 0.243567 0.097409 0.449241
Si Si2 0.291485 0.399801 0.633963
Si Si3 0.711648 0.397174 0.596675
Si Si4 0.169382 0.252578 0.793034
Si Si5 0.325188 0.896412 0.091604
Si Si6 0.000000 0.825359 0.000000
Si Si7 0.351485 0.097248 0.666467
Si Si8 0.810798 0.229205 0.715371
O O1 0.244291 0.107904 0.572350
O O2 0.447748 0.100074 0.391853
O O3 0.159577 0.172270 0.391409
O O4 0.177155 0.000000 0.429685
O O5 0.230142 0.500000 0.649727
O O6 0.501613 0.399081 0.611174
O O7 0.229081 0.367740 0.526963
O O8 0.235479 0.343233 0.738369
O O9 0.767961 0.500000 0.607771
O O10 0.754876 0.325953 0.680136
O O11 0.303633 0.175828 0.746735
O O12 0.119635 0.238798 0.916689
O O13 0.990487 0.235948 0.753850
O O14 0.143275 0.881467 0.048567
O O15 0.311842 0.827773 0.190402
O O16 0.330918 0.000000 0.125438
O O17 0.500000 0.881753 0.000000
O O18 0.313655 0.000000 0.715385
#
# Coordination Sequence:
#
# PCOD9153945 Si02
#       8
#     4   4   4   4   4   2   4   4
#     4   9  18  33  51  78 110 141 183 230 272 343
#     4   9  19  37  61  87 114 150 191 229 282 351
#     4   9  19  36  60  90 118 145 186 235 281 344
#     4  11  23  37  54  80 111 151 189 233 295 341
#     4  10  23  41  61  86 114 156 205 249 298 344
#     4  10  25  42  57  84 120 154 201 258 289 342
#     4   9  19  33  52  76 106 147 187 221 279 343
#     4  11  22  34  53  83 116 146 184 237 283 349
#
# _framework density 20.093094000000001
#
# number of rings (size 3 to 8) (size 9 to 14) (size 15 to 20)
#    0.000    2.267    0.000    3.800    3.733    8.000 
#    0.000    3.000    0.000    1.200    0.000    0.000 
#    0.000    0.000    0.000    0.000    0.000    0.000 
#
# Total GULP energy -167383.678663 kJ/mol
# GULP energy per Si atom -5579.455955 kJ/mol
# Density = 2.004736 g / cm^3
# Si number density = 20.093094 Si / 1000 Ang^3
#
#
#
# Elastic Constant Matrix: (Units=GPa)
#
#
# Indices 1 2 3 4 5 6 
#
# 1 52.5000 18.0793 4.3194 0.0000 1.3637 0.0000
# 2 18.0793 94.9833 55.0434 0.0000 -6.3570 0.0000
# 3 4.3194 55.0434 75.8893 0.0000 -14.0145 0.0000
# 4 0.0000 0.0000 0.0000 40.8941 0.0000 -0.2401
# 5 1.3637 -6.3570 -14.0145 0.0000 30.9075 0.0000
# 6 0.0000 0.0000 0.0000 -0.2401 0.0000 -3.1427
#
#
#
# Elastic Compliance Matrix: (Units=1/GPa)
#
#
# Indices 1 2 3 4 5 6 
#
# 1 0.020768 -0.005580 0.002711 0.000000 -0.000835 0.000000
# 2 -0.005580 0.019832 -0.014480 0.000000 -0.002241 0.000000
# 3 0.002711 -0.014480 0.025051 0.000000 0.008261 0.000000
# 4 0.000000 0.000000 0.000000 0.024442 0.000000 -0.001867
# 5 -0.000835 -0.002241 0.008261 0.000000 0.035676 0.000000
# 6 0.000000 0.000000 0.000000 -0.001867 0.000000 -0.318059
#
#
# Mechanical properties :
#
#
# Convention : Reuss Voigt Hill
#
# Bulk Modulus (GPa) = 32.30801 42.02854 37.16828
# Shear Modulus (GPa) = -33.95050 23.46048 -5.24501
#
# Velocity S-wave (km/s) = -4.11501 3.42071 -1.61741
# Velocity P-wave (km/s) = 2.54237 6.04682 3.87945
#
# Compressibility (1/GPa) = 0.03095207
#
# Stress axis : x y z
#
# Youngs Moduli (GPa) = 48.15151 50.42411 39.91818
#
# Poissons Ratio (x) = 0.28136 -0.10822
# Poissons Ratio (y) = 0.26868 0.57803
# Poissons Ratio (z) = -0.13053 0.73016
#
# Static dielectric constant tensor:
#      x y z
#    x 1.755050 0.000000 -0.013500 
#    y 0.000000 1.715200 0.000000 
#    z -0.013500 0.000000 1.745260 
# 
# From -- ./inp_files/42925.got.cif
#   From: 2010.05.17/outbox.cif.g08.bks.cpg/sg10_22_cif.got.tgz:42925.got - 2010.06.03 11:33:40.
