data_PCOD9153145
_publ_section_title
;
Structure prediction by ZEFSAII (Michael W. Deem and Ramdas Pophale) SiO2 
 PCOD9153145
Probable space group: P 2/M
;
_chemical_formula_sum "Si O2"
_cell_formula_units_Z 30
_cell_length_a 12.230622
_cell_length_b 21.524166
_cell_length_c 11.942057
_cell_angle_alpha 90.000000
_cell_angle_beta 155.677500
_cell_angle_gamma 90.000000
_cell_volume 1294.841267
_symmetry_space_group_name_H-M "P 2/M"
_symmetry_group_IT_number 10
_symmetry_cell_setting 'monoclinic'
loop_
_space_group_symop_operation_xyz
x,y,z
-x,y,-z
-x,-y,-z
x,-y,z
loop_
_atom_site_type_symbol
_atom_site_label
_atom_site_fract_x
_atom_site_fract_y
_atom_site_fract_z
Si Si1 0.614363 0.568438 0.465921
Si Si2 0.928274 0.384607 0.553834
Si Si3 0.276479 0.070311 0.198099
Si Si4 0.881761 0.927362 0.270252
Si Si5 0.754505 0.327868 0.964089
Si Si6 0.395984 0.744313 0.775698
Si Si7 0.600844 0.126599 0.308562
Si Si8 0.000000 0.370704 0.000000
O O1 0.495405 0.500000 0.361971
O O2 0.756285 0.574269 0.477161
O O3 0.414795 0.626713 0.274466
O O4 0.817479 0.580714 0.756354
O O5 0.785746 0.317477 0.401604
O O6 0.000000 0.410693 0.500000
O O7 0.180156 0.368540 0.865355
O O8 0.500000 0.064987 0.500000
O O9 0.404629 0.118790 0.230902
O O10 0.244973 0.000000 0.117439
O O11 0.000000 0.087099 0.000000
O O12 0.000000 0.907205 0.500000
O O13 0.138470 0.915810 0.430722
O O14 0.821744 0.000000 0.220510
O O15 0.610662 0.894020 0.983673
O O16 0.624952 0.268709 0.897460
O O17 0.989559 0.320576 0.096118
O O18 0.277908 0.807665 0.618291
O O19 0.500000 0.749466 0.000000
#
# Coordination Sequence:
#
# PCOD9153145 Si02
#       8
#     4   4   4   4   4   4   4   2
#     4  10  22  38  63  98 131 167 215 273 333 399
#     4  10  21  40  64  87 127 176 223 269 334 398
#     4  10  21  41  65  90 128 176 221 269 332 404
#     4  11  23  40  62  95 137 174 211 272 348 417
#     4  10  22  40  62  91 124 175 214 271 328 394
#     4  11  23  40  65  91 125 167 221 276 331 398
#     4  12  25  40  66 101 129 173 229 285 337 405
#     4  10  21  40  64  92 132 172 219 258 336 400
#
# _framework density 23.168863000000002
#
# number of rings (size 3 to 8) (size 9 to 14) (size 15 to 20)
#    0.000    1.467    1.333    3.800    1.867    6.133 
#    1.200    3.333    0.000    0.000    0.000    0.000 
#    0.000    0.000    0.000    0.000    0.000    0.000 
#
# Total GULP energy -167132.419984 kJ/mol
# GULP energy per Si atom -5571.080666 kJ/mol
# Density = 2.311613 g / cm^3
# Si number density = 23.168863 Si / 1000 Ang^3
#
#
#
# Elastic Constant Matrix: (Units=GPa)
#
#
# Indices 1 2 3 4 5 6 
#
# 1 125.2188 24.1590 -14.7887 0.0000 -24.8539 0.0000
# 2 24.1590 71.7437 -0.2587 0.0000 -4.2919 0.0000
# 3 -14.7887 -0.2587 64.1125 0.0000 -17.7979 0.0000
# 4 0.0000 0.0000 0.0000 10.2957 0.0000 9.3137
# 5 -24.8539 -4.2919 -17.7979 0.0000 39.6079 0.0000
# 6 0.0000 0.0000 0.0000 9.3137 0.0000 27.7014
#
#
#
# Elastic Compliance Matrix: (Units=1/GPa)
#
#
# Indices 1 2 3 4 5 6 
#
# 1 0.010900 -0.003132 0.004920 0.000000 0.008711 0.000000
# 2 -0.003132 0.014946 -0.000866 0.000000 -0.000735 0.000000
# 3 0.004920 -0.000866 0.020063 0.000000 0.012009 0.000000
# 4 0.000000 0.000000 0.000000 0.139581 0.000000 -0.046930
# 5 0.008711 -0.000735 0.012009 0.000000 0.036030 0.000000
# 6 0.000000 0.000000 0.000000 -0.046930 0.000000 0.051878
#
#
# Mechanical properties :
#
#
# Convention : Reuss Voigt Hill
#
# Bulk Modulus (GPa) = 20.94077 31.03312 25.98695
# Shear Modulus (GPa) = 17.39300 32.31858 24.85579
#
# Velocity S-wave (km/s) = 2.74287 3.73891 3.27893
# Velocity P-wave (km/s) = 4.36911 5.66239 5.05726
#
# Compressibility (1/GPa) = 0.04775373
#
# Stress axis : x y z
#
# Youngs Moduli (GPa) = 91.73972 66.90756 49.84380
#
# Poissons Ratio (x) = 0.20954 -0.24524
# Poissons Ratio (y) = 0.28730 0.04317
# Poissons Ratio (z) = -0.45137 0.05795
#
# Static dielectric constant tensor:
#      x y z
#    x 1.236840 0.000000 -0.476990 
#    y 0.000000 1.869690 0.000000 
#    z -0.476990 0.000000 1.515720 
# 
# From -- ./inp_files/48066.got.cif
#   From: 2010.05.17/outbox.cif.g08.bks.cpg/sg10_25_cif.got.tgz:48066.got - 2010.06.03 11:33:40.
