data_PCOD9153655
_publ_section_title
;
Structure prediction by ZEFSAII (Michael W. Deem and Ramdas Pophale) SiO2 
 PCOD9153655
Probable space group: P 2/M
;
_chemical_formula_sum "Si O2"
_cell_formula_units_Z 24
_cell_length_a 13.354715
_cell_length_b 8.485307
_cell_length_c 10.307999
_cell_angle_alpha 90.000000
_cell_angle_beta 121.211990
_cell_angle_gamma 90.000000
_cell_volume 999.016356
_symmetry_space_group_name_H-M "P 2/M"
_symmetry_group_IT_number 10
_symmetry_cell_setting 'monoclinic'
loop_
_space_group_symop_operation_xyz
x,y,z
-x,y,-z
-x,-y,-z
x,-y,z
loop_
_atom_site_type_symbol
_atom_site_label
_atom_site_fract_x
_atom_site_fract_y
_atom_site_fract_z
Si Si1 0.272065 0.313487 0.988069
Si Si2 0.777580 0.311402 0.769641
Si Si3 0.416387 0.310701 0.561247
Si Si4 0.107329 0.675075 0.476433
Si Si5 0.665569 0.186134 0.238334
Si Si6 0.012450 0.180117 0.836542
O O1 0.291251 0.500000 0.988240
O O2 0.342607 0.232453 0.918576
O O3 0.131376 0.277823 0.888957
O O4 0.296221 0.261518 0.152885
O O5 0.787373 0.500000 0.788031
O O6 0.709580 0.275813 0.590910
O O7 0.907418 0.239640 0.860511
O O8 0.500000 0.258948 0.500000
O O9 0.429379 0.500000 0.583362
O O10 0.425427 0.237442 0.710186
O O11 0.124397 0.500000 0.426743
O O12 0.219065 0.723046 0.634493
O O13 0.061829 0.803792 0.345777
O O14 0.000000 0.658925 0.500000
O O15 0.680737 0.000000 0.255663
O O16 0.045123 0.000000 0.883735
#
# Coordination Sequence:
#
# PCOD9153655 Si02
#       6
#     4   4   4   4   4   4
#     4  11  23  39  59  86 123 168 205 241 289 354
#     4  10  22  40  62  87 120 161 205 248 296 353
#     4  10  22  43  70  93 114 149 199 254 306 361
#     4  11  21  34  56  83 118 162 203 245 287 346
#     4  12  24  38  60  90 121 156 196 249 306 355
#     4  12  23  34  55  88 125 164 201 243 293 351
#
# _framework density 24.023633
#
# number of rings (size 3 to 8) (size 9 to 14) (size 15 to 20)
#    0.000    1.000    3.333    4.500    0.000    4.333 
#    0.000    0.833    0.000    5.000    0.000    0.000 
#    0.000    0.000    0.000    0.000    0.000    0.000 
#
# Total GULP energy -134067.358175 kJ/mol
# GULP energy per Si atom -5586.139924 kJ/mol
# Density = 2.396895 g / cm^3
# Si number density = 24.023633 Si / 1000 Ang^3
#
#
#
# Elastic Constant Matrix: (Units=GPa)
#
#
# Indices 1 2 3 4 5 6 
#
# 1 125.6632 16.4355 26.8463 0.0000 -44.4371 0.0000
# 2 16.4355 56.9289 15.3060 0.0000 -14.6247 0.0000
# 3 26.8463 15.3060 93.8230 0.0000 -45.0749 0.0000
# 4 0.0000 0.0000 0.0000 61.0270 0.0000 -78.7389
# 5 -44.4371 -14.6247 -45.0749 0.0000 54.4500 0.0000
# 6 0.0000 0.0000 0.0000 -78.7389 0.0000 124.9448
#
#
#
# Elastic Compliance Matrix: (Units=1/GPa)
#
#
# Indices 1 2 3 4 5 6 
#
# 1 0.011473 -0.001100 0.002080 0.000000 0.010790 0.000000
# 2 -0.001100 0.019038 -0.001271 0.000000 0.003163 0.000000
# 3 0.002080 -0.001271 0.018134 0.000000 0.016368 0.000000
# 4 0.000000 0.000000 0.000000 0.087669 0.000000 0.055248
# 5 0.010790 0.003163 0.016368 0.000000 0.041571 0.000000
# 6 0.000000 0.000000 0.000000 0.055248 0.000000 0.042820
#
#
# Mechanical properties :
#
#
# Convention : Reuss Voigt Hill
#
# Bulk Modulus (GPa) = 20.80598 43.73230 32.26914
# Shear Modulus (GPa) = 21.06975 62.60619 41.83797
#
# Velocity S-wave (km/s) = 2.96470 5.11046 4.17770
# Velocity P-wave (km/s) = 4.51649 7.28463 6.06072
#
# Compressibility (1/GPa) = 0.04806310
#
# Stress axis : x y z
#
# Youngs Moduli (GPa) = 87.16402 52.52731 55.14440
#
# Poissons Ratio (x) = 0.05776 -0.11471
# Poissons Ratio (y) = 0.09585 0.07011
# Poissons Ratio (z) = -0.18132 0.06678
#
# Static dielectric constant tensor:
#      x y z
#    x 2.021880 0.000000 -0.048440 
#    y 0.000000 1.824060 0.000000 
#    z -0.048440 0.000000 1.993330 
# 
# From -- ./inp_files/48876.got.cif
#   From: 2010.05.17/outbox.cif.g08.bks.cpg/sg10_25_cif.got.tgz:48876.got - 2010.06.03 11:33:40.
