data_PCOD9153985
_publ_section_title
;
Structure prediction by ZEFSAII (Michael W. Deem and Ramdas Pophale) SiO2 
 PCOD9153985
Probable space group: P 2/M
;
_chemical_formula_sum "Si O2"
_cell_formula_units_Z 18
_cell_length_a 5.410844
_cell_length_b 18.907392
_cell_length_c 7.001112
_cell_angle_alpha 90.000000
_cell_angle_beta 70.917054
_cell_angle_gamma 90.000000
_cell_volume 676.887879
_symmetry_space_group_name_H-M "P 2/M"
_symmetry_group_IT_number 10
_symmetry_cell_setting 'monoclinic'
loop_
_space_group_symop_operation_xyz
x,y,z
-x,y,-z
-x,-y,-z
x,-y,z
loop_
_atom_site_type_symbol
_atom_site_label
_atom_site_fract_x
_atom_site_fract_y
_atom_site_fract_z
Si Si1 0.000000 0.653587 0.500000
Si Si2 0.758366 0.578143 0.205873
Si Si3 0.657801 0.867115 0.105689
Si Si4 0.525806 0.280993 0.722543
Si Si5 0.980913 0.083214 0.726772
O O1 0.152824 0.602036 0.604661
O O2 0.166478 0.707480 0.326630
O O3 0.636288 0.500000 0.237510
O O4 0.582872 0.643386 0.188650
O O5 0.000000 0.575737 0.000000
O O6 0.624299 0.783570 0.148882
O O7 0.325837 0.884790 0.138640
O O8 0.711125 0.908415 0.286895
O O9 0.000000 0.877992 0.000000
O O10 0.500000 0.273073 0.500000
O O11 0.000000 0.104988 0.500000
O O12 0.922345 0.000000 0.768668
#
# Coordination Sequence:
#
# PCOD9153985 Si02
#       5
#     2   4   4   4   4
#     4  10  23  42  64  92 133 184 238 298 345 404
#     4  10  23  42  66  97 133 181 237 292 354 419
#     4  11  25  41  71 107 140 184 229 285 356 418
#     4  10  25  43  66  99 141 185 237 293 348 419
#     4  10  25  49  75 106 141 179 229 287 352 432
#
# _framework density 26.592292
#
# number of rings (size 3 to 8) (size 9 to 14) (size 15 to 20)
#    0.000    1.778    0.000    1.667    9.333   10.222 
#    2.000    4.444    0.000    0.000    0.000    0.000 
#    0.000    0.000    0.000    0.000    0.000    0.000 
#
# Total GULP energy -100341.596471 kJ/mol
# GULP energy per Si atom -5574.533137 kJ/mol
# Density = 2.653177 g / cm^3
# Si number density = 26.592292 Si / 1000 Ang^3
#
#
#
# Elastic Constant Matrix: (Units=GPa)
#
#
# Indices 1 2 3 4 5 6 
#
# 1 189.5873 48.7599 60.3432 0.0000 22.1024 0.0000
# 2 48.7599 197.3145 52.9375 0.0000 -25.6168 0.0000
# 3 60.3432 52.9375 153.0721 0.0000 -17.9161 0.0000
# 4 0.0000 0.0000 0.0000 7.0460 0.0000 35.5371
# 5 22.1024 -25.6168 -17.9161 0.0000 53.5464 0.0000
# 6 0.0000 0.0000 0.0000 35.5371 0.0000 -21.5967
#
#
#
# Elastic Compliance Matrix: (Units=1/GPa)
#
#
# Indices 1 2 3 4 5 6 
#
# 1 0.007120 -0.001613 -0.002792 0.000000 -0.004645 0.000000
# 2 -0.001613 0.006190 -0.001124 0.000000 0.003251 0.000000
# 3 -0.002792 -0.001124 0.008424 0.000000 0.003433 0.000000
# 4 0.000000 0.000000 0.000000 0.015262 0.000000 0.025114
# 5 -0.004645 0.003251 0.003433 0.000000 0.023297 0.000000
# 6 0.000000 0.000000 0.000000 0.025114 0.000000 -0.004979
#
#
# Mechanical properties :
#
#
# Convention : Reuss Voigt Hill
#
# Bulk Modulus (GPa) = 93.68133 96.00614 94.84373
# Shear Modulus (GPa) = 71.49703 32.99469 52.24586
#
# Velocity S-wave (km/s) = 5.19083 3.52627 4.43730
# Velocity P-wave (km/s) = 8.43988 7.26366 7.87376
#
# Compressibility (1/GPa) = 0.01067449
#
# Stress axis : x y z
#
# Youngs Moduli (GPa) = 140.45185 161.53830 118.70255
#
# Poissons Ratio (x) = 0.26061 0.33148
# Poissons Ratio (y) = 0.22659 0.13346
# Poissons Ratio (z) = 0.39221 0.18163
#
# Static dielectric constant tensor:
#      x y z
#    x 2.221550 0.000000 -0.369720 
#    y 0.000000 1.973550 0.000000 
#    z -0.369720 0.000000 1.844690 
# 
# From -- ./inp_files/14669.got.cif
#   From: 2010.05.17/outbox.cif.g08.bks.cpg/sg10_8_cif.got.tgz:14669.got - 2010.06.03 11:33:40.
