data_PCOD9153955
_publ_section_title
;
Structure prediction by ZEFSAII (Michael W. Deem and Ramdas Pophale) SiO2 
 PCOD9153955
Probable space group: P 2/M
;
_chemical_formula_sum "Si O2"
_cell_formula_units_Z 26
_cell_length_a 21.202959
_cell_length_b 8.869988
_cell_length_c 8.182941
_cell_angle_alpha 90.000000
_cell_angle_beta 52.007141
_cell_angle_gamma 90.000000
_cell_volume 1212.839559
_symmetry_space_group_name_H-M "P 2/M"
_symmetry_group_IT_number 10
_symmetry_cell_setting 'monoclinic'
loop_
_space_group_symop_operation_xyz
x,y,z
-x,y,-z
-x,-y,-z
x,-y,z
loop_
_atom_site_type_symbol
_atom_site_label
_atom_site_fract_x
_atom_site_fract_y
_atom_site_fract_z
Si Si1 0.146930 0.827892 0.963266
Si Si2 0.988985 0.328635 0.323231
Si Si3 0.342167 0.180997 0.119265
Si Si4 0.698659 0.675833 0.154392
Si Si5 0.434625 0.169142 0.462768
Si Si6 0.500000 0.766538 0.000000
Si Si7 0.168791 0.827181 0.541258
O O1 0.210644 0.722020 0.951411
O O2 0.165010 0.820887 0.742427
O O3 0.158162 0.000000 0.002032
O O4 0.056373 0.776449 0.136849
O O5 0.002295 0.500000 0.246498
O O6 0.000000 0.321929 0.500000
O O7 0.900150 0.276752 0.420846
O O8 0.257440 0.209526 0.339382
O O9 0.361672 0.000000 0.109539
O O10 0.331729 0.223129 0.947606
O O11 0.411721 0.285185 0.084906
O O12 0.692984 0.500000 0.124509
O O13 0.639208 0.717913 0.397930
O O14 0.500000 0.202672 0.500000
O O15 0.403764 0.000000 0.541509
O O16 0.474012 0.168572 0.220533
O O17 0.152027 0.000000 0.516639
#
# Coordination Sequence:
#
# PCOD9153955 Si02
#       7
#     4   4   4   4   4   2   4
#     4  11  23  42  68  96 127 166 220 274 325 385
#     4  11  24  41  63  94 133 172 212 259 324 399
#     4  11  22  41  68  96 128 169 222 277 330 390
#     4  12  26  43  63  94 138 177 218 268 332 401
#     4  11  22  41  70  97 127 169 222 277 330 387
#     4  12  23  42  73 104 129 170 231 284 333 396
#     4  10  23  41  65  96 128 165 217 276 327 387
#
# _framework density 21.437297000000001
#
# number of rings (size 3 to 8) (size 9 to 14) (size 15 to 20)
#    0.000    0.923    1.538    6.000    0.000    8.923 
#    0.000    3.077    0.000    0.000    0.000    0.000 
#    0.000    0.000    0.000    0.000    0.000    0.000 
#
# Total GULP energy -145200.482297 kJ/mol
# GULP energy per Si atom -5584.633935 kJ/mol
# Density = 2.138850 g / cm^3
# Si number density = 21.437297 Si / 1000 Ang^3
#
#
#
# Elastic Constant Matrix: (Units=GPa)
#
#
# Indices 1 2 3 4 5 6 
#
# 1 97.0692 15.3106 21.3626 0.0000 -9.2882 0.0000
# 2 15.3106 48.0534 27.5801 0.0000 -8.9895 0.0000
# 3 21.3626 27.5801 123.7130 0.0000 -13.1349 0.0000
# 4 0.0000 0.0000 0.0000 -378.5957 0.0000 978.1940
# 5 -9.2882 -8.9895 -13.1349 0.0000 32.5402 0.0000
# 6 0.0000 0.0000 0.0000 978.1940 0.0000-2555.9479
#
#
#
# Elastic Compliance Matrix: (Units=1/GPa)
#
#
# Indices 1 2 3 4 5 6 
#
# 1 0.011145 -0.002513 -0.001150 0.000000 0.002023 0.000000
# 2 -0.002513 0.025121 -0.004708 0.000000 0.004323 0.000000
# 3 -0.001150 -0.004708 0.009568 0.000000 0.002234 0.000000
# 4 0.000000 0.000000 0.000000 -0.236502 0.000000 -0.090512
# 5 0.002023 0.004323 0.002234 0.000000 0.033404 0.000000
# 6 0.000000 0.000000 0.000000 -0.090512 0.000000 -0.035031
#
#
# Mechanical properties :
#
#
# Convention : Reuss Voigt Hill
#
# Bulk Modulus (GPa) = 34.37039 44.14912 39.25976
# Shear Modulus (GPa) = -30.14655 -566.76187 -298.45421
#
# Velocity S-wave (km/s) = -3.75409 -16.27744 -11.81204
# Velocity P-wave (km/s) = 1.65019 18.23826 12.94908
#
# Compressibility (1/GPa) = 0.02909481
#
# Stress axis : x y z
#
# Youngs Moduli (GPa) = 89.72785 39.80676 104.51095
#
# Poissons Ratio (x) = 0.10002 0.12014
# Poissons Ratio (y) = 0.22546 0.49200
# Poissons Ratio (z) = 0.10314 0.18740
#
# Static dielectric constant tensor:
#      x y z
#    x 1.754670 0.000000 -0.000900 
#    y 0.000000 1.743040 0.000000 
#    z -0.000900 0.000000 1.775390 
# 
# From -- ./inp_files/34196.got.cif
#   From: 2010.05.17/outbox.cif.g08.bks.cpg/sg10_18_cif.got.tgz:34196.got - 2010.06.03 11:33:40.
