data_PCOD9153585
_publ_section_title
;
Structure prediction by ZEFSAII (Michael W. Deem and Ramdas Pophale) SiO2 
 PCOD9153585
Probable space group: P 2/M
;
_chemical_formula_sum "Si O2"
_cell_formula_units_Z 32
_cell_length_a 16.163079
_cell_length_b 12.188416
_cell_length_c 14.011673
_cell_angle_alpha 90.000000
_cell_angle_beta 143.793717
_cell_angle_gamma 90.000000
_cell_volume 1630.512118
_symmetry_space_group_name_H-M "P 2/M"
_symmetry_group_IT_number 10
_symmetry_cell_setting 'monoclinic'
loop_
_space_group_symop_operation_xyz
x,y,z
-x,y,-z
-x,-y,-z
x,-y,z
loop_
_atom_site_type_symbol
_atom_site_label
_atom_site_fract_x
_atom_site_fract_y
_atom_site_fract_z
Si Si1 0.351538 0.373474 0.747446
Si Si2 0.336202 0.621723 0.016858
Si Si3 0.835771 0.376431 0.823291
Si Si4 0.022741 0.870371 0.737125
Si Si5 0.862399 0.284973 0.313212
Si Si6 0.239670 0.719536 0.451483
Si Si7 0.252471 0.207569 0.096662
Si Si8 0.471423 0.123080 0.580488
O O1 0.325293 0.500000 0.754477
O O2 0.518642 0.356100 0.903277
O O3 0.264711 0.286735 0.729592
O O4 0.295421 0.358041 0.587596
O O5 0.347798 0.500000 0.066767
O O6 0.316761 0.707113 0.081822
O O7 0.199120 0.632796 0.823333
O O8 0.778116 0.500000 0.788190
O O9 0.811061 0.344827 0.689961
O O10 0.780457 0.279198 0.840032
O O11 0.000000 0.381005 0.000000
O O12 0.099139 0.823164 0.712610
O O13 0.885174 0.796211 0.624916
O O14 0.994934 0.000000 0.703312
O O15 0.120677 0.846366 0.920586
O O16 0.000000 0.318945 0.500000
O O17 0.366506 0.797647 0.536994
O O18 0.375587 0.122852 0.230949
O O19 0.500000 0.163277 0.500000
O O20 0.412631 0.000000 0.521087
#
# Coordination Sequence:
#
# PCOD9153585 Si02
#       8
#     4   4   4   4   4   4   4   4
#     4  11  23  41  63  91 127 165 200 248 313 376
#     4  10  22  39  64  91 125 165 200 245 307 376
#     4  11  23  39  61  93 133 171 205 251 309 364
#     4  11  25  44  66  89 119 163 212 259 312 364
#     4  11  23  42  63  93 121 153 201 261 307 369
#     4  12  22  43  61  94 125 165 211 258 302 369
#     4  11  21  42  63  91 128 162 210 252 304 366
#     4  11  23  39  63  90 124 166 209 262 309 352
#
# _framework density 19.625736
#
# number of rings (size 3 to 8) (size 9 to 14) (size 15 to 20)
#    0.000    1.000    5.000    2.250    0.000    2.250 
#    0.000    1.250    0.000    1.500    0.000    0.000 
#    0.000    0.000    0.000    0.000    0.000    0.000 
#
# Total GULP energy -178564.877997 kJ/mol
# GULP energy per Si atom -5580.152437 kJ/mol
# Density = 1.958107 g / cm^3
# Si number density = 19.625736 Si / 1000 Ang^3
#
#
#
# Elastic Constant Matrix: (Units=GPa)
#
#
# Indices 1 2 3 4 5 6 
#
# 1 53.4101 33.8569 8.6814 0.0000 -15.2654 0.0000
# 2 33.8569 78.0430 21.8077 0.0000 7.0045 0.0000
# 3 8.6814 21.8077 103.3207 0.0000 -0.0871 0.0000
# 4 0.0000 0.0000 0.0000 26.2149 0.0000 -9.4851
# 5 -15.2654 7.0045 -0.0871 0.0000 30.5115 0.0000
# 6 0.0000 0.0000 0.0000 -9.4851 0.0000 15.9446
#
#
#
# Elastic Compliance Matrix: (Units=1/GPa)
#
#
# Indices 1 2 3 4 5 6 
#
# 1 0.036406 -0.018013 0.000762 0.000000 0.022352 0.000000
# 2 -0.018013 0.022835 -0.003318 0.000000 -0.014264 0.000000
# 3 0.000762 -0.003318 0.010316 0.000000 0.001172 0.000000
# 4 0.000000 0.000000 0.000000 0.048609 0.000000 0.028916
# 5 0.022352 -0.014264 0.001172 0.000000 0.047235 0.000000
# 6 0.000000 0.000000 0.000000 0.028916 0.000000 0.079919
#
#
# Mechanical properties :
#
#
# Convention : Reuss Voigt Hill
#
# Bulk Modulus (GPa) = 35.18807 40.38508 37.78657
# Shear Modulus (GPa) = 16.89576 25.89607 21.39591
#
# Velocity S-wave (km/s) = 2.93729 3.63643 3.30539
# Velocity P-wave (km/s) = 5.42882 6.18496 5.81918
#
# Compressibility (1/GPa) = 0.02841872
#
# Stress axis : x y z
#
# Youngs Moduli (GPa) = 27.46784 43.79186 96.93705
#
# Poissons Ratio (x) = 0.78882 -0.07385
# Poissons Ratio (y) = 0.49477 0.32167
# Poissons Ratio (z) = -0.02092 0.14532
#
# Static dielectric constant tensor:
#      x y z
#    x 1.697310 0.000000 -0.012820 
#    y 0.000000 1.648120 0.000000 
#    z -0.012820 0.000000 1.697980 
# 
# From -- ./inp_files/61229.got.cif
#   From: 2010.05.17/outbox.cif.g08.bks.cpg/sg10_31_cif.got.tgz:61229.got - 2010.06.03 11:33:40.
