data_PCOD9153441
_publ_section_title
;
Structure prediction by ZEFSAII (Michael W. Deem and Ramdas Pophale) SiO2 
 PCOD9153441
Probable space group: P 2/M
;
_chemical_formula_sum "Si O2"
_cell_formula_units_Z 14
_cell_length_a 20.028050
_cell_length_b 5.706580
_cell_length_c 4.661359
_cell_angle_alpha 90.000000
_cell_angle_beta 81.270613
_cell_angle_gamma 90.000000
_cell_volume 526.583168
_symmetry_space_group_name_H-M "P 2/M"
_symmetry_group_IT_number 10
_symmetry_cell_setting 'monoclinic'
loop_
_space_group_symop_operation_xyz
x,y,z
-x,y,-z
-x,-y,-z
x,-y,z
loop_
_atom_site_type_symbol
_atom_site_label
_atom_site_fract_x
_atom_site_fract_y
_atom_site_fract_z
Si Si1 0.933394 0.749883 0.241453
Si Si2 0.799953 0.749831 0.934265
Si Si3 0.334158 0.750005 0.590890
Si Si4 0.553064 0.000000 0.214030
O O1 0.932903 0.500000 0.403745
O O2 0.932922 0.000000 0.403055
O O3 0.867626 0.749498 0.081315
O O4 0.000000 0.749825 0.000000
O O5 0.797819 0.500000 0.773260
O O6 0.798436 0.000000 0.774184
O O7 0.735519 0.749691 0.186847
O O8 0.340595 0.500000 0.435123
O O9 0.395744 0.783317 0.774336
O O10 0.337770 0.000000 0.421354
O O11 0.500000 0.000000 0.500000
O O12 0.500000 0.000000 0.000000
#
# Coordination Sequence:
#
# PCOD9153441 Si02
#       4
#     4   4   4   2
#     4   8  12  16  24  42  70 106 146 188 232 279
#     4   8  12  20  34  52  78 114 154 194 239 290
#     4   8  16  30  48  70  96 130 168 209 256 309
#     4  10  22  38  58  82 109 140 177 220 270 322
#
# _framework density 26.586487999999999
#
# number of rings (size 3 to 8) (size 9 to 14) (size 15 to 20)
#    0.857    2.857    0.000    0.000    0.000    1.143 
#    0.000    0.000    0.000    0.000    0.000    0.000 
#    0.000    0.000    0.000    5.143    0.000   44.571 
#
# Total GULP energy -78098.857488 kJ/mol
# GULP energy per Si atom -5578.489821 kJ/mol
# Density = 2.652598 g / cm^3
# Si number density = 26.586488 Si / 1000 Ang^3
#
#
#
# Elastic Constant Matrix: (Units=GPa)
#
#
# Indices 1 2 3 4 5 6 
#
# 1 258.0938 -6.0572 47.2675 0.0000 14.3114 0.0000
# 2 -6.0572 366.4944 12.8268 0.0000 0.2898 0.0000
# 3 47.2675 12.8268 66.6747 0.0000 0.0534 0.0000
# 4 0.0000 0.0000 0.0000 -14.5490 0.0000 -16.8644
# 5 14.3114 0.2898 0.0534 0.0000 45.2211 0.0000
# 6 0.0000 0.0000 0.0000 -16.8644 0.0000 41.6125
#
#
#
# Elastic Compliance Matrix: (Units=1/GPa)
#
#
# Indices 1 2 3 4 5 6 
#
# 1 0.004557 0.000191 -0.003266 0.000000 -0.001440 0.000000
# 2 0.000191 0.002755 -0.000665 0.000000 -0.000077 0.000000
# 3 -0.003266 -0.000665 0.017441 0.000000 0.001017 0.000000
# 4 0.000000 0.000000 0.000000 -0.046765 0.000000 -0.018952
# 5 -0.001440 -0.000077 0.001017 0.000000 0.022568 0.000000
# 6 0.000000 0.000000 0.000000 -0.018952 0.000000 0.016350
#
#
# Mechanical properties :
#
#
# Convention : Reuss Voigt Hill
#
# Bulk Modulus (GPa) = 57.89803 88.81525 73.35664
# Shear Modulus (GPa) = 165.86339 56.93865 111.40102
#
# Velocity S-wave (km/s) = 7.90707 4.63280 6.48015
# Velocity P-wave (km/s) = 10.25607 7.88009 9.14557
#
# Compressibility (1/GPa) = 0.01727175
#
# Stress axis : x y z
#
# Youngs Moduli (GPa) = 219.44139 362.96993 57.33676
#
# Poissons Ratio (x) = -0.06924 0.18727
# Poissons Ratio (y) = -0.04186 0.03814
# Poissons Ratio (z) = 0.71673 0.24144
#
# Static dielectric constant tensor:
#      x y z
#    x 1.988370 0.000000 -0.004500 
#    y 0.000000 2.211750 0.000000 
#    z -0.004500 0.000000 1.927070 
# 
# From -- ./inp_files/10272.got.cif
#   From: 2010.05.17/outbox.cif.g08.bks.cpg/sg10_6_cif.got.tgz:10272.got - 2010.06.03 11:33:40.
