data_PCOD9153500
_publ_section_title
;
Structure prediction by ZEFSAII (Michael W. Deem and Ramdas Pophale) SiO2 
 PCOD9153500
Probable space group: P 2/M
;
_chemical_formula_sum "Si O2"
_cell_formula_units_Z 29
_cell_length_a 14.409036
_cell_length_b 9.542569
_cell_length_c 12.095666
_cell_angle_alpha 90.000000
_cell_angle_beta 67.460627
_cell_angle_gamma 90.000000
_cell_volume 1536.107566
_symmetry_space_group_name_H-M "P 2/M"
_symmetry_group_IT_number 10
_symmetry_cell_setting 'monoclinic'
loop_
_space_group_symop_operation_xyz
x,y,z
-x,y,-z
-x,-y,-z
x,-y,z
loop_
_atom_site_type_symbol
_atom_site_label
_atom_site_fract_x
_atom_site_fract_y
_atom_site_fract_z
Si Si1 0.778848 0.830325 0.787640
Si Si2 0.661193 0.744286 0.372063
Si Si3 0.855622 0.667542 0.143390
Si Si4 0.319535 0.167104 0.390441
Si Si5 0.076061 0.669698 0.128622
Si Si6 0.388618 0.336085 0.997538
Si Si7 0.457246 0.842290 0.767140
Si Si8 0.500000 0.500000 0.500000
O O1 0.760381 0.795076 0.667075
O O2 0.877035 0.757364 0.793277
O O3 0.687006 0.756794 0.895367
O O4 0.778187 0.000000 0.801297
O O5 0.759175 0.715147 0.254058
O O6 0.697309 0.786386 0.477309
O O7 0.595554 0.849064 0.327575
O O8 0.583087 0.619380 0.426727
O O9 0.854250 0.500000 0.140645
O O10 0.960200 0.705274 0.155916
O O11 0.863802 0.710782 0.011196
O O12 0.430134 0.215706 0.300892
O O13 0.326266 0.000000 0.388331
O O14 0.084282 0.500000 0.140422
O O15 0.357239 0.500000 0.005454
O O16 0.500000 0.331744 0.000000
O O17 0.399134 0.263979 0.873342
O O18 0.461187 0.000000 0.813623
#
# Coordination Sequence:
#
# PCOD9153500 Si02
#       8
#     4   4   4   4   4   4   4   1
#     4  11  22  39  60  84 118 159 200 248 301 358
#     4  12  22  38  56  89 122 159 200 250 297 357
#     4   9  19  37  64  86 120 152 194 242 311 361
#     4  10  22  39  56  76 114 164 200 238 291 357
#     4   9  19  40  64  92 113 152 195 252 303 362
#     4  11  23  36  55  85 119 155 196 245 302 360
#     4  11  22  37  59  82 115 160 204 246 293 359
#     4  12  24  32  54  90 128 160 194 246 300 348
#
# _framework density 18.878888
#
# number of rings (size 3 to 8) (size 9 to 14) (size 15 to 20)
#    0.000    1.517    3.448    2.897    0.966    2.759 
#    2.483    4.138    0.000    3.310    0.000    0.000 
#    0.000    0.000    0.000    0.000    0.000    0.000 
#
# Total GULP energy -161526.826647 kJ/mol
# GULP energy per Si atom -5569.890574 kJ/mol
# Density = 1.883592 g / cm^3
# Si number density = 18.878888 Si / 1000 Ang^3
#
#
#
# Elastic Constant Matrix: (Units=GPa)
#
#
# Indices 1 2 3 4 5 6 
#
# 1 105.4113 31.6821 44.0302 0.0000 18.3751 0.0000
# 2 31.6821 65.7519 22.9963 0.0000 15.0960 0.0000
# 3 44.0302 22.9963 81.8438 0.0000 13.9711 0.0000
# 4 0.0000 0.0000 0.0000-1912.5933 0.0000-1046.6044
# 5 18.3751 15.0960 13.9711 0.0000 38.4857 0.0000
# 6 0.0000 0.0000 0.0000-1046.6044 0.0000 -541.5031
#
#
#
# Elastic Compliance Matrix: (Units=1/GPa)
#
#
# Indices 1 2 3 4 5 6 
#
# 1 0.013532 -0.003866 -0.005703 0.000000 -0.002874 0.000000
# 2 -0.003866 0.019015 -0.002457 0.000000 -0.004721 0.000000
# 3 -0.005703 -0.002457 0.016361 0.000000 -0.002253 0.000000
# 4 0.000000 0.000000 0.000000 0.009070 0.000000 -0.017529
# 5 -0.002874 -0.004721 -0.002253 0.000000 0.030025 0.000000
# 6 0.000000 0.000000 0.000000 -0.017529 0.000000 0.032034
#
#
# Mechanical properties :
#
#
# Convention : Reuss Voigt Hill
#
# Bulk Modulus (GPa) = 40.23162 50.04713 45.13937
# Shear Modulus (GPa) = 32.81416 -472.83557 -220.01070
#
# Velocity S-wave (km/s) = 4.17362 -15.84301 -10.80699
# Velocity P-wave (km/s) = 6.67699 17.55280 11.47865
#
# Compressibility (1/GPa) = 0.02485607
#
# Stress axis : x y z
#
# Youngs Moduli (GPa) = 73.90104 52.59131 61.11942
#
# Poissons Ratio (x) = 0.20330 0.34856
# Poissons Ratio (y) = 0.28568 0.15018
# Poissons Ratio (z) = 0.42145 0.12923
#
# Static dielectric constant tensor:
#      x y z
#    x 1.632030 0.000000 0.096760 
#    y 0.000000 1.651030 0.000000 
#    z 0.096760 0.000000 1.557330 
# 
# From -- ./inp_files/49707.got.cif
#   From: 2010.05.17/outbox.cif.g08.bks.cpg/sg10_25_cif.got.tgz:49707.got - 2010.06.03 11:33:40.
