data_PCOD9153103
_publ_section_title
;
Structure prediction by ZEFSAII (Michael W. Deem and Ramdas Pophale) SiO2 
 PCOD9153103
Probable space group: P 2/M
;
_chemical_formula_sum "Si O2"
_cell_formula_units_Z 30
_cell_length_a 16.586116
_cell_length_b 17.835458
_cell_length_c 14.148265
_cell_angle_alpha 90.000000
_cell_angle_beta 18.132643
_cell_angle_gamma 90.000000
_cell_volume 1302.557003
_symmetry_space_group_name_H-M "P 2/M"
_symmetry_group_IT_number 10
_symmetry_cell_setting 'monoclinic'
loop_
_space_group_symop_operation_xyz
x,y,z
-x,y,-z
-x,-y,-z
x,-y,z
loop_
_atom_site_type_symbol
_atom_site_label
_atom_site_fract_x
_atom_site_fract_y
_atom_site_fract_z
Si Si1 0.993001 0.861521 0.608124
Si Si2 0.608243 0.712287 0.474156
Si Si3 0.488567 0.779055 0.783763
Si Si4 0.877938 0.085511 0.328429
Si Si5 0.268151 0.582682 0.536903
Si Si6 0.743656 0.708567 0.668636
Si Si7 0.873620 0.582969 0.801557
Si Si8 0.000000 0.155150 0.000000
O O1 0.008719 0.904630 0.690930
O O2 0.000000 0.904165 0.500000
O O3 0.204629 0.795541 0.364205
O O4 0.740113 0.810845 0.900357
O O5 0.500000 0.678424 0.500000
O O6 0.401460 0.741066 0.782897
O O7 0.772780 0.650209 0.344948
O O8 0.763577 0.786822 0.273641
O O9 0.658307 0.720918 0.654774
O O10 0.656157 0.852171 0.574347
O O11 0.034326 0.107007 0.058281
O O12 0.789846 0.000000 0.417435
O O13 0.260696 0.500000 0.591047
O O14 0.044350 0.582530 0.707315
O O15 0.565775 0.588307 0.164160
O O16 0.990978 0.653754 0.401374
O O17 0.500000 0.679218 0.000000
O O18 0.916091 0.500000 0.709837
#
# Coordination Sequence:
#
# PCOD9153103 Si02
#       8
#     4   4   4   4   4   4   4   2
#     4  11  22  38  64  93 129 165 219 269 325 397
#     4  11  22  36  63  90 123 164 218 270 331 392
#     4  10  21  40  58  90 125 163 211 267 319 391
#     4  10  23  41  65  92 128 169 209 263 335 406
#     4  10  22  40  62  89 131 177 222 276 340 399
#     4  11  21  35  62  90 122 168 216 270 325 384
#     4  10  22  40  62  92 131 178 225 280 338 397
#     4  10  23  42  63  96 126 164 216 278 329 400
#
# _framework density 23.031621999999999
#
# number of rings (size 3 to 8) (size 9 to 14) (size 15 to 20)
#    0.000    1.600    2.667    1.800    1.867    1.333 
#    0.000    1.000    0.000    7.200    0.000    0.000 
#    0.000    0.000    0.000    0.000    0.000    0.000 
#
# Total GULP energy -167279.285086 kJ/mol
# GULP energy per Si atom -5575.976170 kJ/mol
# Density = 2.297920 g / cm^3
# Si number density = 23.031622 Si / 1000 Ang^3
#
#
#
# Elastic Constant Matrix: (Units=GPa)
#
#
# Indices 1 2 3 4 5 6 
#
# 1 135.4582 36.6084 25.7485 0.0000 28.0122 0.0000
# 2 36.6084 121.6644 4.9049 0.0000 11.2310 0.0000
# 3 25.7485 4.9049 62.7339 0.0000 5.0448 0.0000
# 4 0.0000 0.0000 0.0000 -18.1116 0.0000 15.0247
# 5 28.0122 11.2310 5.0448 0.0000 36.2807 0.0000
# 6 0.0000 0.0000 0.0000 15.0247 0.0000 1.9772
#
#
#
# Elastic Compliance Matrix: (Units=1/GPa)
#
#
# Indices 1 2 3 4 5 6 
#
# 1 0.009994 -0.002266 -0.003399 0.000000 -0.006542 0.000000
# 2 -0.002266 0.008988 0.000314 0.000000 -0.001076 0.000000
# 3 -0.003399 0.000314 0.017301 0.000000 0.000121 0.000000
# 4 0.000000 0.000000 0.000000 -0.007560 0.000000 0.057444
# 5 -0.006542 -0.001076 0.000121 0.000000 0.032930 0.000000
# 6 0.000000 0.000000 0.000000 0.057444 0.000000 0.069246
#
#
# Mechanical properties :
#
#
# Convention : Reuss Voigt Hill
#
# Bulk Modulus (GPa) = 39.09148 50.48669 44.78908
# Shear Modulus (GPa) = 33.30492 20.86891 27.08692
#
# Velocity S-wave (km/s) = 3.80682 3.01341 3.43312
# Velocity P-wave (km/s) = 6.02763 5.83744 5.93330
#
# Compressibility (1/GPa) = 0.02558102
#
# Stress axis : x y z
#
# Youngs Moduli (GPa) = 100.06345 111.26070 57.80032
#
# Poissons Ratio (x) = 0.25213 0.19644
# Poissons Ratio (y) = 0.22676 -0.01815
# Poissons Ratio (z) = 0.34007 -0.03493
#
# Static dielectric constant tensor:
#      x y z
#    x 1.958840 0.000000 0.022640 
#    y 0.000000 1.856890 0.000000 
#    z 0.022640 0.000000 1.932590 
# 
# From -- ./inp_files/69388.got.cif
#   From: 2010.05.17/outbox.cif.g08.bks.cpg/sg10_35_cif.got.tgz:69388.got - 2010.06.03 11:33:40.
