data_PCOD9153716
_publ_section_title
;
Structure prediction by ZEFSAII (Michael W. Deem and Ramdas Pophale) SiO2 
 PCOD9153716
Probable space group: P 2/M
;
_chemical_formula_sum "Si O2"
_cell_formula_units_Z 24
_cell_length_a 13.332271
_cell_length_b 23.944576
_cell_length_c 11.331931
_cell_angle_alpha 90.000000
_cell_angle_beta 22.093404
_cell_angle_gamma 90.000000
_cell_volume 1360.626290
_symmetry_space_group_name_H-M "P 2/M"
_symmetry_group_IT_number 10
_symmetry_cell_setting 'monoclinic'
loop_
_space_group_symop_operation_xyz
x,y,z
-x,y,-z
-x,-y,-z
x,-y,z
loop_
_atom_site_type_symbol
_atom_site_label
_atom_site_fract_x
_atom_site_fract_y
_atom_site_fract_z
Si Si1 0.287070 0.621073 0.125374
Si Si2 0.753428 0.000000 0.858634
Si Si3 0.500000 0.899370 0.000000
Si Si4 0.723600 0.189841 0.592438
Si Si5 0.714536 0.881678 0.370907
Si Si6 0.473613 0.000000 0.387732
Si Si7 0.290054 0.500000 0.122591
Si Si8 0.187156 0.259601 0.179589
O O1 0.331504 0.560423 0.017027
O O2 0.268596 0.676269 0.065641
O O3 0.000000 0.616932 0.500000
O O4 0.500000 0.629644 0.000000
O O5 0.000000 0.000000 0.500000
O O6 0.610572 0.057687 0.976674
O O7 0.739336 0.000000 0.016393
O O8 0.286236 0.859087 0.297433
O O9 0.687294 0.162537 0.504524
O O10 0.994290 0.225732 0.302290
O O11 0.461980 0.227215 0.900456
O O12 0.500000 0.875127 0.500000
O O13 0.680373 0.942737 0.466798
O O14 0.000000 0.878122 0.000000
O O15 0.500000 0.000000 0.500000
O O16 0.000000 0.500000 0.500000
O O17 0.500000 0.500000 0.000000
O O18 0.000000 0.261090 0.500000
#
# Coordination Sequence:
#
# PCOD9153716 Si02
#       8
#     4   2   2   4   4   2   2   4
#     4   9  16  27  42  67 102 144 187 222 253 304
#     4  11  25  41  59  81 113 140 173 236 286 339
#     4  11  24  38  52  82 108 137 176 208 286 335
#     4  12  23  37  58  79 108 143 177 223 268 332
#     4  11  24  43  61  80 102 137 180 227 275 333
#     4  10  22  41  61  85 103 139 184 228 278 338
#     4   8  14  24  40  60  94 144 190 220 250 292
#     4  11  20  32  50  79 109 142 178 217 264 316
#
# _framework density 17.638935
#
# number of rings (size 3 to 8) (size 9 to 14) (size 15 to 20)
#    0.000    1.500    3.333    3.250    2.333    2.667 
#    0.000    0.000    0.000    0.000    0.000    0.000 
#    0.000    0.000    0.000   15.000    0.000    1.833 
#
# Total GULP energy -133690.057849 kJ/mol
# GULP energy per Si atom -5570.419077 kJ/mol
# Density = 1.759879 g / cm^3
# Si number density = 17.638935 Si / 1000 Ang^3
#
#
#
# Elastic Constant Matrix: (Units=GPa)
#
#
# Indices 1 2 3 4 5 6 
#
# 1 70.8652 42.5018 30.7468 0.0000 -4.9400 0.0000
# 2 42.5018 163.5172 23.4697 0.0000 -4.6795 0.0000
# 3 30.7468 23.4697 79.8843 0.0000 -5.2587 0.0000
# 4 0.0000 0.0000 0.0000 16.7741 0.0000 -10.9486
# 5 -4.9400 -4.6795 -5.2587 0.0000 38.4911 0.0000
# 6 0.0000 0.0000 0.0000 -10.9486 0.0000 19.0339
#
#
#
# Elastic Compliance Matrix: (Units=1/GPa)
#
#
# Indices 1 2 3 4 5 6 
#
# 1 0.019325 -0.004107 -0.006156 0.000000 0.001140 0.000000
# 2 -0.004107 0.007268 -0.000536 0.000000 0.000283 0.000000
# 3 -0.006156 -0.000536 0.015125 0.000000 0.001211 0.000000
# 4 0.000000 0.000000 0.000000 0.095454 0.000000 0.054907
# 5 0.001140 0.000283 0.001211 0.000000 0.026326 0.000000
# 6 0.000000 0.000000 0.000000 0.054907 0.000000 0.084121
#
#
# Mechanical properties :
#
#
# Convention : Reuss Voigt Hill
#
# Bulk Modulus (GPa) = 49.70312 56.41148 53.05730
# Shear Modulus (GPa) = 18.12095 29.36307 23.74201
#
# Velocity S-wave (km/s) = 3.20867 4.08447 3.67277
# Velocity P-wave (km/s) = 6.47817 7.36848 6.93762
#
# Compressibility (1/GPa) = 0.02011946
#
# Stress axis : x y z
#
# Youngs Moduli (GPa) = 51.74670 137.58870 66.11631
#
# Poissons Ratio (x) = 0.56504 0.40704
# Poissons Ratio (y) = 0.21251 0.03544
# Poissons Ratio (z) = 0.31857 0.07375
#
# Static dielectric constant tensor:
#      x y z
#    x 1.708160 0.000000 0.084580 
#    y 0.000000 1.682260 0.000000 
#    z 0.084580 0.000000 1.719950 
# 
# From -- ./inp_files/52102.got.cif
#   From: 2010.05.17/outbox.cif.g08.bks.cpg/sg10_27_cif.got.tgz:52102.got - 2010.06.03 11:33:40.
