data_PCOD9153539
_publ_section_title
;
Structure prediction by ZEFSAII (Michael W. Deem and Ramdas Pophale) SiO2 
 PCOD9153539
Probable space group: P 2/M
;
_chemical_formula_sum "Si O2"
_cell_formula_units_Z 28
_cell_length_a 6.039295
_cell_length_b 17.739596
_cell_length_c 13.431943
_cell_angle_alpha 90.000000
_cell_angle_beta 72.166689
_cell_angle_gamma 90.000000
_cell_volume 1369.883497
_symmetry_space_group_name_H-M "P 2/M"
_symmetry_group_IT_number 10
_symmetry_cell_setting 'monoclinic'
loop_
_space_group_symop_operation_xyz
x,y,z
-x,y,-z
-x,-y,-z
x,-y,z
loop_
_atom_site_type_symbol
_atom_site_label
_atom_site_fract_x
_atom_site_fract_y
_atom_site_fract_z
Si Si1 0.125835 0.415217 0.082197
Si Si2 0.721495 0.414930 0.301193
Si Si3 0.446243 0.089451 0.125178
Si Si4 0.810626 0.795320 0.108674
Si Si5 0.921718 0.798580 0.735565
Si Si6 0.561963 0.324476 0.816952
Si Si7 0.785689 0.719408 0.448528
O O1 0.206574 0.500000 0.045549
O O2 0.322766 0.367796 0.108199
O O3 0.935131 0.419865 0.195362
O O4 0.000000 0.385349 0.000000
O O5 0.668069 0.500000 0.344050
O O6 0.522236 0.380929 0.257033
O O7 0.781877 0.355339 0.378998
O O8 0.663433 0.129248 0.149012
O O9 0.217097 0.128505 0.204118
O O10 0.437296 0.000000 0.136341
O O11 0.500000 0.106946 0.000000
O O12 0.632786 0.729455 0.108851
O O13 0.941161 0.768640 0.188021
O O14 0.000000 0.810638 0.000000
O O15 0.728783 0.735789 0.740010
O O16 0.111109 0.793520 0.622729
O O17 0.500000 0.731200 0.500000
O O18 0.000000 0.706781 0.500000
#
# Coordination Sequence:
#
# PCOD9153539 Si02
#       7
#     4   4   4   4   4   4   4
#     4  10  22  39  59  88 127 177 225 277 354 429
#     4  11  24  42  65  96 132 174 231 302 372 429
#     4  10  22  40  67 105 148 182 211 259 337 426
#     4  11  22  36  62 101 135 180 224 270 336 420
#     4  11  23  42  65  98 135 179 227 279 342 418
#     4  11  21  39  61  89 135 179 230 284 343 415
#     4  12  27  48  73 101 136 184 248 314 371 417
#
# _framework density 20.439692999999998
#
# number of rings (size 3 to 8) (size 9 to 14) (size 15 to 20)
#    0.000    1.143    4.286    1.286    2.000    5.429 
#    0.000    2.143    0.000    2.143    0.000    0.000 
#    0.000    0.000    0.000    0.000    0.000    0.000 
#
# Total GULP energy -156101.796220 kJ/mol
# GULP energy per Si atom -5575.064151 kJ/mol
# Density = 2.039317 g / cm^3
# Si number density = 20.439693 Si / 1000 Ang^3
#
#
#
# Elastic Constant Matrix: (Units=GPa)
#
#
# Indices 1 2 3 4 5 6 
#
# 1 127.3482 51.3608 49.5704 0.0000 -3.5115 0.0000
# 2 51.3608 113.1982 35.3549 0.0000 -11.0376 0.0000
# 3 49.5704 35.3549 85.8945 0.0000 -8.3640 0.0000
# 4 0.0000 0.0000 0.0000 2.4320 0.0000 -20.4343
# 5 -3.5115 -11.0376 -8.3640 0.0000 38.0238 0.0000
# 6 0.0000 0.0000 0.0000 -20.4343 0.0000 8.3113
#
#
#
# Elastic Compliance Matrix: (Units=1/GPa)
#
#
# Indices 1 2 3 4 5 6 
#
# 1 0.011280 -0.003628 -0.005128 0.000000 -0.001139 0.000000
# 2 -0.003628 0.011466 -0.002385 0.000000 0.002469 0.000000
# 3 -0.005128 -0.002385 0.015808 0.000000 0.002311 0.000000
# 4 0.000000 0.000000 0.000000 -0.020917 0.000000 -0.051427
# 5 -0.001139 0.002469 0.002311 0.000000 0.027419 0.000000
# 6 0.000000 0.000000 0.000000 -0.051427 0.000000 -0.006121
#
#
# Mechanical properties :
#
#
# Convention : Reuss Voigt Hill
#
# Bulk Modulus (GPa) = 61.45254 66.55700 64.00477
# Shear Modulus (GPa) = 75.02879 22.43043 48.72961
#
# Velocity S-wave (km/s) = 6.06524 3.31629 4.88799
# Velocity P-wave (km/s) = 8.89831 6.87728 7.95226
#
# Compressibility (1/GPa) = 0.01627272
#
# Stress axis : x y z
#
# Youngs Moduli (GPa) = 88.65213 87.21617 63.25791
#
# Poissons Ratio (x) = 0.31639 0.32436
# Poissons Ratio (y) = 0.32160 0.15090
# Poissons Ratio (z) = 0.45457 0.20805
#
# Static dielectric constant tensor:
#      x y z
#    x 1.882110 0.000000 -0.050630 
#    y 0.000000 1.720420 0.000000 
#    z -0.050630 0.000000 1.795280 
# 
# From -- ./inp_files/59302.got.cif
#   From: 2010.05.17/outbox.cif.g08.bks.cpg/sg10_30_cif.got.tgz:59302.got - 2010.06.03 11:33:40.
