data_PCOD9153839
_publ_section_title
;
Structure prediction by ZEFSAII (Michael W. Deem and Ramdas Pophale) SiO2 
 PCOD9153839
Probable space group: P 2/M
;
_chemical_formula_sum "Si O2"
_cell_formula_units_Z 17
_cell_length_a 10.318202
_cell_length_b 15.008316
_cell_length_c 5.294811
_cell_angle_alpha 90.000000
_cell_angle_beta 113.790974
_cell_angle_gamma 90.000000
_cell_volume 750.271712
_symmetry_space_group_name_H-M "P 2/M"
_symmetry_group_IT_number 10
_symmetry_cell_setting 'monoclinic'
loop_
_space_group_symop_operation_xyz
x,y,z
-x,y,-z
-x,-y,-z
x,-y,z
loop_
_atom_site_type_symbol
_atom_site_label
_atom_site_fract_x
_atom_site_fract_y
_atom_site_fract_z
Si Si1 0.914600 0.606566 0.182492
Si Si2 0.915291 0.107516 0.179471
Si Si3 0.419228 0.857745 0.184837
Si Si4 0.608752 0.650934 0.879098
Si Si5 0.500000 0.500000 0.500000
O O1 0.889387 0.500000 0.148961
O O2 0.000000 0.624464 0.500000
O O3 0.766712 0.655333 0.099855
O O4 0.000000 0.633025 0.000000
O O5 0.000000 0.139040 0.500000
O O6 0.924435 0.000000 0.194752
O O7 0.748348 0.126684 0.995648
O O8 0.000000 0.140076 0.000000
O O9 0.500000 0.892322 0.500000
O O10 0.438729 0.750470 0.210627
O O11 0.500000 0.890956 0.000000
O O12 0.612589 0.580122 0.656025
O O13 0.500000 0.609882 0.000000
#
# Coordination Sequence:
#
# PCOD9153839 Si02
#       5
#     4   4   4   4   1
#     4  10  23  37  55  80 110 143 192 252 310 361
#     4  10  22  42  69  99 132 172 212 252 313 392
#     4  11  24  41  62  96 131 165 214 267 318 375
#     4  11  25  39  63  87 120 165 217 261 319 377
#     4  12  22  40  64  84 118 168 216 268 308 382
#
# _framework density 22.658456999999999
#
# number of rings (size 3 to 8) (size 9 to 14) (size 15 to 20)
#    0.000    1.412    2.353    1.765    3.294    2.824 
#    0.000    0.000    0.000    0.000    0.000    0.000 
#    0.000    0.000    0.000    0.000    0.000    0.000 
#
# Total GULP energy -94655.704610 kJ/mol
# GULP energy per Si atom -5567.982624 kJ/mol
# Density = 2.260689 g / cm^3
# Si number density = 22.658457 Si / 1000 Ang^3
#
#
#
# Elastic Constant Matrix: (Units=GPa)
#
#
# Indices 1 2 3 4 5 6 
#
# 1 175.0607 -12.0732 96.1098 0.0000 4.1641 0.0000
# 2 -12.0732 74.4043 7.2756 0.0000 -10.4884 0.0000
# 3 96.1098 7.2756 211.9741 0.0000 1.0547 0.0000
# 4 0.0000 0.0000 0.0000 8.5383 0.0000 14.6876
# 5 4.1641 -10.4884 1.0547 0.0000 38.5396 0.0000
# 6 0.0000 0.0000 0.0000 14.6876 0.0000 14.1937
#
#
#
# Elastic Compliance Matrix: (Units=1/GPa)
#
#
# Indices 1 2 3 4 5 6 
#
# 1 0.007798 0.001572 -0.003588 0.000000 -0.000317 0.000000
# 2 0.001572 0.014346 -0.001224 0.000000 0.003768 0.000000
# 3 -0.003588 -0.001224 0.006387 0.000000 -0.000120 0.000000
# 4 0.000000 0.000000 0.000000 -0.150144 0.000000 0.155368
# 5 -0.000317 0.003768 -0.000120 0.000000 0.027010 0.000000
# 6 0.000000 0.000000 0.000000 0.155368 0.000000 -0.090320
#
#
# Mechanical properties :
#
#
# Convention : Reuss Voigt Hill
#
# Bulk Modulus (GPa) = 45.35018 71.56260 58.45639
# Shear Modulus (GPa) = -29.22418 36.92943 3.85263
#
# Velocity S-wave (km/s) = -3.59523 4.04150 1.30537
# Velocity P-wave (km/s) = 1.68044 7.30958 5.30348
#
# Compressibility (1/GPa) = 0.02205063
#
# Stress axis : x y z
#
# Youngs Moduli (GPa) = 128.23651 69.70635 156.56823
#
# Poissons Ratio (x) = -0.10955 0.56177
# Poissons Ratio (y) = -0.20153 0.19159
# Poissons Ratio (z) = 0.46012 0.08530
#
# Static dielectric constant tensor:
#      x y z
#    x 1.779560 0.000000 -0.099280 
#    y 0.000000 1.842180 0.000000 
#    z -0.099280 0.000000 1.892420 
# 
# From -- ./inp_files/3973.got.cif
#   From: 2010.05.17/outbox.cif.g08.bks.cpg/sg10_2_cif.got.tgz:3973.got - 2010.06.03 11:33:40.
