data_PCOD9153851
_publ_section_title
;
Structure prediction by ZEFSAII (Michael W. Deem and Ramdas Pophale) SiO2 
 PCOD9153851
Probable space group: P 2/M
;
_chemical_formula_sum "Si O2"
_cell_formula_units_Z 28
_cell_length_a 16.439476
_cell_length_b 18.738673
_cell_length_c 9.578954
_cell_angle_alpha 90.000000
_cell_angle_beta 29.921801
_cell_angle_gamma 90.000000
_cell_volume 1471.928187
_symmetry_space_group_name_H-M "P 2/M"
_symmetry_group_IT_number 10
_symmetry_cell_setting 'monoclinic'
loop_
_space_group_symop_operation_xyz
x,y,z
-x,y,-z
-x,-y,-z
x,-y,z
loop_
_atom_site_type_symbol
_atom_site_label
_atom_site_fract_x
_atom_site_fract_y
_atom_site_fract_z
Si Si1 0.613507 0.810444 0.695235
Si Si2 0.535020 0.578654 0.176806
Si Si3 0.943183 0.264811 0.243947
Si Si4 0.449858 0.281452 0.725458
Si Si5 0.222305 0.416831 0.445925
Si Si6 0.149109 0.806648 0.174343
Si Si7 0.566512 0.918037 0.243241
O O1 0.796930 0.793910 0.468926
O O2 0.576807 0.742321 0.652891
O O3 0.555430 0.875387 0.680480
O O4 0.500000 0.812644 0.000000
O O5 0.555117 0.500000 0.201317
O O6 0.558035 0.634987 0.262582
O O7 0.358269 0.584798 0.366244
O O8 0.670180 0.590384 0.854950
O O9 0.889008 0.345228 0.373811
O O10 0.083596 0.228633 0.129307
O O11 0.000000 0.270904 0.000000
O O12 0.500000 0.252005 0.500000
O O13 0.280336 0.250628 0.031899
O O14 0.154246 0.500000 0.547833
O O15 0.000000 0.815579 0.500000
O O16 0.259808 0.877557 0.006030
O O17 0.500000 0.917051 0.500000
O O18 0.582846 0.000000 0.173404
#
# Coordination Sequence:
#
# PCOD9153851 Si02
#       7
#     4   4   4   4   4   4   4
#     4  11  21  38  63  86 112 150 199 237 269 334
#     4   9  17  32  56  80 104 146 202 249 286 335
#     4  12  22  34  57  87 117 147 191 246 290 332
#     4  11  21  36  57  82 117 152 194 243 291 344
#     4   9  18  33  54  80 111 151 196 242 295 341
#     4  11  23  38  57  86 119 153 186 227 290 347
#     4  10  22  43  66  87 118 155 186 226 286 348
#
# _framework density 19.022666999999998
#
# number of rings (size 3 to 8) (size 9 to 14) (size 15 to 20)
#    0.000    1.571    1.429    7.714    0.000    1.143 
#    0.000    1.429    0.000    5.143    0.000    0.000 
#    0.000    0.000    0.000    0.000    0.000    0.000 
#
# Total GULP energy -155999.339481 kJ/mol
# GULP energy per Si atom -5571.404981 kJ/mol
# Density = 1.897937 g / cm^3
# Si number density = 19.022667 Si / 1000 Ang^3
#
#
#
# Elastic Constant Matrix: (Units=GPa)
#
#
# Indices 1 2 3 4 5 6 
#
# 1 19.5529 17.4254 -0.6336 0.0000 6.8828 0.0000
# 2 17.4254 155.2230 27.5649 0.0000 0.2444 0.0000
# 3 -0.6336 27.5649 45.7533 0.0000 0.3860 0.0000
# 4 0.0000 0.0000 0.0000 23.3632 0.0000 8.0105
# 5 6.8828 0.2444 0.3860 0.0000 27.2087 0.0000
# 6 0.0000 0.0000 0.0000 8.0105 0.0000 23.7838
#
#
#
# Elastic Compliance Matrix: (Units=1/GPa)
#
#
# Indices 1 2 3 4 5 6 
#
# 1 0.064461 -0.008279 0.006018 0.000000 -0.016317 0.000000
# 2 -0.008279 0.008278 -0.005119 0.000000 0.002093 0.000000
# 3 0.006018 -0.005119 0.025039 0.000000 -0.001832 0.000000
# 4 0.000000 0.000000 0.000000 0.048390 0.000000 -0.016298
# 5 -0.016317 0.002093 -0.001832 0.000000 0.040888 0.000000
# 6 0.000000 0.000000 0.000000 -0.016298 0.000000 0.047535
#
#
# Mechanical properties :
#
#
# Convention : Reuss Voigt Hill
#
# Bulk Modulus (GPa) = 12.04575 34.36030 23.20302
# Shear Modulus (GPa) = 18.04902 26.61598 22.33250
#
# Velocity S-wave (km/s) = 3.08363 3.74461 3.43008
# Velocity P-wave (km/s) = 4.36170 6.06615 5.28311
#
# Compressibility (1/GPa) = 0.08301686
#
# Stress axis : x y z
#
# Youngs Moduli (GPa) = 15.51335 120.80792 39.93714
#
# Poissons Ratio (x) = 1.00022 -0.24036
# Poissons Ratio (y) = 0.12844 0.20445
# Poissons Ratio (z) = -0.09337 0.61845
#
# Static dielectric constant tensor:
#      x y z
#    x 2.314890 0.000000 -0.151440 
#    y 0.000000 1.685460 0.000000 
#    z -0.151440 0.000000 1.699280 
# 
# From -- ./inp_files/30363.got.cif
#   From: 2010.05.17/outbox.cif.g08.bks.cpg/sg10_16_cif.got.tgz:30363.got - 2010.06.03 11:33:40.
