data_PCOD9153684
_publ_section_title
;
Structure prediction by ZEFSAII (Michael W. Deem and Ramdas Pophale) SiO2 
 PCOD9153684
Probable space group: P 2/M
;
_chemical_formula_sum "Si O2"
_cell_formula_units_Z 32
_cell_length_a 30.345548
_cell_length_b 7.765531
_cell_length_c 12.816273
_cell_angle_alpha 90.000000
_cell_angle_beta 151.149018
_cell_angle_gamma 90.000000
_cell_volume 1457.320633
_symmetry_space_group_name_H-M "P 2/M"
_symmetry_group_IT_number 10
_symmetry_cell_setting 'monoclinic'
loop_
_space_group_symop_operation_xyz
x,y,z
-x,y,-z
-x,-y,-z
x,-y,z
loop_
_atom_site_type_symbol
_atom_site_label
_atom_site_fract_x
_atom_site_fract_y
_atom_site_fract_z
Si Si1 0.602723 0.699050 0.210489
Si Si2 0.097895 0.791742 0.660226
Si Si3 0.381047 0.799549 0.986531
Si Si4 0.776091 0.802555 0.686061
Si Si5 0.187564 0.296137 0.632974
Si Si6 0.254105 0.789074 0.144388
Si Si7 0.461672 0.789375 0.533105
Si Si8 0.096534 0.300059 0.233908
O O1 0.601021 0.500000 0.240897
O O2 0.633728 0.708347 0.154644
O O3 0.672689 0.795883 0.429502
O O4 0.500000 0.768183 0.000000
O O5 0.120682 0.736845 0.590320
O O6 0.000000 0.731766 0.500000
O O7 0.096968 0.000000 0.660450
O O8 0.180917 0.733840 0.906658
O O9 0.287655 0.783603 0.857990
O O10 0.396773 0.000000 0.995676
O O11 0.467851 0.732757 0.230885
O O12 0.776929 0.732824 0.804825
O O13 0.836476 0.707633 0.725589
O O14 0.807837 0.000000 0.753876
O O15 0.202444 0.500000 0.653012
O O16 0.144647 0.224877 0.436337
O O17 0.357679 0.733589 0.335768
O O18 0.255381 0.000000 0.148431
O O19 0.500000 0.735852 0.500000
O O20 0.462554 0.000000 0.536246
O O21 0.078672 0.500000 0.224073
O O22 0.000000 0.221092 0.000000
#
# Coordination Sequence:
#
# PCOD9153684 Si02
#       8
#     4   4   4   4   4   4   4   4
#     4  11  23  38  56  82 121 164 200 240 296 359
#     4  10  22  40  64  90 119 156 199 250 303 354
#     4  11  21  35  60  89 115 152 199 248 300 353
#     4  11  22  37  61  90 121 157 200 253 304 356
#     4  11  23  40  62  88 122 158 197 249 301 361
#     4   9  19  36  56  87 124 153 192 247 300 353
#     4   9  17  31  55  84 115 153 193 237 293 353
#     4  10  23  42  62  85 118 162 202 245 304 366
#
# _framework density 21.958105
#
# number of rings (size 3 to 8) (size 9 to 14) (size 15 to 20)
#    0.000    1.750    1.250    3.000    1.750    5.000 
#    0.000    1.250    0.000    8.250    0.000    0.000 
#    0.000    0.000    0.000    0.000    0.000    0.000 
#
# Total GULP energy -178907.557549 kJ/mol
# GULP energy per Si atom -5590.861173 kJ/mol
# Density = 2.190813 g / cm^3
# Si number density = 21.958105 Si / 1000 Ang^3
#
#
#
# Elastic Constant Matrix: (Units=GPa)
#
#
# Indices 1 2 3 4 5 6 
#
# 1 129.6515 -6.8463 52.5854 0.0000 -1.4633 0.0000
# 2 -6.8463 36.7542 7.7023 0.0000 -2.2549 0.0000
# 3 52.5854 7.7023 130.9873 0.0000 7.2078 0.0000
# 4 0.0000 0.0000 0.0000 3.7491 0.0000 41.8736
# 5 -1.4633 -2.2549 7.2078 0.0000 40.0580 0.0000
# 6 0.0000 0.0000 0.0000 41.8736 0.0000 -617.9517
#
#
#
# Elastic Compliance Matrix: (Units=1/GPa)
#
#
# Indices 1 2 3 4 5 6 
#
# 1 0.009509 0.002694 -0.004043 0.000000 0.001227 0.000000
# 2 0.002694 0.028448 -0.002876 0.000000 0.002217 0.000000
# 3 -0.004043 -0.002876 0.009538 0.000000 -0.002026 0.000000
# 4 0.000000 0.000000 0.000000 0.151824 0.000000 0.010288
# 5 0.001227 0.002217 -0.002026 0.000000 0.025498 0.000000
# 6 0.000000 0.000000 0.000000 0.010288 0.000000 -0.000921
#
#
# Mechanical properties :
#
#
# Convention : Reuss Voigt Hill
#
# Bulk Modulus (GPa) = 25.61211 44.91953 35.26582
# Shear Modulus (GPa) = 20.37801 -98.56548 -39.09374
#
# Velocity S-wave (km/s) = 3.04968 -6.70712 -4.22403
# Velocity P-wave (km/s) = 4.90817 6.28325 2.77390
#
# Compressibility (1/GPa) = 0.03904403
#
# Stress axis : x y z
#
# Youngs Moduli (GPa) = 105.16327 35.15136 104.84211
#
# Poissons Ratio (x) = -0.09469 0.42391
# Poissons Ratio (y) = -0.28330 0.30156
# Poissons Ratio (z) = 0.42521 0.10111
#
# Static dielectric constant tensor:
#      x y z
#    x 1.785450 0.000000 0.005510 
#    y 0.000000 1.819440 0.000000 
#    z 0.005510 0.000000 1.792810 
# 
# From -- ./inp_files/58225.got.cif
#   From: 2010.05.17/outbox.cif.g08.bks.cpg/sg10_30_cif.got.tgz:58225.got - 2010.06.03 11:33:40.
