data_PCOD9153874
_publ_section_title
;
Structure prediction by ZEFSAII (Michael W. Deem and Ramdas Pophale) SiO2 
 PCOD9153874
Probable space group: P 2/M
;
_chemical_formula_sum "Si O2"
_cell_formula_units_Z 29
_cell_length_a 12.396783
_cell_length_b 7.969759
_cell_length_c 15.550986
_cell_angle_alpha 90.000000
_cell_angle_beta 131.975751
_cell_angle_gamma 90.000000
_cell_volume 1142.223271
_symmetry_space_group_name_H-M "P 2/M"
_symmetry_group_IT_number 10
_symmetry_cell_setting 'monoclinic'
loop_
_space_group_symop_operation_xyz
x,y,z
-x,y,-z
-x,-y,-z
x,-y,z
loop_
_atom_site_type_symbol
_atom_site_label
_atom_site_fract_x
_atom_site_fract_y
_atom_site_fract_z
Si Si1 0.403615 0.813953 0.245545
Si Si2 0.596872 0.309365 0.938859
Si Si3 0.332721 0.801218 0.478414
Si Si4 0.890387 0.808163 0.172642
Si Si5 0.721137 0.302159 0.242686
Si Si6 0.901538 0.303181 0.865383
Si Si7 0.500000 0.500000 0.500000
Si Si8 0.129862 0.194199 0.516786
O O1 0.408272 0.690039 0.167652
O O2 0.535022 0.794596 0.381766
O O3 0.249304 0.793710 0.209539
O O4 0.413369 0.000000 0.213074
O O5 0.621436 0.500000 0.983757
O O6 0.435505 0.252458 0.878832
O O7 0.736280 0.205679 0.040917
O O8 0.375029 0.650058 0.438870
O O9 0.191693 0.750132 0.458782
O O10 0.324421 0.000000 0.445968
O O11 0.849062 0.733652 0.243451
O O12 0.008858 0.724660 0.174204
O O13 0.932930 0.000000 0.206824
O O14 0.713828 0.500000 0.256787
O O15 0.745722 0.205889 0.344521
O O16 0.871423 0.500000 0.860183
O O17 0.000000 0.250156 0.000000
O O18 0.000000 0.281397 0.500000
O O19 0.091475 0.000000 0.482105
#
# Coordination Sequence:
#
# PCOD9153874 Si02
#       8
#     4   4   4   4   4   4   1   4
#     4  11  22  38  65  94 127 171 216 264 318 385
#     4  11  22  37  63  92 129 169 217 268 320 379
#     4  10  24  46  71 103 139 172 222 284 337 408
#     4  12  25  40  60  91 132 174 218 269 329 385
#     4  11  24  41  64  94 130 168 217 271 325 391
#     4  11  23  39  61  87 125 171 218 266 314 380
#     4  12  26  44  78 102 134 174 226 272 354 406
#     4  10  22  44  72  99 133 174 219 274 341 407
#
# _framework density 25.389081999999998
#
# number of rings (size 3 to 8) (size 9 to 14) (size 15 to 20)
#    0.000    1.103    2.759    3.517    2.897    4.138 
#    2.483    0.000    0.000    0.000    0.000    0.000 
#    0.000    0.000    0.000    0.000    0.000    0.000 
#
# Total GULP energy -162086.030593 kJ/mol
# GULP energy per Si atom -5589.173469 kJ/mol
# Density = 2.533130 g / cm^3
# Si number density = 25.389082 Si / 1000 Ang^3
#
#
#
# Elastic Constant Matrix: (Units=GPa)
#
#
# Indices 1 2 3 4 5 6 
#
# 1 173.5595 27.0330 0.1297 0.0000 -3.2350 0.0000
# 2 27.0330 91.3261 17.9315 0.0000 -7.0450 0.0000
# 3 0.1297 17.9315 67.0748 0.0000 0.5599 0.0000
# 4 0.0000 0.0000 0.0000 -39.8436 0.0000 38.0457
# 5 -3.2350 -7.0450 0.5599 0.0000 40.9948 0.0000
# 6 0.0000 0.0000 0.0000 38.0457 0.0000 -0.5118
#
#
#
# Elastic Compliance Matrix: (Units=1/GPa)
#
#
# Indices 1 2 3 4 5 6 
#
# 1 0.006057 -0.001877 0.000489 0.000000 0.000149 0.000000
# 2 -0.001877 0.012309 -0.003304 0.000000 0.002012 0.000000
# 3 0.000489 -0.003304 0.015797 0.000000 -0.000745 0.000000
# 4 0.000000 0.000000 0.000000 0.000359 0.000000 0.026660
# 5 0.000149 0.002012 -0.000745 0.000000 0.024761 0.000000
# 6 0.000000 0.000000 0.000000 0.026660 0.000000 0.027920
#
#
# Mechanical properties :
#
#
# Convention : Reuss Voigt Hill
#
# Bulk Modulus (GPa) = 40.35741 46.90544 43.63142
# Shear Modulus (GPa) = 47.68867 19.25228 33.47048
#
# Velocity S-wave (km/s) = 4.33865 2.75669 3.63478
# Velocity P-wave (km/s) = 6.40536 5.35231 5.90237
#
# Compressibility (1/GPa) = 0.02477860
#
# Stress axis : x y z
#
# Youngs Moduli (GPa) = 165.11134 81.23867 63.30217
#
# Poissons Ratio (x) = 0.15251 -0.03095
# Poissons Ratio (y) = 0.30996 0.20914
# Poissons Ratio (z) = -0.08072 0.26841
#
# Static dielectric constant tensor:
#      x y z
#    x 2.042990 0.000000 0.011460 
#    y 0.000000 1.902130 0.000000 
#    z 0.011460 0.000000 2.082580 
# 
# From -- ./inp_files/63966.got.cif
#   From: 2010.05.17/outbox.cif.g08.bks.cpg/sg10_32_cif.got.tgz:63966.got - 2010.06.03 11:33:40.
