data_PCOD9153549
_publ_section_title
;
Structure prediction by ZEFSAII (Michael W. Deem and Ramdas Pophale) SiO2 
 PCOD9153549
Probable space group: P 2/M
;
_chemical_formula_sum "Si O2"
_cell_formula_units_Z 32
_cell_length_a 8.892528
_cell_length_b 19.856630
_cell_length_c 12.301546
_cell_angle_alpha 90.000000
_cell_angle_beta 136.684468
_cell_angle_gamma 90.000000
_cell_volume 1490.131108
_symmetry_space_group_name_H-M "P 2/M"
_symmetry_group_IT_number 10
_symmetry_cell_setting 'monoclinic'
loop_
_space_group_symop_operation_xyz
x,y,z
-x,y,-z
-x,-y,-z
x,-y,z
loop_
_atom_site_type_symbol
_atom_site_label
_atom_site_fract_x
_atom_site_fract_y
_atom_site_fract_z
Si Si1 0.094987 0.806040 0.165058
Si Si2 0.824971 0.071040 0.113047
Si Si3 0.453090 0.325732 0.595146
Si Si4 0.751898 0.748016 0.319630
Si Si5 0.995358 0.678235 0.268060
Si Si6 0.870630 0.576010 0.820183
Si Si7 0.646092 0.101421 0.235556
Si Si8 0.449643 0.922951 0.345727
O O1 0.073470 0.743951 0.238597
O O2 0.308175 0.853880 0.254205
O O3 0.943993 0.863802 0.134839
O O4 0.000000 0.781370 0.000000
O O5 0.815550 0.072450 0.238404
O O6 0.924300 0.000000 0.130929
O O7 0.585765 0.075868 0.932985
O O8 0.500000 0.293837 0.500000
O O9 0.422523 0.278229 0.683013
O O10 0.201674 0.348515 0.448115
O O11 0.643932 0.380867 0.708869
O O12 0.666417 0.818926 0.233599
O O13 0.000000 0.758081 0.500000
O O14 0.798971 0.698859 0.243441
O O15 0.965139 0.617370 0.170538
O O16 0.822326 0.500000 0.757443
O O17 0.000000 0.572920 0.000000
O O18 0.648763 0.084801 0.364373
O O19 0.500000 0.921711 0.500000
O O20 0.366525 0.000000 0.279238
#
# Coordination Sequence:
#
# PCOD9153549 Si02
#       8
#     4   4   4   4   4   4   4   4
#     4  12  24  40  64  88 119 161 213 267 320 380
#     4  11  23  40  60  84 117 164 216 266 327 388
#     4   9  21  38  66  93 127 166 205 252 307 364
#     4  10  22  39  60  91 123 163 208 264 311 373
#     4  10  22  40  61  95 129 162 213 253 310 369
#     4  10  22  42  69 100 134 167 205 247 295 364
#     4  11  22  37  61  83 120 160 213 266 327 381
#     4  11  26  40  57  88 123 162 213 272 336 391
#
# _framework density 21.474622
#
# number of rings (size 3 to 8) (size 9 to 14) (size 15 to 20)
#    0.000    1.500    2.500    2.250    7.000    3.750 
#    0.000    0.625    0.000   10.875    0.000    0.000 
#    0.000    0.000    0.000    0.000    0.000    0.000 
#
# Total GULP energy -178276.112310 kJ/mol
# GULP energy per Si atom -5571.128510 kJ/mol
# Density = 2.142574 g / cm^3
# Si number density = 21.474622 Si / 1000 Ang^3
#
#
#
# Elastic Constant Matrix: (Units=GPa)
#
#
# Indices 1 2 3 4 5 6 
#
# 1 103.9662 49.2701 29.3496 0.0000 -18.0447 0.0000
# 2 49.2701 132.6402 28.6835 0.0000 -4.5552 0.0000
# 3 29.3496 28.6835 48.3876 0.0000 -17.4465 0.0000
# 4 0.0000 0.0000 0.0000 -132.4950 0.0000 3.6338
# 5 -18.0447 -4.5552 -17.4465 0.0000 25.2815 0.0000
# 6 0.0000 0.0000 0.0000 3.6338 0.0000 22.9397
#
#
#
# Elastic Compliance Matrix: (Units=1/GPa)
#
#
# Indices 1 2 3 4 5 6 
#
# 1 0.013700 -0.004108 -0.003482 0.000000 0.006635 0.000000
# 2 -0.004108 0.010014 -0.005126 0.000000 -0.004666 0.000000
# 3 -0.003482 -0.005126 0.032733 0.000000 0.019179 0.000000
# 4 0.000000 0.000000 0.000000 -0.007515 0.000000 0.001190
# 5 0.006635 -0.004666 0.019179 0.000000 0.056685 0.000000
# 6 0.000000 0.000000 0.000000 0.001190 0.000000 0.043404
#
#
# Mechanical properties :
#
#
# Convention : Reuss Voigt Hill
#
# Bulk Modulus (GPa) = 32.24450 55.51117 43.87783
# Shear Modulus (GPa) = 27.05752 -5.00870 11.02441
#
# Velocity S-wave (km/s) = 3.55347 -1.52887 2.26822
# Velocity P-wave (km/s) = 5.64658 4.77380 5.22844
#
# Compressibility (1/GPa) = 0.03101304
#
# Stress axis : x y z
#
# Youngs Moduli (GPa) = 72.99283 99.86516 30.55050
#
# Poissons Ratio (x) = 0.41025 0.10638
# Poissons Ratio (y) = 0.29986 0.15661
# Poissons Ratio (z) = 0.25417 0.51194
#
# Static dielectric constant tensor:
#      x y z
#    x 1.847990 0.000000 0.009110 
#    y 0.000000 1.780120 0.000000 
#    z 0.009110 0.000000 1.852420 
# 
# From -- ./inp_files/43639.got.cif
#   From: 2010.05.17/outbox.cif.g08.bks.cpg/sg10_22_cif.got.tgz:43639.got - 2010.06.03 11:33:40.
