data_PCOD9153846
_publ_section_title
;
Structure prediction by ZEFSAII (Michael W. Deem and Ramdas Pophale) SiO2 
 PCOD9153846
Probable space group: P 2/M
;
_chemical_formula_sum "Si O2"
_cell_formula_units_Z 18
_cell_length_a 5.482420
_cell_length_b 27.756234
_cell_length_c 5.413437
_cell_angle_alpha 90.000000
_cell_angle_beta 77.497822
_cell_angle_gamma 90.000000
_cell_volume 804.236507
_symmetry_space_group_name_H-M "P 2/M"
_symmetry_group_IT_number 10
_symmetry_cell_setting 'monoclinic'
loop_
_space_group_symop_operation_xyz
x,y,z
-x,y,-z
-x,-y,-z
x,-y,z
loop_
_atom_site_type_symbol
_atom_site_label
_atom_site_fract_x
_atom_site_fract_y
_atom_site_fract_z
Si Si1 0.000000 0.639907 0.500000
Si Si2 0.000000 0.701383 0.000000
Si Si3 0.500000 0.237454 0.000000
Si Si4 0.288352 0.849321 0.352907
Si Si5 0.656993 0.447871 0.715922
Si Si6 0.160448 0.051566 0.212398
O O1 0.201236 0.601706 0.355562
O O2 0.951641 0.671669 0.265585
O O3 0.742845 0.731548 0.021942
O O4 0.393726 0.200596 0.226533
O O5 0.500000 0.864931 0.500000
O O6 0.275544 0.895410 0.177172
O O7 0.000000 0.841111 0.500000
O O8 0.500000 0.452035 0.500000
O O9 0.793934 0.500000 0.716523
O O10 0.500000 0.443311 0.000000
O O11 0.000000 0.053572 0.500000
O O12 0.300699 0.000000 0.206922
O O13 0.000000 0.048352 0.000000
#
# Coordination Sequence:
#
# PCOD9153846 Si02
#       6
#     2   2   2   4   4   4
#     4  12  27  48  72 110 142 204 235 320 352 456
#     4  12  32  48  81 100 155 188 262 304 390 406
#     4  12  30  52  71 110 135 200 244 330 354 458
#     4  11  26  46  77 104 142 190 242 304 373 447
#     4  10  22  42  73 110 151 193 239 295 360 438
#     4   9  20  40  68 105 146 185 232 291 363 446
#
# _framework density 22.38148
#
# number of rings (size 3 to 8) (size 9 to 14) (size 15 to 20)
#    0.000    1.333    0.000    3.000   17.111    0.444 
#    0.000    5.000    0.000    0.000    0.000    0.000 
#    0.000    0.000    0.000    0.000    0.000    0.000 
#
# Total GULP energy -100273.892582 kJ/mol
# GULP energy per Si atom -5570.771810 kJ/mol
# Density = 2.233054 g / cm^3
# Si number density = 22.381480 Si / 1000 Ang^3
#
#
#
# Elastic Constant Matrix: (Units=GPa)
#
#
# Indices 1 2 3 4 5 6 
#
# 1 123.8997 71.6962 54.9787 0.0000 -14.0497 0.0000
# 2 71.6962 199.0268 59.6959 0.0000 7.5219 0.0000
# 3 54.9787 59.6959 169.5837 0.0000 -12.5618 0.0000
# 4 0.0000 0.0000 0.000020164.1953 0.0000-5899.0236
# 5 -14.0497 7.5219 -12.5618 0.0000 50.1877 0.0000
# 6 0.0000 0.0000 0.0000-5899.0236 0.0000 1783.6472
#
#
#
# Elastic Compliance Matrix: (Units=1/GPa)
#
#
# Indices 1 2 3 4 5 6 
#
# 1 0.011504 -0.003597 -0.002226 0.000000 0.003202 0.000000
# 2 -0.003597 0.006835 -0.001417 0.000000 -0.002386 0.000000
# 3 -0.002226 -0.001417 0.007221 0.000000 0.001396 0.000000
# 4 0.000000 0.000000 0.000000 0.001528 0.000000 0.005053
# 5 0.003202 -0.002386 0.001396 0.000000 0.021529 0.000000
# 6 0.000000 0.000000 0.000000 0.005053 0.000000 0.017274
#
#
# Mechanical properties :
#
#
# Convention : Reuss Voigt Hill
#
# Bulk Modulus (GPa) = 90.25515 96.13908 93.19711
# Shear Modulus (GPa) = 59.47910 4420.01533 2239.74721
#
# Velocity S-wave (km/s) = 5.16070 44.48754 31.66839
# Velocity P-wave (km/s) = 8.71343 51.78709 37.13372
#
# Compressibility (1/GPa) = 0.01107970
#
# Stress axis : x y z
#
# Youngs Moduli (GPa) = 86.92975 146.29649 138.49360
#
# Poissons Ratio (x) = 0.52628 0.30827
# Poissons Ratio (y) = 0.31272 0.19620
# Poissons Ratio (z) = 0.19350 0.20725
#
# Static dielectric constant tensor:
#      x y z
#    x 2.024200 0.000000 -0.058190 
#    y 0.000000 1.859830 0.000000 
#    z -0.058190 0.000000 1.791640 
# 
# From -- ./inp_files/1662.got.cif
#   From: 2010.05.17/outbox.cif.g08.bks.cpg/sg10_1_cif.got.tgz:1662.got - 2010.06.03 11:33:40.
