data_PCOD9153133
_publ_section_title
;
Structure prediction by ZEFSAII (Michael W. Deem and Ramdas Pophale) SiO2 
 PCOD9153133
Probable space group: P 2/M
;
_chemical_formula_sum "Si O2"
_cell_formula_units_Z 32
_cell_length_a 23.124673
_cell_length_b 8.661338
_cell_length_c 15.472396
_cell_angle_alpha 90.000000
_cell_angle_beta 148.354016
_cell_angle_gamma 90.000000
_cell_volume 1625.937397
_symmetry_space_group_name_H-M "P 2/M"
_symmetry_group_IT_number 10
_symmetry_cell_setting 'monoclinic'
loop_
_space_group_symop_operation_xyz
x,y,z
-x,y,-z
-x,-y,-z
x,-y,z
loop_
_atom_site_type_symbol
_atom_site_label
_atom_site_fract_x
_atom_site_fract_y
_atom_site_fract_z
Si Si1 0.842427 0.684739 0.443260
Si Si2 0.565110 0.682111 0.671586
Si Si3 0.091722 0.315598 0.764713
Si Si4 0.276289 0.815294 0.871132
Si Si5 0.872385 0.187864 0.836483
Si Si6 0.801361 0.184038 0.935457
Si Si7 0.246269 0.186704 0.491281
Si Si8 0.509590 0.813748 0.246862
O O1 0.838258 0.500000 0.434614
O O2 0.759774 0.752989 0.267598
O O3 0.811495 0.741783 0.499130
O O4 0.968240 0.732347 0.581764
O O5 0.500000 0.707594 0.500000
O O6 0.588071 0.500000 0.709910
O O7 0.679764 0.772871 0.812757
O O8 0.496600 0.741282 0.665984
O O9 0.099690 0.500000 0.767871
O O10 0.185939 0.242758 0.824930
O O11 0.114303 0.264095 0.891718
O O12 0.274995 0.000000 0.868612
O O13 0.398813 0.765312 0.055761
O O14 0.817040 0.235901 0.856337
O O15 0.810366 0.237738 0.670719
O O16 0.870202 0.000000 0.832782
O O17 0.000000 0.235861 0.000000
O O18 0.817602 0.000000 0.960332
O O19 0.375659 0.227600 0.652313
O O20 0.237382 0.000000 0.484984
O O21 0.507592 0.000000 0.252971
#
# Coordination Sequence:
#
# PCOD9153133 Si02
#       8
#     4   4   4   4   4   4   4   4
#     4  11  25  42  61  88 122 161 202 250 311 373
#     4  11  23  37  56  85 121 161 201 243 298 361
#     4  11  23  40  61  89 126 160 197 250 311 371
#     4  11  23  40  64  92 119 155 205 257 309 364
#     4   9  18  33  56  87 119 154 199 248 297 351
#     4  11  21  35  60  90 119 156 201 249 303 360
#     4  10  21  40  63  87 120 160 204 255 303 356
#     4  10  22  40  62  89 120 157 203 255 307 357
#
# _framework density 19.680954
#
# number of rings (size 3 to 8) (size 9 to 14) (size 15 to 20)
#    0.000    1.500    1.250    3.750    0.000    8.000 
#    0.000    3.750    0.000    3.375    0.000    0.000 
#    0.000    0.000    0.000    0.000    0.000    0.000 
#
# Total GULP energy -178901.189608 kJ/mol
# GULP energy per Si atom -5590.662175 kJ/mol
# Density = 1.963616 g / cm^3
# Si number density = 19.680954 Si / 1000 Ang^3
#
#
#
# Elastic Constant Matrix: (Units=GPa)
#
#
# Indices 1 2 3 4 5 6 
#
# 1 67.3884 4.6417 27.2409 0.0000 1.2695 0.0000
# 2 4.6417 11.7123 17.2685 0.0000 4.5257 0.0000
# 3 27.2409 17.2685 100.5692 0.0000 1.1207 0.0000
# 4 0.0000 0.0000 0.0000 21.9877 0.0000 -21.2461
# 5 1.2695 4.5257 1.1207 0.0000 37.1399 0.0000
# 6 0.0000 0.0000 0.0000 -21.2461 0.0000 -189.6719
#
#
#
# Elastic Compliance Matrix: (Units=1/GPa)
#
#
# Indices 1 2 3 4 5 6 
#
# 1 0.016672 0.000300 -0.004562 0.000000 -0.000469 0.000000
# 2 0.000300 0.121344 -0.020759 0.000000 -0.014170 0.000000
# 3 -0.004562 -0.020759 0.014719 0.000000 0.002241 0.000000
# 4 0.000000 0.000000 0.000000 0.041038 0.000000 -0.004597
# 5 -0.000469 -0.014170 0.002241 0.000000 0.028600 0.000000
# 6 0.000000 0.000000 0.000000 -0.004597 0.000000 -0.004757
#
#
# Mechanical properties :
#
#
# Convention : Reuss Voigt Hill
#
# Bulk Modulus (GPa) = 9.73781 30.88579 20.31180
# Shear Modulus (GPa) = 16.56243 -17.40760 -0.42259
#
# Velocity S-wave (km/s) = 2.90409 -2.97726 -0.46388
# Velocity P-wave (km/s) = 4.02536 1.97699 3.17112
#
# Compressibility (1/GPa) = 0.10269247
#
# Stress axis : x y z
#
# Youngs Moduli (GPa) = 59.98194 8.24103 67.94090
#
# Poissons Ratio (x) = -0.00248 0.30996
# Poissons Ratio (y) = -0.01802 1.41040
# Poissons Ratio (z) = 0.27365 0.17108
#
# Static dielectric constant tensor:
#      x y z
#    x 1.667050 0.000000 0.003830 
#    y 0.000000 1.663880 0.000000 
#    z 0.003830 0.000000 1.694330 
# 
# From -- ./inp_files/71709.got.cif
#   From: 2010.05.17/outbox.cif.g08.bks.cpg/sg10_36_cif.got.tgz:71709.got - 2010.06.03 11:33:40.
