data_PCOD9153486
_publ_section_title
;
Structure prediction by ZEFSAII (Michael W. Deem and Ramdas Pophale) SiO2 
 PCOD9153486
Probable space group: P 2/M
;
_chemical_formula_sum "Si O2"
_cell_formula_units_Z 24
_cell_length_a 11.354228
_cell_length_b 11.868628
_cell_length_c 8.643452
_cell_angle_alpha 90.000000
_cell_angle_beta 97.441295
_cell_angle_gamma 90.000000
_cell_volume 1154.974165
_symmetry_space_group_name_H-M "P 2/M"
_symmetry_group_IT_number 10
_symmetry_cell_setting 'monoclinic'
loop_
_space_group_symop_operation_xyz
x,y,z
-x,y,-z
-x,-y,-z
x,-y,z
loop_
_atom_site_type_symbol
_atom_site_label
_atom_site_fract_x
_atom_site_fract_y
_atom_site_fract_z
Si Si1 0.750883 0.872214 0.625004
Si Si2 0.153964 0.871982 0.710147
Si Si3 0.387279 0.500000 0.099395
Si Si4 0.454630 0.698548 0.336072
Si Si5 0.050595 0.258670 0.181876
Si Si6 0.410926 0.127899 0.839401
Si Si7 0.879066 0.500000 0.879856
O O1 0.802180 0.864966 0.459592
O O2 0.643687 0.787690 0.629837
O O3 0.850664 0.833459 0.762423
O O4 0.713174 0.000000 0.646495
O O5 0.269702 0.860905 0.840520
O O6 0.059630 0.775390 0.728711
O O7 0.105156 0.000000 0.723218
O O8 0.405892 0.610043 0.206440
O O9 0.244074 0.500000 0.041098
O O10 0.500000 0.500000 0.000000
O O11 0.500000 0.641264 0.500000
O O12 0.554439 0.773704 0.270865
O O13 0.108545 0.382731 0.211900
O O14 0.000000 0.250633 0.000000
O O15 0.426396 0.000000 0.779241
O O16 0.500000 0.137758 0.000000
O O17 0.000000 0.500000 0.000000
#
# Coordination Sequence:
#
# PCOD9153486 Si02
#       7
#     4   4   2   4   4   4   2
#     4  11  23  41  67  95 137 180 221 275 344 409
#     4  10  22  41  63  95 136 181 223 272 340 412
#     4  12  27  49  77 100 134 183 231 290 350 407
#     4  12  24  43  68 100 135 176 231 279 343 413
#     4  11  24  42  68  93 132 174 233 280 342 400
#     4  10  22  38  62  98 139 177 224 282 342 403
#     4  10  24  47  68  99 134 177 224 284 342 402
#
# _framework density 20.779686999999999
#
# number of rings (size 3 to 8) (size 9 to 14) (size 15 to 20)
#    0.000    1.167    3.333    2.250    2.333    6.000 
#    0.000    2.500    0.000    0.000    0.000    0.000 
#    0.000    0.000    0.000    0.000    0.000    0.000 
#
# Total GULP energy -133981.001417 kJ/mol
# GULP energy per Si atom -5582.541726 kJ/mol
# Density = 2.073239 g / cm^3
# Si number density = 20.779687 Si / 1000 Ang^3
#
#
#
# Elastic Constant Matrix: (Units=GPa)
#
#
# Indices 1 2 3 4 5 6 
#
# 1 102.4153 45.9390 19.9791 0.0000 -5.2137 0.0000
# 2 45.9390 103.9987 35.2440 0.0000 -16.7497 0.0000
# 3 19.9791 35.2440 50.3324 0.0000 6.3620 0.0000
# 4 0.0000 0.0000 0.0000 29.5512 0.0000 -3.7846
# 5 -5.2137 -16.7497 6.3620 0.0000 31.5952 0.0000
# 6 0.0000 0.0000 0.0000 -3.7846 0.0000 27.0141
#
#
#
# Elastic Compliance Matrix: (Units=1/GPa)
#
#
# Indices 1 2 3 4 5 6 
#
# 1 0.012256 -0.005041 -0.001286 0.000000 -0.000391 0.000000
# 2 -0.005041 0.017525 -0.011636 0.000000 0.010802 0.000000
# 3 -0.001286 -0.011636 0.030099 0.000000 -0.012441 0.000000
# 4 0.000000 0.000000 0.000000 0.034458 0.000000 0.004827
# 5 -0.000391 0.010802 -0.012441 0.000000 0.039817 0.000000
# 6 0.000000 0.000000 0.000000 0.004827 0.000000 0.037694
#
#
# Mechanical properties :
#
#
# Convention : Reuss Voigt Hill
#
# Bulk Modulus (GPa) = 41.74552 51.00783 46.37667
# Shear Modulus (GPa) = 23.17386 28.00437 25.58911
#
# Velocity S-wave (km/s) = 3.34311 3.67506 3.51301
# Velocity P-wave (km/s) = 5.91904 6.52751 6.23070
#
# Compressibility (1/GPa) = 0.02395467
#
# Stress axis : x y z
#
# Youngs Moduli (GPa) = 81.59038 57.06005 33.22412
#
# Poissons Ratio (x) = 0.28766 0.04271
# Poissons Ratio (y) = 0.41132 0.38659
# Poissons Ratio (z) = 0.10489 0.66395
#
# Static dielectric constant tensor:
#      x y z
#    x 1.787260 0.000000 0.014320 
#    y 0.000000 1.740930 0.000000 
#    z 0.014320 0.000000 1.758390 
# 
# From -- ./inp_files/24072.got.cif
#   From: 2010.05.17/outbox.cif.g08.bks.cpg/sg10_13_cif.got.tgz:24072.got - 2010.06.03 11:33:40.
