data_PCOD9153247
_publ_section_title
;
Structure prediction by ZEFSAII (Michael W. Deem and Ramdas Pophale) SiO2 
 PCOD9153247
Probable space group: P 2/M
;
_chemical_formula_sum "Si O2"
_cell_formula_units_Z 28
_cell_length_a 17.106119
_cell_length_b 13.996905
_cell_length_c 8.454411
_cell_angle_alpha 90.000000
_cell_angle_beta 133.595415
_cell_angle_gamma 90.000000
_cell_volume 1466.025752
_symmetry_space_group_name_H-M "P 2/M"
_symmetry_group_IT_number 10
_symmetry_cell_setting 'monoclinic'
loop_
_space_group_symop_operation_xyz
x,y,z
-x,y,-z
-x,-y,-z
x,-y,z
loop_
_atom_site_type_symbol
_atom_site_label
_atom_site_fract_x
_atom_site_fract_y
_atom_site_fract_z
Si Si1 0.688750 0.723889 0.652780
Si Si2 0.879212 0.896597 0.402201
Si Si3 0.316107 0.891480 0.119186
Si Si4 0.886492 0.316428 0.432756
Si Si5 0.881556 0.609299 0.768839
Si Si6 0.321997 0.613472 0.040673
Si Si7 0.481237 0.236963 0.152568
O O1 0.708250 0.825071 0.765287
O O2 0.792755 0.679816 0.714892
O O3 0.658595 0.652241 0.754770
O O4 0.591572 0.738850 0.395767
O O5 0.868342 0.793074 0.467051
O O6 0.000000 0.897721 0.500000
O O7 0.864064 0.000000 0.464950
O O8 0.789715 0.893156 0.139347
O O9 0.412252 0.840302 0.155894
O O10 0.344210 0.000000 0.199808
O O11 0.884243 0.381753 0.583614
O O12 0.000000 0.321283 0.500000
O O13 0.793324 0.348038 0.181729
O O14 0.855968 0.500000 0.779663
O O15 0.000000 0.632504 0.000000
O O16 0.326679 0.500000 0.039235
O O17 0.409425 0.666841 0.053988
O O18 0.500000 0.204408 0.000000
#
# Coordination Sequence:
#
# PCOD9153247 Si02
#       7
#     4   4   4   4   4   4   4
#     4  11  23  40  62  87 123 159 202 257 307 364
#     4   9  18  34  62  92 118 151 195 244 302 360
#     4  10  21  41  66  91 121 161 205 252 306 365
#     4  11  21  37  63  90 120 161 205 251 300 362
#     4  11  25  41  60  90 127 166 205 250 306 360
#     4  11  22  38  60  86 116 158 208 255 308 359
#     4  11  24  40  59  88 121 159 203 251 307 368
#
# _framework density 19.099254999999999
#
# number of rings (size 3 to 8) (size 9 to 14) (size 15 to 20)
#    0.000    1.429    2.857    4.286    2.000    5.714 
#    0.000    0.714    0.000    0.857    0.000    0.000 
#    0.000    0.000    0.000    0.000    0.000    0.000 
#
# Total GULP energy -156316.014219 kJ/mol
# GULP energy per Si atom -5582.714794 kJ/mol
# Density = 1.905578 g / cm^3
# Si number density = 19.099255 Si / 1000 Ang^3
#
#
#
# Elastic Constant Matrix: (Units=GPa)
#
#
# Indices 1 2 3 4 5 6 
#
# 1 96.5900 45.0997 46.2174 0.0000 9.0152 0.0000
# 2 45.0997 151.8716 28.6182 0.0000 22.2207 0.0000
# 3 46.2174 28.6182 112.2354 0.0000 21.3933 0.0000
# 4 0.0000 0.0000 0.0000 -150.4602 0.0000 -136.6018
# 5 9.0152 22.2207 21.3933 0.0000 25.9170 0.0000
# 6 0.0000 0.0000 0.0000 -136.6018 0.0000 -95.4265
#
#
#
# Elastic Compliance Matrix: (Units=1/GPa)
#
#
# Indices 1 2 3 4 5 6 
#
# 1 0.014449 -0.003638 -0.005529 0.000000 0.002657 0.000000
# 2 -0.003638 0.008509 0.000567 0.000000 -0.006498 0.000000
# 3 -0.005529 0.000567 0.012779 0.000000 -0.009111 0.000000
# 4 0.000000 0.000000 0.000000 0.022181 0.000000 -0.031752
# 5 0.002657 -0.006498 -0.009111 0.000000 0.050753 0.000000
# 6 0.000000 0.000000 0.000000 -0.031752 0.000000 0.034973
#
#
# Mechanical properties :
#
#
# Convention : Reuss Voigt Hill
#
# Bulk Modulus (GPa) = 53.94526 66.72974 60.33750
# Shear Modulus (GPa) = 29.93636 -27.94315 0.99661
#
# Velocity S-wave (km/s) = 3.96335 -3.82913 0.72314
# Velocity P-wave (km/s) = 7.01785 3.93250 5.68835
#
# Compressibility (1/GPa) = 0.01853731
#
# Stress axis : x y z
#
# Youngs Moduli (GPa) = 69.20874 117.52806 78.25540
#
# Poissons Ratio (x) = 0.42752 0.43266
# Poissons Ratio (y) = 0.25176 -0.04436
# Poissons Ratio (z) = 0.38264 -0.06663
#
# Static dielectric constant tensor:
#      x y z
#    x 1.642040 0.000000 0.007280 
#    y 0.000000 1.687010 0.000000 
#    z 0.007280 0.000000 1.646170 
# 
# From -- ./inp_files/32853.got.cif
#   From: 2010.05.17/outbox.cif.g08.bks.cpg/sg10_17_cif.got.tgz:32853.got - 2010.06.03 11:33:40.
