data_PCOD9153758
_publ_section_title
;
Structure prediction by ZEFSAII (Michael W. Deem and Ramdas Pophale) SiO2 
 PCOD9153758
Probable space group: P 2/M
;
_chemical_formula_sum "Si O2"
_cell_formula_units_Z 28
_cell_length_a 16.936150
_cell_length_b 10.852349
_cell_length_c 10.039884
_cell_angle_alpha 90.000000
_cell_angle_beta 52.023201
_cell_angle_gamma 90.000000
_cell_volume 1454.576686
_symmetry_space_group_name_H-M "P 2/M"
_symmetry_group_IT_number 10
_symmetry_cell_setting 'monoclinic'
loop_
_space_group_symop_operation_xyz
x,y,z
-x,y,-z
-x,-y,-z
x,-y,z
loop_
_atom_site_type_symbol
_atom_site_label
_atom_site_fract_x
_atom_site_fract_y
_atom_site_fract_z
Si Si1 0.457685 0.000000 0.395053
Si Si2 0.631276 0.358464 0.133857
Si Si3 0.097259 0.141177 0.805480
Si Si4 0.408346 0.736842 0.368219
Si Si5 0.750700 0.356904 0.269262
Si Si6 0.093752 0.855352 0.496495
Si Si7 0.594849 0.000000 0.000745
Si Si8 0.697360 0.751185 0.801038
O O1 0.500000 0.000000 0.500000
O O2 0.394333 0.121853 0.428618
O O3 0.549855 0.000000 0.195004
O O4 0.606334 0.500000 0.185618
O O5 0.526466 0.287513 0.252320
O O6 0.709417 0.321282 0.166437
O O7 0.679177 0.343148 0.938960
O O8 0.171145 0.252847 0.766026
O O9 0.070061 0.155519 0.677722
O O10 0.138351 0.000000 0.778372
O O11 0.000000 0.149028 0.000000
O O12 0.343937 0.652941 0.533044
O O13 0.369114 0.721420 0.259157
O O14 0.786651 0.500000 0.230837
O O15 0.189158 0.772119 0.362236
O O16 0.000000 0.825218 0.500000
O O17 0.119323 0.000000 0.446147
O O18 0.500000 0.000000 0.000000
O O19 0.658065 0.120311 0.902719
#
# Coordination Sequence:
#
# PCOD9153758 Si02
#       8
#     2   4   4   4   4   4   2   4
#     4  12  24  36  58  94 131 170 220 270 321 371
#     4  11  25  42  60  90 133 174 218 265 310 384
#     4  10  23  45  72  99 127 161 215 275 326 388
#     4  12  23  40  63  93 131 173 219 263 319 385
#     4  11  25  44  66  94 133 178 216 261 329 388
#     4  10  22  41  65  96 130 163 204 266 338 389
#     4  12  20  38  57  90 132 170 208 254 330 382
#     4  12  22  39  64  91 126 170 213 267 320 389
#
# _framework density 19.249586999999998
#
# number of rings (size 3 to 8) (size 9 to 14) (size 15 to 20)
#    0.000    0.857    5.000    2.143    3.000    3.143 
#    2.571    0.000    0.000    0.857    0.000    0.000 
#    0.000    0.000    0.000    0.000    0.000    0.000 
#
# Total GULP energy -156470.239556 kJ/mol
# GULP energy per Si atom -5588.222841 kJ/mol
# Density = 1.920577 g / cm^3
# Si number density = 19.249587 Si / 1000 Ang^3
#
#
#
# Elastic Constant Matrix: (Units=GPa)
#
#
# Indices 1 2 3 4 5 6 
#
# 1 113.9077 56.3640 42.5974 0.0000 22.6016 0.0000
# 2 56.3640 69.1939 18.9859 0.0000 2.7530 0.0000
# 3 42.5974 18.9859 103.8692 0.0000 14.3307 0.0000
# 4 0.0000 0.0000 0.0000 22.2166 0.0000 -6.4971
# 5 22.6016 2.7530 14.3307 0.0000 40.1583 0.0000
# 6 0.0000 0.0000 0.0000 -6.4971 0.0000 10.2918
#
#
#
# Elastic Compliance Matrix: (Units=1/GPa)
#
#
# Indices 1 2 3 4 5 6 
#
# 1 0.018764 -0.013852 -0.004036 0.000000 -0.008171 0.000000
# 2 -0.013852 0.025442 0.000206 0.000000 0.005979 0.000000
# 3 -0.004036 0.000206 0.011500 0.000000 -0.001846 0.000000
# 4 0.000000 0.000000 0.000000 0.055203 0.000000 0.034849
# 5 -0.008171 0.005979 -0.001846 0.000000 0.029749 0.000000
# 6 0.000000 0.000000 0.000000 0.034849 0.000000 0.119164
#
#
# Mechanical properties :
#
#
# Convention : Reuss Voigt Hill
#
# Bulk Modulus (GPa) = 49.16342 58.09613 53.62978
# Shear Modulus (GPa) = 16.55812 25.80158 21.17985
#
# Velocity S-wave (km/s) = 2.93607 3.66508 3.32064
# Velocity P-wave (km/s) = 6.09011 6.93948 6.52862
#
# Compressibility (1/GPa) = 0.02034033
#
# Stress axis : x y z
#
# Youngs Moduli (GPa) = 53.29368 39.30567 86.95805
#
# Poissons Ratio (x) = 0.54447 0.35095
# Poissons Ratio (y) = 0.73824 -0.01788
# Poissons Ratio (z) = 0.21509 -0.00808
#
# Static dielectric constant tensor:
#      x y z
#    x 1.665880 0.000000 0.009270 
#    y 0.000000 1.681820 0.000000 
#    z 0.009270 0.000000 1.654290 
# 
# From -- ./inp_files/28522.got.cif
#   From: 2010.05.17/outbox.cif.g08.bks.cpg/sg10_15_cif.got.tgz:28522.got - 2010.06.03 11:33:40.
