data_PCOD9153013
_publ_section_title
;
Structure prediction by ZEFSAII (Michael W. Deem and Ramdas Pophale) SiO2 
 PCOD9153013
Probable space group: P 2/M
;
_chemical_formula_sum "Si O2"
_cell_formula_units_Z 20
_cell_length_a 14.715427
_cell_length_b 11.319546
_cell_length_c 4.984157
_cell_angle_alpha 90.000000
_cell_angle_beta 77.908404
_cell_angle_gamma 90.000000
_cell_volume 811.801464
_symmetry_space_group_name_H-M "P 2/M"
_symmetry_group_IT_number 10
_symmetry_cell_setting 'monoclinic'
loop_
_space_group_symop_operation_xyz
x,y,z
-x,y,-z
-x,-y,-z
x,-y,z
loop_
_atom_site_type_symbol
_atom_site_label
_atom_site_fract_x
_atom_site_fract_y
_atom_site_fract_z
Si Si1 0.344974 0.369283 0.070077
Si Si2 0.901667 0.214546 0.000439
Si Si3 0.705301 0.126720 0.998088
Si Si4 0.138859 0.633344 0.454628
Si Si5 0.438193 0.183715 0.286587
O O1 0.362408 0.500000 0.950386
O O2 0.335089 0.254731 0.877166
O O3 0.244689 0.371520 0.277191
O O4 0.420286 0.323270 0.239070
O O5 0.815801 0.137268 0.949993
O O6 0.917849 0.311978 0.758376
O O7 0.131896 0.282272 0.713373
O O8 0.000000 0.154453 0.000000
O O9 0.663531 0.131702 0.719602
O O10 0.677283 0.000000 0.130813
O O11 0.111568 0.500000 0.540585
O O12 0.500000 0.156530 0.500000
O O13 0.500000 0.139402 0.000000
#
# Coordination Sequence:
#
# PCOD9153013 Si02
#       5
#     4   4   4   4   4
#     4   8  19  39  64  92 126 165 208 257 314 373
#     4  11  23  39  63  94 126 166 215 262 315 378
#     4   9  22  43  66  92 130 169 210 264 318 374
#     4  10  21  39  63  92 131 172 211 259 318 378
#     4  10  23  40  65  95 125 165 213 260 316 377
#
# _framework density 24.636565999999998
#
# number of rings (size 3 to 8) (size 9 to 14) (size 15 to 20)
#    1.200    1.200    0.000    1.200    2.800    5.200 
#    0.000    8.000    0.000    6.000    0.000    0.000 
#    0.000    0.000    0.000    0.000    0.000    0.000 
#
# Total GULP energy -111457.046198 kJ/mol
# GULP energy per Si atom -5572.852310 kJ/mol
# Density = 2.458049 g / cm^3
# Si number density = 24.636566 Si / 1000 Ang^3
#
#
#
# Elastic Constant Matrix: (Units=GPa)
#
#
# Indices 1 2 3 4 5 6 
#
# 1 169.9213 34.4429 48.2149 0.0000 44.7571 0.0000
# 2 34.4429 181.8911 14.1705 0.0000 4.5495 0.0000
# 3 48.2149 14.1705 94.8307 0.0000 20.5358 0.0000
# 4 0.0000 0.0000 0.0000 3.4463 0.0000 -7.5105
# 5 44.7571 4.5495 20.5358 0.0000 37.9107 0.0000
# 6 0.0000 0.0000 0.0000 -7.5105 0.0000 5.9388
#
#
#
# Elastic Compliance Matrix: (Units=1/GPa)
#
#
# Indices 1 2 3 4 5 6 
#
# 1 0.009386 -0.001343 -0.002500 0.000000 -0.009566 0.000000
# 2 -0.001343 0.005757 -0.000420 0.000000 0.001123 0.000000
# 3 -0.002500 -0.000420 0.012721 0.000000 -0.003889 0.000000
# 4 0.000000 0.000000 0.000000 -0.165237 0.000000 -0.208968
# 5 -0.009566 0.001123 -0.003889 0.000000 0.039643 0.000000
# 6 0.000000 0.000000 0.000000 -0.208968 0.000000 -0.095887
#
#
# Mechanical properties :
#
#
# Convention : Reuss Voigt Hill
#
# Bulk Modulus (GPa) = 51.71472 71.14441 61.42957
# Shear Modulus (GPa) = -27.98877 32.78015 2.39569
#
# Velocity S-wave (km/s) = -3.37421 3.65163 0.98718
# Velocity P-wave (km/s) = 2.41995 6.83516 5.12716
#
# Compressibility (1/GPa) = 0.01933685
#
# Stress axis : x y z
#
# Youngs Moduli (GPa) = 106.53613 173.70629 78.60900
#
# Poissons Ratio (x) = 0.23335 0.19653
# Poissons Ratio (y) = 0.14312 0.03305
# Poissons Ratio (z) = 0.26635 0.07302
#
# Static dielectric constant tensor:
#      x y z
#    x 2.033330 0.000000 -0.003950 
#    y 0.000000 1.982930 0.000000 
#    z -0.003950 0.000000 1.975000 
# 
# From -- ./inp_files/8781.got.cif
#   From: 2010.05.17/outbox.cif.g08.bks.cpg/sg10_5_cif.got.tgz:8781.got - 2010.06.03 11:33:40.
