data_PCOD9153445
_publ_section_title
;
Structure prediction by ZEFSAII (Michael W. Deem and Ramdas Pophale) SiO2 
 PCOD9153445
Probable space group: P 2/M
;
_chemical_formula_sum "Si O2"
_cell_formula_units_Z 28
_cell_length_a 30.065253
_cell_length_b 8.522967
_cell_length_c 9.412928
_cell_angle_alpha 90.000000
_cell_angle_beta 141.695753
_cell_angle_gamma 90.000000
_cell_volume 1495.058011
_symmetry_space_group_name_H-M "P 2/M"
_symmetry_group_IT_number 10
_symmetry_cell_setting 'monoclinic'
loop_
_space_group_symop_operation_xyz
x,y,z
-x,y,-z
-x,-y,-z
x,-y,z
loop_
_atom_site_type_symbol
_atom_site_label
_atom_site_fract_x
_atom_site_fract_y
_atom_site_fract_z
Si Si1 0.360557 0.688128 0.815209
Si Si2 0.225947 0.813737 0.648250
Si Si3 0.634090 0.689902 0.499525
Si Si4 0.227759 0.690242 0.974588
Si Si5 0.497252 0.811874 0.328943
Si Si6 0.068698 0.689987 0.587667
Si Si7 0.928995 0.311097 0.739369
O O1 0.364039 0.500000 0.825866
O O2 0.286007 0.741874 0.697136
O O3 0.367188 0.740768 0.667927
O O4 0.425622 0.753551 0.072036
O O5 0.236661 0.750303 0.835930
O O6 0.145858 0.764075 0.401281
O O7 0.232548 0.000000 0.666372
O O8 0.632342 0.500000 0.496665
O O9 0.565859 0.750924 0.414693
O O10 0.706993 0.740327 0.761876
O O11 0.227569 0.500000 0.968159
O O12 0.148911 0.741867 0.831338
O O13 0.500000 0.757978 0.500000
O O14 0.497831 0.000000 0.329991
O O15 0.068270 0.500000 0.601207
O O16 0.061458 0.725147 0.403019
O O17 0.000000 0.751744 0.500000
O O18 0.922195 0.500000 0.736617
O O19 0.000000 0.260396 0.000000
#
# Coordination Sequence:
#
# PCOD9153445 Si02
#       7
#     4   4   4   4   4   4   4
#     4  11  23  39  59  84 113 143 182 229 275 324
#     4  11  22  36  55  80 112 149 187 225 272 329
#     4  10  22  38  58  84 111 142 182 230 278 323
#     4   9  18  35  57  80 108 143 184 228 274 325
#     4  11  24  40  59  84 113 146 183 221 268 328
#     4   8  14  26  48  77 104 132 171 220 269 315
#     4   9  18  33  54  78 105 141 185 230 274 321
#
# _framework density 18.728372
#
# number of rings (size 3 to 8) (size 9 to 14) (size 15 to 20)
#    0.000    2.143    0.000    4.286    0.000    8.286 
#    0.000    4.286    0.000    6.857    0.000    0.000 
#    0.000    0.000    0.000    0.000    0.000    0.000 
#
# Total GULP energy -156332.252378 kJ/mol
# GULP energy per Si atom -5583.294728 kJ/mol
# Density = 1.868575 g / cm^3
# Si number density = 18.728372 Si / 1000 Ang^3
#
#
#
# Elastic Constant Matrix: (Units=GPa)
#
#
# Indices 1 2 3 4 5 6 
#
# 1 168.9702 17.5069 86.5733 0.0000 17.1541 0.0000
# 2 17.5069 9.9644 21.1060 0.0000 -4.3147 0.0000
# 3 86.5733 21.1060 164.4409 0.0000 8.0474 0.0000
# 4 0.0000 0.0000 0.0000 7.7624 0.0000 -14.0927
# 5 17.1541 -4.3147 8.0474 0.0000 25.9016 0.0000
# 6 0.0000 0.0000 0.0000 -14.0927 0.0000 -32.2769
#
#
#
# Elastic Compliance Matrix: (Units=1/GPa)
#
#
# Indices 1 2 3 4 5 6 
#
# 1 0.009677 -0.014360 -0.002864 0.000000 -0.007911 0.000000
# 2 -0.014360 0.184325 -0.018345 0.000000 0.045915 0.000000
# 3 -0.002864 -0.018345 0.010155 0.000000 -0.004314 0.000000
# 4 0.000000 0.000000 0.000000 0.071862 0.000000 -0.031376
# 5 -0.007911 0.045915 -0.004314 0.000000 0.052836 0.000000
# 6 0.000000 0.000000 0.000000 -0.031376 0.000000 -0.017282
#
#
# Mechanical properties :
#
#
# Convention : Reuss Voigt Hill
#
# Bulk Modulus (GPa) = 7.51777 65.97201 36.74489
# Shear Modulus (GPa) = 11.70825 14.82338 13.26581
#
# Velocity S-wave (km/s) = 2.50303 2.81640 2.66433
# Velocity P-wave (km/s) = 3.51801 6.77335 5.39698
#
# Compressibility (1/GPa) = 0.13301813
#
# Stress axis : x y z
#
# Youngs Moduli (GPa) = 103.34133 5.42520 98.47511
#
# Poissons Ratio (x) = 0.07791 0.28206
# Poissons Ratio (y) = 1.48398 1.80653
# Poissons Ratio (z) = 0.29599 0.09953
#
# Static dielectric constant tensor:
#      x y z
#    x 1.623930 0.000000 0.004650 
#    y 0.000000 1.635480 0.000000 
#    z 0.004650 0.000000 1.640980 
# 
# From -- ./inp_files/37036.got.cif
#   From: 2010.05.17/outbox.cif.g08.bks.cpg/sg10_19_cif.got.tgz:37036.got - 2010.06.03 11:33:40.
