data_PCOD9153592
_publ_section_title
;
Structure prediction by ZEFSAII (Michael W. Deem and Ramdas Pophale) SiO2 
 PCOD9153592
Probable space group: P 2/M
;
_chemical_formula_sum "Si O2"
_cell_formula_units_Z 16
_cell_length_a 11.543363
_cell_length_b 14.102510
_cell_length_c 10.130901
_cell_angle_alpha 90.000000
_cell_angle_beta 155.763132
_cell_angle_gamma 90.000000
_cell_volume 677.018355
_symmetry_space_group_name_H-M "P 2/M"
_symmetry_group_IT_number 10
_symmetry_cell_setting 'monoclinic'
loop_
_space_group_symop_operation_xyz
x,y,z
-x,y,-z
-x,-y,-z
x,-y,z
loop_
_atom_site_type_symbol
_atom_site_label
_atom_site_fract_x
_atom_site_fract_y
_atom_site_fract_z
Si Si1 0.766891 0.391807 0.644383
Si Si2 0.926327 0.105614 0.769593
Si Si3 0.256658 0.661331 0.668883
Si Si4 0.419616 0.222582 0.192167
O O1 0.670524 0.500000 0.561588
O O2 0.867810 0.384722 0.595307
O O3 0.518959 0.313112 0.381725
O O4 0.000000 0.372532 0.000000
O O5 0.102027 0.188127 0.878704
O O6 0.982496 0.000000 0.777170
O O7 0.000000 0.109836 0.000000
O O8 0.599774 0.131910 0.422833
O O9 0.452400 0.746767 0.814874
O O10 0.000000 0.681558 0.500000
O O11 0.500000 0.603972 0.000000
#
# Coordination Sequence:
#
# PCOD9153592 Si02
#       4
#     4   4   4   4
#     4   9  21  41  69 103 139 177 223 276 339 401
#     4  11  22  39  65  99 132 169 222 279 341 404
#     4  10  22  42  67  96 133 182 231 270 326 401
#     4  10  22  39  65  94 137 173 216 278 339 381
#
# _framework density 23.633037000000002
#
# number of rings (size 3 to 8) (size 9 to 14) (size 15 to 20)
#    1.500    0.500    0.000    3.750    0.000    3.000 
#    0.000    5.000    0.000   30.750    0.000    0.000 
#    0.000    0.000    0.000    0.000    0.000    0.000 
#
# Total GULP energy -89206.131022 kJ/mol
# GULP energy per Si atom -5575.383189 kJ/mol
# Density = 2.357925 g / cm^3
# Si number density = 23.633037 Si / 1000 Ang^3
#
#
#
# Elastic Constant Matrix: (Units=GPa)
#
#
# Indices 1 2 3 4 5 6 
#
# 1 155.8265 13.8679 35.5510 0.0000 -0.1165 0.0000
# 2 13.8679 145.5434 30.6577 0.0000 4.5420 0.0000
# 3 35.5510 30.6577 113.2515 0.0000 -2.4935 0.0000
# 4 0.0000 0.0000 0.0000 247.8143 0.0000 -24.5872
# 5 -0.1165 4.5420 -2.4935 0.0000 50.3892 0.0000
# 6 0.0000 0.0000 0.0000 -24.5872 0.0000 -16.1860
#
#
#
# Elastic Compliance Matrix: (Units=1/GPa)
#
#
# Indices 1 2 3 4 5 6 
#
# 1 0.006919 -0.000211 -0.002116 0.000000 -0.000070 0.000000
# 2 -0.000211 0.007322 -0.001932 0.000000 -0.000756 0.000000
# 3 -0.002116 -0.001932 0.010032 0.000000 0.000666 0.000000
# 4 0.000000 0.000000 0.000000 0.003507 0.000000 -0.005327
# 5 -0.000070 -0.000756 0.000666 0.000000 0.019946 0.000000
# 6 0.000000 0.000000 0.000000 -0.005327 0.000000 -0.053690
#
#
# Mechanical properties :
#
#
# Convention : Reuss Voigt Hill
#
# Bulk Modulus (GPa) = 63.48109 63.86387 63.67248
# Shear Modulus (GPa) = 640.48810 78.70646 359.59728
#
# Velocity S-wave (km/s) = 16.48036 5.77719 12.34865
# Velocity P-wave (km/s) = 19.72450 8.46067 15.17628
#
# Compressibility (1/GPa) = 0.01575272
#
# Stress axis : x y z
#
# Youngs Moduli (GPa) = 144.53024 136.58301 99.68131
#
# Poissons Ratio (x) = 0.02886 0.21095
# Poissons Ratio (y) = 0.03054 0.19261
# Poissons Ratio (z) = 0.30587 0.26392
#
# Static dielectric constant tensor:
#      x y z
#    x 1.999500 0.000000 -0.052470 
#    y 0.000000 1.905790 0.000000 
#    z -0.052470 0.000000 1.908430 
# 
# From -- ./inp_files/47680.got.cif
#   From: 2010.05.17/outbox.cif.g08.bks.cpg/sg10_24_cif.got.tgz:47680.got - 2010.06.03 11:33:40.
