data_PCOD9153299
_publ_section_title
;
Structure prediction by ZEFSAII (Michael W. Deem and Ramdas Pophale) SiO2 
 PCOD9153299
Probable space group: P 2/M
;
_chemical_formula_sum "Si O2"
_cell_formula_units_Z 21
_cell_length_a 11.744566
_cell_length_b 16.643547
_cell_length_c 8.408076
_cell_angle_alpha 90.000000
_cell_angle_beta 39.372569
_cell_angle_gamma 90.000000
_cell_volume 1042.594936
_symmetry_space_group_name_H-M "P 2/M"
_symmetry_group_IT_number 10
_symmetry_cell_setting 'monoclinic'
loop_
_space_group_symop_operation_xyz
x,y,z
-x,y,-z
-x,-y,-z
x,-y,z
loop_
_atom_site_type_symbol
_atom_site_label
_atom_site_fract_x
_atom_site_fract_y
_atom_site_fract_z
Si Si1 0.065176 0.665779 0.592347
Si Si2 0.393459 0.255598 0.367249
Si Si3 0.161131 0.088869 0.106634
Si Si4 0.000000 0.500000 0.500000
Si Si5 0.263259 0.909292 0.361317
Si Si6 0.239838 0.254637 0.885902
O O1 0.000000 0.708934 0.500000
O O2 0.272301 0.687085 0.390555
O O3 0.032987 0.572171 0.596500
O O4 0.940202 0.700477 0.866652
O O5 0.363745 0.164811 0.335512
O O6 0.308232 0.266690 0.634504
O O7 0.600909 0.277431 0.163424
O O8 0.251789 0.099409 0.182319
O O9 0.945935 0.093460 0.361387
O O10 0.206100 0.000000 0.998794
O O11 0.214877 0.159687 0.933602
O O12 0.330968 0.000000 0.324015
#
# Coordination Sequence:
#
# PCOD9153299 Si02
#       6
#     4   4   4   1   4   4
#     4  10  21  43  66  90 114 144 193 247 291 357
#     4  11  23  37  58  90 126 163 197 237 294 354
#     4   9  18  33  54  83 119 162 211 255 289 328
#     4   8  24  44  72  96 110 142 190 240 310 360
#     4   9  18  33  54  83 119 162 211 255 289 328
#     4  11  23  37  58  90 126 163 197 237 294 354
#
# _framework density 20.142050000000001
#
# number of rings (size 3 to 8) (size 9 to 14) (size 15 to 20)
#    0.571    1.524    1.905    2.857    0.000    4.571 
#    0.000    9.524    0.000    2.286    0.000    0.000 
#    0.000    0.000    0.000    0.000    0.000    0.000 
#
# Total GULP energy -116974.921160 kJ/mol
# GULP energy per Si atom -5570.234341 kJ/mol
# Density = 2.009621 g / cm^3
# Si number density = 20.142050 Si / 1000 Ang^3
#
#
#
# Elastic Constant Matrix: (Units=GPa)
#
#
# Indices 1 2 3 4 5 6 
#
# 1 66.3995 15.0943 1.4370 0.0000 -21.5750 0.0000
# 2 15.0943 91.5452 1.8511 0.0000 -5.1500 0.0000
# 3 1.4370 1.8511 36.7916 0.0000 -12.4751 0.0000
# 4 0.0000 0.0000 0.0000 -2.1324 0.0000 -4.2253
# 5 -21.5750 -5.1500 -12.4751 0.0000 26.6043 0.0000
# 6 0.0000 0.0000 0.0000 -4.2253 0.0000 -19.2951
#
#
#
# Elastic Compliance Matrix: (Units=1/GPa)
#
#
# Indices 1 2 3 4 5 6 
#
# 1 0.022129 -0.002630 0.006160 0.000000 0.020325 0.000000
# 2 -0.002630 0.011358 -0.000531 0.000000 -0.000183 0.000000
# 3 0.006160 -0.000531 0.034037 0.000000 0.020853 0.000000
# 4 0.000000 0.000000 0.000000 -0.828424 0.000000 0.181412
# 5 0.020325 -0.000183 0.020853 0.000000 0.063813 0.000000
# 6 0.000000 0.000000 0.000000 0.181412 0.000000 -0.091553
#
#
# Mechanical properties :
#
#
# Convention : Reuss Voigt Hill
#
# Bulk Modulus (GPa) = 13.60144 25.72232 19.66188
# Shear Modulus (GPa) = -6.49240 12.79229 3.14994
#
# Velocity S-wave (km/s) = -1.79730 2.52286 1.25190
# Velocity P-wave (km/s) = 1.56855 4.61352 3.44565
#
# Compressibility (1/GPa) = 0.07352164
#
# Stress axis : x y z
#
# Youngs Moduli (GPa) = 45.18952 88.04655 29.37990
#
# Poissons Ratio (x) = 0.23155 -0.18097
# Poissons Ratio (y) = 0.11884 0.01559
# Poissons Ratio (z) = -0.27835 0.04673
#
# Static dielectric constant tensor:
#      x y z
#    x 1.778570 0.000000 -0.009360 
#    y 0.000000 1.675160 0.000000 
#    z -0.009360 0.000000 1.722240 
# 
# From -- ./inp_files/25612.got.cif
#   From: 2010.05.17/outbox.cif.g08.bks.cpg/sg10_13_cif.got.tgz:25612.got - 2010.06.03 11:33:40.
