data_PCOD9153991
_publ_section_title
;
Structure prediction by ZEFSAII (Michael W. Deem and Ramdas Pophale) SiO2 
 PCOD9153991
Probable space group: P 2/M
;
_chemical_formula_sum "Si O2"
_cell_formula_units_Z 18
_cell_length_a 5.527720
_cell_length_b 19.039873
_cell_length_c 6.807613
_cell_angle_alpha 90.000000
_cell_angle_beta 107.780123
_cell_angle_gamma 90.000000
_cell_volume 682.258978
_symmetry_space_group_name_H-M "P 2/M"
_symmetry_group_IT_number 10
_symmetry_cell_setting 'monoclinic'
loop_
_space_group_symop_operation_xyz
x,y,z
-x,y,-z
-x,-y,-z
x,-y,z
loop_
_atom_site_type_symbol
_atom_site_label
_atom_site_fract_x
_atom_site_fract_y
_atom_site_fract_z
Si Si1 0.252005 0.284965 0.808694
Si Si2 0.948175 0.578969 0.721024
Si Si3 0.500000 0.660907 0.500000
Si Si4 0.140483 0.868818 0.881126
Si Si5 0.524464 0.917683 0.735694
O O1 0.120607 0.357601 0.835101
O O2 0.326896 0.292533 0.598406
O O3 0.109695 0.213093 0.817836
O O4 0.500000 0.279754 0.000000
O O5 0.987263 0.500000 0.799252
O O6 0.000000 0.576662 0.500000
O O7 0.664585 0.608281 0.673886
O O8 0.218445 0.914430 0.717374
O O9 0.827040 0.885403 0.865239
O O10 0.500000 0.875104 0.000000
O O11 0.500000 0.895246 0.500000
O O12 0.590085 0.000000 0.778582
#
# Coordination Sequence:
#
# PCOD9153991 Si02
#       5
#     4   4   2   4   4
#     4  11  24  40  63  96 132 169 221 269 328 398
#     4   9  20  40  64  93 126 168 220 277 334 387
#     4  10  23  42  66  88 125 174 220 280 327 388
#     4  11  24  41  65  96 133 175 213 265 328 387
#     4  10  23  45  69  98 131 168 216 267 321 389
#
# _framework density 26.382942
#
# number of rings (size 3 to 8) (size 9 to 14) (size 15 to 20)
#    0.000    1.778    2.222    1.667    4.667    4.000 
#    8.000    3.333    0.000    0.000    0.000    0.000 
#    0.000    0.000    0.000    0.000    0.000    0.000 
#
# Total GULP energy -100253.302772 kJ/mol
# GULP energy per Si atom -5569.627932 kJ/mol
# Density = 2.632289 g / cm^3
# Si number density = 26.382942 Si / 1000 Ang^3
#
#
#
# Elastic Constant Matrix: (Units=GPa)
#
#
# Indices 1 2 3 4 5 6 
#
# 1 206.4547 102.9618 82.3129 0.0000 -36.7046 0.0000
# 2 102.9618 264.5964 40.1910 0.0000 17.8145 0.0000
# 3 82.3129 40.1910 102.4411 0.0000 8.5449 0.0000
# 4 0.0000 0.0000 0.0000 30.6104 0.0000 -6.1911
# 5 -36.7046 17.8145 8.5449 0.0000 47.9369 0.0000
# 6 0.0000 0.0000 0.0000 -6.1911 0.0000 131.9044
#
#
#
# Elastic Compliance Matrix: (Units=1/GPa)
#
#
# Indices 1 2 3 4 5 6 
#
# 1 0.014038 -0.004825 -0.010590 0.000000 0.014429 0.000000
# 2 -0.004825 0.005750 0.002139 0.000000 -0.006213 0.000000
# 3 -0.010590 0.002139 0.018448 0.000000 -0.012192 0.000000
# 4 0.000000 0.000000 0.000000 0.032982 0.000000 0.001548
# 5 0.014429 -0.006213 -0.012192 0.000000 0.036391 0.000000
# 6 0.000000 0.000000 0.000000 0.001548 0.000000 0.007654
#
#
# Mechanical properties :
#
#
# Convention : Reuss Voigt Hill
#
# Bulk Modulus (GPa) = 85.58110 113.82485 99.70297
# Shear Modulus (GPa) = 34.31475 65.29209 49.80342
#
# Velocity S-wave (km/s) = 3.61035 4.98012 4.34950
# Velocity P-wave (km/s) = 7.06314 8.73532 7.94335
#
# Compressibility (1/GPa) = 0.01168482
#
# Stress axis : x y z
#
# Youngs Moduli (GPa) = 71.23708 173.90238 54.20506
#
# Poissons Ratio (x) = 0.83914 0.57403
# Poissons Ratio (y) = 0.34374 -0.11597
# Poissons Ratio (z) = 0.75439 -0.37205
#
# Static dielectric constant tensor:
#      x y z
#    x 2.612560 0.000000 0.309090 
#    y 0.000000 1.961150 0.000000 
#    z 0.309090 0.000000 1.817470 
# 
# From -- ./inp_files/14855.got.cif
#   From: 2010.05.17/outbox.cif.g08.bks.cpg/sg10_8_cif.got.tgz:14855.got - 2010.06.03 11:33:40.
