data_PCOD9153916
_publ_section_title
;
Structure prediction by ZEFSAII (Michael W. Deem and Ramdas Pophale) SiO2 
 PCOD9153916
Probable space group: P 2/M
;
_chemical_formula_sum "Si O2"
_cell_formula_units_Z 30
_cell_length_a 12.601762
_cell_length_b 7.998173
_cell_length_c 14.129744
_cell_angle_alpha 90.000000
_cell_angle_beta 70.066428
_cell_angle_gamma 90.000000
_cell_volume 1338.829000
_symmetry_space_group_name_H-M "P 2/M"
_symmetry_group_IT_number 10
_symmetry_cell_setting 'monoclinic'
loop_
_space_group_symop_operation_xyz
x,y,z
-x,y,-z
-x,-y,-z
x,-y,z
loop_
_atom_site_type_symbol
_atom_site_label
_atom_site_fract_x
_atom_site_fract_y
_atom_site_fract_z
Si Si1 0.741562 0.822354 0.893252
Si Si2 0.063098 0.683931 0.681006
Si Si3 0.536888 0.799713 0.637520
Si Si4 0.465248 0.693424 0.158083
Si Si5 0.278450 0.691419 0.910221
Si Si6 0.921147 0.000000 0.712305
Si Si7 0.317331 0.200973 0.594369
Si Si8 0.935875 0.190933 0.116794
O O1 0.621726 0.785424 0.882887
O O2 0.768526 0.694589 0.967968
O O3 0.738853 0.000000 0.947551
O O4 0.832199 0.855864 0.783763
O O5 0.030558 0.500000 0.655469
O O6 0.198397 0.708630 0.634379
O O7 0.037887 0.697817 0.801471
O O8 0.006272 0.848053 0.653544
O O9 0.574016 0.711999 0.721899
O O10 0.620247 0.769345 0.524679
O O11 0.410649 0.747861 0.644069
O O12 0.535186 0.000000 0.653845
O O13 0.467760 0.500000 0.128216
O O14 0.593880 0.755724 0.120198
O O15 0.280906 0.500000 0.875405
O O16 0.195462 0.794508 0.868899
O O17 0.300158 0.000000 0.609345
O O18 0.966856 0.000000 0.136936
O O19 0.000000 0.229381 0.000000
#
# Coordination Sequence:
#
# PCOD9153916 Si02
#       8
#     4   4   4   4   4   2   4   4
#     4  10  23  40  60  80 107 157 206 254 310 353
#     4  12  23  38  64  91 123 165 203 251 307 363
#     4   9  19  35  62  94 125 165 194 240 301 360
#     4  11  23  38  58  87 124 155 199 257 303 363
#     4  11  23  37  57  89 122 160 204 250 303 360
#     4  10  24  44  60  88 116 153 210 261 299 365
#     4   9  18  37  62  93 131 160 199 240 294 369
#     4  11  23  37  57  85 124 163 206 246 291 352
#
# _framework density 22.407644000000001
#
# number of rings (size 3 to 8) (size 9 to 14) (size 15 to 20)
#    0.400    1.200    1.333    4.400    1.867   10.133 
#    0.000    1.333    0.000    1.600    0.000    1.867 
#    0.000    0.000    0.000    0.000    0.000    0.000 
#
# Total GULP energy -167124.798772 kJ/mol
# GULP energy per Si atom -5570.826626 kJ/mol
# Density = 2.235664 g / cm^3
# Si number density = 22.407644 Si / 1000 Ang^3
#
#
#
# Elastic Constant Matrix: (Units=GPa)
#
#
# Indices 1 2 3 4 5 6 
#
# 1 75.2807 21.8323 -0.8644 0.0000 -16.2646 0.0000
# 2 21.8323 80.6326 4.7510 0.0000 -10.0117 0.0000
# 3 -0.8644 4.7510 35.1764 0.0000 -6.6555 0.0000
# 4 0.0000 0.0000 0.0000 52.7583 0.0000 -33.1254
# 5 -16.2646 -10.0117 -6.6555 0.0000 32.2089 0.0000
# 6 0.0000 0.0000 0.0000 -33.1254 0.0000 6.1437
#
#
#
# Elastic Compliance Matrix: (Units=1/GPa)
#
#
# Indices 1 2 3 4 5 6 
#
# 1 0.015936 -0.003527 0.002272 0.000000 0.007420 0.000000
# 2 -0.003527 0.013716 -0.001529 0.000000 0.002166 0.000000
# 3 0.002272 -0.001529 0.029990 0.000000 0.006869 0.000000
# 4 0.000000 0.000000 0.000000 -0.007946 0.000000 -0.042844
# 5 0.007420 0.002166 0.006869 0.000000 0.036887 0.000000
# 6 0.000000 0.000000 0.000000 -0.042844 0.000000 -0.068237
#
#
# Mechanical properties :
#
#
# Convention : Reuss Voigt Hill
#
# Bulk Modulus (GPa) = 18.49369 26.94752 22.72060
# Shear Modulus (GPa) = 113.79242 29.24690 71.51966
#
# Velocity S-wave (km/s) = 7.13394 3.61670 5.65569
# Velocity P-wave (km/s) = 8.72518 5.43073 7.26710
#
# Compressibility (1/GPa) = 0.05407249
#
# Stress axis : x y z
#
# Youngs Moduli (GPa) = 62.75158 72.90707 33.34430
#
# Poissons Ratio (x) = 0.25717 -0.07576
# Poissons Ratio (y) = 0.22135 0.05099
# Poissons Ratio (z) = -0.14257 0.11150
#
# Static dielectric constant tensor:
#      x y z
#    x 1.833470 0.000000 -0.023350 
#    y 0.000000 1.860700 0.000000 
#    z -0.023350 0.000000 1.865520 
# 
# From -- ./inp_files/63741.got.cif
#   From: 2010.05.17/outbox.cif.g08.bks.cpg/sg10_32_cif.got.tgz:63741.got - 2010.06.03 11:33:40.
