data_PCOD9153374
_publ_section_title
;
Structure prediction by ZEFSAII (Michael W. Deem and Ramdas Pophale) SiO2 
 PCOD9153374
Probable space group: P 2/M
;
_chemical_formula_sum "Si O2"
_cell_formula_units_Z 26
_cell_length_a 17.223812
_cell_length_b 17.528769
_cell_length_c 7.403940
_cell_angle_alpha 90.000000
_cell_angle_beta 29.704184
_cell_angle_gamma 90.000000
_cell_volume 1107.660356
_symmetry_space_group_name_H-M "P 2/M"
_symmetry_group_IT_number 10
_symmetry_cell_setting 'monoclinic'
loop_
_space_group_symop_operation_xyz
x,y,z
-x,y,-z
-x,-y,-z
x,-y,z
loop_
_atom_site_type_symbol
_atom_site_label
_atom_site_fract_x
_atom_site_fract_y
_atom_site_fract_z
Si Si1 0.500000 0.787643 0.500000
Si Si2 0.725831 0.500000 0.699585
Si Si3 0.692250 0.331707 0.342172
Si Si4 0.080835 0.918028 0.061150
Si Si5 0.015639 0.233861 0.267643
Si Si6 0.361667 0.500000 0.530258
Si Si7 0.169457 0.342666 0.560802
Si Si8 0.261270 0.082164 0.075018
O O1 0.423123 0.730611 0.509069
O O2 0.624135 0.845956 0.157122
O O3 0.738551 0.500000 0.453892
O O4 0.798570 0.420130 0.611649
O O5 0.544099 0.500000 0.112541
O O6 0.667664 0.417825 0.322619
O O7 0.699732 0.334020 0.547153
O O8 0.864230 0.302417 0.945382
O O9 0.097589 0.829297 0.972035
O O10 0.113819 0.000000 0.901934
O O11 0.894154 0.915826 0.485190
O O12 0.188987 0.921768 0.019736
O O13 0.000000 0.200942 0.500000
O O14 0.857597 0.269222 0.508376
O O15 0.000000 0.350958 0.000000
O O16 0.340566 0.000000 0.952892
#
# Coordination Sequence:
#
# PCOD9153374 Si02
#       8
#     2   2   4   4   4   2   4   4
#     4  12  19  31  54  80 112 140 178 219 273 330
#     4   9  17  36  59  76  95 151 191 209 258 339
#     4  10  22  37  53  79 110 146 175 226 277 318
#     4   9  16  31  52  76 105 140 183 221 259 316
#     4  11  19  34  57  84 107 137 184 230 271 319
#     4   9  20  37  53  72 112 145 182 214 269 338
#     4   9  20  36  58  80 108 135 181 233 271 312
#     4   9  17  29  49  78 107 140 181 221 259 315
#
# _framework density 23.472901
#
# number of rings (size 3 to 8) (size 9 to 14) (size 15 to 20)
#    0.000    2.308    3.077    1.385    0.000    4.615 
#    0.000    1.538    0.000    6.000    0.000    2.154 
#    0.000    0.000    0.000    0.000    0.000    0.000 
#
# Total GULP energy -144851.174079 kJ/mol
# GULP energy per Si atom -5571.199003 kJ/mol
# Density = 2.341948 g / cm^3
# Si number density = 23.472901 Si / 1000 Ang^3
#
#
#
# Elastic Constant Matrix: (Units=GPa)
#
#
# Indices 1 2 3 4 5 6 
#
# 1 81.7950 43.0474 4.5900 0.0000 -16.6334 0.0000
# 2 43.0474 227.4066 35.9433 0.0000 -17.9873 0.0000
# 3 4.5900 35.9433 48.6949 0.0000 -14.3338 0.0000
# 4 0.0000 0.0000 0.0000 31.8265 0.0000 -14.9133
# 5 -16.6334 -17.9873 -14.3338 0.0000 20.9743 0.0000
# 6 0.0000 0.0000 0.0000 -14.9133 0.0000 23.3191
#
#
#
# Elastic Compliance Matrix: (Units=1/GPa)
#
#
# Indices 1 2 3 4 5 6 
#
# 1 0.016144 -0.002688 0.004447 0.000000 0.013536 0.000000
# 2 -0.002688 0.005508 -0.003817 0.000000 -0.000017 0.000000
# 3 0.004447 -0.003817 0.028803 0.000000 0.019937 0.000000
# 4 0.000000 0.000000 0.000000 0.044865 0.000000 0.028693
# 5 0.013536 -0.000017 0.019937 0.000000 0.072022 0.000000
# 6 0.000000 0.000000 0.000000 0.028693 0.000000 0.061233
#
#
# Mechanical properties :
#
#
# Convention : Reuss Voigt Hill
#
# Bulk Modulus (GPa) = 21.58057 58.33977 39.96017
# Shear Modulus (GPa) = 20.14999 33.51170 26.83085
#
# Velocity S-wave (km/s) = 2.93309 3.78256 3.38458
# Velocity P-wave (km/s) = 4.54802 6.63212 5.68637
#
# Compressibility (1/GPa) = 0.04633797
#
# Stress axis : x y z
#
# Youngs Moduli (GPa) = 61.94438 181.54390 34.71833
#
# Poissons Ratio (x) = 0.48801 -0.15439
# Poissons Ratio (y) = 0.16651 0.13253
# Poissons Ratio (z) = -0.27547 0.69303
#
# Static dielectric constant tensor:
#      x y z
#    x 1.996420 0.000000 0.066580 
#    y 0.000000 2.014650 0.000000 
#    z 0.066580 0.000000 1.888130 
# 
# From -- ./inp_files/33059.got.cif
#   From: 2010.05.17/outbox.cif.g08.bks.cpg/sg10_17_cif.got.tgz:33059.got - 2010.06.03 11:33:40.
