data_PCOD9153271
_publ_section_title
;
Structure prediction by ZEFSAII (Michael W. Deem and Ramdas Pophale) SiO2 
 PCOD9153271
Probable space group: P 2/M
;
_chemical_formula_sum "Si O2"
_cell_formula_units_Z 19
_cell_length_a 5.143711
_cell_length_b 20.333119
_cell_length_c 8.850328
_cell_angle_alpha 90.000000
_cell_angle_beta 82.992064
_cell_angle_gamma 90.000000
_cell_volume 918.720163
_symmetry_space_group_name_H-M "P 2/M"
_symmetry_group_IT_number 10
_symmetry_cell_setting 'monoclinic'
loop_
_space_group_symop_operation_xyz
x,y,z
-x,y,-z
-x,-y,-z
x,-y,z
loop_
_atom_site_type_symbol
_atom_site_label
_atom_site_fract_x
_atom_site_fract_y
_atom_site_fract_z
Si Si1 0.171256 0.075383 0.335748
Si Si2 0.279044 0.731698 0.902085
Si Si3 0.774274 0.500000 0.391817
Si Si4 0.500000 0.000000 0.000000
Si Si5 0.300134 0.881125 0.814591
Si Si6 0.228492 0.355245 0.609778
O O1 0.987042 0.115398 0.236982
O O2 0.000000 0.072355 0.500000
O O3 0.462422 0.104046 0.320670
O O4 0.205738 0.000000 0.274500
O O5 0.340187 0.808566 0.872985
O O6 0.252543 0.696985 0.741750
O O7 0.500000 0.704031 0.000000
O O8 0.000000 0.725774 0.000000
O O9 0.500000 0.500000 0.500000
O O10 0.800658 0.428496 0.314570
O O11 0.000000 0.500000 0.500000
O O12 0.329204 0.059023 0.928165
O O13 0.500000 0.354217 0.500000
O O14 0.000000 0.344522 0.500000
#
# Coordination Sequence:
#
# PCOD9153271 Si02
#       6
#     4   4   2   1   4   4
#     4  11  23  41  61  87 112 141 190 258 321 370
#     4  12  26  43  61  92 131 166 205 264 320 368
#     4   8  16  34  64  98 126 162 210 254 288 354
#     4  12  24  42  62  82 108 156 224 236 306 356
#     4  12  25  40  64  83 114 157 204 253 304 372
#     4  10  21  41  69  97 129 169 213 251 301 371
#
# _framework density 20.680945999999999
#
# number of rings (size 3 to 8) (size 9 to 14) (size 15 to 20)
#    0.000    1.053    3.158    3.158    0.000    5.053 
#    0.000    1.053    0.000    0.000    0.000    0.000 
#    0.000    0.000    0.000    0.000    0.000    0.000 
#
# Total GULP energy -105880.881879 kJ/mol
# GULP energy per Si atom -5572.677994 kJ/mol
# Density = 2.063388 g / cm^3
# Si number density = 20.680946 Si / 1000 Ang^3
#
#
#
# Elastic Constant Matrix: (Units=GPa)
#
#
# Indices 1 2 3 4 5 6 
#
# 1 136.2865 25.9410 37.1216 0.0000 -4.0529 0.0000
# 2 25.9410 141.7855 62.4229 0.0000 13.6646 0.0000
# 3 37.1216 62.4229 80.1463 0.0000 9.9973 0.0000
# 4 0.0000 0.0000 0.0000 37.7638 0.0000 91.6690
# 5 -4.0529 13.6646 9.9973 0.0000 36.5216 0.0000
# 6 0.0000 0.0000 0.0000 91.6690 0.0000 93.5089
#
#
#
# Elastic Compliance Matrix: (Units=1/GPa)
#
#
# Indices 1 2 3 4 5 6 
#
# 1 0.008552 0.000141 -0.004331 0.000000 0.002082 0.000000
# 2 0.000141 0.010850 -0.008295 0.000000 -0.001773 0.000000
# 3 -0.004331 -0.008295 0.021345 0.000000 -0.003220 0.000000
# 4 0.000000 0.000000 0.000000 -0.019193 0.000000 0.018816
# 5 0.002082 -0.001773 -0.003220 0.000000 0.029157 0.000000
# 6 0.000000 0.000000 0.000000 0.018816 0.000000 -0.007751
#
#
# Mechanical properties :
#
#
# Convention : Reuss Voigt Hill
#
# Bulk Modulus (GPa) = 63.37688 67.68770 65.53229
# Shear Modulus (GPa) = 68.31737 49.07440 58.69589
#
# Velocity S-wave (km/s) = 5.75375 4.87656 5.33322
# Velocity P-wave (km/s) = 8.65173 8.03170 8.34748
#
# Compressibility (1/GPa) = 0.01577863
#
# Stress axis : x y z
#
# Youngs Moduli (GPa) = 116.93001 92.16738 46.84866
#
# Poissons Ratio (x) = -0.01304 0.20290
# Poissons Ratio (y) = -0.01654 0.38860
# Poissons Ratio (z) = 0.50642 0.76451
#
# Static dielectric constant tensor:
#      x y z
#    x 1.742750 0.000000 -0.071990 
#    y 0.000000 1.755800 0.000000 
#    z -0.071990 0.000000 1.898000 
# 
# From -- ./inp_files/14778.got.cif
#   From: 2010.05.17/outbox.cif.g08.bks.cpg/sg10_8_cif.got.tgz:14778.got - 2010.06.03 11:33:40.
