data_PCOD9153060
_publ_section_title
;
Structure prediction by ZEFSAII (Michael W. Deem and Ramdas Pophale) SiO2 
 PCOD9153060
Probable space group: P 2/M
;
_chemical_formula_sum "Si O2"
_cell_formula_units_Z 22
_cell_length_a 14.099016
_cell_length_b 18.210828
_cell_length_c 8.074223
_cell_angle_alpha 90.000000
_cell_angle_beta 32.946281
_cell_angle_gamma 90.000000
_cell_volume 1127.457940
_symmetry_space_group_name_H-M "P 2/M"
_symmetry_group_IT_number 10
_symmetry_cell_setting 'monoclinic'
loop_
_space_group_symop_operation_xyz
x,y,z
-x,y,-z
-x,-y,-z
x,-y,z
loop_
_atom_site_type_symbol
_atom_site_label
_atom_site_fract_x
_atom_site_fract_y
_atom_site_fract_z
Si Si1 0.166631 0.500000 0.507785
Si Si2 0.312400 0.193835 0.363190
Si Si3 0.034543 0.918894 0.642797
Si Si4 0.351431 0.354791 0.360108
Si Si5 0.232689 0.500000 0.018062
Si Si6 0.331806 0.916733 0.630804
Si Si7 0.500000 0.380762 0.500000
O O1 0.235425 0.427919 0.504324
O O2 0.235727 0.500000 0.214838
O O3 0.959586 0.500000 0.778590
O O4 0.168521 0.145457 0.482483
O O5 0.254467 0.278057 0.467747
O O6 0.338403 0.149287 0.493533
O O7 0.500000 0.194579 0.000000
O O8 0.000000 0.919775 0.500000
O O9 0.104282 0.000000 0.587666
O O10 0.851106 0.910154 0.004981
O O11 0.433335 0.345419 0.424738
O O12 0.500000 0.361905 0.000000
O O13 0.339473 0.430523 0.796439
O O14 0.500000 0.911212 0.500000
O O15 0.338029 0.000000 0.550361
#
# Coordination Sequence:
#
# PCOD9153060 Si02
#       7
#     2   4   4   4   2   4   2
#     4  11  21  45  65  96 130 161 216 266 318 373
#     4  11  24  40  59  93 128 170 206 259 319 373
#     4  10  21  41  66  92 125 166 211 260 317 382
#     4  11  24  43  66  92 132 170 210 270 315 378
#     4  10  22  39  73  96 117 164 213 269 317 384
#     4  10  21  39  65  93 122 162 210 257 310 378
#     4  11  22  42  68  96 119 170 212 254 329 378
#
# _framework density 19.512923000000001
#
# number of rings (size 3 to 8) (size 9 to 14) (size 15 to 20)
#    0.000    1.455    1.818    3.545    1.273    5.818 
#    9.818    0.000    0.000    0.000    0.000    0.000 
#    0.000    0.000    0.000    0.000    0.000    0.000 
#
# Total GULP energy -122757.900319 kJ/mol
# GULP energy per Si atom -5579.904560 kJ/mol
# Density = 1.946851 g / cm^3
# Si number density = 19.512923 Si / 1000 Ang^3
#
#
#
# Elastic Constant Matrix: (Units=GPa)
#
#
# Indices 1 2 3 4 5 6 
#
# 1 127.2394 60.2704 26.8618 0.0000 -6.3265 0.0000
# 2 60.2704 170.0600 45.6622 0.0000 -14.3989 0.0000
# 3 26.8618 45.6622 63.7907 0.0000 -1.0146 0.0000
# 4 0.0000 0.0000 0.0000 17.3746 0.0000 -9.4311
# 5 -6.3265 -14.3989 -1.0146 0.0000 31.5568 0.0000
# 6 0.0000 0.0000 0.0000 -9.4311 0.0000 40.0782
#
#
#
# Elastic Compliance Matrix: (Units=1/GPa)
#
#
# Indices 1 2 3 4 5 6 
#
# 1 0.009657 -0.002827 -0.002033 0.000000 0.000581 0.000000
# 2 -0.002827 0.008435 -0.004798 0.000000 0.003128 0.000000
# 3 -0.002033 -0.004798 0.019936 0.000000 -0.001956 0.000000
# 4 0.000000 0.000000 0.000000 0.065983 0.000000 0.015527
# 5 0.000581 0.003128 -0.001956 0.000000 0.033170 0.000000
# 6 0.000000 0.000000 0.000000 0.015527 0.000000 0.028605
#
#
# Mechanical properties :
#
#
# Convention : Reuss Voigt Hill
#
# Bulk Modulus (GPa) = 53.44494 69.63099 61.53796
# Shear Modulus (GPa) = 26.13161 33.02165 29.57663
#
# Velocity S-wave (km/s) = 3.66347 4.11822 3.89748
# Velocity P-wave (km/s) = 6.73377 7.64035 7.20134
#
# Compressibility (1/GPa) = 0.01871084
#
# Stress axis : x y z
#
# Youngs Moduli (GPa) = 103.55702 118.54869 50.16115
#
# Poissons Ratio (x) = 0.33516 0.10199
# Poissons Ratio (y) = 0.29278 0.24067
# Poissons Ratio (z) = 0.21056 0.56878
#
# Static dielectric constant tensor:
#      x y z
#    x 1.686260 0.000000 0.033770 
#    y 0.000000 1.674150 0.000000 
#    z 0.033770 0.000000 1.664250 
# 
# From -- ./inp_files/30047.got.cif
#   From: 2010.05.17/outbox.cif.g08.bks.cpg/sg10_16_cif.got.tgz:30047.got - 2010.06.03 11:33:40.
