data_PCOD9153502
_publ_section_title
;
Structure prediction by ZEFSAII (Michael W. Deem and Ramdas Pophale) SiO2 
 PCOD9153502
Probable space group: P 2/M
;
_chemical_formula_sum "Si O2"
_cell_formula_units_Z 24
_cell_length_a 20.045042
_cell_length_b 13.146803
_cell_length_c 11.196610
_cell_angle_alpha 90.000000
_cell_angle_beta 26.751377
_cell_angle_gamma 90.000000
_cell_volume 1328.133994
_symmetry_space_group_name_H-M "P 2/M"
_symmetry_group_IT_number 10
_symmetry_cell_setting 'monoclinic'
loop_
_space_group_symop_operation_xyz
x,y,z
-x,y,-z
-x,-y,-z
x,-y,z
loop_
_atom_site_type_symbol
_atom_site_label
_atom_site_fract_x
_atom_site_fract_y
_atom_site_fract_z
Si Si1 0.304322 0.614709 0.695298
Si Si2 0.762875 0.818035 0.815202
Si Si3 0.173905 0.000000 0.675651
Si Si4 0.071249 0.119062 0.223806
Si Si5 0.851709 0.195027 0.161572
Si Si6 0.657579 0.615314 0.090383
Si Si7 0.648913 0.000000 0.841495
O O1 0.252867 0.500000 0.750361
O O2 0.232325 0.701453 0.730860
O O3 0.480676 0.617450 0.392203
O O4 0.277044 0.633162 0.880540
O O5 0.796465 0.857299 0.895731
O O6 0.665800 0.899455 0.896833
O O7 0.924750 0.819536 0.495340
O O8 0.702418 0.704493 0.928785
O O9 0.235132 0.105535 0.630225
O O10 0.214041 0.000000 0.472575
O O11 0.000000 0.000000 0.000000
O O12 0.038165 0.000000 0.291297
O O13 0.109865 0.146323 0.027669
O O14 0.000000 0.215938 0.000000
O O15 0.698708 0.500000 0.987821
O O16 0.500000 0.000000 0.000000
#
# Coordination Sequence:
#
# PCOD9153502 Si02
#       7
#     4   4   2   4   4   4   2
#     4   9  19  37  58  82 112 149 195 241 288 339
#     4  11  20  37  60  82 117 154 187 234 292 347
#     4  10  22  39  56  78 118 162 195 225 286 357
#     4  11  20  37  58  87 113 154 199 231 283 356
#     4  11  21  34  59  85 116 151 195 237 281 346
#     4   9  19  37  60  83 111 149 194 241 289 343
#     4  12  26  38  56  94 125 151 191 245 302 347
#
# _framework density 18.070466
#
# number of rings (size 3 to 8) (size 9 to 14) (size 15 to 20)
#    0.000    1.667    4.167    3.500    2.333    0.333 
#    0.000    2.500    0.000    7.500    0.000    0.000 
#    0.000    0.000    0.000    0.000    0.000    0.000 
#
# Total GULP energy -133822.491147 kJ/mol
# GULP energy per Si atom -5575.937131 kJ/mol
# Density = 1.802934 g / cm^3
# Si number density = 18.070466 Si / 1000 Ang^3
#
#
#
# Elastic Constant Matrix: (Units=GPa)
#
#
# Indices 1 2 3 4 5 6 
#
# 1 120.1197 64.8448 18.1022 0.0000 -3.4697 0.0000
# 2 64.8448 189.7205 37.6519 0.0000 2.1409 0.0000
# 3 18.1022 37.6519 30.4245 0.0000 7.2470 0.0000
# 4 0.0000 0.0000 0.0000 8.5854 0.0000 3.4975
# 5 -3.4697 2.1409 7.2470 0.0000 26.8310 0.0000
# 6 0.0000 0.0000 0.0000 3.4975 0.0000 34.7402
#
#
#
# Elastic Compliance Matrix: (Units=1/GPa)
#
#
# Indices 1 2 3 4 5 6 
#
# 1 0.010479 -0.002991 -0.003113 0.000000 0.002435 0.000000
# 2 -0.002991 0.007933 -0.008330 0.000000 0.001230 0.000000
# 3 -0.003113 -0.008330 0.048059 0.000000 -0.012719 0.000000
# 4 0.000000 0.000000 0.000000 0.121457 0.000000 -0.012228
# 5 0.002435 0.001230 -0.012719 0.000000 0.040922 0.000000
# 6 0.000000 0.000000 0.000000 -0.012228 0.000000 0.030016
#
#
# Mechanical properties :
#
#
# Convention : Reuss Voigt Hill
#
# Bulk Modulus (GPa) = 26.59452 64.60695 45.60073
# Shear Modulus (GPa) = 16.65167 28.67572 22.66370
#
# Velocity S-wave (km/s) = 3.03889 3.98789 3.54529
# Velocity P-wave (km/s) = 5.20214 7.55214 6.48448
#
# Compressibility (1/GPa) = 0.03760173
#
# Stress axis : x y z
#
# Youngs Moduli (GPa) = 95.42562 126.06059 20.80774
#
# Poissons Ratio (x) = 0.37710 0.06477
# Poissons Ratio (y) = 0.28546 0.17333
# Poissons Ratio (z) = 0.29706 1.05012
#
# Static dielectric constant tensor:
#      x y z
#    x 1.641870 0.000000 -0.016120 
#    y 0.000000 1.637840 0.000000 
#    z -0.016120 0.000000 1.630080 
# 
# From -- ./inp_files/55636.got.cif
#   From: 2010.05.17/outbox.cif.g08.bks.cpg/sg10_28_cif.got.tgz:55636.got - 2010.06.03 11:33:40.
