data_PCOD9153143
_publ_section_title
;
Structure prediction by ZEFSAII (Michael W. Deem and Ramdas Pophale) SiO2 
 PCOD9153143
Probable space group: P 2/M
;
_chemical_formula_sum "Si O2"
_cell_formula_units_Z 18
_cell_length_a 5.506442
_cell_length_b 25.624610
_cell_length_c 5.567643
_cell_angle_alpha 90.000000
_cell_angle_beta 82.077109
_cell_angle_gamma 90.000000
_cell_volume 778.097878
_symmetry_space_group_name_H-M "P 2/M"
_symmetry_group_IT_number 10
_symmetry_cell_setting 'monoclinic'
loop_
_space_group_symop_operation_xyz
x,y,z
-x,y,-z
-x,-y,-z
x,-y,z
loop_
_atom_site_type_symbol
_atom_site_label
_atom_site_fract_x
_atom_site_fract_y
_atom_site_fract_z
Si Si1 0.276148 0.777056 0.346837
Si Si2 0.848130 0.333103 0.775076
Si Si3 0.861060 0.114627 0.767926
Si Si4 0.361015 0.000000 0.267204
Si Si5 0.273361 0.556449 0.343607
O O1 0.500000 0.781136 0.500000
O O2 0.300985 0.720860 0.218189
O O3 0.286257 0.830856 0.195192
O O4 0.000000 0.774304 0.500000
O O5 0.714952 0.389030 0.797446
O O6 0.000000 0.334327 0.500000
O O7 0.000000 0.330007 0.000000
O O8 0.762031 0.056641 0.732467
O O9 0.000000 0.123440 0.500000
O O10 0.000000 0.110704 0.000000
O O11 0.500000 0.000000 0.500000
O O12 0.500000 0.000000 0.000000
O O13 0.500000 0.557573 0.500000
O O14 0.287969 0.500000 0.212186
O O15 0.000000 0.556177 0.500000
#
# Coordination Sequence:
#
# PCOD9153143 Si02
#       5
#     4   4   4   2   4
#     4  10  22  42  66  95 129 169 214 265 321 382
#     4  10  21  40  63  92 127 167 213 264 320 381
#     4  11  23  42  64  92 128 171 215 264 321 382
#     4  12  24  40  64  96 130 172 217 266 321 380
#     4   9  18  35  59  88 123 164 210 261 317 378
#
# _framework density 23.133337000000001
#
# number of rings (size 3 to 8) (size 9 to 14) (size 15 to 20)
#    0.000    1.778    0.000    4.000    0.000    2.222 
#    0.000   26.667    0.000   12.000    0.000    0.000 
#    0.000    0.000    0.000    0.000    0.000    0.000 
#
# Total GULP energy -100234.383181 kJ/mol
# GULP energy per Si atom -5568.576843 kJ/mol
# Density = 2.308068 g / cm^3
# Si number density = 23.133337 Si / 1000 Ang^3
#
#
#
# Elastic Constant Matrix: (Units=GPa)
#
#
# Indices 1 2 3 4 5 6 
#
# 1 117.3333 44.3779 63.8328 0.0000 13.5558 0.0000
# 2 44.3779 338.0694 66.4833 0.0000 43.2007 0.0000
# 3 63.8328 66.4833 171.2214 0.0000 29.2507 0.0000
# 4 0.0000 0.0000 0.0000 100.6779 0.0000 -71.5442
# 5 13.5558 43.2007 29.2507 0.0000 71.9534 0.0000
# 6 0.0000 0.0000 0.0000 -71.5442 0.0000 181.5357
#
#
#
# Elastic Compliance Matrix: (Units=1/GPa)
#
#
# Indices 1 2 3 4 5 6 
#
# 1 0.010834 -0.000668 -0.003761 0.000000 -0.000111 0.000000
# 2 -0.000668 0.003407 -0.000801 0.000000 -0.001594 0.000000
# 3 -0.003761 -0.000801 0.007899 0.000000 -0.002021 0.000000
# 4 0.000000 0.000000 0.000000 0.013797 0.000000 0.005437
# 5 -0.000111 -0.001594 -0.002021 0.000000 0.015697 0.000000
# 6 0.000000 0.000000 0.000000 0.005437 0.000000 0.007651
#
#
# Mechanical properties :
#
#
# Convention : Reuss Voigt Hill
#
# Bulk Modulus (GPa) = 85.62210 108.44578 97.03394
# Shear Modulus (GPa) = 67.89831 100.96207 84.43019
#
# Velocity S-wave (km/s) = 5.42352 6.61349 6.04784
# Velocity P-wave (km/s) = 8.73569 10.26148 9.52917
#
# Compressibility (1/GPa) = 0.01167923
#
# Stress axis : x y z
#
# Youngs Moduli (GPa) = 92.29987 293.51408 126.60030
#
# Poissons Ratio (x) = 0.19620 0.47609
# Poissons Ratio (y) = 0.06170 0.10146
# Poissons Ratio (z) = 0.34710 0.23522
#
# Static dielectric constant tensor:
#      x y z
#    x 1.878310 0.000000 -0.115980 
#    y 0.000000 2.369770 0.000000 
#    z -0.115980 0.000000 2.692380 
# 
# From -- ./inp_files/1786.got.cif
#   From: 2010.05.17/outbox.cif.g08.bks.cpg/sg10_1_cif.got.tgz:1786.got - 2010.06.03 11:33:40.
