data_PCOD9153933
_publ_section_title
;
Structure prediction by ZEFSAII (Michael W. Deem and Ramdas Pophale) SiO2 
 PCOD9153933
Probable space group: P 2/M
;
_chemical_formula_sum "Si O2"
_cell_formula_units_Z 17
_cell_length_a 10.042817
_cell_length_b 7.396621
_cell_length_c 9.408382
_cell_angle_alpha 90.000000
_cell_angle_beta 116.962526
_cell_angle_gamma 90.000000
_cell_volume 622.915811
_symmetry_space_group_name_H-M "P 2/M"
_symmetry_group_IT_number 10
_symmetry_cell_setting 'monoclinic'
loop_
_space_group_symop_operation_xyz
x,y,z
-x,y,-z
-x,-y,-z
x,-y,z
loop_
_atom_site_type_symbol
_atom_site_label
_atom_site_fract_x
_atom_site_fract_y
_atom_site_fract_z
Si Si1 0.019447 0.711610 0.253733
Si Si2 0.336890 0.294008 0.419340
Si Si3 0.000000 0.000000 0.500000
Si Si4 0.282813 0.783181 0.004009
Si Si5 0.402101 0.218249 0.752352
O O1 0.035791 0.500000 0.300831
O O2 0.183758 0.778093 0.280301
O O3 0.886359 0.719938 0.074808
O O4 0.979584 0.842579 0.365241
O O5 0.500000 0.201372 0.500000
O O6 0.355174 0.500000 0.382790
O O7 0.308791 0.290403 0.576224
O O8 0.339918 0.725415 0.874347
O O9 0.282757 0.000000 0.008367
O O10 0.422147 0.728645 0.171123
O O11 0.391358 0.000000 0.742537
#
# Coordination Sequence:
#
# PCOD9153933 Si02
#       5
#     4   4   1   4   4
#     4  11  23  37  59  88 118 157 199 239 298 357
#     4  10  23  41  57  81 119 160 204 247 285 342
#     4  12  22  36  58  88 126 148 182 254 300 342
#     4   9  18  36  58  87 123 149 186 245 303 350
#     4   9  19  34  58  87 116 154 192 237 295 357
#
# _framework density 27.291007
#
# number of rings (size 3 to 8) (size 9 to 14) (size 15 to 20)
#    0.000    2.118    1.176    3.176    4.941    4.235 
#    0.000    3.529    0.000    7.059    0.000    0.000 
#    0.000    0.000    0.000    0.000    0.000    0.000 
#
# Total GULP energy -94842.497451 kJ/mol
# GULP energy per Si atom -5578.970438 kJ/mol
# Density = 2.722889 g / cm^3
# Si number density = 27.291007 Si / 1000 Ang^3
#
#
#
# Elastic Constant Matrix: (Units=GPa)
#
#
# Indices 1 2 3 4 5 6 
#
# 1 119.0109 19.4983 51.2894 0.0000 52.7258 0.0000
# 2 19.4983 151.6434 23.1617 0.0000 -5.7109 0.0000
# 3 51.2894 23.1617 159.2126 0.0000 45.6403 0.0000
# 4 0.0000 0.0000 0.0000 -19.5790 0.0000 39.1013
# 5 52.7258 -5.7109 45.6403 0.0000 63.7703 0.0000
# 6 0.0000 0.0000 0.0000 39.1013 0.0000 -1.9659
#
#
#
# Elastic Compliance Matrix: (Units=1/GPa)
#
#
# Indices 1 2 3 4 5 6 
#
# 1 0.014116 -0.002070 -0.001066 0.000000 -0.011094 0.000000
# 2 -0.002070 0.007188 -0.001326 0.000000 0.003304 0.000000
# 3 -0.001066 -0.001326 0.008302 0.000000 -0.005179 0.000000
# 4 0.000000 0.000000 0.000000 0.001319 0.000000 0.026235
# 5 -0.011094 0.003304 -0.005179 0.000000 0.028856 0.000000
# 6 0.000000 0.000000 0.000000 0.026235 0.000000 0.013137
#
#
# Mechanical properties :
#
#
# Convention : Reuss Voigt Hill
#
# Bulk Modulus (GPa) = 48.35301 68.64064 58.49682
# Shear Modulus (GPa) = 56.34766 30.83958 43.59362
#
# Velocity S-wave (km/s) = 4.54882 3.36523 4.00104
# Velocity P-wave (km/s) = 6.73388 6.34868 6.54411
#
# Compressibility (1/GPa) = 0.02068124
#
# Stress axis : x y z
#
# Youngs Moduli (GPa) = 70.84148 139.12975 120.45507
#
# Poissons Ratio (x) = 0.28800 0.12842
# Poissons Ratio (y) = 0.14664 0.15972
# Poissons Ratio (z) = 0.07553 0.18448
#
# Static dielectric constant tensor:
#      x y z
#    x 2.312750 0.000000 0.035230 
#    y 0.000000 2.110770 0.000000 
#    z 0.035230 0.000000 2.083180 
# 
# From -- ./inp_files/40934.got.cif
#   From: 2010.05.17/outbox.cif.g08.bks.cpg/sg10_21_cif.got.tgz:40934.got - 2010.06.03 11:33:40.
