data_PCOD9153850
_publ_section_title
;
Structure prediction by ZEFSAII (Michael W. Deem and Ramdas Pophale) SiO2 
 PCOD9153850
Probable space group: P 2/M
;
_chemical_formula_sum "Si O2"
_cell_formula_units_Z 25
_cell_length_a 10.106141
_cell_length_b 21.134492
_cell_length_c 9.458126
_cell_angle_alpha 90.000000
_cell_angle_beta 135.381018
_cell_angle_gamma 90.000000
_cell_volume 1418.926521
_symmetry_space_group_name_H-M "P 2/M"
_symmetry_group_IT_number 10
_symmetry_cell_setting 'monoclinic'
loop_
_space_group_symop_operation_xyz
x,y,z
-x,y,-z
-x,-y,-z
x,-y,z
loop_
_atom_site_type_symbol
_atom_site_label
_atom_site_fract_x
_atom_site_fract_y
_atom_site_fract_z
Si Si1 0.485278 0.302912 0.659197
Si Si2 0.000000 0.500000 0.500000
Si Si3 0.641183 0.928145 0.975365
Si Si4 0.904408 0.285617 0.077694
Si Si5 0.983381 0.839860 0.318905
Si Si6 0.592022 0.842812 0.416894
Si Si7 0.886744 0.369264 0.546423
O O1 0.500000 0.312681 0.500000
O O2 0.415140 0.231162 0.630802
O O3 0.330672 0.348990 0.609618
O O4 0.690836 0.306059 0.884591
O O5 0.916797 0.443303 0.540862
O O6 0.830205 0.893119 0.167667
O O7 0.676479 0.000000 0.953584
O O8 0.500000 0.930618 0.000000
O O9 0.534140 0.885757 0.779410
O O10 0.921662 0.224029 0.190316
O O11 0.016719 0.341847 0.239810
O O12 0.000000 0.270187 0.000000
O O13 0.189162 0.860436 0.420888
O O14 0.000000 0.829840 0.500000
O O15 0.500000 0.846448 0.500000
O O16 0.000000 0.338422 0.500000
#
# Coordination Sequence:
#
# PCOD9153850 Si02
#       7
#     4   1   4   4   4   4   4
#     4  11  21  38  66  99 127 164 209 267 322 366
#     4   8  24  48  62  92 148 166 200 272 298 368
#     4  11  25  43  62  89 129 170 215 266 319 389
#     4  12  22  38  69 102 130 160 211 274 319 366
#     4  12  24  40  64  96 123 167 214 262 322 380
#     4  11  23  41  64  95 132 160 208 276 327 370
#     4  10  22  43  65  93 132 170 206 256 315 362
#
# _framework density 17.618953999999999
#
# number of rings (size 3 to 8) (size 9 to 14) (size 15 to 20)
#    0.480    0.480    6.400    1.440    0.000    1.920 
#    0.000    3.200    0.000    0.000    0.000    0.000 
#    0.000    0.000    0.000    0.000    0.000    0.000 
#
# Total GULP energy -139264.342509 kJ/mol
# GULP energy per Si atom -5570.573700 kJ/mol
# Density = 1.757885 g / cm^3
# Si number density = 17.618954 Si / 1000 Ang^3
#
#
#
# Elastic Constant Matrix: (Units=GPa)
#
#
# Indices 1 2 3 4 5 6 
#
# 1 93.4521 43.3248 41.1322 0.0000 21.8909 0.0000
# 2 43.3248 117.5544 35.6997 0.0000 -4.5154 0.0000
# 3 41.1322 35.6997 101.6330 0.0000 21.5904 0.0000
# 4 0.0000 0.0000 0.0000 30.9026 0.0000 -99.6672
# 5 21.8909 -4.5154 21.5904 0.0000 37.3556 0.0000
# 6 0.0000 0.0000 0.0000 -99.6672 0.0000 419.2972
#
#
#
# Elastic Compliance Matrix: (Units=1/GPa)
#
#
# Indices 1 2 3 4 5 6 
#
# 1 0.016609 -0.005572 -0.002911 0.000000 -0.008724 0.000000
# 2 -0.005572 0.011815 -0.003297 0.000000 0.006599 0.000000
# 3 -0.002911 -0.003297 0.013563 0.000000 -0.006532 0.000000
# 4 0.000000 0.000000 0.000000 0.138665 0.000000 0.032961
# 5 -0.008724 0.006599 -0.006532 0.000000 0.036455 0.000000
# 6 0.000000 0.000000 0.000000 0.032961 0.000000 0.010220
#
#
# Mechanical properties :
#
#
# Convention : Reuss Voigt Hill
#
# Bulk Modulus (GPa) = 54.27004 61.43920 57.85462
# Shear Modulus (GPa) = 19.45301 110.34328 64.89814
#
# Velocity S-wave (km/s) = 3.32640 7.92235 6.07571
# Velocity P-wave (km/s) = 6.75442 10.89181 9.06239
#
# Compressibility (1/GPa) = 0.01842637
#
# Stress axis : x y z
#
# Youngs Moduli (GPa) = 60.20864 84.63785 73.72923
#
# Poissons Ratio (x) = 0.47162 0.21464
# Poissons Ratio (y) = 0.33550 0.24308
# Poissons Ratio (z) = 0.17528 0.27904
#
# Static dielectric constant tensor:
#      x y z
#    x 1.618950 0.000000 -0.001590 
#    y 0.000000 1.578730 0.000000 
#    z -0.001590 0.000000 1.605210 
# 
# From -- ./inp_files/20159.got.cif
#   From: 2010.05.17/outbox.cif.g08.bks.cpg/sg10_11_cif.got.tgz:20159.got - 2010.06.03 11:33:40.
