data_PCOD9153752
_publ_section_title
;
Structure prediction by ZEFSAII (Michael W. Deem and Ramdas Pophale) SiO2 
 PCOD9153752
Probable space group: P 2/M
;
_chemical_formula_sum "Si O2"
_cell_formula_units_Z 28
_cell_length_a 13.804522
_cell_length_b 8.761344
_cell_length_c 11.904347
_cell_angle_alpha 90.000000
_cell_angle_beta 75.397445
_cell_angle_gamma 90.000000
_cell_volume 1393.277087
_symmetry_space_group_name_H-M "P 2/M"
_symmetry_group_IT_number 10
_symmetry_cell_setting 'monoclinic'
loop_
_space_group_symop_operation_xyz
x,y,z
-x,y,-z
-x,-y,-z
x,-y,z
loop_
_atom_site_type_symbol
_atom_site_label
_atom_site_fract_x
_atom_site_fract_y
_atom_site_fract_z
Si Si1 0.792187 0.682524 0.327597
Si Si2 0.857457 0.317489 0.776519
Si Si3 0.880780 0.817946 0.531554
Si Si4 0.962604 0.817118 0.135092
Si Si5 0.653629 0.680137 0.959027
Si Si6 0.559062 0.322448 0.366804
Si Si7 0.504057 0.177267 0.160817
O O1 0.802990 0.500000 0.328584
O O2 0.834078 0.751560 0.431531
O O3 0.857940 0.746358 0.205548
O O4 0.675194 0.718904 0.348556
O O5 0.870941 0.500000 0.768718
O O6 0.836948 0.256390 0.657452
O O7 0.764644 0.282487 0.885616
O O8 0.955517 0.238987 0.798756
O O9 0.000000 0.786290 0.500000
O O10 0.866820 0.000000 0.538197
O O11 0.955787 0.000000 0.140117
O O12 0.000000 0.770318 0.000000
O O13 0.647617 0.500000 0.985019
O O14 0.578460 0.722954 0.879716
O O15 0.610576 0.774537 0.075863
O O16 0.500000 0.311816 0.500000
O O17 0.555095 0.500000 0.329882
O O18 0.507892 0.217843 0.289238
O O19 0.484269 0.000000 0.145807
#
# Coordination Sequence:
#
# PCOD9153752 Si02
#       7
#     4   4   4   4   4   4   4
#     4  11  24  42  67  94 122 165 216 261 308 370
#     4  11  24  40  65  95 122 161 211 257 304 367
#     4  11  23  40  63  91 126 163 199 249 314 369
#     4  11  25  43  63  92 131 170 206 254 318 376
#     4  10  22  41  65  92 124 163 206 256 312 367
#     4  10  24  45  66  90 124 167 212 259 313 372
#     4  11  23  40  64  94 125 161 207 257 313 371
#
# _framework density 20.096503999999999
#
# number of rings (size 3 to 8) (size 9 to 14) (size 15 to 20)
#    0.000    1.286    1.429    4.286    4.000    5.429 
#    0.000    0.000    0.000    0.000    0.000    0.000 
#    0.000    0.000    0.000    0.000    0.000    0.000 
#
# Total GULP energy -156622.944690 kJ/mol
# GULP energy per Si atom -5593.676596 kJ/mol
# Density = 2.005076 g / cm^3
# Si number density = 20.096504 Si / 1000 Ang^3
#
#
#
# Elastic Constant Matrix: (Units=GPa)
#
#
# Indices 1 2 3 4 5 6 
#
# 1 48.7667 5.0324 6.0975 0.0000 -17.2506 0.0000
# 2 5.0324 19.7141 2.0840 0.0000 -5.5896 0.0000
# 3 6.0975 2.0840 69.3198 0.0000 -1.4894 0.0000
# 4 0.0000 0.0000 0.0000 41.4898 0.0000 8.3132
# 5 -17.2506 -5.5896 -1.4894 0.0000 33.4239 0.0000
# 6 0.0000 0.0000 0.0000 8.3132 0.0000 -6.8724
#
#
#
# Elastic Compliance Matrix: (Units=1/GPa)
#
#
# Indices 1 2 3 4 5 6 
#
# 1 0.025485 -0.002730 -0.001889 0.000000 0.012613 0.000000
# 2 -0.002730 0.053681 -0.001212 0.000000 0.007514 0.000000
# 3 -0.001889 -0.001212 0.014617 0.000000 -0.000526 0.000000
# 4 0.000000 0.000000 0.000000 0.019400 0.000000 0.023467
# 5 0.012613 0.007514 -0.000526 0.000000 0.037662 0.000000
# 6 0.000000 0.000000 0.000000 0.023467 0.000000 -0.117122
#
#
# Mechanical properties :
#
#
# Convention : Reuss Voigt Hill
#
# Bulk Modulus (GPa) = 12.17710 18.24760 15.21235
# Shear Modulus (GPa) = 68.72061 21.91402 45.31732
#
# Velocity S-wave (km/s) = 5.85402 3.30576 4.75382
# Velocity P-wave (km/s) = 7.19480 4.86523 6.14148
#
# Compressibility (1/GPa) = 0.08212134
#
# Stress axis : x y z
#
# Youngs Moduli (GPa) = 39.23840 18.62871 68.41270
#
# Poissons Ratio (x) = 0.05085 0.12921
# Poissons Ratio (y) = 0.10712 0.08293
# Poissons Ratio (z) = 0.07411 0.02258
#
# Static dielectric constant tensor:
#      x y z
#    x 1.694500 0.000000 -0.014570 
#    y 0.000000 1.679660 0.000000 
#    z -0.014570 0.000000 1.711310 
# 
# From -- ./inp_files/49057.got.cif
#   From: 2010.05.17/outbox.cif.g08.bks.cpg/sg10_25_cif.got.tgz:49057.got - 2010.06.03 11:33:40.
