data_PCOD9153450
_publ_section_title
;
Structure prediction by ZEFSAII (Michael W. Deem and Ramdas Pophale) SiO2 
 PCOD9153450
Probable space group: P 2/M
;
_chemical_formula_sum "Si O2"
_cell_formula_units_Z 28
_cell_length_a 9.271543
_cell_length_b 13.799009
_cell_length_c 11.495553
_cell_angle_alpha 90.000000
_cell_angle_beta 66.767155
_cell_angle_gamma 90.000000
_cell_volume 1351.457703
_symmetry_space_group_name_H-M "P 2/M"
_symmetry_group_IT_number 10
_symmetry_cell_setting 'monoclinic'
loop_
_space_group_symop_operation_xyz
x,y,z
-x,y,-z
-x,-y,-z
x,-y,z
loop_
_atom_site_type_symbol
_atom_site_label
_atom_site_fract_x
_atom_site_fract_y
_atom_site_fract_z
Si Si1 0.397811 0.601388 0.148049
Si Si2 0.365710 0.255771 0.856185
Si Si3 0.324293 0.386486 0.506788
Si Si4 0.484365 0.113712 0.367743
Si Si5 0.842856 0.726278 0.861650
Si Si6 0.137757 0.611640 0.804332
Si Si7 0.175510 0.220194 0.393642
O O1 0.413922 0.500000 0.207421
O O2 0.461297 0.702047 0.177285
O O3 0.224293 0.621827 0.159547
O O4 0.500000 0.593652 0.000000
O O5 0.392071 0.175348 0.749539
O O6 0.278574 0.352789 0.840791
O O7 0.273287 0.229126 0.003903
O O8 0.500000 0.359330 0.500000
O O9 0.333516 0.500000 0.472486
O O10 0.204697 0.380465 0.652756
O O11 0.250074 0.319169 0.429197
O O12 0.500000 0.135354 0.500000
O O13 0.307054 0.141920 0.387523
O O14 0.511941 0.000000 0.341216
O O15 0.850298 0.781889 0.737678
O O16 0.008037 0.694784 0.861236
O O17 0.094574 0.500000 0.841936
O O18 0.000000 0.207597 0.500000
#
# Coordination Sequence:
#
# PCOD9153450 Si02
#       7
#     4   4   4   4   4   4   4
#     4   9  18  33  56  87 126 170 213 252 298 369
#     4  11  22  41  65  91 129 169 222 266 321 380
#     4  10  22  38  58  90 132 183 233 270 311 376
#     4  11  26  49  76  98 120 160 218 277 341 409
#     4  11  23  37  59  95 135 175 211 256 314 382
#     4  11  22  37  59  92 138 186 224 262 310 378
#     4  12  23  41  67  95 133 171 210 268 331 391
#
# _framework density 20.718368999999999
#
# number of rings (size 3 to 8) (size 9 to 14) (size 15 to 20)
#    0.000    1.286    2.857    3.429    0.000    4.000 
#    0.000    1.429    0.000    2.143    0.000    0.000 
#    0.000    0.000    0.000    0.000    0.000    0.000 
#
# Total GULP energy -156070.979675 kJ/mol
# GULP energy per Si atom -5573.963560 kJ/mol
# Density = 2.067121 g / cm^3
# Si number density = 20.718369 Si / 1000 Ang^3
#
#
#
# Elastic Constant Matrix: (Units=GPa)
#
#
# Indices 1 2 3 4 5 6 
#
# 1 57.1013 5.1493 27.0938 0.0000 -5.8609 0.0000
# 2 5.1493 82.8236 38.7555 0.0000 5.5972 0.0000
# 3 27.0938 38.7555 181.4456 0.0000 2.0788 0.0000
# 4 0.0000 0.0000 0.0000 19.7710 0.0000 -2.3118
# 5 -5.8609 5.5972 2.0788 0.0000 31.8731 0.0000
# 6 0.0000 0.0000 0.0000 -2.3118 0.0000 17.5376
#
#
#
# Elastic Compliance Matrix: (Units=1/GPa)
#
#
# Indices 1 2 3 4 5 6 
#
# 1 0.019283 -0.000094 -0.002902 0.000000 0.003752 0.000000
# 2 -0.000094 0.013567 -0.002858 0.000000 -0.002213 0.000000
# 3 -0.002902 -0.002858 0.006560 0.000000 -0.000460 0.000000
# 4 0.000000 0.000000 0.000000 0.051371 0.000000 0.006772
# 5 0.003752 -0.002213 -0.000460 0.000000 0.032483 0.000000
# 6 0.000000 0.000000 0.000000 0.006772 0.000000 0.057913
#
#
# Mechanical properties :
#
#
# Convention : Reuss Voigt Hill
#
# Bulk Modulus (GPa) = 36.10012 51.48528 43.79270
# Shear Modulus (GPa) = 24.73770 30.52783 27.63276
#
# Velocity S-wave (km/s) = 3.45918 3.84274 3.65599
# Velocity P-wave (km/s) = 5.78071 6.67779 6.24538
#
# Compressibility (1/GPa) = 0.02770074
#
# Stress axis : x y z
#
# Youngs Moduli (GPa) = 51.85805 73.70946 152.42866
#
# Poissons Ratio (x) = 0.00696 0.44239
# Poissons Ratio (y) = 0.00489 0.43569
# Poissons Ratio (z) = 0.15051 0.21068
#
# Static dielectric constant tensor:
#      x y z
#    x 1.735000 0.000000 0.011190 
#    y 0.000000 1.733070 0.000000 
#    z 0.011190 0.000000 1.817470 
# 
# From -- ./inp_files/42668.got.cif
#   From: 2010.05.17/outbox.cif.g08.bks.cpg/sg10_22_cif.got.tgz:42668.got - 2010.06.03 11:33:40.
