data_PCOD9153558
_publ_section_title
;
Structure prediction by ZEFSAII (Michael W. Deem and Ramdas Pophale) SiO2 
 PCOD9153558
Probable space group: P 2/M
;
_chemical_formula_sum "Si O2"
_cell_formula_units_Z 16
_cell_length_a 6.729462
_cell_length_b 14.128126
_cell_length_c 14.028143
_cell_angle_alpha 90.000000
_cell_angle_beta 42.805568
_cell_angle_gamma 90.000000
_cell_volume 906.280439
_symmetry_space_group_name_H-M "P 2/M"
_symmetry_group_IT_number 10
_symmetry_cell_setting 'monoclinic'
loop_
_space_group_symop_operation_xyz
x,y,z
-x,y,-z
-x,-y,-z
x,-y,z
loop_
_atom_site_type_symbol
_atom_site_label
_atom_site_fract_x
_atom_site_fract_y
_atom_site_fract_z
Si Si1 0.198323 0.230150 0.657123
Si Si2 0.120107 0.610254 0.350016
Si Si3 0.379890 0.110253 0.149985
Si Si4 0.301679 0.730149 0.842877
O O1 0.500000 0.203127 0.500000
O O2 0.250003 0.250000 0.749999
O O3 0.075272 0.324884 0.649959
O O4 0.947828 0.151450 0.732327
O O5 0.109615 0.500000 0.327844
O O6 0.447827 0.651449 0.232325
O O7 0.000000 0.620813 0.500000
O O8 0.575271 0.175117 0.149959
O O9 0.390377 0.000000 0.172162
O O10 0.500000 0.120809 0.000000
O O11 0.000000 0.703126 0.000000
#
# Coordination Sequence:
#
# PCOD9153558 Si02
#       4
#     4   4   4   4
#     4  11  22  39  61  88 120 155 192 241 295 344
#     4  10  22  39  61  89 118 153 198 241 287 349
#     4  10  22  39  61  89 118 153 198 241 287 349
#     4  11  22  39  61  88 120 155 192 241 295 344
#
# _framework density 17.654579999999999
#
# number of rings (size 3 to 8) (size 9 to 14) (size 15 to 20)
#    0.000    1.500    5.000    0.000    0.000    4.000 
#    0.000    2.500    0.000    0.000    0.000    0.000 
#    0.000    0.000    0.000    0.000    0.000    0.000 
#
# Total GULP energy -89381.348651 kJ/mol
# GULP energy per Si atom -5586.334291 kJ/mol
# Density = 1.761440 g / cm^3
# Si number density = 17.654580 Si / 1000 Ang^3
#
#
#
# Elastic Constant Matrix: (Units=GPa)
#
#
# Indices 1 2 3 4 5 6 
#
# 1 90.5389 43.0740 47.8436 0.0000 -3.2606 0.0000
# 2 43.0740 133.7076 50.5765 0.0000 -5.7733 0.0000
# 3 47.8436 50.5765 141.8427 0.0000 -24.5032 0.0000
# 4 0.0000 0.0000 0.0000 24.8972 0.0000 8.0241
# 5 -3.2606 -5.7733 -24.5032 0.0000 45.3150 0.0000
# 6 0.0000 0.0000 0.0000 8.0241 0.0000 8.8894
#
#
#
# Elastic Compliance Matrix: (Units=1/GPa)
#
#
# Indices 1 2 3 4 5 6 
#
# 1 0.014686 -0.003263 -0.004059 0.000000 -0.001554 0.000000
# 2 -0.003263 0.009386 -0.002294 0.000000 -0.000280 0.000000
# 3 -0.004059 -0.002294 0.010078 0.000000 0.004865 0.000000
# 4 0.000000 0.000000 0.000000 0.056644 0.000000 -0.051130
# 5 -0.001554 -0.000280 0.004865 0.000000 0.024551 0.000000
# 6 0.000000 0.000000 0.000000 -0.051130 0.000000 0.158647
#
#
# Mechanical properties :
#
#
# Convention : Reuss Voigt Hill
#
# Bulk Modulus (GPa) = 67.03462 72.11973 69.57718
# Shear Modulus (GPa) = 16.76748 30.79334 23.78041
#
# Velocity S-wave (km/s) = 3.08515 4.18091 3.67411
# Velocity P-wave (km/s) = 7.12344 8.01535 7.58252
#
# Compressibility (1/GPa) = 0.01491766
#
# Stress axis : x y z
#
# Youngs Moduli (GPa) = 68.09179 106.54151 99.23070
#
# Poissons Ratio (x) = 0.34765 0.40273
# Poissons Ratio (y) = 0.22219 0.22768
# Poissons Ratio (z) = 0.27635 0.24445
#
# Static dielectric constant tensor:
#      x y z
#    x 1.581560 0.000000 -0.009470 
#    y 0.000000 1.567420 0.000000 
#    z -0.009470 0.000000 1.585440 
# 
# From -- ./inp_files/3370.got.cif
#   From: 2010.05.17/outbox.cif.g08.bks.cpg/sg10_2_cif.got.tgz:3370.got - 2010.06.03 11:33:40.
