data_PCOD9153166
_publ_section_title
;
Structure prediction by ZEFSAII (Michael W. Deem and Ramdas Pophale) SiO2 
 PCOD9153166
Probable space group: P 2/M
;
_chemical_formula_sum "Si O2"
_cell_formula_units_Z 28
_cell_length_a 9.990372
_cell_length_b 12.834588
_cell_length_c 19.118717
_cell_angle_alpha 90.000000
_cell_angle_beta 31.990602
_cell_angle_gamma 90.000000
_cell_volume 1298.727459
_symmetry_space_group_name_H-M "P 2/M"
_symmetry_group_IT_number 10
_symmetry_cell_setting 'monoclinic'
loop_
_space_group_symop_operation_xyz
x,y,z
-x,y,-z
-x,-y,-z
x,-y,z
loop_
_atom_site_type_symbol
_atom_site_label
_atom_site_fract_x
_atom_site_fract_y
_atom_site_fract_z
Si Si1 0.801423 0.613360 0.854795
Si Si2 0.866543 0.828776 0.891061
Si Si3 0.098807 0.321503 0.347099
Si Si4 0.599879 0.380391 0.649217
Si Si5 0.341922 0.168967 0.772126
Si Si6 0.421714 0.121747 0.186272
Si Si7 0.581823 0.000000 0.575021
Si Si8 0.923358 0.000000 0.296251
O O1 0.897656 0.500000 0.834483
O O2 0.907189 0.710281 0.850584
O O3 0.857509 0.629975 0.748151
O O4 0.500000 0.615027 0.000000
O O5 0.071934 0.859054 0.859076
O O6 0.589684 0.845352 0.045220
O O7 0.923024 0.900460 0.798975
O O8 0.273928 0.372588 0.329532
O O9 0.190991 0.201444 0.301123
O O10 0.816506 0.342591 0.499107
O O11 0.528556 0.500000 0.667095
O O12 0.387634 0.291911 0.742583
O O13 0.393410 0.138853 0.828962
O O14 0.548971 0.102114 0.637124
O O15 0.359302 0.000000 0.209422
O O16 0.824600 0.000000 0.418598
O O17 0.336462 0.000000 0.633510
#
# Coordination Sequence:
#
# PCOD9153166 Si02
#       8
#     4   4   4   4   4   4   2   2
#     4  11  23  40  60  82 119 162 199 243 293 352
#     4  11  22  39  60  91 120 159 201 241 299 363
#     4  10  21  41  61  88 114 156 205 247 296 354
#     4  10  21  40  65  87 117 156 201 253 302 352
#     4  10  22  37  63  90 120 155 198 248 303 356
#     4  11  21  39  63  90 123 156 199 250 300 355
#     4   9  18  37  53  83 118 157 194 228 287 361
#     4   9  20  35  58  78 119 160 188 232 291 356
#
# _framework density 21.559566
#
# number of rings (size 3 to 8) (size 9 to 14) (size 15 to 20)
#    0.000    1.714    2.857    2.143    2.000    1.143 
#    2.571    2.500    0.000    4.286    0.000    0.000 
#    0.000    0.000    0.000    0.000    0.000    0.000 
#
# Total GULP energy -156550.748451 kJ/mol
# GULP energy per Si atom -5591.098159 kJ/mol
# Density = 2.151050 g / cm^3
# Si number density = 21.559566 Si / 1000 Ang^3
#
#
#
# Elastic Constant Matrix: (Units=GPa)
#
#
# Indices 1 2 3 4 5 6 
#
# 1 52.1822 14.0160 35.6028 0.0000 10.2442 0.0000
# 2 14.0160 198.3008 44.0291 0.0000 11.7411 0.0000
# 3 35.6028 44.0291 100.8875 0.0000 26.9007 0.0000
# 4 0.0000 0.0000 0.0000 21.0779 0.0000 1.8442
# 5 10.2442 11.7411 26.9007 0.0000 30.2787 0.0000
# 6 0.0000 0.0000 0.0000 1.8442 0.0000 18.0821
#
#
#
# Elastic Compliance Matrix: (Units=1/GPa)
#
#
# Indices 1 2 3 4 5 6 
#
# 1 0.025265 0.000215 -0.008791 0.000000 -0.000821 0.000000
# 2 0.000215 0.005586 -0.002512 0.000000 -0.000007 0.000000
# 3 -0.008791 -0.002512 0.017111 0.000000 -0.011254 0.000000
# 4 0.000000 0.000000 0.000000 0.047870 0.000000 -0.004882
# 5 -0.000821 -0.000007 -0.011254 0.000000 0.043306 0.000000
# 6 0.000000 0.000000 0.000000 -0.004882 0.000000 0.055801
#
#
# Mechanical properties :
#
#
# Convention : Reuss Voigt Hill
#
# Bulk Modulus (GPa) = 38.77958 59.85181 49.31569
# Shear Modulus (GPa) = 22.15240 31.06925 26.61083
#
# Velocity S-wave (km/s) = 3.20894 3.80029 3.51706
# Velocity P-wave (km/s) = 5.63524 6.86131 6.27828
#
# Compressibility (1/GPa) = 0.02578677
#
# Stress axis : x y z
#
# Youngs Moduli (GPa) = 39.58077 179.02716 58.44178
#
# Poissons Ratio (x) = -0.03843 0.51374
# Poissons Ratio (y) = -0.00850 0.14678
# Poissons Ratio (z) = 0.34794 0.44964
#
# Static dielectric constant tensor:
#      x y z
#    x 1.793340 0.000000 -0.015600 
#    y 0.000000 1.782610 0.000000 
#    z -0.015600 0.000000 1.760810 
# 
# From -- ./inp_files/83978.got.cif
#   From: 2010.05.17/outbox.cif.g08.bks.cpg/sg10_42_cif.got.tgz:83978.got - 2010.06.03 11:33:40.
