data_PCOD9153309
_publ_section_title
;
Structure prediction by ZEFSAII (Michael W. Deem and Ramdas Pophale) SiO2 
 PCOD9153309
Probable space group: P 2/M
;
_chemical_formula_sum "Si O2"
_cell_formula_units_Z 28
_cell_length_a 8.257072
_cell_length_b 14.529950
_cell_length_c 18.802812
_cell_angle_alpha 90.000000
_cell_angle_beta 147.013010
_cell_angle_gamma 90.000000
_cell_volume 1228.202196
_symmetry_space_group_name_H-M "P 2/M"
_symmetry_group_IT_number 10
_symmetry_cell_setting 'monoclinic'
loop_
_space_group_symop_operation_xyz
x,y,z
-x,y,-z
-x,-y,-z
x,-y,z
loop_
_atom_site_type_symbol
_atom_site_label
_atom_site_fract_x
_atom_site_fract_y
_atom_site_fract_z
Si Si1 0.296412 0.105001 0.572244
Si Si2 0.257472 0.245990 0.294248
Si Si3 0.357412 0.400596 0.135348
Si Si4 0.705821 0.106893 0.937330
Si Si5 0.666187 0.393514 0.401710
Si Si6 0.701357 0.279110 0.012572
Si Si7 0.985547 0.894221 0.308893
O O1 0.578207 0.166854 0.690098
O O2 0.000000 0.140469 0.500000
O O3 0.218198 0.106952 0.459755
O O4 0.344931 0.000000 0.613111
O O5 0.519556 0.321185 0.402899
O O6 0.027233 0.300109 0.160191
O O7 0.084777 0.188845 0.292620
O O8 0.465891 0.500000 0.147331
O O9 0.489193 0.390317 0.261675
O O10 0.421171 0.317554 0.106090
O O11 0.000000 0.403492 0.000000
O O12 0.354082 0.115195 0.785355
O O13 0.755078 0.000000 0.969266
O O14 0.705229 0.169391 0.006854
O O15 0.000000 0.137813 0.000000
O O16 0.660971 0.500000 0.425289
O O17 0.000000 0.370138 0.500000
O O18 0.500000 0.315872 0.000000
O O19 0.000261 0.000000 0.283439
#
# Coordination Sequence:
#
# PCOD9153309 Si02
#       7
#     4   4   4   4   4   4   4
#     4  10  23  41  64  94 126 174 236 284 328 393
#     4  12  23  39  64  98 130 176 214 273 343 399
#     4  10  21  43  73  96 128 175 218 272 339 399
#     4  10  23  40  62  89 126 174 220 273 329 387
#     4  10  23  45  74 106 135 173 226 280 335 402
#     4  12  25  40  61  99 134 170 222 276 331 411
#     4  10  22  43  65  91 132 179 229 280 338 401
#
# _framework density 22.797550000000001
#
# number of rings (size 3 to 8) (size 9 to 14) (size 15 to 20)
#    0.000    1.429    2.857    1.714    2.000    4.000 
#    2.571    0.000    0.000    1.714    0.000    0.000 
#    0.000    0.000    0.000    0.000    0.000    0.000 
#
# Total GULP energy -156099.537309 kJ/mol
# GULP energy per Si atom -5574.983475 kJ/mol
# Density = 2.274566 g / cm^3
# Si number density = 22.797550 Si / 1000 Ang^3
#
#
#
# Elastic Constant Matrix: (Units=GPa)
#
#
# Indices 1 2 3 4 5 6 
#
# 1 72.9339 51.9219 21.0024 0.0000 19.4697 0.0000
# 2 51.9219 102.0235 20.9559 0.0000 14.1814 0.0000
# 3 21.0024 20.9559 77.2392 0.0000 24.1713 0.0000
# 4 0.0000 0.0000 0.0000 24.7451 0.0000 -1.9748
# 5 19.4697 14.1814 24.1713 0.0000 32.8156 0.0000
# 6 0.0000 0.0000 0.0000 -1.9748 0.0000 23.4228
#
#
#
# Elastic Compliance Matrix: (Units=1/GPa)
#
#
# Indices 1 2 3 4 5 6 
#
# 1 0.024049 -0.010826 -0.000781 0.000000 -0.009015 0.000000
# 2 -0.010826 0.015507 -0.001529 0.000000 0.000848 0.000000
# 3 -0.000781 -0.001529 0.017183 0.000000 -0.011532 0.000000
# 4 0.000000 0.000000 0.000000 0.040686 0.000000 0.003430
# 5 -0.009015 0.000848 -0.011532 0.000000 0.043950 0.000000
# 6 0.000000 0.000000 0.000000 0.003430 0.000000 0.042983
#
#
# Mechanical properties :
#
#
# Convention : Reuss Voigt Hill
#
# Bulk Modulus (GPa) = 32.82100 48.88412 40.85256
# Shear Modulus (GPa) = 22.64638 26.75112 24.69875
#
# Velocity S-wave (km/s) = 3.15519 3.42924 3.29507
# Velocity P-wave (km/s) = 5.26324 6.09662 5.69519
#
# Compressibility (1/GPa) = 0.03046830
#
# Stress axis : x y z
#
# Youngs Moduli (GPa) = 41.58112 64.48564 58.19715
#
# Poissons Ratio (x) = 0.69810 0.04546
# Poissons Ratio (y) = 0.45015 0.08898
# Poissons Ratio (z) = 0.03248 0.09859
#
# Static dielectric constant tensor:
#      x y z
#    x 2.108150 0.000000 0.048540 
#    y 0.000000 1.901120 0.000000 
#    z 0.048540 0.000000 1.918670 
# 
# From -- ./inp_files/82947.got.cif
#   From: 2010.05.17/outbox.cif.g08.bks.cpg/sg10_42_cif.got.tgz:82947.got - 2010.06.03 11:33:40.
