data_PCOD9153654
_publ_section_title
;
Structure prediction by ZEFSAII (Michael W. Deem and Ramdas Pophale) SiO2 
 PCOD9153654
Probable space group: P 2/M
;
_chemical_formula_sum "Si O2"
_cell_formula_units_Z 18
_cell_length_a 8.947594
_cell_length_b 21.479117
_cell_length_c 8.176815
_cell_angle_alpha 90.000000
_cell_angle_beta 34.659533
_cell_angle_gamma 90.000000
_cell_volume 893.694557
_symmetry_space_group_name_H-M "P 2/M"
_symmetry_group_IT_number 10
_symmetry_cell_setting 'monoclinic'
loop_
_space_group_symop_operation_xyz
x,y,z
-x,y,-z
-x,-y,-z
x,-y,z
loop_
_atom_site_type_symbol
_atom_site_label
_atom_site_fract_x
_atom_site_fract_y
_atom_site_fract_z
Si Si1 0.452654 0.297612 0.847391
Si Si2 0.050930 0.373161 0.648460
Si Si3 0.214723 0.072058 0.173355
Si Si4 0.781364 0.500000 0.334848
Si Si5 0.276845 0.828675 0.834257
O O1 0.722965 0.322089 0.527884
O O2 0.372500 0.231796 0.846752
O O3 0.500000 0.291967 0.000000
O O4 0.220790 0.348329 0.030439
O O5 0.163057 0.438158 0.610838
O O6 0.000000 0.378341 0.500000
O O7 0.000000 0.093634 0.500000
O O8 0.152522 0.000000 0.188118
O O9 0.500000 0.073902 0.000000
O O10 0.225693 0.115207 0.005706
O O11 0.500000 0.500000 0.500000
O O12 0.000000 0.500000 0.000000
O O13 0.500000 0.844503 0.500000
O O14 0.000000 0.813905 0.000000
#
# Coordination Sequence:
#
# PCOD9153654 Si02
#       5
#     4   4   4   2   4
#     4  10  22  40  62  85 115 158 203 244 290 353
#     4  10  22  41  62  84 113 154 201 245 289 349
#     4  10  22  42  66  89 119 164 211 250 292 354
#     4  12  25  38  59  88 118 152 188 240 305 360
#     4  12  25  38  60  94 128 160 195 250 313 361
#
# _framework density 20.141109
#
# number of rings (size 3 to 8) (size 9 to 14) (size 15 to 20)
#    0.000    1.333    0.000    5.000    0.000    8.889 
#    0.000    4.444    0.000    0.000    0.000    0.000 
#    0.000    0.000    0.000    0.000    0.000    0.000 
#
# Total GULP energy -100695.934710 kJ/mol
# GULP energy per Si atom -5594.218595 kJ/mol
# Density = 2.009527 g / cm^3
# Si number density = 20.141109 Si / 1000 Ang^3
#
#
#
# Elastic Constant Matrix: (Units=GPa)
#
#
# Indices 1 2 3 4 5 6 
#
# 1 77.3430 65.2377 48.8260 0.0000 -21.2176 0.0000
# 2 65.2377 114.3044 33.6202 0.0000 4.0571 0.0000
# 3 48.8260 33.6202 140.3946 0.0000 -14.3821 0.0000
# 4 0.0000 0.0000 0.0000 28.6291 0.0000 19.1482
# 5 -21.2176 4.0571 -14.3821 0.0000 28.7355 0.0000
# 6 0.0000 0.0000 0.0000 19.1482 0.0000 -78.3656
#
#
#
# Elastic Compliance Matrix: (Units=1/GPa)
#
#
# Indices 1 2 3 4 5 6 
#
# 1 0.054283 -0.030222 -0.007482 0.000000 0.040604 0.000000
# 2 -0.030222 0.026424 0.001597 0.000000 -0.025247 0.000000
# 3 -0.007482 0.001597 0.009227 0.000000 -0.001132 0.000000
# 4 0.000000 0.000000 0.000000 0.030023 0.000000 0.007336
# 5 0.040604 -0.025247 -0.001132 0.000000 0.067779 0.000000
# 6 0.000000 0.000000 0.000000 0.007336 0.000000 -0.010968
#
#
# Mechanical properties :
#
#
# Convention : Reuss Voigt Hill
#
# Bulk Modulus (GPa) = 56.43610 69.71222 63.07416
# Shear Modulus (GPa) = 19.61638 8.09033 13.85336
#
# Velocity S-wave (km/s) = 3.12420 2.00638 2.62547
# Velocity P-wave (km/s) = 6.41056 6.32886 6.36984
#
# Compressibility (1/GPa) = 0.01771915
#
# Stress axis : x y z
#
# Youngs Moduli (GPa) = 18.42181 37.84442 108.38344
#
# Poissons Ratio (x) = 1.14374 0.81090
# Poissons Ratio (y) = 0.55675 -0.17304
# Poissons Ratio (z) = 0.13783 -0.06042
#
# Static dielectric constant tensor:
#      x y z
#    x 1.687810 0.000000 0.004500 
#    y 0.000000 1.750210 0.000000 
#    z 0.004500 0.000000 1.688630 
# 
# From -- ./inp_files/4886.got.cif
#   From: 2010.05.17/outbox.cif.g08.bks.cpg/sg10_3_cif.got.tgz:4886.got - 2010.06.03 11:33:40.
