data_PCOD9153886
_publ_section_title
;
Structure prediction by ZEFSAII (Michael W. Deem and Ramdas Pophale) SiO2 
 PCOD9153886
Probable space group: P 2/M
;
_chemical_formula_sum "Si O2"
_cell_formula_units_Z 20
_cell_length_a 5.124186
_cell_length_b 21.742243
_cell_length_c 8.800217
_cell_angle_alpha 90.000000
_cell_angle_beta 94.312081
_cell_angle_gamma 90.000000
_cell_volume 977.668252
_symmetry_space_group_name_H-M "P 2/M"
_symmetry_group_IT_number 10
_symmetry_cell_setting 'monoclinic'
loop_
_space_group_symop_operation_xyz
x,y,z
-x,y,-z
-x,-y,-z
x,-y,z
loop_
_atom_site_type_symbol
_atom_site_label
_atom_site_fract_x
_atom_site_fract_y
_atom_site_fract_z
Si Si1 0.619578 0.066991 0.336681
Si Si2 0.944869 0.192527 0.324776
Si Si3 0.764369 0.565919 0.110347
Si Si4 0.762244 0.700736 0.110197
Si Si5 0.269415 0.868715 0.104311
O O1 0.500000 0.070584 0.500000
O O2 0.804612 0.125752 0.323153
O O3 0.390442 0.074400 0.202199
O O4 0.748662 0.000000 0.325341
O O5 0.786102 0.245273 0.232678
O O6 0.000000 0.209622 0.500000
O O7 0.199385 0.180501 0.231534
O O8 0.775038 0.500000 0.195890
O O9 0.500000 0.565822 0.000000
O O10 0.776392 0.632803 0.187640
O O11 0.000000 0.565768 0.000000
O O12 0.500000 0.704000 0.000000
O O13 0.000000 0.706581 0.000000
O O14 0.500000 0.849484 0.000000
O O15 0.000000 0.879450 0.000000
#
# Coordination Sequence:
#
# PCOD9153886 Si02
#       5
#     4   4   4   4   4
#     4  11  26  47  69  93 124 166 212 260 320 385
#     4  12  26  43  66  92 128 167 212 255 321 383
#     4   8  14  29  52  84 121 157 199 245 294 352
#     4  10  23  37  62  93 124 163 205 256 307 358
#     4  12  26  45  68  95 124 156 202 266 319 373
#
# _framework density 20.456837
#
# number of rings (size 3 to 8) (size 9 to 14) (size 15 to 20)
#    0.000    1.400    4.000    0.600    5.600    2.000 
#    0.000    0.000    0.000    0.600    0.000    0.000 
#    0.000   16.800    0.000    0.000    0.000    7.400 
#
# Total GULP energy -111647.719031 kJ/mol
# GULP energy per Si atom -5582.385952 kJ/mol
# Density = 2.041028 g / cm^3
# Si number density = 20.456837 Si / 1000 Ang^3
#
#
#
# Elastic Constant Matrix: (Units=GPa)
#
#
# Indices 1 2 3 4 5 6 
#
# 1 133.9828 31.7181 44.6021 0.0000 1.7740 0.0000
# 2 31.7181 213.1407 56.8585 0.0000 -1.9592 0.0000
# 3 44.6021 56.8585 122.9383 0.0000 -3.8425 0.0000
# 4 0.0000 0.0000 0.0000 8.3038 0.0000 3.6395
# 5 1.7740 -1.9592 -3.8425 0.0000 23.6655 0.0000
# 6 0.0000 0.0000 0.0000 3.6395 0.0000 29.5678
#
#
#
# Elastic Compliance Matrix: (Units=1/GPa)
#
#
# Indices 1 2 3 4 5 6 
#
# 1 0.008568 -0.000510 -0.002909 0.000000 -0.001157 0.000000
# 2 -0.000510 0.005382 -0.002301 0.000000 0.000110 0.000000
# 3 -0.002909 -0.002301 0.010307 0.000000 0.001701 0.000000
# 4 0.000000 0.000000 0.000000 0.127294 0.000000 -0.015669
# 5 -0.001157 0.000110 0.001701 0.000000 0.042628 0.000000
# 6 0.000000 0.000000 0.000000 -0.015669 0.000000 0.035749
#
#
# Mechanical properties :
#
#
# Convention : Reuss Voigt Hill
#
# Bulk Modulus (GPa) = 78.01439 81.82434 79.91937
# Shear Modulus (GPa) = 20.35498 34.76629 27.56063
#
# Velocity S-wave (km/s) = 3.15782 4.12697 3.67448
# Velocity P-wave (km/s) = 7.17737 7.92430 7.56006
#
# Compressibility (1/GPa) = 0.01281815
#
# Stress axis : x y z
#
# Youngs Moduli (GPa) = 116.71369 185.79001 97.02251
#
# Poissons Ratio (x) = 0.09469 0.28223
# Poissons Ratio (y) = 0.05949 0.22325
# Poissons Ratio (z) = 0.33951 0.42750
#
# Static dielectric constant tensor:
#      x y z
#    x 1.797640 0.000000 0.009040 
#    y 0.000000 1.816620 0.000000 
#    z 0.009040 0.000000 1.713180 
# 
# From -- ./inp_files/15318.got.cif
#   From: 2010.05.17/outbox.cif.g08.bks.cpg/sg10_8_cif.got.tgz:15318.got - 2010.06.03 11:33:40.
