data_PCOD9153593
_publ_section_title
;
Structure prediction by ZEFSAII (Michael W. Deem and Ramdas Pophale) SiO2 
 PCOD9153593
Probable space group: P 2/M
;
_chemical_formula_sum "Si O2"
_cell_formula_units_Z 10
_cell_length_a 5.119576
_cell_length_b 14.887396
_cell_length_c 4.843410
_cell_angle_alpha 90.000000
_cell_angle_beta 90.215308
_cell_angle_gamma 90.000000
_cell_volume 369.148326
_symmetry_space_group_name_H-M "P 2/M"
_symmetry_group_IT_number 10
_symmetry_cell_setting 'monoclinic'
loop_
_space_group_symop_operation_xyz
x,y,z
-x,y,-z
-x,-y,-z
x,-y,z
loop_
_atom_site_type_symbol
_atom_site_label
_atom_site_fract_x
_atom_site_fract_y
_atom_site_fract_z
Si Si1 0.245676 0.696770 0.797321
Si Si2 0.500000 0.843074 0.500000
Si Si3 0.205898 0.000000 0.754460
Si Si4 0.750800 0.500000 0.194736
O O1 0.273629 0.769809 0.556813
O O2 0.500000 0.706606 0.000000
O O3 0.247249 0.596922 0.664210
O O4 0.000000 0.707302 0.000000
O O5 0.398516 0.915011 0.726049
O O6 0.000000 0.000000 0.500000
O O7 0.000000 0.000000 0.000000
O O8 0.500000 0.500000 0.000000
O O9 0.000000 0.500000 0.000000
#
# Coordination Sequence:
#
# PCOD9153593 Si02
#       4
#     4   2   2   2
#     4  10  22  39  65  97 138 179 231 280 344 413
#     4  11  26  39  70  98 132 183 228 297 344 430
#     4  11  28  49  72 100 141 180 235 297 366 424
#     4   8  16  35  58  91 134 180 219 278 335 405
#
# _framework density 27.089386000000001
#
# number of rings (size 3 to 8) (size 9 to 14) (size 15 to 20)
#    0.000    2.000    0.000    1.200   11.200    2.400 
#    0.000    0.000    0.000   14.400    0.000    0.000 
#    0.000    0.000    0.000    0.000    0.000    0.000 
#
# Total GULP energy -55773.342005 kJ/mol
# GULP energy per Si atom -5577.334201 kJ/mol
# Density = 2.702773 g / cm^3
# Si number density = 27.089386 Si / 1000 Ang^3
#
#
#
# Elastic Constant Matrix: (Units=GPa)
#
#
# Indices 1 2 3 4 5 6 
#
# 1 220.7096 29.6229 86.9925 0.0000 -32.0018 0.0000
# 2 29.6229 297.9334 74.6702 0.0000 -53.0933 0.0000
# 3 86.9925 74.6702 181.0345 0.0000 -48.2385 0.0000
# 4 0.0000 0.0000 0.0000 6.2594 0.0000 -43.9000
# 5 -32.0018 -53.0933 -48.2385 0.0000 89.8222 0.0000
# 6 0.0000 0.0000 0.0000 -43.9000 0.0000 24.3886
#
#
#
# Elastic Compliance Matrix: (Units=1/GPa)
#
#
# Indices 1 2 3 4 5 6 
#
# 1 0.005634 0.000224 -0.002602 0.000000 0.000742 0.000000
# 2 0.000224 0.003964 -0.001280 0.000000 0.001736 0.000000
# 3 -0.002602 -0.001280 0.007998 0.000000 0.002611 0.000000
# 4 0.000000 0.000000 0.000000 -0.013744 0.000000 -0.024739
# 5 0.000742 0.001736 0.002611 0.000000 0.013826 0.000000
# 6 0.000000 0.000000 0.000000 -0.024739 0.000000 -0.003527
#
#
# Mechanical properties :
#
#
# Convention : Reuss Voigt Hill
#
# Bulk Modulus (GPa) = 97.27517 120.24987 108.76252
# Shear Modulus (GPa) = 200.84680 57.98680 129.41680
#
# Velocity S-wave (km/s) = 8.61993 4.63165 6.91937
# Velocity P-wave (km/s) = 11.62144 8.54923 10.20165
#
# Compressibility (1/GPa) = 0.01028012
#
# Stress axis : x y z
#
# Youngs Moduli (GPa) = 177.49534 252.24757 125.02945
#
# Poissons Ratio (x) = -0.05657 0.32532
# Poissons Ratio (y) = -0.03980 0.16010
# Poissons Ratio (z) = 0.46183 0.32299
#
# Static dielectric constant tensor:
#      x y z
#    x 2.112680 0.000000 -0.033380 
#    y 0.000000 2.134510 0.000000 
#    z -0.033380 0.000000 1.367320 
# 
# From -- ./inp_files/297.got.cif
#   From: 2010.05.17/outbox.cif.g08.bks.cpg/sg10_1_cif.got.tgz:297.got - 2010.06.03 11:33:40.
