data_PCOD9153350
_publ_section_title
;
Structure prediction by ZEFSAII (Michael W. Deem and Ramdas Pophale) SiO2 
 PCOD9153350
Probable space group: P 2/M
;
_chemical_formula_sum "Si O2"
_cell_formula_units_Z 32
_cell_length_a 15.454181
_cell_length_b 8.202784
_cell_length_c 23.634700
_cell_angle_alpha 90.000000
_cell_angle_beta 148.170049
_cell_angle_gamma 90.000000
_cell_volume 1580.146993
_symmetry_space_group_name_H-M "P 2/M"
_symmetry_group_IT_number 10
_symmetry_cell_setting 'monoclinic'
loop_
_space_group_symop_operation_xyz
x,y,z
-x,y,-z
-x,-y,-z
x,-y,z
loop_
_atom_site_type_symbol
_atom_site_label
_atom_site_fract_x
_atom_site_fract_y
_atom_site_fract_z
Si Si1 0.417084 0.696791 0.607516
Si Si2 0.150917 0.192488 0.623106
Si Si3 0.925755 0.814935 0.904671
Si Si4 0.044448 0.694705 0.382134
Si Si5 0.500140 0.310128 0.223199
Si Si6 0.773089 0.819027 0.014287
Si Si7 0.970269 0.801302 0.754935
Si Si8 0.316072 0.197274 0.320337
O O1 0.420708 0.500000 0.610197
O O2 0.226902 0.748627 0.502632
O O3 0.499855 0.760143 0.712307
O O4 0.501188 0.751953 0.595150
O O5 0.317524 0.281117 0.698972
O O6 0.000000 0.249472 0.500000
O O7 0.091837 0.224940 0.653913
O O8 0.175102 0.000000 0.627190
O O9 0.781405 0.737428 0.789024
O O10 0.074085 0.831334 0.943649
O O11 0.872611 0.000000 0.892096
O O12 0.000000 0.727952 0.000000
O O13 0.034490 0.500000 0.383251
O O14 0.026042 0.741581 0.306669
O O15 0.466929 0.500000 0.211407
O O16 0.372067 0.250116 0.104857
O O17 0.867679 0.741134 0.120564
O O18 0.719176 0.000000 0.001937
O O19 0.798965 0.750987 0.691144
O O20 0.973753 0.000000 0.759033
O O21 0.311839 0.000000 0.318485
#
# Coordination Sequence:
#
# PCOD9153350 Si02
#       8
#     4   4   4   4   4   4   4   4
#     4  10  22  36  52  81 119 154 188 233 288 341
#     4  11  23  40  64  91 114 142 185 234 287 344
#     4   8  13  24  45  73 104 140 184 232 280 326
#     4  11  23  40  61  83 114 155 191 231 287 348
#     4  11  22  37  58  86 122 153 184 231 287 348
#     4   9  18  34  56  81 112 149 190 237 285 332
#     4   9  20  39  59  83 116 153 197 245 285 326
#     4   9  18  32  53  79 109 150 196 241 282 326
#
# _framework density 20.251280999999999
#
# number of rings (size 3 to 8) (size 9 to 14) (size 15 to 20)
#    0.000    2.250    1.250    3.375    0.000    5.000 
#    0.000    5.000    0.000   10.500    0.000    0.000 
#    0.000    0.000    0.000    0.000    0.000    0.000 
#
# Total GULP energy -178289.873922 kJ/mol
# GULP energy per Si atom -5571.558560 kJ/mol
# Density = 2.020519 g / cm^3
# Si number density = 20.251281 Si / 1000 Ang^3
#
#
#
# Elastic Constant Matrix: (Units=GPa)
#
#
# Indices 1 2 3 4 5 6 
#
# 1 92.4879 -10.7559 26.8075 0.0000 -12.6809 0.0000
# 2 -10.7559 9.4358 4.8601 0.0000 -2.2283 0.0000
# 3 26.8075 4.8601 76.2638 0.0000 -0.5208 0.0000
# 4 0.0000 0.0000 0.0000 -28.5476 0.0000 -27.7694
# 5 -12.6809 -2.2283 -0.5208 0.0000 27.3745 0.0000
# 6 0.0000 0.0000 0.0000 -27.7694 0.0000 7.4191
#
#
#
# Elastic Compliance Matrix: (Units=1/GPa)
#
#
# Indices 1 2 3 4 5 6 
#
# 1 0.017514 0.026353 -0.007767 0.000000 0.010111 0.000000
# 2 0.026353 0.151384 -0.018746 0.000000 0.024174 0.000000
# 3 -0.007767 -0.018746 0.017004 0.000000 -0.004800 0.000000
# 4 0.000000 0.000000 0.000000 -0.007548 0.000000 -0.028251
# 5 0.010111 0.024174 -0.004800 0.000000 0.043090 0.000000
# 6 0.000000 0.000000 0.000000 -0.028251 0.000000 0.029043
#
#
# Mechanical properties :
#
#
# Convention : Reuss Voigt Hill
#
# Bulk Modulus (GPa) = 5.38840 24.44564 14.91702
# Shear Modulus (GPa) = 15.99138 11.73425 13.86282
#
# Velocity S-wave (km/s) = 2.81312 2.40975 2.61921
# Velocity P-wave (km/s) = 3.63566 4.45420 4.06558
#
# Compressibility (1/GPa) = 0.18558385
#
# Stress axis : x y z
#
# Youngs Moduli (GPa) = 57.09570 6.60573 58.80852
#
# Poissons Ratio (x) = -0.17408 0.45676
# Poissons Ratio (y) = -1.50465 1.10240
# Poissons Ratio (z) = 0.44346 0.12383
#
# Static dielectric constant tensor:
#      x y z
#    x 1.754330 0.000000 -0.044530 
#    y 0.000000 1.734860 0.000000 
#    z -0.044530 0.000000 1.792620 
# 
# From -- ./inp_files/89597.got.cif
#   From: 2010.05.17/outbox.cif.g08.bks.cpg/sg10_45_cif.got.tgz:89597.got - 2010.06.03 11:33:40.
