data_PCOD9153034
_publ_section_title
;
Structure prediction by ZEFSAII (Michael W. Deem and Ramdas Pophale) SiO2 
 PCOD9153034
Probable space group: P 2/M
;
_chemical_formula_sum "Si O2"
_cell_formula_units_Z 24
_cell_length_a 25.853743
_cell_length_b 7.590843
_cell_length_c 19.712440
_cell_angle_alpha 90.000000
_cell_angle_beta 160.986749
_cell_angle_gamma 90.000000
_cell_volume 1260.338870
_symmetry_space_group_name_H-M "P 2/M"
_symmetry_group_IT_number 10
_symmetry_cell_setting 'monoclinic'
loop_
_space_group_symop_operation_xyz
x,y,z
-x,y,-z
-x,-y,-z
x,-y,z
loop_
_atom_site_type_symbol
_atom_site_label
_atom_site_fract_x
_atom_site_fract_y
_atom_site_fract_z
Si Si1 0.570507 0.500000 0.977793
Si Si2 0.986391 0.797553 0.309740
Si Si3 0.159007 0.715539 0.159286
Si Si4 0.487062 0.286605 0.633133
Si Si5 0.195861 0.713381 0.050342
Si Si6 0.755325 0.500000 0.348647
Si Si7 0.662095 0.202418 0.985999
O O1 0.387590 0.500000 0.774441
O O2 0.611807 0.331599 0.983129
O O3 0.675908 0.500000 0.176231
O O4 0.131617 0.668413 0.502117
O O5 0.026158 0.000000 0.373731
O O6 0.924975 0.781789 0.156204
O O7 0.833281 0.747036 0.165908
O O8 0.160733 0.500000 0.161015
O O9 0.317300 0.771726 0.395058
O O10 0.163400 0.771754 0.086435
O O11 0.000000 0.772134 0.000000
O O12 0.486153 0.500000 0.636181
O O13 0.627614 0.236644 0.755501
O O14 0.538525 0.218149 0.770407
O O15 0.187086 0.500000 0.037670
O O16 0.671086 0.000000 0.019295
#
# Coordination Sequence:
#
# PCOD9153034 Si02
#       7
#     2   4   4   4   4   2   4
#     4  11  25  43  63  88 121 158 191 231 290 359
#     4  10  21  39  64  92 119 151 196 247 295 345
#     4   9  17  27  44  75 110 149 197 240 279 332
#     4   9  16  30  52  78 110 149 191 238 291 341
#     4   9  16  30  52  78 110 149 191 238 291 341
#     4  11  25  43  63  88 121 158 191 231 290 359
#     4  10  21  39  64  92 119 151 196 247 295 345
#
# _framework density 19.042497000000001
#
# number of rings (size 3 to 8) (size 9 to 14) (size 15 to 20)
#    0.000    2.333    1.667    1.000    0.000    6.000 
#    0.000    4.167    0.000    5.000    0.000    0.000 
#    0.000    0.000    0.000    0.000    0.000    0.000 
#
# Total GULP energy -134064.284191 kJ/mol
# GULP energy per Si atom -5586.011841 kJ/mol
# Density = 1.899916 g / cm^3
# Si number density = 19.042497 Si / 1000 Ang^3
#
#
#
# Elastic Constant Matrix: (Units=GPa)
#
#
# Indices 1 2 3 4 5 6 
#
# 1 197.3370 62.8538 47.0891 0.0000 -1.8769 0.0000
# 2 62.8538 84.7837 56.2614 0.0000 6.8975 0.0000
# 3 47.0891 56.2614 174.7183 0.0000 19.5687 0.0000
# 4 0.0000 0.0000 0.0000 -10.7440 0.0000 15.1414
# 5 -1.8769 6.8975 19.5687 0.0000 11.3959 0.0000
# 6 0.0000 0.0000 0.0000 15.1414 0.0000 -4.8373
#
#
#
# Elastic Compliance Matrix: (Units=1/GPa)
#
#
# Indices 1 2 3 4 5 6 
#
# 1 0.006931 -0.005009 -0.000894 0.000000 0.005709 0.000000
# 2 -0.005009 0.018629 -0.004078 0.000000 -0.005098 0.000000
# 3 -0.000894 -0.004078 0.008689 0.000000 -0.012599 0.000000
# 4 0.000000 0.000000 0.000000 0.027284 0.000000 0.085404
# 5 0.005709 -0.005098 -0.012599 0.000000 0.113412 0.000000
# 6 0.000000 0.000000 0.000000 0.085404 0.000000 0.060600
#
#
# Mechanical properties :
#
#
# Convention : Reuss Voigt Hill
#
# Bulk Modulus (GPa) = 69.99818 87.69419 78.84619
# Shear Modulus (GPa) = 19.21089 18.53858 18.87473
#
# Velocity S-wave (km/s) = 3.17967 3.12354 3.15173
# Velocity P-wave (km/s) = 7.09360 7.69159 7.39864
#
# Compressibility (1/GPa) = 0.01428609
#
# Stress axis : x y z
#
# Youngs Moduli (GPa) = 144.28826 53.68068 115.09109
#
# Poissons Ratio (x) = 0.26888 0.10294
# Poissons Ratio (y) = 0.72272 0.46931
# Poissons Ratio (z) = 0.12905 0.21889
#
# Static dielectric constant tensor:
#      x y z
#    x 1.630150 0.000000 0.003870 
#    y 0.000000 1.696200 0.000000 
#    z 0.003870 0.000000 1.628800 
# 
# From -- ./inp_files/31215.got.cif
#   From: 2010.05.17/outbox.cif.g08.bks.cpg/sg10_16_cif.got.tgz:31215.got - 2010.06.03 11:33:40.
