data_PCOD9153914
_publ_section_title
;
Structure prediction by ZEFSAII (Michael W. Deem and Ramdas Pophale) SiO2 
 PCOD9153914
Probable space group: P 2/M
;
_chemical_formula_sum "Si O2"
_cell_formula_units_Z 13
_cell_length_a 12.280746
_cell_length_b 8.307790
_cell_length_c 6.804788
_cell_angle_alpha 90.000000
_cell_angle_beta 44.882195
_cell_angle_gamma 90.000000
_cell_volume 489.908614
_symmetry_space_group_name_H-M "P 2/M"
_symmetry_group_IT_number 10
_symmetry_cell_setting 'monoclinic'
loop_
_space_group_symop_operation_xyz
x,y,z
-x,y,-z
-x,-y,-z
x,-y,z
loop_
_atom_site_type_symbol
_atom_site_label
_atom_site_fract_x
_atom_site_fract_y
_atom_site_fract_z
Si Si1 0.500000 0.500000 0.000000
Si Si2 0.121822 0.000000 0.666185
Si Si3 0.997223 0.324874 0.767151
Si Si4 0.346858 0.682197 0.958384
Si Si5 0.524271 0.000000 0.735337
O O1 0.634556 0.648565 0.833435
O O2 0.085180 0.837432 0.594330
O O3 0.293581 0.000000 0.531110
O O4 0.000000 0.000000 0.000000
O O5 0.054751 0.500000 0.627876
O O6 0.000000 0.327629 0.000000
O O7 0.819777 0.316389 0.922367
O O8 0.429760 0.500000 0.817534
O O9 0.437354 0.838594 0.777568
O O10 0.500000 0.000000 0.000000
#
# Coordination Sequence:
#
# PCOD9153914 Si02
#       5
#     1   2   4   4   2
#     4   8  16  34  58  86 130 144 200 250 304 344
#     4  10  23  40  59  90 127 156 198 252 303 357
#     4   9  18  37  61  85 120 159 200 245 302 360
#     4   9  18  35  60  89 119 155 200 252 297 351
#     4  12  21  38  66  87 121 162 205 246 293 366
#
# _framework density 26.535558999999999
#
# number of rings (size 3 to 8) (size 9 to 14) (size 15 to 20)
#    0.923    1.538    1.538    0.923    0.000    1.231 
#    0.000   15.385    0.000   22.154    0.000    0.000 
#    0.000    0.000    0.000    0.000    0.000    0.000 
#
# Total GULP energy -72374.431750 kJ/mol
# GULP energy per Si atom -5567.263981 kJ/mol
# Density = 2.647516 g / cm^3
# Si number density = 26.535559 Si / 1000 Ang^3
#
#
#
# Elastic Constant Matrix: (Units=GPa)
#
#
# Indices 1 2 3 4 5 6 
#
# 1 179.1689 76.2119 60.9028 0.0000 -49.7388 0.0000
# 2 76.2119 341.3423 72.2471 0.0000 -68.9737 0.0000
# 3 60.9028 72.2471 111.7766 0.0000 -43.2195 0.0000
# 4 0.0000 0.0000 0.0000 29.7722 0.0000 -32.6036
# 5 -49.7388 -68.9737 -43.2195 0.0000 77.1209 0.0000
# 6 0.0000 0.0000 0.0000 -32.6036 0.0000 31.1804
#
#
#
# Elastic Compliance Matrix: (Units=1/GPa)
#
#
# Indices 1 2 3 4 5 6 
#
# 1 0.007504 -0.000536 -0.002625 0.000000 0.002889 0.000000
# 2 -0.000536 0.003787 -0.001251 0.000000 0.002340 0.000000
# 3 -0.002625 -0.001251 0.012891 0.000000 0.004413 0.000000
# 4 0.000000 0.000000 0.000000 -0.231512 0.000000 -0.242079
# 5 0.002889 0.002340 0.004413 0.000000 0.019396 0.000000
# 6 0.000000 0.000000 0.000000 -0.242079 0.000000 -0.221057
#
#
# Mechanical properties :
#
#
# Convention : Reuss Voigt Hill
#
# Bulk Modulus (GPa) = 65.11050 116.77902 90.94476
# Shear Modulus (GPa) = -12.65666 55.80978 21.57656
#
# Velocity S-wave (km/s) = -2.18633 4.59105 2.85462
# Velocity P-wave (km/s) = 4.26813 8.49751 6.72401
#
# Compressibility (1/GPa) = 0.01535851
#
# Stress axis : x y z
#
# Youngs Moduli (GPa) = 133.26955 264.06896 77.57128
#
# Poissons Ratio (x) = 0.14154 0.20362
# Poissons Ratio (y) = 0.07143 0.09702
# Poissons Ratio (z) = 0.34982 0.33029
#
# Static dielectric constant tensor:
#      x y z
#    x 2.415500 0.000000 0.056330 
#    y 0.000000 2.191680 0.000000 
#    z 0.056330 0.000000 2.084090 
# 
# From -- ./inp_files/21912.got.cif
#   From: 2010.05.17/outbox.cif.g08.bks.cpg/sg10_11_cif.got.tgz:21912.got - 2010.06.03 11:33:40.
