data_PCOD9153635
_publ_section_title
;
Structure prediction by ZEFSAII (Michael W. Deem and Ramdas Pophale) SiO2 
 PCOD9153635
Probable space group: P 2/M
;
_chemical_formula_sum "Si O2"
_cell_formula_units_Z 32
_cell_length_a 23.254890
_cell_length_b 8.494452
_cell_length_c 14.294421
_cell_angle_alpha 90.000000
_cell_angle_beta 32.411481
_cell_angle_gamma 90.000000
_cell_volume 1513.483709
_symmetry_space_group_name_H-M "P 2/M"
_symmetry_group_IT_number 10
_symmetry_cell_setting 'monoclinic'
loop_
_space_group_symop_operation_xyz
x,y,z
-x,y,-z
-x,-y,-z
x,-y,z
loop_
_atom_site_type_symbol
_atom_site_label
_atom_site_fract_x
_atom_site_fract_y
_atom_site_fract_z
Si Si1 0.061927 0.307719 0.321624
Si Si2 0.512573 0.811962 0.630065
Si Si3 0.111012 0.812365 0.801361
Si Si4 0.108186 0.686828 0.594926
Si Si5 0.323505 0.809614 0.220708
Si Si6 0.485613 0.190659 0.163845
Si Si7 0.272678 0.689933 0.939566
Si Si8 0.726830 0.314021 0.269000
O O1 0.061950 0.500000 0.323769
O O2 0.000000 0.254316 0.500000
O O3 0.994962 0.258212 0.322015
O O4 0.184984 0.258531 0.136517
O O5 0.541781 0.757961 0.695174
O O6 0.389171 0.765795 0.788238
O O7 0.601656 0.733535 0.442938
O O8 0.523175 0.000000 0.606890
O O9 0.121146 0.755327 0.680851
O O10 0.207955 0.765040 0.736615
O O11 0.106917 0.000000 0.804046
O O12 0.000000 0.751888 0.000000
O O13 0.101295 0.500000 0.613941
O O14 0.209903 0.731229 0.391326
O O15 0.396950 0.766066 0.209528
O O16 0.311947 0.000000 0.235167
O O17 0.396542 0.759002 0.032739
O O18 0.488274 0.000000 0.160327
O O19 0.284584 0.500000 0.928347
O O20 0.230391 0.727616 0.892988
O O21 0.736384 0.500000 0.267670
#
# Coordination Sequence:
#
# PCOD9153635 Si02
#       8
#     4   4   4   4   4   4   4   4
#     4   9  20  39  61  85 117 158 203 249 300 356
#     4  11  22  36  58  88 122 161 205 251 303 361
#     4  11  24  41  63  90 121 159 198 243 304 366
#     4  11  22  36  59  90 118 150 196 246 298 356
#     4   9  17  34  57  78 110 153 193 238 293 354
#     4   8  17  33  53  78 110 152 195 235 291 354
#     4  10  22  40  61  84 116 160 205 253 307 360
#     4  11  23  40  62  90 123 160 204 252 302 360
#
# _framework density 21.143274000000002
#
# number of rings (size 3 to 8) (size 9 to 14) (size 15 to 20)
#    0.000    2.000    0.000    4.125    1.750    5.500 
#    0.000    3.750    0.000    1.875    0.000    0.000 
#    0.000    0.000    0.000    0.000    0.000    0.000 
#
# Total GULP energy -178747.998326 kJ/mol
# GULP energy per Si atom -5585.874948 kJ/mol
# Density = 2.109515 g / cm^3
# Si number density = 21.143274 Si / 1000 Ang^3
#
#
#
# Elastic Constant Matrix: (Units=GPa)
#
#
# Indices 1 2 3 4 5 6 
#
# 1 39.1464 7.6996 14.6146 0.0000 -0.9988 0.0000
# 2 7.6996 18.1181 5.2106 0.0000 5.1839 0.0000
# 3 14.6146 5.2106 119.6442 0.0000 -0.0215 0.0000
# 4 0.0000 0.0000 0.0000 19.1632 0.0000 -8.9706
# 5 -0.9988 5.1839 -0.0215 0.0000 35.6549 0.0000
# 6 0.0000 0.0000 0.0000 -8.9706 0.0000 7.4731
#
#
#
# Elastic Compliance Matrix: (Units=1/GPa)
#
#
# Indices 1 2 3 4 5 6 
#
# 1 0.029153 -0.012262 -0.003027 0.000000 0.002598 0.000000
# 2 -0.012262 0.063510 -0.001270 0.000000 -0.009578 0.000000
# 3 -0.003027 -0.001270 0.008783 0.000000 0.000105 0.000000
# 4 0.000000 0.000000 0.000000 0.119118 0.000000 0.142987
# 5 0.002598 -0.009578 0.000105 0.000000 0.029512 0.000000
# 6 0.000000 0.000000 0.000000 0.142987 0.000000 0.305453
#
#
# Mechanical properties :
#
#
# Convention : Reuss Voigt Hill
#
# Bulk Modulus (GPa) = 14.63497 25.77314 20.20406
# Shear Modulus (GPa) = 8.17766 22.41716 15.29741
#
# Velocity S-wave (km/s) = 1.96879 3.25968 2.69274
# Velocity P-wave (km/s) = 3.47923 5.13650 4.38683
#
# Compressibility (1/GPa) = 0.06832949
#
# Stress axis : x y z
#
# Youngs Moduli (GPa) = 34.30168 15.74556 113.85455
#
# Poissons Ratio (x) = 0.19307 0.34459
# Poissons Ratio (y) = 0.42061 0.14457
# Poissons Ratio (z) = 0.10382 0.01999
#
# Static dielectric constant tensor:
#      x y z
#    x 1.779760 0.000000 0.010680 
#    y 0.000000 1.716570 0.000000 
#    z 0.010680 0.000000 1.776030 
# 
# From -- ./inp_files/71540.got.cif
#   From: 2010.05.17/outbox.cif.g08.bks.cpg/sg10_36_cif.got.tgz:71540.got - 2010.06.03 11:33:40.
