data_PCOD9153069
_publ_section_title
;
Structure prediction by ZEFSAII (Michael W. Deem and Ramdas Pophale) SiO2 
 PCOD9153069
Probable space group: P 2/M
;
_chemical_formula_sum "Si O2"
_cell_formula_units_Z 24
_cell_length_a 5.236709
_cell_length_b 13.922129
_cell_length_c 15.447984
_cell_angle_alpha 90.000000
_cell_angle_beta 88.487145
_cell_angle_gamma 90.000000
_cell_volume 1125.860275
_symmetry_space_group_name_H-M "P 2/M"
_symmetry_group_IT_number 10
_symmetry_cell_setting 'monoclinic'
loop_
_space_group_symop_operation_xyz
x,y,z
-x,y,-z
-x,-y,-z
x,-y,z
loop_
_atom_site_type_symbol
_atom_site_label
_atom_site_fract_x
_atom_site_fract_y
_atom_site_fract_z
Si Si1 0.081752 0.297535 0.901200
Si Si2 0.409116 0.294248 0.650899
Si Si3 0.379196 0.110165 0.907535
Si Si4 0.086657 0.771443 0.408258
Si Si5 0.387545 0.111033 0.274823
Si Si6 0.410384 0.611960 0.178463
O O1 0.156608 0.185931 0.891990
O O2 0.347070 0.352181 0.879123
O O3 0.848772 0.331070 0.842610
O O4 0.000000 0.316996 0.000000
O O5 0.129022 0.304722 0.616650
O O6 0.402727 0.187093 0.693944
O O7 0.500035 0.365295 0.724785
O O8 0.644181 0.282770 0.583562
O O9 0.589097 0.118103 0.829106
O O10 0.287432 0.000000 0.908621
O O11 0.500000 0.131950 0.000000
O O12 0.000000 0.816523 0.500000
O O13 0.147600 0.847015 0.330573
O O14 0.429436 0.000000 0.297047
O O15 0.363745 0.500000 0.165143
#
# Coordination Sequence:
#
# PCOD9153069 Si02
#       6
#     4   4   4   4   4   4
#     4  12  25  42  66  96 133 172 224 284 331 386
#     4  10  22  40  64  91 126 167 215 261 335 393
#     4  10  21  41  67  99 138 185 228 269 321 387
#     4  10  21  39  65  95 131 169 210 268 336 401
#     4   9  21  38  64  95 132 173 221 267 321 392
#     4  12  26  45  68  94 127 173 225 278 342 400
#
# _framework density 21.317031
#
# number of rings (size 3 to 8) (size 9 to 14) (size 15 to 20)
#    1.000    0.500    1.667    3.500    0.000    3.333 
#    0.000    2.500    0.000    3.000    0.000    0.000 
#    0.000    0.000    0.000    0.000    0.000    0.000 
#
# Total GULP energy -133832.356265 kJ/mol
# GULP energy per Si atom -5576.348178 kJ/mol
# Density = 2.126851 g / cm^3
# Si number density = 21.317031 Si / 1000 Ang^3
#
#
#
# Elastic Constant Matrix: (Units=GPa)
#
#
# Indices 1 2 3 4 5 6 
#
# 1 113.6306 59.2217 47.8405 0.0000 10.5275 0.0000
# 2 59.2217 105.1027 16.2660 0.0000 9.7806 0.0000
# 3 47.8405 16.2660 108.6845 0.0000 -19.4900 0.0000
# 4 0.0000 0.0000 0.0000 -38.5312 0.0000 -6.5863
# 5 10.5275 9.7806 -19.4900 0.0000 36.2184 0.0000
# 6 0.0000 0.0000 0.0000 -6.5863 0.0000 5.6103
#
#
#
# Elastic Compliance Matrix: (Units=1/GPa)
#
#
# Indices 1 2 3 4 5 6 
#
# 1 0.016388 -0.007486 -0.007288 0.000000 -0.006664 0.000000
# 2 -0.007486 0.013651 0.001086 0.000000 -0.000926 0.000000
# 3 -0.007288 0.001086 0.013917 0.000000 0.009314 0.000000
# 4 0.000000 0.000000 0.000000 -0.021615 0.000000 -0.025376
# 5 -0.006664 -0.000926 0.009314 0.000000 0.034809 0.000000
# 6 0.000000 0.000000 0.000000 -0.025376 0.000000 0.148454
#
#
# Mechanical properties :
#
#
# Convention : Reuss Voigt Hill
#
# Bulk Modulus (GPa) = 60.31653 63.78603 62.05128
# Shear Modulus (GPa) = 20.96388 14.26545 17.61466
#
# Velocity S-wave (km/s) = 3.13938 2.58970 2.87769
# Velocity P-wave (km/s) = 6.44184 6.23936 6.34141
#
# Compressibility (1/GPa) = 0.01657920
#
# Stress axis : x y z
#
# Youngs Moduli (GPa) = 61.02124 73.25677 71.85591
#
# Poissons Ratio (x) = 0.54839 0.52370
# Poissons Ratio (y) = 0.45680 -0.07804
# Poissons Ratio (z) = 0.44473 -0.07956
#
# Static dielectric constant tensor:
#      x y z
#    x 1.797570 0.000000 0.014980 
#    y 0.000000 1.752490 0.000000 
#    z 0.014980 0.000000 1.849370 
# 
# From -- ./inp_files/59066.got.cif
#   From: 2010.05.17/outbox.cif.g08.bks.cpg/sg10_30_cif.got.tgz:59066.got - 2010.06.03 11:33:40.
