data_PCOD9153757
_publ_section_title
;
Structure prediction by ZEFSAII (Michael W. Deem and Ramdas Pophale) SiO2 
 PCOD9153757
Probable space group: P 2/M
;
_chemical_formula_sum "Si O2"
_cell_formula_units_Z 28
_cell_length_a 21.477800
_cell_length_b 8.477537
_cell_length_c 14.776709
_cell_angle_alpha 90.000000
_cell_angle_beta 28.853745
_cell_angle_gamma 90.000000
_cell_volume 1298.381872
_symmetry_space_group_name_H-M "P 2/M"
_symmetry_group_IT_number 10
_symmetry_cell_setting 'monoclinic'
loop_
_space_group_symop_operation_xyz
x,y,z
-x,y,-z
-x,-y,-z
x,-y,z
loop_
_atom_site_type_symbol
_atom_site_label
_atom_site_fract_x
_atom_site_fract_y
_atom_site_fract_z
Si Si1 0.436639 0.181852 0.816570
Si Si2 0.138331 0.820891 0.775881
Si Si3 0.628866 0.681594 0.427954
Si Si4 0.256869 0.689399 0.905634
Si Si5 0.959625 0.687608 0.278708
Si Si6 0.399008 0.685755 0.051794
Si Si7 0.891920 0.810937 0.562973
O O1 0.539261 0.218510 0.607714
O O2 0.302786 0.228851 0.938756
O O3 0.437816 0.000000 0.840819
O O4 0.459967 0.284862 0.875589
O O5 0.230927 0.697290 0.705857
O O6 0.123078 0.779599 0.690182
O O7 0.187636 0.000000 0.724793
O O8 0.000000 0.812370 0.000000
O O9 0.584896 0.500000 0.484480
O O10 0.651669 0.733388 0.295458
O O11 0.264786 0.500000 0.906251
O O12 0.109698 0.729359 0.071663
O O13 0.944011 0.500000 0.285728
O O14 0.925791 0.734004 0.423611
O O15 0.378877 0.500000 0.093452
O O16 0.257322 0.764970 0.228292
O O17 0.500000 0.743680 0.000000
O O18 0.000000 0.760965 0.500000
O O19 0.899811 0.000000 0.546133
#
# Coordination Sequence:
#
# PCOD9153757 Si02
#       7
#     4   4   4   4   4   4   4
#     4  12  26  42  65  95 130 170 211 266 329 387
#     4  11  23  39  61  92 130 169 211 266 324 381
#     4  11  23  41  65  92 128 172 219 264 312 382
#     4  10  22  41  65  95 130 172 217 264 314 377
#     4  11  23  40  66  96 129 172 217 264 319 385
#     4  11  26  48  72  97 128 173 226 280 333 397
#     4  11  25  45  70 102 136 172 217 278 341 397
#
# _framework density 21.565304000000001
#
# number of rings (size 3 to 8) (size 9 to 14) (size 15 to 20)
#    0.000    1.000    1.429    4.714    2.000    9.143 
#    0.000    0.000    0.000    0.000    0.000    0.000 
#    0.000    0.000    0.000    0.000    0.000    0.000 
#
# Total GULP energy -156616.257774 kJ/mol
# GULP energy per Si atom -5593.437778 kJ/mol
# Density = 2.151622 g / cm^3
# Si number density = 21.565304 Si / 1000 Ang^3
#
#
#
# Elastic Constant Matrix: (Units=GPa)
#
#
# Indices 1 2 3 4 5 6 
#
# 1 128.0270 5.7769 17.0994 0.0000 4.3825 0.0000
# 2 5.7769 24.2934 3.2735 0.0000 -8.4351 0.0000
# 3 17.0994 3.2735 65.7453 0.0000 1.7580 0.0000
# 4 0.0000 0.0000 0.0000 93.8704 0.0000 -105.6507
# 5 4.3825 -8.4351 1.7580 0.0000 35.0317 0.0000
# 6 0.0000 0.0000 0.0000 -105.6507 0.0000 179.4047
#
#
#
# Elastic Compliance Matrix: (Units=1/GPa)
#
#
# Indices 1 2 3 4 5 6 
#
# 1 0.008226 -0.002194 -0.001991 0.000000 -0.001457 0.000000
# 2 -0.002194 0.045928 -0.002022 0.000000 0.011435 0.000000
# 3 -0.001991 -0.002022 0.015856 0.000000 -0.001033 0.000000
# 4 0.000000 0.000000 0.000000 0.031592 0.000000 0.018605
# 5 -0.001457 0.011435 -0.001033 0.000000 0.031533 0.000000
# 6 0.000000 0.000000 0.000000 0.018605 0.000000 0.016530
#
#
# Mechanical properties :
#
#
# Convention : Reuss Voigt Hill
#
# Bulk Modulus (GPa) = 17.36228 30.04059 23.70143
# Shear Modulus (GPa) = 27.58192 74.45575 51.01884
#
# Velocity S-wave (km/s) = 3.58018 5.88223 4.86921
# Velocity P-wave (km/s) = 5.01585 7.75207 6.52891
#
# Compressibility (1/GPa) = 0.05759613
#
# Stress axis : x y z
#
# Youngs Moduli (GPa) = 121.57059 21.77328 63.06603
#
# Poissons Ratio (x) = 0.04777 0.12558
# Poissons Ratio (y) = 0.26670 0.12752
# Poissons Ratio (z) = 0.24207 0.04402
#
# Static dielectric constant tensor:
#      x y z
#    x 1.770650 0.000000 -0.030830 
#    y 0.000000 1.725140 0.000000 
#    z -0.030830 0.000000 1.807460 
# 
# From -- ./inp_files/70164.got.cif
#   From: 2010.05.17/outbox.cif.g08.bks.cpg/sg10_36_cif.got.tgz:70164.got - 2010.06.03 11:33:40.
