data_PCOD9153264
_publ_section_title
;
Structure prediction by ZEFSAII (Michael W. Deem and Ramdas Pophale) SiO2 
 PCOD9153264
Probable space group: P 2/M
;
_chemical_formula_sum "Si O2"
_cell_formula_units_Z 26
_cell_length_a 8.889433
_cell_length_b 8.156486
_cell_length_c 28.973059
_cell_angle_alpha 90.000000
_cell_angle_beta 144.594799
_cell_angle_gamma 90.000000
_cell_volume 1217.072328
_symmetry_space_group_name_H-M "P 2/M"
_symmetry_group_IT_number 10
_symmetry_cell_setting 'monoclinic'
loop_
_space_group_symop_operation_xyz
x,y,z
-x,y,-z
-x,-y,-z
x,-y,z
loop_
_atom_site_type_symbol
_atom_site_label
_atom_site_fract_x
_atom_site_fract_y
_atom_site_fract_z
Si Si1 0.442338 0.808105 0.718491
Si Si2 0.823351 0.197785 0.179777
Si Si3 0.254884 0.500000 0.506180
Si Si4 0.019669 0.310082 0.129788
Si Si5 0.011866 0.815881 0.682122
Si Si6 0.500000 0.755640 0.500000
Si Si7 0.637155 0.500000 0.364360
Si Si8 0.229387 0.197062 0.023445
O O1 0.721751 0.797983 0.812561
O O2 0.457164 0.670505 0.682075
O O3 0.216012 0.746081 0.696329
O O4 0.392959 0.000000 0.692122
O O5 0.520084 0.235767 0.112562
O O6 0.912332 0.275844 0.154046
O O7 0.979716 0.256050 0.264370
O O8 0.855234 0.000000 0.181593
O O9 0.339304 0.652508 0.496812
O O10 0.406515 0.500000 0.592093
O O11 0.949042 0.500000 0.436964
O O12 0.091122 0.500000 0.143451
O O13 0.817289 0.265951 0.039315
O O14 0.729973 0.828994 0.588593
O O15 0.115885 0.000000 0.714949
O O16 0.211878 0.000000 0.016597
O O17 0.000000 0.256093 0.000000
#
# Coordination Sequence:
#
# PCOD9153264 Si02
#       8
#     4   4   2   4   4   2   2   4
#     4  11  23  43  67  95 131 175 221 269 327 391
#     4  10  22  41  64  93 128 171 219 273 327 385
#     4  10  24  40  66  90 134 168 220 270 338 395
#     4  12  25  40  62  95 135 171 218 271 323 390
#     4  10  22  40  64  94 127 167 224 274 326 398
#     4  11  21  40  64  94 127 179 208 275 337 388
#     4  11  22  46  64  98 130 174 218 278 325 397
#     4  10  21  41  68  94 127 171 218 268 328 390
#
# _framework density 21.362739999999999
#
# number of rings (size 3 to 8) (size 9 to 14) (size 15 to 20)
#    0.000    1.385    2.308    3.000    2.154    5.231 
#    2.769    2.308    0.000    0.000    0.000    0.000 
#    0.000    0.000    0.000    0.000    0.000    0.000 
#
# Total GULP energy -145089.144755 kJ/mol
# GULP energy per Si atom -5580.351721 kJ/mol
# Density = 2.131412 g / cm^3
# Si number density = 21.362740 Si / 1000 Ang^3
#
#
#
# Elastic Constant Matrix: (Units=GPa)
#
#
# Indices 1 2 3 4 5 6 
#
# 1 82.4004 12.3935 42.0157 0.0000 -8.6087 0.0000
# 2 12.3935 61.7554 28.2724 0.0000 -9.3540 0.0000
# 3 42.0157 28.2724 131.9899 0.0000 -17.4356 0.0000
# 4 0.0000 0.0000 0.0000 29.8564 0.0000 0.7365
# 5 -8.6087 -9.3540 -17.4356 0.0000 45.6914 0.0000
# 6 0.0000 0.0000 0.0000 0.7365 0.0000 17.4268
#
#
#
# Elastic Compliance Matrix: (Units=1/GPa)
#
#
# Indices 1 2 3 4 5 6 
#
# 1 0.014567 -0.000794 -0.004345 0.000000 0.000924 0.000000
# 2 -0.000794 0.018235 -0.003348 0.000000 0.002306 0.000000
# 3 -0.004345 -0.003348 0.009981 0.000000 0.002305 0.000000
# 4 0.000000 0.000000 0.000000 0.033529 0.000000 -0.001417
# 5 0.000924 0.002306 0.002305 0.000000 0.023411 0.000000
# 6 0.000000 0.000000 0.000000 -0.001417 0.000000 0.057443
#
#
# Mechanical properties :
#
#
# Convention : Reuss Voigt Hill
#
# Bulk Modulus (GPa) = 38.74841 49.05657 43.90249
# Shear Modulus (GPa) = 27.36073 31.49253 29.42663
#
# Velocity S-wave (km/s) = 3.58267 3.84367 3.71546
# Velocity P-wave (km/s) = 5.94068 6.53543 6.24514
#
# Compressibility (1/GPa) = 0.02580751
#
# Stress axis : x y z
#
# Youngs Moduli (GPa) = 68.64673 54.84109 100.18921
#
# Poissons Ratio (x) = 0.04356 0.43532
# Poissons Ratio (y) = 0.05453 0.33548
# Poissons Ratio (z) = 0.29827 0.18363
#
# Static dielectric constant tensor:
#      x y z
#    x 1.765730 0.000000 -0.016300 
#    y 0.000000 1.781040 0.000000 
#    z -0.016300 0.000000 1.791980 
# 
# From -- ./inp_files/91895.got.cif
#   From: 2010.05.17/outbox.cif.g08.bks.cpg/sg10_46_cif.got.tgz:91895.got - 2010.06.03 11:33:40.
