data_PCOD9153540
_publ_section_title
;
Structure prediction by ZEFSAII (Michael W. Deem and Ramdas Pophale) SiO2 
 PCOD9153540
Probable space group: P 2/M
;
_chemical_formula_sum "Si O2"
_cell_formula_units_Z 32
_cell_length_a 15.951431
_cell_length_b 23.033667
_cell_length_c 9.101864
_cell_angle_alpha 90.000000
_cell_angle_beta 152.685948
_cell_angle_gamma 90.000000
_cell_volume 1534.547561
_symmetry_space_group_name_H-M "P 2/M"
_symmetry_group_IT_number 10
_symmetry_cell_setting 'monoclinic'
loop_
_space_group_symop_operation_xyz
x,y,z
-x,y,-z
-x,-y,-z
x,-y,z
loop_
_atom_site_type_symbol
_atom_site_label
_atom_site_fract_x
_atom_site_fract_y
_atom_site_fract_z
Si Si1 0.302916 0.866709 0.763900
Si Si2 0.145125 0.565414 0.597132
Si Si3 0.084659 0.238594 0.280859
Si Si4 0.829469 0.284029 0.123851
Si Si5 0.545518 0.390598 0.730573
Si Si6 0.028202 0.064177 0.721515
Si Si7 0.691337 0.647998 0.386699
Si Si8 0.679404 0.844200 0.875907
O O1 0.184643 0.809466 0.536265
O O2 0.166783 0.919274 0.513140
O O3 0.500000 0.864947 0.000000
O O4 0.342860 0.871176 0.998763
O O5 0.104634 0.500000 0.483577
O O6 0.173261 0.608959 0.503769
O O7 0.000000 0.580545 0.500000
O O8 0.335765 0.567981 0.981572
O O9 0.232248 0.287848 0.475839
O O10 0.925162 0.274240 0.115879
O O11 0.000000 0.213151 0.000000
O O12 0.000000 0.292267 0.500000
O O13 0.676266 0.333532 0.907467
O O14 0.740438 0.221153 0.006810
O O15 0.500000 0.414340 0.500000
O O16 0.364172 0.376138 0.540550
O O17 0.000000 0.064207 0.500000
O O18 0.091579 0.000000 0.863292
O O19 0.168320 0.116666 0.967634
O O20 0.500000 0.650726 0.000000
O O21 0.500000 0.843007 0.500000
#
# Coordination Sequence:
#
# PCOD9153540 Si02
#       8
#     4   4   4   4   4   4   4   4
#     4  11  24  38  61  93 127 162 208 265 323 385
#     4  10  22  42  66  88 119 170 218 257 312 385
#     4  12  24  37  60  88 129 166 205 260 326 386
#     4  12  21  39  60  86 127 166 210 256 318 383
#     4  11  23  37  60  92 126 159 208 267 324 380
#     4   9  19  42  65  88 122 165 215 261 315 383
#     4  10  22  39  59  89 124 162 208 259 319 384
#     4  11  23  39  62  91 123 166 213 260 316 386
#
# _framework density 20.853052000000002
#
# number of rings (size 3 to 8) (size 9 to 14) (size 15 to 20)
#    0.000    1.250    2.500    4.500    3.500    3.000 
#    0.000    0.000    0.000    4.500    0.000    0.000 
#    0.000    0.000    0.000    0.000    0.000    0.000 
#
# Total GULP energy -178585.425054 kJ/mol
# GULP energy per Si atom -5580.794533 kJ/mol
# Density = 2.080559 g / cm^3
# Si number density = 20.853052 Si / 1000 Ang^3
#
#
#
# Elastic Constant Matrix: (Units=GPa)
#
#
# Indices 1 2 3 4 5 6 
#
# 1 96.2939 -0.4097 24.7584 0.0000 9.7306 0.0000
# 2 -0.4097 77.3318 20.2822 0.0000 13.2912 0.0000
# 3 24.7584 20.2822 65.5660 0.0000 -0.8750 0.0000
# 4 0.0000 0.0000 0.0000 7.0982 0.0000 5.4938
# 5 9.7306 13.2912 -0.8750 0.0000 39.8482 0.0000
# 6 0.0000 0.0000 0.0000 5.4938 0.0000 7.7374
#
#
#
# Elastic Compliance Matrix: (Units=1/GPa)
#
#
# Indices 1 2 3 4 5 6 
#
# 1 0.012134 0.002099 -0.005282 0.000000 -0.003779 0.000000
# 2 0.002099 0.015414 -0.005638 0.000000 -0.005778 0.000000
# 3 -0.005282 -0.005638 0.019038 0.000000 0.003588 0.000000
# 4 0.000000 0.000000 0.000000 0.312756 0.000000 -0.222068
# 5 -0.003779 -0.005778 0.003588 0.000000 0.028024 0.000000
# 6 0.000000 0.000000 0.000000 -0.222068 0.000000 0.286919
#
#
# Mechanical properties :
#
#
# Convention : Reuss Voigt Hill
#
# Bulk Modulus (GPa) = 34.54832 36.49482 35.52157
# Shear Modulus (GPa) = 7.12683 23.90746 15.51715
#
# Velocity S-wave (km/s) = 1.85069 3.38963 2.73081
# Velocity P-wave (km/s) = 4.60111 5.73223 5.19753
#
# Compressibility (1/GPa) = 0.02894497
#
# Stress axis : x y z
#
# Youngs Moduli (GPa) = 82.41554 64.87556 52.52622
#
# Poissons Ratio (x) = -0.13617 0.27742
# Poissons Ratio (y) = -0.17299 0.29614
# Poissons Ratio (z) = 0.43528 0.36576
#
# Static dielectric constant tensor:
#      x y z
#    x 1.795750 0.000000 0.021180 
#    y 0.000000 1.752710 0.000000 
#    z 0.021180 0.000000 1.739700 
# 
# From -- ./inp_files/30606.got.cif
#   From: 2010.05.17/outbox.cif.g08.bks.cpg/sg10_16_cif.got.tgz:30606.got - 2010.06.03 11:33:40.
