data_PCOD9153512
_publ_section_title
;
Structure prediction by ZEFSAII (Michael W. Deem and Ramdas Pophale) SiO2 
 PCOD9153512
Probable space group: P 2/M
;
_chemical_formula_sum "Si O2"
_cell_formula_units_Z 26
_cell_length_a 13.398753
_cell_length_b 23.952121
_cell_length_c 5.080254
_cell_angle_alpha 90.000000
_cell_angle_beta 55.653867
_cell_angle_gamma 90.000000
_cell_volume 1346.129268
_symmetry_space_group_name_H-M "P 2/M"
_symmetry_group_IT_number 10
_symmetry_cell_setting 'monoclinic'
loop_
_space_group_symop_operation_xyz
x,y,z
-x,y,-z
-x,-y,-z
x,-y,z
loop_
_atom_site_type_symbol
_atom_site_label
_atom_site_fract_x
_atom_site_fract_y
_atom_site_fract_z
Si Si1 0.500000 0.337652 0.000000
Si Si2 0.134907 0.439879 0.411636
Si Si3 0.587016 0.938313 0.119416
Si Si4 0.612298 0.437634 0.130847
Si Si5 0.683390 0.249485 0.590577
Si Si6 0.914791 0.679441 0.370141
Si Si7 0.365015 0.820876 0.823422
O O1 0.410495 0.381228 0.995294
O O2 0.581300 0.297276 0.697360
O O3 0.152404 0.500000 0.523979
O O4 0.137004 0.383624 0.575046
O O5 0.000000 0.441022 0.500000
O O6 0.242958 0.435463 0.033592
O O7 0.500000 0.943103 0.500000
O O8 0.669809 0.884968 0.060495
O O9 0.642643 0.000000 0.992330
O O10 0.500000 0.925634 0.000000
O O11 0.500000 0.436403 0.500000
O O12 0.600624 0.500000 0.024265
O O13 0.802694 0.279096 0.522802
O O14 0.705918 0.213551 0.294528
O O15 0.637178 0.210994 0.897514
O O16 0.000000 0.683373 0.500000
O O17 0.000000 0.690922 0.000000
O O18 0.500000 0.822504 0.500000
#
# Coordination Sequence:
#
# PCOD9153512 Si02
#       7
#     2   4   4   4   4   4   4
#     4  12  23  34  54  80 111 150 188 234 292 366
#     4   9  19  38  60  83 107 142 194 249 304 364
#     4   9  17  30  50  78 118 167 205 233 274 336
#     4  10  22  39  58  80 111 146 191 247 308 369
#     4  12  24  37  57  87 118 153 198 239 289 356
#     4  11  24  43  62  82 110 149 197 249 301 355
#     4  11  20  35  53  85 123 158 192 235 283 344
#
# _framework density 19.314637000000001
#
# number of rings (size 3 to 8) (size 9 to 14) (size 15 to 20)
#    0.000    1.538    3.077    3.000    2.154    2.769 
#    0.000    0.000    0.000    0.000    0.000    0.000 
#    0.000   12.308    0.000    0.000    0.000    0.000 
#
# Total GULP energy -144761.793499 kJ/mol
# GULP energy per Si atom -5567.761288 kJ/mol
# Density = 1.927068 g / cm^3
# Si number density = 19.314637 Si / 1000 Ang^3
#
#
#
# Elastic Constant Matrix: (Units=GPa)
#
#
# Indices 1 2 3 4 5 6 
#
# 1 82.4393 44.0213 33.5509 0.0000 -3.4504 0.0000
# 2 44.0213 167.8510 19.4789 0.0000 4.7731 0.0000
# 3 33.5509 19.4789 64.9762 0.0000 -7.6940 0.0000
# 4 0.0000 0.0000 0.0000 12.5457 0.0000 8.0455
# 5 -3.4504 4.7731 -7.6940 0.0000 42.6805 0.0000
# 6 0.0000 0.0000 0.0000 8.0455 0.0000 23.2411
#
#
#
# Elastic Compliance Matrix: (Units=1/GPa)
#
#
# Indices 1 2 3 4 5 6 
#
# 1 0.017249 -0.003634 -0.007770 0.000000 0.000400 0.000000
# 2 -0.003634 0.006984 -0.000352 0.000000 -0.001138 0.000000
# 3 -0.007770 -0.000352 0.019862 0.000000 0.002992 0.000000
# 4 0.000000 0.000000 0.000000 0.102453 0.000000 -0.035467
# 5 0.000400 -0.001138 0.002992 0.000000 0.024129 0.000000
# 6 0.000000 0.000000 0.000000 -0.035467 0.000000 0.055305
#
#
# Mechanical properties :
#
#
# Convention : Reuss Voigt Hill
#
# Bulk Modulus (GPa) = 48.58230 56.59653 52.58941
# Shear Modulus (GPa) = 19.50414 30.24115 24.87264
#
# Velocity S-wave (km/s) = 3.18120 3.96120 3.59243
# Velocity P-wave (km/s) = 6.22102 7.09137 6.67040
#
# Compressibility (1/GPa) = 0.02058363
#
# Stress axis : x y z
#
# Youngs Moduli (GPa) = 57.97288 143.18727 50.34659
#
# Poissons Ratio (x) = 0.52028 0.39120
# Poissons Ratio (y) = 0.21065 0.01773
# Poissons Ratio (z) = 0.45046 0.05044
#
# Static dielectric constant tensor:
#      x y z
#    x 1.446690 0.000000 0.313030 
#    y 0.000000 1.734600 0.000000 
#    z 0.313030 0.000000 1.308160 
# 
# From -- ./inp_files/10035.got.cif
#   From: 2010.05.17/outbox.cif.g08.bks.cpg/sg10_6_cif.got.tgz:10035.got - 2010.06.03 11:33:40.
