data_PCOD9153009
_publ_section_title
;
Structure prediction by ZEFSAII (Michael W. Deem and Ramdas Pophale) SiO2 
 PCOD9153009
Probable space group: P 2/M
;
_chemical_formula_sum "Si O2"
_cell_formula_units_Z 24
_cell_length_a 9.204564
_cell_length_b 17.483414
_cell_length_c 14.990443
_cell_angle_alpha 90.000000
_cell_angle_beta 30.966900
_cell_angle_gamma 90.000000
_cell_volume 1241.267648
_symmetry_space_group_name_H-M "P 2/M"
_symmetry_group_IT_number 10
_symmetry_cell_setting 'monoclinic'
loop_
_space_group_symop_operation_xyz
x,y,z
-x,y,-z
-x,-y,-z
x,-y,z
loop_
_atom_site_type_symbol
_atom_site_label
_atom_site_fract_x
_atom_site_fract_y
_atom_site_fract_z
Si Si1 0.826318 0.500000 0.451065
Si Si2 0.191911 0.648228 0.986390
Si Si3 0.187026 0.338668 0.639048
Si Si4 0.647672 0.910308 0.826631
Si Si5 0.670571 0.187836 0.150241
Si Si6 0.119466 0.208160 0.536363
Si Si7 0.437776 0.500000 0.219832
O O1 0.791177 0.423652 0.412455
O O2 0.613847 0.500000 0.646536
O O3 0.138548 0.500000 0.328511
O O4 0.002418 0.660026 0.173203
O O5 0.349678 0.727592 0.882679
O O6 0.393959 0.576305 0.893483
O O7 0.000000 0.632879 0.000000
O O8 0.500000 0.312809 0.500000
O O9 0.076466 0.280561 0.622491
O O10 0.444039 0.874329 0.858753
O O11 0.937827 0.862775 0.668193
O O12 0.695084 0.000000 0.785738
O O13 0.500000 0.900489 0.000000
O O14 0.450778 0.189264 0.348196
O O15 0.000000 0.176657 0.000000
O O16 0.000000 0.224318 0.500000
#
# Coordination Sequence:
#
# PCOD9153009 Si02
#       7
#     2   4   4   4   4   4   2
#     4  11  26  39  60  87 120 163 208 258 303 366
#     4  11  23  40  62  88 124 162 206 256 307 363
#     4  12  24  41  64  89 122 161 207 254 311 364
#     4  10  22  41  64  92 126 163 204 251 306 368
#     4  10  21  39  63  92 125 161 207 253 308 366
#     4  10  23  40  66  93 126 162 210 254 311 367
#     4  11  24  41  60  83 126 161 208 255 309 362
#
# _framework density 19.335072
#
# number of rings (size 3 to 8) (size 9 to 14) (size 15 to 20)
#    0.000    1.333    0.000    6.000    7.000    4.667 
#    0.000    0.000    0.000    2.500    0.000    0.000 
#    0.000    0.000    0.000    0.000    0.000    0.000 
#
# Total GULP energy -134207.622265 kJ/mol
# GULP energy per Si atom -5591.984261 kJ/mol
# Density = 1.929106 g / cm^3
# Si number density = 19.335072 Si / 1000 Ang^3
#
#
#
# Elastic Constant Matrix: (Units=GPa)
#
#
# Indices 1 2 3 4 5 6 
#
# 1 54.6460 44.7223 39.6986 0.0000 10.8591 0.0000
# 2 44.7223 144.7557 72.1047 0.0000 4.1382 0.0000
# 3 39.6986 72.1047 162.5468 0.0000 4.5140 0.0000
# 4 0.0000 0.0000 0.0000 11.1159 0.0000 18.1600
# 5 10.8591 4.1382 4.5140 0.0000 27.4603 0.0000
# 6 0.0000 0.0000 0.0000 18.1600 0.0000 11.6121
#
#
#
# Elastic Compliance Matrix: (Units=1/GPa)
#
#
# Indices 1 2 3 4 5 6 
#
# 1 0.028327 -0.006629 -0.003711 0.000000 -0.009593 0.000000
# 2 -0.006629 0.010432 -0.003052 0.000000 0.001551 0.000000
# 3 -0.003711 -0.003052 0.008397 0.000000 0.000547 0.000000
# 4 0.000000 0.000000 0.000000 -0.057856 0.000000 0.090480
# 5 -0.009593 0.001551 0.000547 0.000000 0.039886 0.000000
# 6 0.000000 0.000000 0.000000 0.090480 0.000000 -0.055383
#
#
# Mechanical properties :
#
#
# Convention : Reuss Voigt Hill
#
# Bulk Modulus (GPa) = 49.08625 74.99996 62.04311
# Shear Modulus (GPa) = 677.77302 23.73253 350.75277
#
# Velocity S-wave (km/s) = 18.74304 3.50728 13.48337
# Velocity P-wave (km/s) = 22.22261 7.43472 16.56985
#
# Compressibility (1/GPa) = 0.02037230
#
# Stress axis : x y z
#
# Youngs Moduli (GPa) = 35.30204 95.86015 119.08997
#
# Poissons Ratio (x) = 0.63543 0.44199
# Poissons Ratio (y) = 0.23401 0.36342
# Poissons Ratio (z) = 0.13102 0.29253
#
# Static dielectric constant tensor:
#      x y z
#    x 1.675040 0.000000 -0.007410 
#    y 0.000000 1.637540 0.000000 
#    z -0.007410 0.000000 1.683530 
# 
# From -- ./inp_files/62274.got.cif
#   From: 2010.05.17/outbox.cif.g08.bks.cpg/sg10_32_cif.got.tgz:62274.got - 2010.06.03 11:33:40.
