data_PCOD9153769
_publ_section_title
;
Structure prediction by ZEFSAII (Michael W. Deem and Ramdas Pophale) SiO2 
 PCOD9153769
Probable space group: P 2/M
;
_chemical_formula_sum "Si O2"
_cell_formula_units_Z 16
_cell_length_a 9.052347
_cell_length_b 9.627926
_cell_length_c 16.756273
_cell_angle_alpha 90.000000
_cell_angle_beta 150.863953
_cell_angle_gamma 90.000000
_cell_volume 711.046113
_symmetry_space_group_name_H-M "P 2/M"
_symmetry_group_IT_number 10
_symmetry_cell_setting 'monoclinic'
loop_
_space_group_symop_operation_xyz
x,y,z
-x,y,-z
-x,-y,-z
x,-y,z
loop_
_atom_site_type_symbol
_atom_site_label
_atom_site_fract_x
_atom_site_fract_y
_atom_site_fract_z
Si Si1 0.181877 0.652026 0.770641
Si Si2 0.570744 0.334730 0.384720
Si Si3 0.042596 0.157224 0.202501
Si Si4 0.294726 0.278570 0.096070
O O1 0.136610 0.500000 0.787856
O O2 0.493067 0.648234 0.868421
O O3 0.905061 0.674097 0.578433
O O4 0.158268 0.774752 0.822943
O O5 0.508659 0.500000 0.344719
O O6 0.328259 0.260713 0.327793
O O7 0.518698 0.256271 0.276232
O O8 0.130620 0.000000 0.262257
O O9 0.864228 0.162093 0.033695
O O10 0.000000 0.346157 0.000000
#
# Coordination Sequence:
#
# PCOD9153769 Si02
#       4
#     4   4   4   4
#     4  11  23  40  65  96 127 161 205 257 312 370
#     4  10  22  41  66  96 126 158 204 260 314 370
#     4  11  25  43  63  91 128 168 210 254 304 368
#     4  10  23  40  64  91 125 162 204 255 310 364
#
# _framework density 22.502057000000001
#
# number of rings (size 3 to 8) (size 9 to 14) (size 15 to 20)
#    0.000    1.500    0.000    3.750    0.000   24.500 
#    0.000    0.000    0.000    9.000    0.000    0.000 
#    0.000    0.000    0.000    0.000    0.000    0.000 
#
# Total GULP energy -89237.681952 kJ/mol
# GULP energy per Si atom -5577.355122 kJ/mol
# Density = 2.245084 g / cm^3
# Si number density = 22.502057 Si / 1000 Ang^3
#
#
#
# Elastic Constant Matrix: (Units=GPa)
#
#
# Indices 1 2 3 4 5 6 
#
# 1 117.2715 34.1303 33.4769 0.0000 11.1825 0.0000
# 2 34.1303 77.9965 31.6222 0.0000 7.2689 0.0000
# 3 33.4769 31.6222 126.2221 0.0000 -4.2114 0.0000
# 4 0.0000 0.0000 0.0000 -5.5113 0.0000 -15.4074
# 5 11.1825 7.2689 -4.2114 0.0000 43.3589 0.0000
# 6 0.0000 0.0000 0.0000 -15.4074 0.0000 -15.7488
#
#
#
# Elastic Compliance Matrix: (Units=1/GPa)
#
#
# Indices 1 2 3 4 5 6 
#
# 1 0.010319 -0.003523 -0.001930 0.000000 -0.002258 0.000000
# 2 -0.003523 0.015807 -0.003094 0.000000 -0.002042 0.000000
# 3 -0.001930 -0.003094 0.009273 0.000000 0.001917 0.000000
# 4 0.000000 0.000000 0.000000 0.104579 0.000000 -0.102312
# 5 -0.002258 -0.002042 0.001917 0.000000 0.024174 0.000000
# 6 0.000000 0.000000 0.000000 -0.102312 0.000000 0.036597
#
#
# Mechanical properties :
#
#
# Convention : Reuss Voigt Hill
#
# Bulk Modulus (GPa) = 54.62407 57.77210 56.19809
# Shear Modulus (GPa) = 22.32699 19.23714 20.78207
#
# Velocity S-wave (km/s) = 3.15337 2.92705 3.04231
# Velocity P-wave (km/s) = 6.13076 6.09536 6.11308
#
# Compressibility (1/GPa) = 0.01830695
#
# Stress axis : x y z
#
# Youngs Moduli (GPa) = 96.91280 63.26221 107.83517
#
# Poissons Ratio (x) = 0.22284 0.20807
# Poissons Ratio (y) = 0.34138 0.33365
# Poissons Ratio (z) = 0.18700 0.19574
#
# Static dielectric constant tensor:
#      x y z
#    x 1.857940 0.000000 -0.019070 
#    y 0.000000 1.751580 0.000000 
#    z -0.019070 0.000000 1.871270 
# 
# From -- ./inp_files/17660.got.cif
#   From: 2010.05.17/outbox.cif.g08.bks.cpg/sg10_9_cif.got.tgz:17660.got - 2010.06.03 11:33:40.
