data_PCOD9153102
_publ_section_title
;
Structure prediction by ZEFSAII (Michael W. Deem and Ramdas Pophale) SiO2 
 PCOD9153102
Probable space group: P 2/M
;
_chemical_formula_sum "Si O2"
_cell_formula_units_Z 28
_cell_length_a 8.311660
_cell_length_b 23.572929
_cell_length_c 14.082446
_cell_angle_alpha 90.000000
_cell_angle_beta 28.488537
_cell_angle_gamma 90.000000
_cell_volume 1316.079874
_symmetry_space_group_name_H-M "P 2/M"
_symmetry_group_IT_number 10
_symmetry_cell_setting 'monoclinic'
loop_
_space_group_symop_operation_xyz
x,y,z
-x,y,-z
-x,-y,-z
x,-y,z
loop_
_atom_site_type_symbol
_atom_site_label
_atom_site_fract_x
_atom_site_fract_y
_atom_site_fract_z
Si Si1 0.969872 0.172524 0.784677
Si Si2 0.223625 0.435573 0.560902
Si Si3 0.663337 0.657014 0.818899
Si Si4 0.624795 0.561390 0.156201
Si Si5 0.794292 0.937037 0.425746
Si Si6 0.628620 0.147088 0.242307
Si Si7 0.672073 0.220306 0.765597
O O1 0.948456 0.107670 0.756265
O O2 0.268182 0.172580 0.707900
O O3 0.971573 0.205914 0.684307
O O4 0.658241 0.198652 0.004641
O O5 0.500000 0.428341 0.500000
O O6 0.083862 0.500000 0.647837
O O7 0.386442 0.434954 0.371579
O O8 0.974492 0.382458 0.688193
O O9 0.429943 0.612509 0.885759
O O10 0.701795 0.712565 0.735087
O O11 0.500000 0.679223 0.000000
O O12 0.564344 0.500000 0.141142
O O13 0.000000 0.562268 0.000000
O O14 0.500000 0.942280 0.500000
O O15 0.602418 0.907570 0.613934
O O16 0.927551 0.000000 0.377070
O O17 0.401731 0.187237 0.293362
O O18 0.000000 0.135693 0.000000
#
# Coordination Sequence:
#
# PCOD9153102 Si02
#       7
#     4   4   4   4   4   4   4
#     4   9  18  39  59  79 119 160 190 245 301 356
#     4  10  22  43  65  91 127 164 206 260 323 382
#     4  12  23  39  62  91 125 162 213 265 311 371
#     4  10  22  41  65  92 125 162 204 258 317 378
#     4   9  18  35  61  92 120 152 199 252 303 365
#     4   9  19  36  61  84 114 161 198 239 310 363
#     4  10  21  40  57  81 120 159 206 246 293 365
#
# _framework density 21.275304999999999
#
# number of rings (size 3 to 8) (size 9 to 14) (size 15 to 20)
#    0.000    2.143    1.429    1.714    0.000    6.000 
#    7.714    5.714    0.000    0.000    0.000    0.000 
#    0.000    0.000    0.000    0.000    0.000    0.000 
#
# Total GULP energy -156005.738160 kJ/mol
# GULP energy per Si atom -5571.633506 kJ/mol
# Density = 2.122688 g / cm^3
# Si number density = 21.275305 Si / 1000 Ang^3
#
#
#
# Elastic Constant Matrix: (Units=GPa)
#
#
# Indices 1 2 3 4 5 6 
#
# 1 112.7043 49.1708 17.9259 0.0000 3.0566 0.0000
# 2 49.1708 170.0955 32.8646 0.0000 -0.7493 0.0000
# 3 17.9259 32.8646 76.6285 0.0000 10.9743 0.0000
# 4 0.0000 0.0000 0.0000 76.5472 0.0000 4.8057
# 5 3.0566 -0.7493 10.9743 0.0000 34.7185 0.0000
# 6 0.0000 0.0000 0.0000 4.8057 0.0000 31.5671
#
#
#
# Elastic Compliance Matrix: (Units=1/GPa)
#
#
# Indices 1 2 3 4 5 6 
#
# 1 0.010271 -0.002752 -0.001136 0.000000 -0.000605 0.000000
# 2 -0.002752 0.007185 -0.002613 0.000000 0.001223 0.000000
# 3 -0.001136 -0.002613 0.015114 0.000000 -0.004734 0.000000
# 4 0.000000 0.000000 0.000000 0.013190 0.000000 -0.002008
# 5 -0.000605 0.001223 -0.004734 0.000000 0.030379 0.000000
# 6 0.000000 0.000000 0.000000 -0.002008 0.000000 0.031984
#
#
# Mechanical properties :
#
#
# Convention : Reuss Voigt Hill
#
# Bulk Modulus (GPa) = 51.10321 62.15011 56.62666
# Shear Modulus (GPa) = 39.17052 45.86434 42.51743
#
# Velocity S-wave (km/s) = 4.29549 4.64805 4.47524
# Velocity P-wave (km/s) = 6.97666 7.62112 7.30600
#
# Compressibility (1/GPa) = 0.01956824
#
# Stress axis : x y z
#
# Youngs Moduli (GPa) = 97.36578 139.18121 66.16300
#
# Poissons Ratio (x) = 0.38306 0.07514
# Poissons Ratio (y) = 0.26797 0.17287
# Poissons Ratio (z) = 0.11057 0.36366
#
# Static dielectric constant tensor:
#      x y z
#    x 1.847840 0.000000 0.039540 
#    y 0.000000 1.761950 0.000000 
#    z 0.039540 0.000000 1.881070 
# 
# From -- ./inp_files/62557.got.cif
#   From: 2010.05.17/outbox.cif.g08.bks.cpg/sg10_32_cif.got.tgz:62557.got - 2010.06.03 11:33:40.
