data_PCOD9153267
_publ_section_title
;
Structure prediction by ZEFSAII (Michael W. Deem and Ramdas Pophale) SiO2 
 PCOD9153267
Probable space group: P 2/M
;
_chemical_formula_sum "Si O2"
_cell_formula_units_Z 28
_cell_length_a 13.444182
_cell_length_b 20.696370
_cell_length_c 8.865620
_cell_angle_alpha 90.000000
_cell_angle_beta 30.611090
_cell_angle_gamma 90.000000
_cell_volume 1256.125121
_symmetry_space_group_name_H-M "P 2/M"
_symmetry_group_IT_number 10
_symmetry_cell_setting 'monoclinic'
loop_
_space_group_symop_operation_xyz
x,y,z
-x,y,-z
-x,-y,-z
x,-y,z
loop_
_atom_site_type_symbol
_atom_site_label
_atom_site_fract_x
_atom_site_fract_y
_atom_site_fract_z
Si Si1 0.331321 0.302008 0.826651
Si Si2 0.408757 0.635856 0.272218
Si Si3 0.925684 0.716528 0.445896
Si Si4 0.555517 0.925747 0.261867
Si Si5 0.215473 0.571773 0.790041
Si Si6 0.879282 0.073378 0.301161
Si Si7 0.721123 0.849591 0.777715
O O1 0.500000 0.273507 0.500000
O O2 0.438612 0.316299 0.844472
O O3 0.267340 0.371025 0.837074
O O4 0.127970 0.264725 0.100131
O O5 0.214929 0.675284 0.477322
O O6 0.356234 0.582781 0.463793
O O7 0.500000 0.610074 0.000000
O O8 0.810009 0.778529 0.655205
O O9 0.000000 0.679427 0.500000
O O10 0.500000 0.900744 0.500000
O O11 0.346036 0.929414 0.454714
O O12 0.628527 0.000000 0.180010
O O13 0.693909 0.882423 0.976532
O O14 0.235397 0.500000 0.828695
O O15 0.000000 0.578535 0.000000
O O16 0.861600 0.110150 0.482155
O O17 0.951103 0.000000 0.229635
O O18 0.000000 0.100896 0.000000
O O19 0.500000 0.846822 0.000000
#
# Coordination Sequence:
#
# PCOD9153267 Si02
#       7
#     4   4   4   4   4   4   4
#     4  10  23  42  68  96 125 175 220 268 325 392
#     4  11  22  40  68  93 132 173 219 264 324 395
#     4  12  24  42  64  90 130 174 220 278 321 382
#     4   9  18  36  65  92 123 161 208 273 340 404
#     4  10  21  41  69 102 135 168 213 275 333 392
#     4   9  18  36  59  88 125 166 209 263 332 399
#     4  10  22  39  61  90 128 171 220 271 331 398
#
# _framework density 22.290773000000002
#
# number of rings (size 3 to 8) (size 9 to 14) (size 15 to 20)
#    0.000    1.857    2.857    0.857    0.000    5.714 
#    5.143    0.714    0.000    6.857    0.000    0.000 
#    0.000    1.714    0.000    0.000    0.000    0.000 
#
# Total GULP energy -156357.606199 kJ/mol
# GULP energy per Si atom -5584.200221 kJ/mol
# Density = 2.224004 g / cm^3
# Si number density = 22.290773 Si / 1000 Ang^3
#
#
#
# Elastic Constant Matrix: (Units=GPa)
#
#
# Indices 1 2 3 4 5 6 
#
# 1 99.8046 21.0718 31.8574 0.0000 -5.7834 0.0000
# 2 21.0718 69.2494 46.1641 0.0000 11.2517 0.0000
# 3 31.8574 46.1641 154.8285 0.0000 3.6940 0.0000
# 4 0.0000 0.0000 0.0000 23.7420 0.0000 -2.7067
# 5 -5.7834 11.2517 3.6940 0.0000 50.7611 0.0000
# 6 0.0000 0.0000 0.0000 -2.7067 0.0000 9.3656
#
#
#
# Elastic Compliance Matrix: (Units=1/GPa)
#
#
# Indices 1 2 3 4 5 6 
#
# 1 0.011198 -0.002699 -0.001547 0.000000 0.001987 0.000000
# 2 -0.002699 0.019359 -0.005116 0.000000 -0.004226 0.000000
# 3 -0.001547 -0.005116 0.008294 0.000000 0.000354 0.000000
# 4 0.000000 0.000000 0.000000 0.043554 0.000000 0.012587
# 5 0.001987 -0.004226 0.000354 0.000000 0.020838 0.000000
# 6 0.000000 0.000000 0.000000 0.012587 0.000000 0.110412
#
#
# Mechanical properties :
#
#
# Convention : Reuss Voigt Hill
#
# Bulk Modulus (GPa) = 49.68315 58.00766 53.84541
# Shear Modulus (GPa) = 20.91278 31.75968 26.33623
#
# Velocity S-wave (km/s) = 3.06630 3.77873 3.44100
# Velocity P-wave (km/s) = 5.90536 6.71700 6.32422
#
# Compressibility (1/GPa) = 0.02012755
#
# Stress axis : x y z
#
# Youngs Moduli (GPa) = 89.29920 51.65541 120.56983
#
# Poissons Ratio (x) = 0.13943 0.18649
# Poissons Ratio (y) = 0.24104 0.61683
# Poissons Ratio (z) = 0.13812 0.26427
#
# Static dielectric constant tensor:
#      x y z
#    x 1.856550 0.000000 0.009390 
#    y 0.000000 1.812440 0.000000 
#    z 0.009390 0.000000 1.869550 
# 
# From -- ./inp_files/30427.got.cif
#   From: 2010.05.17/outbox.cif.g08.bks.cpg/sg10_16_cif.got.tgz:30427.got - 2010.06.03 11:33:40.
