data_PCOD9153437
_publ_section_title
;
Structure prediction by ZEFSAII (Michael W. Deem and Ramdas Pophale) SiO2 
 PCOD9153437
Probable space group: P 2/M
;
_chemical_formula_sum "Si O2"
_cell_formula_units_Z 24
_cell_length_a 9.537346
_cell_length_b 11.479760
_cell_length_c 24.910661
_cell_angle_alpha 90.000000
_cell_angle_beta 28.713105
_cell_angle_gamma 90.000000
_cell_volume 1310.298951
_symmetry_space_group_name_H-M "P 2/M"
_symmetry_group_IT_number 10
_symmetry_cell_setting 'monoclinic'
loop_
_space_group_symop_operation_xyz
x,y,z
-x,y,-z
-x,-y,-z
x,-y,z
loop_
_atom_site_type_symbol
_atom_site_label
_atom_site_fract_x
_atom_site_fract_y
_atom_site_fract_z
Si Si1 0.851009 0.140065 0.607520
Si Si2 0.408433 0.500000 0.469605
Si Si3 0.183652 0.500000 0.384854
Si Si4 0.340402 0.500000 0.110588
Si Si5 0.850937 0.306918 0.283665
Si Si6 0.339011 0.298775 0.770636
Si Si7 0.950302 0.500000 0.954157
Si Si8 0.150612 0.133064 0.618385
O O1 0.519870 0.185032 0.728273
O O2 0.000000 0.179024 0.500000
O O3 0.034514 0.175201 0.599192
O O4 0.854608 0.000000 0.604243
O O5 0.500000 0.500000 0.500000
O O6 0.567110 0.386949 0.391728
O O7 0.061040 0.500000 0.579030
O O8 0.391729 0.389477 0.317641
O O9 0.000000 0.500000 0.500000
O O10 0.128659 0.390830 0.187449
O O11 0.500000 0.500000 0.000000
O O12 0.604984 0.500000 0.062507
O O13 0.785245 0.264029 0.245813
O O14 0.913150 0.214863 0.309504
O O15 0.092525 0.381153 0.881399
O O16 0.000000 0.500000 0.000000
O O17 0.500000 0.129710 0.500000
O O18 0.044215 0.000000 0.662073
#
# Coordination Sequence:
#
# PCOD9153437 Si02
#       8
#     4   2   2   2   4   4   2   4
#     4  10  22  38  58  85 121 161 194 231 284 345
#     4  11  23  31  47  85 119 147 181 224 285 349
#     4  11  19  33  51  78 121 149 174 232 282 346
#     4  11  21  43  63  84 116 149 191 247 298 345
#     4  11  22  36  59  84 112 153 195 235 287 346
#     4  11  22  36  58  84 112 153 194 233 288 352
#     4  11  25  41  61  89 115 148 194 247 302 343
#     4  10  22  38  57  86 122 157 195 237 281 341
#
# _framework density 18.316431999999999
#
# number of rings (size 3 to 8) (size 9 to 14) (size 15 to 20)
#    0.000    1.333    3.333    3.000    7.000    3.333 
#    0.000    0.000    0.000    2.000    0.000    0.000 
#    0.000    0.000    0.000    0.000    0.000    0.000 
#
# Total GULP energy -133741.648923 kJ/mol
# GULP energy per Si atom -5572.568705 kJ/mol
# Density = 1.827474 g / cm^3
# Si number density = 18.316432 Si / 1000 Ang^3
#
#
#
# Elastic Constant Matrix: (Units=GPa)
#
#
# Indices 1 2 3 4 5 6 
#
# 1 179.5658 39.1060 35.3115 0.0000 -8.9102 0.0000
# 2 39.1060 61.6729 27.0189 0.0000 7.2079 0.0000
# 3 35.3115 27.0189 61.8761 0.0000 -13.8940 0.0000
# 4 0.0000 0.0000 0.0000 14.3979 0.0000 3.8739
# 5 -8.9102 7.2079 -13.8940 0.0000 39.3852 0.0000
# 6 0.0000 0.0000 0.0000 3.8739 0.0000 26.9024
#
#
#
# Elastic Compliance Matrix: (Units=1/GPa)
#
#
# Indices 1 2 3 4 5 6 
#
# 1 0.006824 -0.003645 -0.001962 0.000000 0.001519 0.000000
# 2 -0.003645 0.024162 -0.010478 0.000000 -0.008943 0.000000
# 3 -0.001962 -0.010478 0.024096 0.000000 0.009974 0.000000
# 4 0.000000 0.000000 0.000000 0.072254 0.000000 -0.010404
# 5 0.001519 -0.008943 0.009974 0.000000 0.030889 0.000000
# 6 0.000000 0.000000 0.000000 -0.010404 0.000000 0.038670
#
#
# Mechanical properties :
#
#
# Convention : Reuss Voigt Hill
#
# Bulk Modulus (GPa) = 43.64630 56.22086 49.93358
# Shear Modulus (GPa) = 21.12369 29.58235 25.35302
#
# Velocity S-wave (km/s) = 3.39966 4.02316 3.72448
# Velocity P-wave (km/s) = 6.26825 7.23477 6.76879
#
# Compressibility (1/GPa) = 0.02291145
#
# Stress axis : x y z
#
# Youngs Moduli (GPa) = 146.54302 41.38791 41.50086
#
# Poissons Ratio (x) = 0.15086 0.08141
# Poissons Ratio (y) = 0.53417 0.43486
# Poissons Ratio (z) = 0.28745 0.43368
#
# Static dielectric constant tensor:
#      x y z
#    x 1.578920 0.000000 0.101920 
#    y 0.000000 1.816200 0.000000 
#    z 0.101920 0.000000 1.619320 
# 
# From -- ./inp_files/88054.got.cif
#   From: 2010.05.17/outbox.cif.g08.bks.cpg/sg10_45_cif.got.tgz:88054.got - 2010.06.03 11:33:40.
