data_PCOD9153122
_publ_section_title
;
Structure prediction by ZEFSAII (Michael W. Deem and Ramdas Pophale) SiO2 
 PCOD9153122
Probable space group: P 2/M
;
_chemical_formula_sum "Si O2"
_cell_formula_units_Z 32
_cell_length_a 12.703981
_cell_length_b 8.169325
_cell_length_c 14.749356
_cell_angle_alpha 90.000000
_cell_angle_beta 90.045196
_cell_angle_gamma 90.000000
_cell_volume 1530.731194
_symmetry_space_group_name_H-M "P 2/M"
_symmetry_group_IT_number 10
_symmetry_cell_setting 'monoclinic'
loop_
_space_group_symop_operation_xyz
x,y,z
-x,y,-z
-x,-y,-z
x,-y,z
loop_
_atom_site_type_symbol
_atom_site_label
_atom_site_fract_x
_atom_site_fract_y
_atom_site_fract_z
Si Si1 0.101580 0.193056 0.185477
Si Si2 0.326385 0.801431 0.265415
Si Si3 0.384513 0.188319 0.975376
Si Si4 0.838713 0.309627 0.006435
Si Si5 0.616708 0.198676 0.531907
Si Si6 0.300667 0.193338 0.654506
Si Si7 0.546346 0.687323 0.202160
Si Si8 0.876845 0.692199 0.210973
O O1 0.213061 0.249737 0.227010
O O2 0.000359 0.281313 0.226877
O O3 0.091481 0.000000 0.202282
O O4 0.104687 0.223775 0.077263
O O5 0.347510 0.745425 0.368780
O O6 0.425027 0.737275 0.207768
O O7 0.329753 0.000000 0.261957
O O8 0.285886 0.288127 0.009873
O O9 0.389047 0.199749 0.866833
O O10 0.375034 0.000000 0.006192
O O11 0.500000 0.252273 0.000000
O O12 0.868636 0.500000 0.005208
O O13 0.857442 0.243162 0.108106
O O14 0.500000 0.252577 0.500000
O O15 0.697683 0.240236 0.451252
O O16 0.611864 0.000000 0.538247
O O17 0.397551 0.285622 0.702059
O O18 0.196644 0.229633 0.712557
O O19 0.323402 0.000000 0.659019
O O20 0.558356 0.500000 0.173400
O O21 0.849994 0.500000 0.208803
#
# Coordination Sequence:
#
# PCOD9153122 Si02
#       8
#     4   4   4   4   4   4   4   4
#     4  11  24  40  62  89 118 157 204 251 297 350
#     4  10  21  40  62  88 121 156 200 249 296 356
#     4  11  23  37  55  82 117 158 202 246 291 348
#     4  11  23  39  60  86 118 157 200 248 299 352
#     4   9  17  34  63  93 118 152 196 244 299 351
#     4  11  21  37  64  91 117 152 198 248 295 348
#     4  12  23  35  55  86 123 159 193 237 300 360
#     4  11  24  42  62  86 120 159 202 250 299 354
#
# _framework density 20.905042999999999
#
# number of rings (size 3 to 8) (size 9 to 14) (size 15 to 20)
#    0.000    1.250    2.500    4.125    0.000    8.000 
#    0.000    2.500    0.000    3.750    0.000    0.000 
#    0.000    0.000    0.000    0.000    0.000    0.000 
#
# Total GULP energy -178869.221505 kJ/mol
# GULP energy per Si atom -5589.663172 kJ/mol
# Density = 2.085746 g / cm^3
# Si number density = 20.905043 Si / 1000 Ang^3
#
#
#
# Elastic Constant Matrix: (Units=GPa)
#
#
# Indices 1 2 3 4 5 6 
#
# 1 124.8394 6.6251 31.1596 0.0000 -12.6606 0.0000
# 2 6.6251 33.5668 1.8535 0.0000 -0.8121 0.0000
# 3 31.1596 1.8535 91.4548 0.0000 -11.5130 0.0000
# 4 0.0000 0.0000 0.0000 18.1689 0.0000 -54.7700
# 5 -12.6606 -0.8121 -11.5130 0.0000 25.1973 0.0000
# 6 0.0000 0.0000 0.0000 -54.7700 0.0000 240.8011
#
#
#
# Elastic Compliance Matrix: (Units=1/GPa)
#
#
# Indices 1 2 3 4 5 6 
#
# 1 0.009090 -0.001568 -0.002649 0.000000 0.003306 0.000000
# 2 -0.001568 0.030108 -0.000056 0.000000 0.000157 0.000000
# 3 -0.002649 -0.000056 0.012383 0.000000 0.004325 0.000000
# 4 0.000000 0.000000 0.000000 0.175085 0.000000 0.039823
# 5 0.003306 0.000157 0.004325 0.000000 0.043329 0.000000
# 6 0.000000 0.000000 0.000000 0.039823 0.000000 0.013211
#
#
# Mechanical properties :
#
#
# Convention : Reuss Voigt Hill
#
# Bulk Modulus (GPa) = 23.23747 36.57081 29.90414
# Shear Modulus (GPa) = 16.33472 70.84830 43.59151
#
# Velocity S-wave (km/s) = 2.79835 5.82787 4.57137
# Velocity P-wave (km/s) = 4.64552 7.92573 6.49608
#
# Compressibility (1/GPa) = 0.04303395
#
# Stress axis : x y z
#
# Youngs Moduli (GPa) = 110.01085 33.21411 80.75911
#
# Poissons Ratio (x) = 0.05207 0.21393
# Poissons Ratio (y) = 0.17248 0.00454
# Poissons Ratio (z) = 0.29142 0.00187
#
# Static dielectric constant tensor:
#      x y z
#    x 1.746110 0.000000 0.024060 
#    y 0.000000 1.721700 0.000000 
#    z 0.024060 0.000000 1.794610 
# 
# From -- ./inp_files/63845.got.cif
#   From: 2010.05.17/outbox.cif.g08.bks.cpg/sg10_32_cif.got.tgz:63845.got - 2010.06.03 11:33:40.
