data_PCOD9153371
_publ_section_title
;
Structure prediction by ZEFSAII (Michael W. Deem and Ramdas Pophale) SiO2 
 PCOD9153371
Probable space group: P 2/M
;
_chemical_formula_sum "Si O2"
_cell_formula_units_Z 28
_cell_length_a 12.963102
_cell_length_b 14.254099
_cell_length_c 8.608146
_cell_angle_alpha 90.000000
_cell_angle_beta 106.450244
_cell_angle_gamma 90.000000
_cell_volume 1525.481112
_symmetry_space_group_name_H-M "P 2/M"
_symmetry_group_IT_number 10
_symmetry_cell_setting 'monoclinic'
loop_
_space_group_symop_operation_xyz
x,y,z
-x,y,-z
-x,-y,-z
x,-y,z
loop_
_atom_site_type_symbol
_atom_site_label
_atom_site_fract_x
_atom_site_fract_y
_atom_site_fract_z
Si Si1 0.099141 0.890560 0.659582
Si Si2 0.287576 0.704177 0.235076
Si Si3 0.324684 0.500000 0.347287
Si Si4 0.478261 0.705457 0.817480
Si Si5 0.733339 0.769484 0.433897
Si Si6 0.886348 0.391777 0.362616
Si Si7 0.902470 0.734098 0.078830
Si Si8 0.557437 0.500000 0.279115
O O1 0.204691 0.857509 0.611487
O O2 0.088522 0.824276 0.805025
O O3 0.000000 0.872942 0.500000
O O4 0.101379 0.000000 0.700290
O O5 0.266180 0.595744 0.275510
O O6 0.410686 0.708298 0.230252
O O7 0.271082 0.765289 0.382440
O O8 0.207763 0.733817 0.064904
O O9 0.438573 0.500000 0.305099
O O10 0.359565 0.500000 0.542148
O O11 0.385128 0.759437 0.687287
O O12 0.436661 0.597166 0.810356
O O13 0.500000 0.740374 0.000000
O O14 0.802402 0.679151 0.405935
O O15 0.851848 0.500000 0.350707
O O16 0.902304 0.354438 0.194831
O O17 0.000000 0.384206 0.500000
O O18 0.000000 0.730546 0.000000
#
# Coordination Sequence:
#
# PCOD9153371 Si02
#       8
#     4   4   2   4   4   4   4   2
#     4  10  22  43  68  91 113 142 188 247 305 352
#     4  11  22  36  55  83 122 160 200 242 283 338
#     4   9  18  32  49  76 115 162 205 235 272 318
#     4  11  21  34  53  83 118 160 204 247 288 331
#     4  11  21  37  61  82 115 155 197 242 290 351
#     4  10  22  37  52  77 114 157 197 234 282 339
#     4  11  22  39  60  87 118 150 192 240 290 353
#     4   9  17  32  48  74 112 158 208 245 268 318
#
# _framework density 18.354863999999999
#
# number of rings (size 3 to 8) (size 9 to 14) (size 15 to 20)
#    0.000    1.571    1.429    5.786    3.000    0.571 
#    2.571    0.714    0.000    5.571    0.000    0.000 
#    0.000    0.000    0.000    0.000    0.000    0.000 
#
# Total GULP energy -156456.969138 kJ/mol
# GULP energy per Si atom -5587.748898 kJ/mol
# Density = 1.831309 g / cm^3
# Si number density = 18.354864 Si / 1000 Ang^3
#
#
#
# Elastic Constant Matrix: (Units=GPa)
#
#
# Indices 1 2 3 4 5 6 
#
# 1 81.7137 10.4430 29.4628 0.0000 6.8144 0.0000
# 2 10.4430 45.5473 23.1762 0.0000 12.5225 0.0000
# 3 29.4628 23.1762 123.6322 0.0000 10.6404 0.0000
# 4 0.0000 0.0000 0.0000 18.1354 0.0000 3.1506
# 5 6.8144 12.5225 10.6404 0.0000 36.2691 0.0000
# 6 0.0000 0.0000 0.0000 3.1506 0.0000 16.9070
#
#
#
# Elastic Compliance Matrix: (Units=1/GPa)
#
#
# Indices 1 2 3 4 5 6 
#
# 1 0.013545 -0.001297 -0.002877 0.000000 -0.001253 0.000000
# 2 -0.001297 0.026393 -0.003976 0.000000 -0.007703 0.000000
# 3 -0.002877 -0.003976 0.009597 0.000000 -0.000902 0.000000
# 4 0.000000 0.000000 0.000000 0.056986 0.000000 -0.010619
# 5 -0.001253 -0.007703 -0.000902 0.000000 0.030731 0.000000
# 6 0.000000 0.000000 0.000000 -0.010619 0.000000 0.061126
#
#
# Mechanical properties :
#
#
# Convention : Reuss Voigt Hill
#
# Bulk Modulus (GPa) = 30.08776 41.89523 35.99150
# Shear Modulus (GPa) = 22.14767 26.78303 24.46535
#
# Velocity S-wave (km/s) = 3.47744 3.82406 3.65486
# Velocity P-wave (km/s) = 5.70537 6.50943 6.12062
#
# Compressibility (1/GPa) = 0.03323611
#
# Stress axis : x y z
#
# Youngs Moduli (GPa) = 73.82538 37.88839 104.19856
#
# Poissons Ratio (x) = 0.04915 0.29978
# Poissons Ratio (y) = 0.09577 0.41426
# Poissons Ratio (z) = 0.21240 0.15063
#
# Static dielectric constant tensor:
#      x y z
#    x 1.643810 0.000000 -0.004460 
#    y 0.000000 1.619550 0.000000 
#    z -0.004460 0.000000 1.617790 
# 
# From -- ./inp_files/25088.got.cif
#   From: 2010.05.17/outbox.cif.g08.bks.cpg/sg10_13_cif.got.tgz:25088.got - 2010.06.03 11:33:40.
