data_PCOD9153762
_publ_section_title
;
Structure prediction by ZEFSAII (Michael W. Deem and Ramdas Pophale) SiO2 
 PCOD9153762
Probable space group: P 2/M
;
_chemical_formula_sum "Si O2"
_cell_formula_units_Z 10
_cell_length_a 4.955335
_cell_length_b 15.459655
_cell_length_c 5.367207
_cell_angle_alpha 90.000000
_cell_angle_beta 89.201113
_cell_angle_gamma 90.000000
_cell_volume 411.129789
_symmetry_space_group_name_H-M "P 2/M"
_symmetry_group_IT_number 10
_symmetry_cell_setting 'monoclinic'
loop_
_space_group_symop_operation_xyz
x,y,z
-x,y,-z
-x,-y,-z
x,-y,z
loop_
_atom_site_type_symbol
_atom_site_label
_atom_site_fract_x
_atom_site_fract_y
_atom_site_fract_z
Si Si1 0.500000 0.743853 0.000000
Si Si2 0.000000 0.856691 0.000000
Si Si3 0.747470 0.593512 0.681128
Si Si4 0.317778 0.000000 0.253969
O O1 0.739574 0.803709 0.106218
O O2 0.318411 0.677160 0.159636
O O3 0.126418 0.916718 0.215187
O O4 0.500000 0.586435 0.500000
O O5 0.771805 0.500000 0.815936
O O6 0.000000 0.605397 0.500000
O O7 0.500000 0.000000 0.500000
O O8 0.500000 0.000000 0.000000
#
# Coordination Sequence:
#
# PCOD9153762 Si02
#       4
#     2   2   4   2
#     4  12  23  45  68 110 154 190 256 319 383 434
#     4  11  26  46  75 116 144 200 255 314 392 465
#     4  10  22  41  66 100 145 203 254 302 372 447
#     4  11  26  56  81 111 154 205 255 314 395 481
#
# _framework density 24.323219000000002
#
# number of rings (size 3 to 8) (size 9 to 14) (size 15 to 20)
#    0.000    1.200    2.000    3.000    0.000    4.800 
#   14.400    8.000    0.000    0.000    0.000    0.000 
#    0.000    0.000    0.000    0.000    0.000    0.000 
#
# Total GULP energy -55866.295268 kJ/mol
# GULP energy per Si atom -5586.629527 kJ/mol
# Density = 2.426786 g / cm^3
# Si number density = 24.323219 Si / 1000 Ang^3
#
#
#
# Elastic Constant Matrix: (Units=GPa)
#
#
# Indices 1 2 3 4 5 6 
#
# 1 241.3046 94.1208 72.6657 0.0000 -6.1774 0.0000
# 2 94.1208 178.6770 57.3293 0.0000 4.0890 0.0000
# 3 72.6657 57.3293 92.4216 0.0000 14.5123 0.0000
# 4 0.0000 0.0000 0.0000 1.5597 0.0000 -3.5623
# 5 -6.1774 4.0890 14.5123 0.0000 59.9657 0.0000
# 6 0.0000 0.0000 0.0000 -3.5623 0.0000 75.6790
#
#
#
# Elastic Compliance Matrix: (Units=1/GPa)
#
#
# Indices 1 2 3 4 5 6 
#
# 1 0.006136 -0.002045 -0.003823 0.000000 0.001697 0.000000
# 2 -0.002045 0.007689 -0.003167 0.000000 0.000031 0.000000
# 3 -0.003823 -0.003167 0.016443 0.000000 -0.004157 0.000000
# 4 0.000000 0.000000 0.000000 0.718377 0.000000 0.033815
# 5 0.001697 0.000031 -0.004157 0.000000 0.017855 0.000000
# 6 0.000000 0.000000 0.000000 0.033815 0.000000 0.014805
#
#
# Mechanical properties :
#
#
# Convention : Reuss Voigt Hill
#
# Bulk Modulus (GPa) = 81.96999 106.73722 94.35360
# Shear Modulus (GPa) = 6.22323 46.66005 26.44164
#
# Velocity S-wave (km/s) = 1.60128 4.38463 3.30069
# Velocity P-wave (km/s) = 6.09855 8.34335 7.30766
#
# Compressibility (1/GPa) = 0.01219959
#
# Stress axis : x y z
#
# Youngs Moduli (GPa) = 162.96612 130.05330 60.81704
#
# Poissons Ratio (x) = 0.26592 0.23248
# Poissons Ratio (y) = 0.33321 0.19260
# Poissons Ratio (z) = 0.62297 0.41187
#
# Static dielectric constant tensor:
#      x y z
#    x 1.899220 0.000000 -0.026410 
#    y 0.000000 2.134040 0.000000 
#    z -0.026410 0.000000 1.952400 
# 
# From -- ./inp_files/450.got.cif
#   From: 2010.05.17/outbox.cif.g08.bks.cpg/sg10_1_cif.got.tgz:450.got - 2010.06.03 11:33:40.
