data_PCOD9153290
_publ_section_title
;
Structure prediction by ZEFSAII (Michael W. Deem and Ramdas Pophale) SiO2 
 PCOD9153290
Probable space group: P 2/M
;
_chemical_formula_sum "Si O2"
_cell_formula_units_Z 28
_cell_length_a 12.465896
_cell_length_b 22.260791
_cell_length_c 7.650958
_cell_angle_alpha 90.000000
_cell_angle_beta 144.536846
_cell_angle_gamma 90.000000
_cell_volume 1231.805482
_symmetry_space_group_name_H-M "P 2/M"
_symmetry_group_IT_number 10
_symmetry_cell_setting 'monoclinic'
loop_
_space_group_symop_operation_xyz
x,y,z
-x,y,-z
-x,-y,-z
x,-y,z
loop_
_atom_site_type_symbol
_atom_site_label
_atom_site_fract_x
_atom_site_fract_y
_atom_site_fract_z
Si Si1 0.805161 0.252856 0.206011
Si Si2 0.668037 0.432878 0.356287
Si Si3 0.412350 0.650906 0.218773
Si Si4 0.702463 0.156872 0.351702
Si Si5 0.283065 0.829687 0.232803
Si Si6 0.008248 0.931101 0.722307
Si Si7 0.063758 0.429055 0.879411
O O1 0.796397 0.200074 0.335082
O O2 0.000000 0.283395 0.500000
O O3 0.644731 0.301746 0.003806
O O4 0.782653 0.222598 0.985831
O O5 0.695509 0.500000 0.465493
O O6 0.582375 0.390359 0.387117
O O7 0.862570 0.416254 0.526268
O O8 0.500000 0.435479 0.000000
O O9 0.500000 0.685075 0.500000
O O10 0.230855 0.612160 0.032483
O O11 0.727136 0.185691 0.575634
O O12 0.808366 0.094114 0.510802
O O13 0.500000 0.148749 0.000000
O O14 0.500000 0.843955 0.500000
O O15 0.158329 0.886561 0.007672
O O16 0.000000 0.926934 0.500000
O O17 0.040436 0.000000 0.813856
O O18 0.108822 0.500000 0.911957
O O19 0.000000 0.419808 0.000000
#
# Coordination Sequence:
#
# PCOD9153290 Si02
#       7
#     4   4   4   4   4   4   4
#     4  12  27  49  66 101 138 183 245 291 345 414
#     4  10  23  43  68  98 135 177 224 285 362 432
#     4  12  26  44  67 101 139 179 233 297 352 422
#     4  12  24  45  75  99 139 193 229 287 349 412
#     4  12  23  46  73 100 140 187 237 279 352 420
#     4  11  23  44  74 109 146 180 230 296 350 416
#     4  10  21  42  70 101 134 175 228 284 359 441
#
# _framework density 22.73086
#
# number of rings (size 3 to 8) (size 9 to 14) (size 15 to 20)
#    0.000    0.714    5.714    1.286    2.000    2.857 
#    2.571    2.143    0.000    0.000    0.000    0.000 
#    0.000    0.000    0.000    0.000    0.000    0.000 
#
# Total GULP energy -156387.321009 kJ/mol
# GULP energy per Si atom -5585.261465 kJ/mol
# Density = 2.267912 g / cm^3
# Si number density = 22.730860 Si / 1000 Ang^3
#
#
#
# Elastic Constant Matrix: (Units=GPa)
#
#
# Indices 1 2 3 4 5 6 
#
# 1 61.6068 15.5572 28.4183 0.0000 -13.6947 0.0000
# 2 15.5572 79.5627 34.7933 0.0000 3.0661 0.0000
# 3 28.4183 34.7933 158.7909 0.0000 0.2098 0.0000
# 4 0.0000 0.0000 0.0000 2.8057 0.0000 -31.9682
# 5 -13.6947 3.0661 0.2098 0.0000 45.9731 0.0000
# 6 0.0000 0.0000 0.0000 -31.9682 0.0000 -34.3054
#
#
#
# Elastic Compliance Matrix: (Units=1/GPa)
#
#
# Indices 1 2 3 4 5 6 
#
# 1 0.019623 -0.002799 -0.002907 0.000000 0.006045 0.000000
# 2 -0.002799 0.014338 -0.002638 0.000000 -0.001778 0.000000
# 3 -0.002907 -0.002638 0.007397 0.000000 -0.000724 0.000000
# 4 0.000000 0.000000 0.000000 0.030679 0.000000 -0.028589
# 5 0.006045 -0.001778 -0.000724 0.000000 0.023675 0.000000
# 6 0.000000 0.000000 0.000000 -0.028589 0.000000 -0.002509
#
#
# Mechanical properties :
#
#
# Convention : Reuss Voigt Hill
#
# Bulk Modulus (GPa) = 40.53419 50.83314 45.68366
# Shear Modulus (GPa) = 42.33180 17.64077 29.98628
#
# Velocity S-wave (km/s) = 4.32012 2.78883 3.63600
# Velocity P-wave (km/s) = 6.53878 5.72553 6.14562
#
# Compressibility (1/GPa) = 0.02467053
#
# Stress axis : x y z
#
# Youngs Moduli (GPa) = 50.95950 69.74315 135.19240
#
# Poissons Ratio (x) = 0.19521 0.39296
# Poissons Ratio (y) = 0.14263 0.35670
# Poissons Ratio (z) = 0.14812 0.18401
#
# Static dielectric constant tensor:
#      x y z
#    x 1.955690 0.000000 -0.022610 
#    y 0.000000 1.815600 0.000000 
#    z -0.022610 0.000000 2.017500 
# 
# From -- ./inp_files/30497.got.cif
#   From: 2010.05.17/outbox.cif.g08.bks.cpg/sg10_16_cif.got.tgz:30497.got - 2010.06.03 11:33:40.
