data_PCOD9153784
_publ_section_title
;
Structure prediction by ZEFSAII (Michael W. Deem and Ramdas Pophale) SiO2 
 PCOD9153784
Probable space group: P 2/M
;
_chemical_formula_sum "Si O2"
_cell_formula_units_Z 14
_cell_length_a 9.301085
_cell_length_b 10.587525
_cell_length_c 7.298467
_cell_angle_alpha 90.000000
_cell_angle_beta 64.536002
_cell_angle_gamma 90.000000
_cell_volume 648.900362
_symmetry_space_group_name_H-M "P 2/M"
_symmetry_group_IT_number 10
_symmetry_cell_setting 'monoclinic'
loop_
_space_group_symop_operation_xyz
x,y,z
-x,y,-z
-x,-y,-z
x,-y,z
loop_
_atom_site_type_symbol
_atom_site_label
_atom_site_fract_x
_atom_site_fract_y
_atom_site_fract_z
Si Si1 0.704213 0.142216 0.223961
Si Si2 0.857513 0.282132 0.439685
Si Si3 0.526035 0.361617 0.768201
Si Si4 0.000000 0.278255 0.000000
O O1 0.778722 0.159231 0.386218
O O2 0.569938 0.246917 0.268922
O O3 0.853587 0.188312 0.018211
O O4 0.653631 0.000000 0.216195
O O5 0.711406 0.351729 0.615584
O O6 0.931265 0.347486 0.215592
O O7 0.000000 0.258912 0.500000
O O8 0.464979 0.500000 0.742263
O O9 0.500000 0.352300 0.000000
#
# Coordination Sequence:
#
# PCOD9153784 Si02
#       4
#     4   4   4   2
#     4  10  22  43  69 101 136 175 225 278 338 404
#     4  10  22  41  67  99 139 173 220 278 338 396
#     4  11  25  45  68  98 137 182 229 278 337 403
#     4   8  21  40  63 102 131 172 217 274 331 398
#
# _framework density 21.574963
#
# number of rings (size 3 to 8) (size 9 to 14) (size 15 to 20)
#    1.714    0.286    0.000    3.000    0.000    6.286 
#    0.000    2.857    0.000    0.000    0.000    0.000 
#    0.000    0.000    0.000    0.000    0.000    0.000 
#
# Total GULP energy -77951.386893 kJ/mol
# GULP energy per Si atom -5567.956207 kJ/mol
# Density = 2.152586 g / cm^3
# Si number density = 21.574963 Si / 1000 Ang^3
#
#
#
# Elastic Constant Matrix: (Units=GPa)
#
#
# Indices 1 2 3 4 5 6 
#
# 1 135.6618 73.7934 48.4514 0.0000 -12.2169 0.0000
# 2 73.7934 161.9705 36.7776 0.0000 -13.0713 0.0000
# 3 48.4514 36.7776 179.4402 0.0000 -12.1893 0.0000
# 4 0.0000 0.0000 0.0000 -3.5277 0.0000 1.0172
# 5 -12.2169 -13.0713 -12.1893 0.0000 36.5451 0.0000
# 6 0.0000 0.0000 0.0000 1.0172 0.0000 -0.3680
#
#
#
# Elastic Compliance Matrix: (Units=1/GPa)
#
#
# Indices 1 2 3 4 5 6 
#
# 1 0.010463 -0.004233 -0.001865 0.000000 0.001361 0.000000
# 2 -0.004233 0.008322 -0.000467 0.000000 0.001406 0.000000
# 3 -0.001865 -0.000467 0.006260 0.000000 0.001298 0.000000
# 4 0.000000 0.000000 0.000000 -1.396617 0.000000 -3.860387
# 5 0.001361 0.001406 0.001298 0.000000 0.028754 0.000000
# 6 0.000000 0.000000 0.000000 -3.860387 0.000000-13.387787
#
#
# Mechanical properties :
#
#
# Convention : Reuss Voigt Hill
#
# Bulk Modulus (GPa) = 83.93310 88.34635 86.13973
# Shear Modulus (GPa) = -0.33982 27.73322 13.69670
#
# Velocity S-wave (km/s) = -0.39730 3.58919 2.52234
# Velocity P-wave (km/s) = 6.22712 7.62980 6.96386
#
# Compressibility (1/GPa) = 0.01191425
#
# Stress axis : x y z
#
# Youngs Moduli (GPa) = 95.57737 120.16020 159.73606
#
# Poissons Ratio (x) = 0.50869 0.29790
# Poissons Ratio (y) = 0.40462 0.07462
# Poissons Ratio (z) = 0.17824 0.05613
#
# Static dielectric constant tensor:
#      x y z
#    x 1.786910 0.000000 -0.015390 
#    y 0.000000 1.772280 0.000000 
#    z -0.015390 0.000000 1.867550 
# 
# From -- ./inp_files/16813.got.cif
#   From: 2010.05.17/outbox.cif.g08.bks.cpg/sg10_9_cif.got.tgz:16813.got - 2010.06.03 11:33:40.
