data_PCOD9153768
_publ_section_title
;
Structure prediction by ZEFSAII (Michael W. Deem and Ramdas Pophale) SiO2 
 PCOD9153768
Probable space group: P 2/M
;
_chemical_formula_sum "Si O2"
_cell_formula_units_Z 28
_cell_length_a 26.035980
_cell_length_b 9.232325
_cell_length_c 7.499033
_cell_angle_alpha 90.000000
_cell_angle_beta 45.861049
_cell_angle_gamma 90.000000
_cell_volume 1293.614288
_symmetry_space_group_name_H-M "P 2/M"
_symmetry_group_IT_number 10
_symmetry_cell_setting 'monoclinic'
loop_
_space_group_symop_operation_xyz
x,y,z
-x,y,-z
-x,-y,-z
x,-y,z
loop_
_atom_site_type_symbol
_atom_site_label
_atom_site_fract_x
_atom_site_fract_y
_atom_site_fract_z
Si Si1 0.156341 0.842071 0.326571
Si Si2 0.765288 0.344772 0.393130
Si Si3 0.889814 0.162040 0.970153
Si Si4 0.309130 0.255478 0.080735
Si Si5 0.634829 0.670893 0.436529
Si Si6 0.591336 0.000000 0.099583
Si Si7 0.568862 0.000000 0.582394
Si Si8 0.975467 0.660784 0.263887
O O1 0.143872 0.836476 0.145203
O O2 0.239346 0.821507 0.167185
O O3 0.103698 0.724031 0.533497
O O4 0.132911 0.000000 0.447848
O O5 0.801060 0.500000 0.274084
O O6 0.722753 0.347148 0.681046
O O7 0.707361 0.321543 0.377127
O O8 0.827993 0.228588 0.242207
O O9 0.964032 0.246187 0.786285
O O10 0.905569 0.000000 0.988768
O O11 0.348508 0.326059 0.816082
O O12 0.362036 0.141692 0.046376
O O13 0.606422 0.500000 0.541234
O O14 0.597801 0.833793 0.563816
O O15 0.579735 0.000000 0.341679
O O16 0.516269 0.000000 0.181001
O O17 0.975260 0.500000 0.337815
O O18 0.000000 0.658784 0.000000
#
# Coordination Sequence:
#
# PCOD9153768 Si02
#       8
#     4   4   4   4   4   2   2   4
#     4  11  23  40  63  91 122 162 212 268 322 386
#     4  11  24  39  61  95 129 167 220 267 322 391
#     4  11  24  40  63  90 120 165 217 267 322 384
#     4  11  21  39  66  93 130 169 214 268 326 386
#     4  10  22  41  66  95 134 176 214 273 331 381
#     4   9  20  39  67 103 129 172 214 269 318 385
#     4   9  20  41  69  99 135 171 224 262 319 408
#     4  11  25  42  59  85 125 166 211 265 323 385
#
# _framework density 21.644783
#
# number of rings (size 3 to 8) (size 9 to 14) (size 15 to 20)
#    0.000    1.429    2.143    2.571    2.000    7.429 
#    0.000    7.857    0.000    1.714    0.000    0.000 
#    0.000    0.000    0.000    0.000    0.000    0.000 
#
# Total GULP energy -156146.046508 kJ/mol
# GULP energy per Si atom -5576.644518 kJ/mol
# Density = 2.159552 g / cm^3
# Si number density = 21.644783 Si / 1000 Ang^3
#
#
#
# Elastic Constant Matrix: (Units=GPa)
#
#
# Indices 1 2 3 4 5 6 
#
# 1 52.6445 40.7754 21.1059 0.0000 -3.7941 0.0000
# 2 40.7754 183.0488 40.7765 0.0000 -31.0384 0.0000
# 3 21.1059 40.7765 56.2098 0.0000 -18.5701 0.0000
# 4 0.0000 0.0000 0.0000 59.9243 0.0000 -50.8596
# 5 -3.7941 -31.0384 -18.5701 0.0000 33.9919 0.0000
# 6 0.0000 0.0000 0.0000 -50.8596 0.0000 74.0843
#
#
#
# Elastic Compliance Matrix: (Units=1/GPa)
#
#
# Indices 1 2 3 4 5 6 
#
# 1 0.025603 -0.004939 -0.008025 0.000000 -0.006036 0.000000
# 2 -0.004939 0.007976 -0.002083 0.000000 0.005593 0.000000
# 3 -0.008025 -0.002083 0.026102 0.000000 0.011461 0.000000
# 4 0.000000 0.000000 0.000000 0.039986 0.000000 0.027451
# 5 -0.006036 0.005593 0.011461 0.000000 0.040114 0.000000
# 6 0.000000 0.000000 0.000000 0.027451 0.000000 0.032343
#
#
# Mechanical properties :
#
#
# Convention : Reuss Voigt Hill
#
# Bulk Modulus (GPa) = 33.80005 55.24654 44.52329
# Shear Modulus (GPa) = 23.57595 46.21646 34.89621
#
# Velocity S-wave (km/s) = 3.30391 4.62586 4.01961
# Velocity P-wave (km/s) = 5.49583 7.35602 6.49289
#
# Compressibility (1/GPa) = 0.02958575
#
# Stress axis : x y z
#
# Youngs Moduli (GPa) = 39.05766 125.37937 38.31183
#
# Poissons Ratio (x) = 0.61927 0.30744
# Poissons Ratio (y) = 0.19291 0.07982
# Poissons Ratio (z) = 0.31343 0.26122
#
# Static dielectric constant tensor:
#      x y z
#    x 1.773070 0.000000 0.044090 
#    y 0.000000 1.827780 0.000000 
#    z 0.044090 0.000000 1.773130 
# 
# From -- ./inp_files/37183.got.cif
#   From: 2010.05.17/outbox.cif.g08.bks.cpg/sg10_19_cif.got.tgz:37183.got - 2010.06.03 11:33:40.
