data_PCOD9153873
_publ_section_title
;
Structure prediction by ZEFSAII (Michael W. Deem and Ramdas Pophale) SiO2 
 PCOD9153873
Probable space group: P 2/M
;
_chemical_formula_sum "Si O2"
_cell_formula_units_Z 32
_cell_length_a 7.717969
_cell_length_b 14.694547
_cell_length_c 22.698825
_cell_angle_alpha 90.000000
_cell_angle_beta 30.575063
_cell_angle_gamma 90.000000
_cell_volume 1309.471209
_symmetry_space_group_name_H-M "P 2/M"
_symmetry_group_IT_number 10
_symmetry_cell_setting 'monoclinic'
loop_
_space_group_symop_operation_xyz
x,y,z
-x,y,-z
-x,-y,-z
x,-y,z
loop_
_atom_site_type_symbol
_atom_site_label
_atom_site_fract_x
_atom_site_fract_y
_atom_site_fract_z
Si Si1 0.764732 0.729988 0.172983
Si Si2 0.114424 0.109275 0.136684
Si Si3 0.941609 0.897179 0.316018
Si Si4 0.310415 0.603648 0.236464
Si Si5 0.415638 0.401287 0.368131
Si Si6 0.282340 0.671000 0.514336
Si Si7 0.852667 0.862278 0.478624
Si Si8 0.369147 0.599824 0.972914
O O1 0.503564 0.697342 0.198942
O O2 0.596567 0.673909 0.276357
O O3 0.862624 0.829080 0.169550
O O4 0.103239 0.681067 0.049886
O O5 0.095256 0.145368 0.210471
O O6 0.029163 0.000000 0.159330
O O7 0.500000 0.119524 0.000000
O O8 0.010418 0.875073 0.365647
O O9 0.535715 0.894693 0.418833
O O10 0.066620 0.000000 0.276155
O O11 0.444430 0.500000 0.208360
O O12 0.323241 0.610079 0.162665
O O13 0.985496 0.610818 0.373235
O O14 0.509978 0.500000 0.317858
O O15 0.526615 0.388051 0.402653
O O16 0.000000 0.401146 0.500000
O O17 0.500000 0.720476 0.500000
O O18 0.141900 0.753652 0.517840
O O19 0.000000 0.895495 0.500000
O O20 0.210052 0.500000 0.007337
O O21 0.500000 0.598237 0.000000
#
# Coordination Sequence:
#
# PCOD9153873 Si02
#       8
#     4   4   4   4   4   4   4   4
#     4  12  23  41  74 100 135 185 237 288 368 438
#     4  10  24  47  78 108 142 184 236 305 376 444
#     4  10  22  44  72 105 142 184 239 306 377 447
#     4  11  25  44  67 101 143 189 244 301 359 428
#     4  11  23  40  63  99 144 187 231 284 352 430
#     4  12  25  40  63  94 141 196 243 290 350 427
#     4  11  23  40  67 106 146 187 242 302 363 443
#     4  10  23  42  65  99 138 183 242 300 356 423
#
# _framework density 24.437346999999999
#
# number of rings (size 3 to 8) (size 9 to 14) (size 15 to 20)
#    0.000    1.125    2.500    4.125    3.500    4.000 
#    0.000    0.000    0.000    1.875    0.000    0.000 
#    0.000    0.000    0.000    0.000    0.000    0.000 
#
# Total GULP energy -178150.418851 kJ/mol
# GULP energy per Si atom -5567.200589 kJ/mol
# Density = 2.438173 g / cm^3
# Si number density = 24.437347 Si / 1000 Ang^3
#
#
#
# Elastic Constant Matrix: (Units=GPa)
#
#
# Indices 1 2 3 4 5 6 
#
# 1 126.5310 29.8408 41.5205 0.0000 45.5392 0.0000
# 2 29.8408 121.9990 20.6222 0.0000 7.4890 0.0000
# 3 41.5205 20.6222 142.1800 0.0000 40.8682 0.0000
# 4 0.0000 0.0000 0.0000 96.9161 0.0000 -34.7210
# 5 45.5392 7.4890 40.8682 0.0000 43.9933 0.0000
# 6 0.0000 0.0000 0.0000 -34.7210 0.0000 49.3924
#
#
#
# Elastic Compliance Matrix: (Units=1/GPa)
#
#
# Indices 1 2 3 4 5 6 
#
# 1 0.013290 -0.002480 0.000425 0.000000 -0.013730 0.000000
# 2 -0.002480 0.008871 -0.001182 0.000000 0.002155 0.000000
# 3 0.000425 -0.001182 0.009754 0.000000 -0.009300 0.000000
# 4 0.000000 0.000000 0.000000 0.013791 0.000000 0.009695
# 5 -0.013730 0.002155 -0.009300 0.000000 0.045215 0.000000
# 6 0.000000 0.000000 0.000000 0.009695 0.000000 0.027061
#
#
# Mechanical properties :
#
#
# Convention : Reuss Voigt Hill
#
# Bulk Modulus (GPa) = 39.30581 63.85301 51.57941
# Shear Modulus (GPa) = 37.61211 57.97546 47.79378
#
# Velocity S-wave (km/s) = 3.92742 4.87603 4.42720
# Velocity P-wave (km/s) = 6.05685 7.60834 6.87649
#
# Compressibility (1/GPa) = 0.02544153
#
# Stress axis : x y z
#
# Youngs Moduli (GPa) = 75.24490 112.72888 102.52489
#
# Poissons Ratio (x) = 0.27954 -0.04359
# Poissons Ratio (y) = 0.18659 0.12117
# Poissons Ratio (z) = -0.03199 0.13323
#
# Static dielectric constant tensor:
#      x y z
#    x 2.305970 0.000000 -0.004250 
#    y 0.000000 1.948290 0.000000 
#    z -0.004250 0.000000 2.002940 
# 
# From -- ./inp_files/88242.got.cif
#   From: 2010.05.17/outbox.cif.g08.bks.cpg/sg10_45_cif.got.tgz:88242.got - 2010.06.03 11:33:40.
