data_PCOD9153082
_publ_section_title
;
Structure prediction by ZEFSAII (Michael W. Deem and Ramdas Pophale) SiO2 
 PCOD9153082
Probable space group: P 2/M
;
_chemical_formula_sum "Si O2"
_cell_formula_units_Z 22
_cell_length_a 5.382476
_cell_length_b 11.089952
_cell_length_c 17.916160
_cell_angle_alpha 90.000000
_cell_angle_beta 65.103236
_cell_angle_gamma 90.000000
_cell_volume 970.055198
_symmetry_space_group_name_H-M "P 2/M"
_symmetry_group_IT_number 10
_symmetry_cell_setting 'monoclinic'
loop_
_space_group_symop_operation_xyz
x,y,z
-x,y,-z
-x,-y,-z
x,-y,z
loop_
_atom_site_type_symbol
_atom_site_label
_atom_site_fract_x
_atom_site_fract_y
_atom_site_fract_z
Si Si1 0.328581 0.500000 0.446845
Si Si2 0.187279 0.216993 0.913430
Si Si3 0.714401 0.361383 0.884323
Si Si4 0.850095 0.264487 0.594577
Si Si5 0.097983 0.638472 0.705283
Si Si6 0.405596 0.866749 0.734549
O O1 0.500000 0.500000 0.500000
O O2 0.362183 0.370718 0.402254
O O3 0.000000 0.500000 0.500000
O O4 0.423870 0.294821 0.923877
O O5 0.350279 0.141186 0.830311
O O6 0.964736 0.299605 0.897458
O O7 0.000000 0.153331 0.000000
O O8 0.694160 0.500000 0.909774
O O9 0.803611 0.361015 0.785535
O O10 0.053378 0.333127 0.624547
O O11 0.704575 0.161967 0.662324
O O12 0.000000 0.222410 0.500000
O O13 0.195858 0.500000 0.705132
O O14 0.238030 0.754827 0.723250
O O15 0.318907 0.000000 0.720618
#
# Coordination Sequence:
#
# PCOD9153082 Si02
#       6
#     2   4   4   4   4   4
#     4  10  24  40  68 108 141 173 231 297 350 408
#     4  11  23  42  67  99 135 182 237 287 347 421
#     4  10  21  39  66 102 144 182 225 289 356 421
#     4  11  24  40  70 102 135 181 232 292 351 416
#     4  10  22  42  69 102 136 182 236 288 349 416
#     4  11  27  46  67  97 141 188 231 293 355 423
#
# _framework density 22.679122
#
# number of rings (size 3 to 8) (size 9 to 14) (size 15 to 20)
#    0.000    1.455    2.727    1.091    6.364    4.364 
#    0.000    0.909    0.000    3.273    0.000    0.000 
#    0.000    0.000    0.000    0.000    0.000    0.000 
#
# Total GULP energy -122719.650148 kJ/mol
# GULP energy per Si atom -5578.165916 kJ/mol
# Density = 2.262750 g / cm^3
# Si number density = 22.679122 Si / 1000 Ang^3
#
#
#
# Elastic Constant Matrix: (Units=GPa)
#
#
# Indices 1 2 3 4 5 6 
#
# 1 99.7128 37.1164 20.7130 0.0000 3.9931 0.0000
# 2 37.1164 133.9278 49.1253 0.0000 -10.1212 0.0000
# 3 20.7130 49.1253 157.0041 0.0000 -23.9959 0.0000
# 4 0.0000 0.0000 0.0000 3.0348 0.0000 0.8995
# 5 3.9931 -10.1212 -23.9959 0.0000 43.9288 0.0000
# 6 0.0000 0.0000 0.0000 0.8995 0.0000 7.0801
#
#
#
# Elastic Compliance Matrix: (Units=1/GPa)
#
#
# Indices 1 2 3 4 5 6 
#
# 1 0.011424 -0.003001 -0.000908 0.000000 -0.002226 0.000000
# 2 -0.003001 0.009235 -0.002321 0.000000 0.001133 0.000000
# 3 -0.000908 -0.002321 0.007797 0.000000 0.003807 0.000000
# 4 0.000000 0.000000 0.000000 0.342402 0.000000 -0.043499
# 5 -0.002226 0.001133 0.003807 0.000000 0.025307 0.000000
# 6 0.000000 0.000000 0.000000 -0.043499 0.000000 0.146766
#
#
# Mechanical properties :
#
#
# Convention : Reuss Voigt Hill
#
# Bulk Modulus (GPa) = 62.51477 67.17267 64.84372
# Shear Modulus (GPa) = 8.91706 29.72141 19.31924
#
# Velocity S-wave (km/s) = 1.98504 3.62404 2.92182
# Velocity P-wave (km/s) = 5.73398 6.86983 6.32744
#
# Compressibility (1/GPa) = 0.01599622
#
# Stress axis : x y z
#
# Youngs Moduli (GPa) = 87.53735 108.28136 128.25406
#
# Poissons Ratio (x) = 0.32495 0.11650
# Poissons Ratio (y) = 0.26270 0.29762
# Poissons Ratio (z) = 0.07951 0.25127
#
# Static dielectric constant tensor:
#      x y z
#    x 1.894560 0.000000 -0.079460 
#    y 0.000000 1.806780 0.000000 
#    z -0.079460 0.000000 1.993280 
# 
# From -- ./inp_files/73165.got.cif
#   From: 2010.05.17/outbox.cif.g08.bks.cpg/sg10_37_cif.got.tgz:73165.got - 2010.06.03 11:33:40.
