data_PCOD9153335
_publ_section_title
;
Structure prediction by ZEFSAII (Michael W. Deem and Ramdas Pophale) SiO2 
 PCOD9153335
Probable space group: P 2/M
;
_chemical_formula_sum "Si O2"
_cell_formula_units_Z 22
_cell_length_a 25.679773
_cell_length_b 10.000871
_cell_length_c 23.632071
_cell_angle_alpha 90.000000
_cell_angle_beta 168.738857
_cell_angle_gamma 90.000000
_cell_volume 1185.198028
_symmetry_space_group_name_H-M "P 2/M"
_symmetry_group_IT_number 10
_symmetry_cell_setting 'monoclinic'
loop_
_space_group_symop_operation_xyz
x,y,z
-x,y,-z
-x,-y,-z
x,-y,z
loop_
_atom_site_type_symbol
_atom_site_label
_atom_site_fract_x
_atom_site_fract_y
_atom_site_fract_z
Si Si1 0.649557 0.348282 0.779440
Si Si2 0.701490 0.336898 0.165797
Si Si3 0.809324 0.500000 0.850282
Si Si4 0.423939 0.662974 0.095393
Si Si5 0.986689 0.337269 0.246177
Si Si6 0.702086 0.846662 0.661970
O O1 0.549422 0.500000 0.687429
O O2 0.829293 0.376924 0.915223
O O3 0.415077 0.252553 0.509728
O O4 0.827711 0.296292 0.020535
O O5 0.696718 0.500000 0.160135
O O6 0.000000 0.296369 0.500000
O O7 0.500000 0.293220 0.000000
O O8 0.619181 0.293574 0.015188
O O9 0.500000 0.500000 0.500000
O O10 0.000000 0.500000 0.000000
O O11 0.426441 0.500000 0.097537
O O12 0.708750 0.707540 0.423474
O O13 0.183808 0.702655 0.880652
O O14 0.992855 0.500000 0.250908
O O15 0.500000 0.839911 0.500000
O O16 0.703794 0.000000 0.643365
O O17 0.000000 0.814574 0.000000
#
# Coordination Sequence:
#
# PCOD9153335 Si02
#       6
#     4   4   2   4   4   4
#     4   9  21  36  52  77  98 130 162 209 245 310
#     4   9  15  22  33  51  74 107 152 192 225 266
#     4  10  22  34  48  72 100 124 152 204 256 292
#     4   9  16  25  39  54  82 115 149 194 235 274
#     4   9  17  29  40  60  84 114 151 189 237 283
#     4  10  22  39  56  75 100 129 163 204 254 309
#
# _framework density 18.562298999999999
#
# number of rings (size 3 to 8) (size 9 to 14) (size 15 to 20)
#    0.545    2.182    0.000    1.636    0.000   10.545 
#    0.000    0.000    0.000    0.000    0.000    0.000 
#    0.000    0.000    0.000    0.000    0.000   18.182 
#
# Total GULP energy -122653.167503 kJ/mol
# GULP energy per Si atom -5575.143977 kJ/mol
# Density = 1.852005 g / cm^3
# Si number density = 18.562299 Si / 1000 Ang^3
#
#
#
# Elastic Constant Matrix: (Units=GPa)
#
#
# Indices 1 2 3 4 5 6 
#
# 1 72.3659 -5.7484 19.7602 0.0000 -3.0125 0.0000
# 2 -5.7484 33.5536 13.6367 0.0000 -9.4896 0.0000
# 3 19.7602 13.6367 107.3662 0.0000 -2.5637 0.0000
# 4 0.0000 0.0000 0.0000 13.2470 0.0000 0.5931
# 5 -3.0125 -9.4896 -2.5637 0.0000 39.6605 0.0000
# 6 0.0000 0.0000 0.0000 0.5931 0.0000 2.2575
#
#
#
# Elastic Compliance Matrix: (Units=1/GPa)
#
#
# Indices 1 2 3 4 5 6 
#
# 1 0.015167 0.004517 -0.003317 0.000000 0.002019 0.000000
# 2 0.004517 0.035015 -0.005078 0.000000 0.008393 0.000000
# 3 -0.003317 -0.005078 0.010551 0.000000 -0.000785 0.000000
# 4 0.000000 0.000000 0.000000 0.076388 0.000000 -0.020070
# 5 0.002019 0.008393 -0.000785 0.000000 0.027325 0.000000
# 6 0.000000 0.000000 0.000000 -0.020070 0.000000 0.448238
#
#
# Mechanical properties :
#
#
# Convention : Reuss Voigt Hill
#
# Bulk Modulus (GPa) = 18.87620 29.84253 24.35936
# Shear Modulus (GPa) = 7.83580 23.40881 15.62230
#
# Velocity S-wave (km/s) = 2.05682 3.55504 2.90421
# Velocity P-wave (km/s) = 3.97893 5.74134 4.93937
#
# Compressibility (1/GPa) = 0.05297676
#
# Stress axis : x y z
#
# Youngs Moduli (GPa) = 65.93146 28.55957 94.78090
#
# Poissons Ratio (x) = -0.12902 0.31439
# Poissons Ratio (y) = -0.29784 0.48132
# Poissons Ratio (z) = 0.21870 0.14503
#
# Static dielectric constant tensor:
#      x y z
#    x 1.659280 0.000000 0.015170 
#    y 0.000000 1.655240 0.000000 
#    z 0.015170 0.000000 1.655600 
# 
# From -- ./inp_files/91243.got.cif
#   From: 2010.05.17/outbox.cif.g08.bks.cpg/sg10_46_cif.got.tgz:91243.got - 2010.06.03 11:33:40.
