data_PCOD9153123
_publ_section_title
;
Structure prediction by ZEFSAII (Michael W. Deem and Ramdas Pophale) SiO2 
 PCOD9153123
Probable space group: P 2/M
;
_chemical_formula_sum "Si O2"
_cell_formula_units_Z 18
_cell_length_a 5.261282
_cell_length_b 19.827813
_cell_length_c 7.390871
_cell_angle_alpha 90.000000
_cell_angle_beta 96.154240
_cell_angle_gamma 90.000000
_cell_volume 766.570134
_symmetry_space_group_name_H-M "P 2/M"
_symmetry_group_IT_number 10
_symmetry_cell_setting 'monoclinic'
loop_
_space_group_symop_operation_xyz
x,y,z
-x,y,-z
-x,-y,-z
x,-y,z
loop_
_atom_site_type_symbol
_atom_site_label
_atom_site_fract_x
_atom_site_fract_y
_atom_site_fract_z
Si Si1 0.768377 0.074485 0.835816
Si Si2 0.581521 0.195006 0.293544
Si Si3 0.908818 0.424664 0.788363
Si Si4 0.597200 0.346794 0.301020
Si Si5 0.000000 0.882396 0.500000
O O1 0.587113 0.140168 0.823938
O O2 0.841069 0.073695 0.627662
O O3 0.653097 0.000000 0.858832
O O4 0.000000 0.080687 0.000000
O O5 0.500000 0.196532 0.500000
O O6 0.584619 0.270936 0.222946
O O7 0.862223 0.165413 0.342747
O O8 0.899513 0.500000 0.706759
O O9 0.121350 0.378405 0.703894
O O10 0.625247 0.394788 0.787857
O O11 0.000000 0.429326 0.000000
O O12 0.500000 0.341071 0.500000
#
# Coordination Sequence:
#
# PCOD9153123 Si02
#       5
#     4   4   4   4   2
#     4  10  22  40  62  92 128 169 223 278 336 406
#     4   9  22  39  62  90 128 170 216 277 342 400
#     4  11  25  45  66  97 139 179 221 275 342 409
#     4  11  24  41  70  99 133 175 227 283 335 403
#     4  10  21  40  62  88 127 172 216 282 337 402
#
# _framework density 23.481217999999998
#
# number of rings (size 3 to 8) (size 9 to 14) (size 15 to 20)
#    0.000    1.778    0.000    2.333    9.333   11.111 
#    4.000    2.222    0.000    0.000    0.000    0.000 
#    0.000    0.000    0.000    0.000    0.000    0.000 
#
# Total GULP energy -100383.512153 kJ/mol
# GULP energy per Si atom -5576.861786 kJ/mol
# Density = 2.342777 g / cm^3
# Si number density = 23.481218 Si / 1000 Ang^3
#
#
#
# Elastic Constant Matrix: (Units=GPa)
#
#
# Indices 1 2 3 4 5 6 
#
# 1 92.8031 63.5691 14.5709 0.0000 -3.4297 0.0000
# 2 63.5691 225.4900 26.1862 0.0000 13.8207 0.0000
# 3 14.5709 26.1862 92.2348 0.0000 -7.2650 0.0000
# 4 0.0000 0.0000 0.0000 28.5623 0.0000 0.2749
# 5 -3.4297 13.8207 -7.2650 0.0000 49.5058 0.0000
# 6 0.0000 0.0000 0.0000 0.2749 0.0000 676.1703
#
#
#
# Elastic Compliance Matrix: (Units=1/GPa)
#
#
# Indices 1 2 3 4 5 6 
#
# 1 0.013626 -0.003851 -0.000911 0.000000 0.001886 0.000000
# 2 -0.003851 0.005786 -0.001196 0.000000 -0.002058 0.000000
# 3 -0.000911 -0.001196 0.011479 0.000000 0.001955 0.000000
# 4 0.000000 0.000000 0.000000 0.035011 0.000000 -0.000014
# 5 0.001886 -0.002058 0.001955 0.000000 0.021192 0.000000
# 6 0.000000 0.000000 0.000000 -0.000014 0.000000 0.001479
#
#
# Mechanical properties :
#
#
# Convention : Reuss Voigt Hill
#
# Bulk Modulus (GPa) = 52.70139 68.79783 60.74961
# Shear Modulus (GPa) = 46.81014 171.26110 109.03562
#
# Velocity S-wave (km/s) = 4.46972 8.54948 6.82173
# Velocity P-wave (km/s) = 7.00933 11.26148 9.37954
#
# Compressibility (1/GPa) = 0.01897483
#
# Stress axis : x y z
#
# Youngs Moduli (GPa) = 73.38777 172.84456 87.11247
#
# Poissons Ratio (x) = 0.66567 0.07933
# Poissons Ratio (y) = 0.28264 0.10421
# Poissons Ratio (z) = 0.06683 0.20676
#
# Static dielectric constant tensor:
#      x y z
#    x 2.075230 0.000000 -0.029850 
#    y 0.000000 1.894620 0.000000 
#    z -0.029850 0.000000 1.982950 
# 
# From -- ./inp_files/4630.got.cif
#   From: 2010.05.17/outbox.cif.g08.bks.cpg/sg10_3_cif.got.tgz:4630.got - 2010.06.03 11:33:40.
