data_PCOD9153820
_publ_section_title
;
Structure prediction by ZEFSAII (Michael W. Deem and Ramdas Pophale) SiO2 
 PCOD9153820
Probable space group: P 2/M
;
_chemical_formula_sum "Si O2"
_cell_formula_units_Z 28
_cell_length_a 11.172887
_cell_length_b 8.906790
_cell_length_c 14.791582
_cell_angle_alpha 90.000000
_cell_angle_beta 112.410911
_cell_angle_gamma 90.000000
_cell_volume 1360.804345
_symmetry_space_group_name_H-M "P 2/M"
_symmetry_group_IT_number 10
_symmetry_cell_setting 'monoclinic'
loop_
_space_group_symop_operation_xyz
x,y,z
-x,y,-z
-x,-y,-z
x,-y,z
loop_
_atom_site_type_symbol
_atom_site_label
_atom_site_fract_x
_atom_site_fract_y
_atom_site_fract_z
Si Si1 0.409187 0.823100 0.145616
Si Si2 0.290833 0.327524 0.947393
Si Si3 0.662952 0.671356 0.252749
Si Si4 0.022140 0.174222 0.899503
Si Si5 0.223672 0.323276 0.234341
Si Si6 0.346342 0.820050 0.446610
Si Si7 0.848739 0.820151 0.441287
O O1 0.538766 0.774760 0.235423
O O2 0.290748 0.768223 0.172623
O O3 0.405974 0.000000 0.130017
O O4 0.396413 0.736096 0.047227
O O5 0.262270 0.500000 0.965508
O O6 0.322490 0.326808 0.851000
O O7 0.167960 0.221211 0.923605
O O8 0.638209 0.500000 0.274510
O O9 0.788340 0.735789 0.338210
O O10 0.926295 0.278177 0.814773
O O11 0.998239 0.000000 0.870627
O O12 0.000000 0.195623 0.000000
O O13 0.241720 0.500000 0.226399
O O14 0.287909 0.268242 0.345168
O O15 0.500000 0.784036 0.500000
O O16 0.252152 0.788099 0.505333
O O17 0.338624 0.000000 0.428030
O O18 0.000000 0.778781 0.500000
O O19 0.845906 0.000000 0.426067
#
# Coordination Sequence:
#
# PCOD9153820 Si02
#       7
#     4   4   4   4   4   4   4
#     4  12  24  41  65  95 129 170 215 259 312 379
#     4  11  24  41  63  94 131 169 211 260 318 380
#     4  11  25  43  65  94 129 168 210 263 323 380
#     4  11  23  40  63  92 126 169 216 262 313 377
#     4  12  25  40  65  96 130 168 208 262 326 383
#     4  10  22  42  67  95 128 168 217 272 324 387
#     4  10  23  43  66  95 128 170 219 271 327 386
#
# _framework density 20.576066000000001
#
# number of rings (size 3 to 8) (size 9 to 14) (size 15 to 20)
#    0.000    1.000    1.429    5.143    2.000    6.857 
#    0.000    0.000    0.000    0.000    0.000    0.000 
#    0.000    0.000    0.000    0.000    0.000    0.000 
#
# Total GULP energy -156570.280698 kJ/mol
# GULP energy per Si atom -5591.795739 kJ/mol
# Density = 2.052923 g / cm^3
# Si number density = 20.576066 Si / 1000 Ang^3
#
#
#
# Elastic Constant Matrix: (Units=GPa)
#
#
# Indices 1 2 3 4 5 6 
#
# 1 75.4267 1.4742 22.2309 0.0000 16.3114 0.0000
# 2 1.4742 50.6817 39.1079 0.0000 -2.2128 0.0000
# 3 22.2309 39.1079 106.6212 0.0000 21.7390 0.0000
# 4 0.0000 0.0000 0.0000 25.7384 0.0000 -4.0311
# 5 16.3114 -2.2128 21.7390 0.0000 34.4922 0.0000
# 6 0.0000 0.0000 0.0000 -4.0311 0.0000 9.2632
#
#
#
# Elastic Compliance Matrix: (Units=1/GPa)
#
#
# Indices 1 2 3 4 5 6 
#
# 1 0.015162 0.001240 -0.002490 0.000000 -0.005521 0.000000
# 2 0.001240 0.030510 -0.013458 0.000000 0.009853 0.000000
# 3 -0.002490 -0.013458 0.016948 0.000000 -0.010368 0.000000
# 4 0.000000 0.000000 0.000000 0.041694 0.000000 0.018144
# 5 -0.005521 0.009853 -0.010368 0.000000 0.038769 0.000000
# 6 0.000000 0.000000 0.000000 0.018144 0.000000 0.115849
#
#
# Mechanical properties :
#
#
# Convention : Reuss Voigt Hill
#
# Bulk Modulus (GPa) = 30.11862 39.81730 34.96796
# Shear Modulus (GPa) = 16.69905 25.22656 20.96280
#
# Velocity S-wave (km/s) = 2.85191 3.50525 3.19532
# Velocity P-wave (km/s) = 5.05114 5.98127 5.53578
#
# Compressibility (1/GPa) = 0.03320205
#
# Stress axis : x y z
#
# Youngs Moduli (GPa) = 65.95624 32.77607 59.00228
#
# Poissons Ratio (x) = -0.04063 0.14693
# Poissons Ratio (y) = -0.08175 0.79407
# Poissons Ratio (z) = 0.16425 0.44111
#
# Static dielectric constant tensor:
#      x y z
#    x 1.747450 0.000000 -0.007540 
#    y 0.000000 1.680690 0.000000 
#    z -0.007540 0.000000 1.717620 
# 
# From -- ./inp_files/63918.got.cif
#   From: 2010.05.17/outbox.cif.g08.bks.cpg/sg10_32_cif.got.tgz:63918.got - 2010.06.03 11:33:40.
