data_PCOD9153303
_publ_section_title
;
Structure prediction by ZEFSAII (Michael W. Deem and Ramdas Pophale) SiO2 
 PCOD9153303
Probable space group: P 2/M
;
_chemical_formula_sum "Si O2"
_cell_formula_units_Z 26
_cell_length_a 8.853617
_cell_length_b 8.711177
_cell_length_c 28.145151
_cell_angle_alpha 90.000000
_cell_angle_beta 144.400703
_cell_angle_gamma 90.000000
_cell_volume 1263.596591
_symmetry_space_group_name_H-M "P 2/M"
_symmetry_group_IT_number 10
_symmetry_cell_setting 'monoclinic'
loop_
_space_group_symop_operation_xyz
x,y,z
-x,y,-z
-x,-y,-z
x,-y,z
loop_
_atom_site_type_symbol
_atom_site_label
_atom_site_fract_x
_atom_site_fract_y
_atom_site_fract_z
Si Si1 0.459869 0.821220 0.721838
Si Si2 0.790982 0.321613 0.178526
Si Si3 0.281809 0.500000 0.514455
Si Si4 0.940259 0.177633 0.116857
Si Si5 0.007813 0.832517 0.683667
Si Si6 0.500000 0.750280 0.500000
Si Si7 0.659342 0.500000 0.361668
Si Si8 0.243744 0.185157 0.030888
O O1 0.753181 0.819152 0.816239
O O2 0.241866 0.805583 0.706629
O O3 0.434842 0.664693 0.683968
O O4 0.426486 0.000000 0.693259
O O5 0.743492 0.500000 0.162897
O O6 0.983876 0.286356 0.271274
O O7 0.518850 0.239460 0.120357
O O8 0.892188 0.261717 0.153942
O O9 0.377170 0.645619 0.509534
O O10 0.392699 0.500000 0.595637
O O11 0.970822 0.500000 0.435693
O O12 0.862978 0.000000 0.104272
O O13 0.789604 0.238443 0.032279
O O14 0.741298 0.832569 0.586326
O O15 0.045971 0.000000 0.715737
O O16 0.237090 0.000000 0.028537
O O17 0.000000 0.237920 0.000000
#
# Coordination Sequence:
#
# PCOD9153303 Si02
#       8
#     4   4   2   4   4   2   2   4
#     4  10  23  42  66  97 129 172 223 269 323 395
#     4  12  27  40  62  97 131 170 213 263 325 388
#     4  10  24  40  66  94 130 166 220 258 344 395
#     4  10  22  41  65  94 129 170 216 268 319 378
#     4  11  24  44  66  92 126 167 220 270 326 390
#     4  11  23  42  66  96 126 168 214 277 321 394
#     4  11  22  44  66  96 128 182 208 278 335 389
#     4  10  21  43  70  94 126 169 213 262 324 384
#
# _framework density 20.576186
#
# number of rings (size 3 to 8) (size 9 to 14) (size 15 to 20)
#    0.000    1.385    1.538    3.000    6.462    5.231 
#    0.000    2.308    0.000    0.000    0.000    0.000 
#    0.000    0.000    0.000    0.000    0.000    0.000 
#
# Total GULP energy -145174.098768 kJ/mol
# GULP energy per Si atom -5583.619183 kJ/mol
# Density = 2.052935 g / cm^3
# Si number density = 20.576186 Si / 1000 Ang^3
#
#
#
# Elastic Constant Matrix: (Units=GPa)
#
#
# Indices 1 2 3 4 5 6 
#
# 1 75.6977 18.4869 29.5656 0.0000 -0.3491 0.0000
# 2 18.4869 81.8932 26.3789 0.0000 -17.5015 0.0000
# 3 29.5656 26.3789 93.2059 0.0000 -2.3077 0.0000
# 4 0.0000 0.0000 0.0000 -26.0568 0.0000 -5.8642
# 5 -0.3491 -17.5015 -2.3077 0.0000 33.7346 0.0000
# 6 0.0000 0.0000 0.0000 -5.8642 0.0000 20.0656
#
#
#
# Elastic Compliance Matrix: (Units=1/GPa)
#
#
# Indices 1 2 3 4 5 6 
#
# 1 0.015455 -0.002415 -0.004253 0.000000 -0.001384 0.000000
# 2 -0.002415 0.015529 -0.003436 0.000000 0.007796 0.000000
# 3 -0.004253 -0.003436 0.013027 0.000000 -0.000935 0.000000
# 4 0.000000 0.000000 0.000000 -0.036009 0.000000 -0.010524
# 5 -0.001384 0.007796 -0.000935 0.000000 0.033610 0.000000
# 6 0.000000 0.000000 0.000000 -0.010524 0.000000 0.046761
#
#
# Mechanical properties :
#
#
# Convention : Reuss Voigt Hill
#
# Bulk Modulus (GPa) = 42.01039 44.40664 43.20852
# Shear Modulus (GPa) = 42.91283 17.30637 30.10960
#
# Velocity S-wave (km/s) = 4.57175 2.90330 3.82949
# Velocity P-wave (km/s) = 6.95192 5.73300 6.37167
#
# Compressibility (1/GPa) = 0.02380363
#
# Stress axis : x y z
#
# Youngs Moduli (GPa) = 64.70403 64.39531 76.76109
#
# Poissons Ratio (x) = 0.15548 0.32649
# Poissons Ratio (y) = 0.15623 0.26376
# Poissons Ratio (z) = 0.27521 0.22127
#
# Static dielectric constant tensor:
#      x y z
#    x 1.713670 0.000000 0.000910 
#    y 0.000000 1.733500 0.000000 
#    z 0.000910 0.000000 1.721110 
# 
# From -- ./inp_files/91896.got.cif
#   From: 2010.05.17/outbox.cif.g08.bks.cpg/sg10_46_cif.got.tgz:91896.got - 2010.06.03 11:33:40.
