data_PCOD9153470
_publ_section_title
;
Structure prediction by ZEFSAII (Michael W. Deem and Ramdas Pophale) SiO2 
 PCOD9153470
Probable space group: P 2/M
;
_chemical_formula_sum "Si O2"
_cell_formula_units_Z 28
_cell_length_a 15.283797
_cell_length_b 19.394387
_cell_length_c 8.780562
_cell_angle_alpha 90.000000
_cell_angle_beta 148.215739
_cell_angle_gamma 90.000000
_cell_volume 1370.917586
_symmetry_space_group_name_H-M "P 2/M"
_symmetry_group_IT_number 10
_symmetry_cell_setting 'monoclinic'
loop_
_space_group_symop_operation_xyz
x,y,z
-x,y,-z
-x,-y,-z
x,-y,z
loop_
_atom_site_type_symbol
_atom_site_label
_atom_site_fract_x
_atom_site_fract_y
_atom_site_fract_z
Si Si1 0.317208 0.161976 0.803610
Si Si2 0.683404 0.846242 0.832110
Si Si3 0.012317 0.918660 0.199081
Si Si4 0.187527 0.575186 0.835069
Si Si5 0.179657 0.575182 0.188727
Si Si6 0.613076 0.693636 0.037446
Si Si7 0.372131 0.293039 0.429168
O O1 0.171252 0.120212 0.505084
O O2 0.500000 0.148298 0.000000
O O3 0.313633 0.149133 0.980163
O O4 0.281981 0.244325 0.735459
O O5 0.500000 0.867713 0.500000
O O6 0.705018 0.769629 0.783105
O O7 0.838949 0.890811 0.008447
O O8 0.029407 0.000000 0.253933
O O9 0.000000 0.907374 0.000000
O O10 0.259289 0.500000 0.899475
O O11 0.000000 0.578234 0.500000
O O12 0.175392 0.578107 0.999165
O O13 0.286112 0.637278 0.905077
O O14 0.257253 0.500000 0.344349
O O15 0.265645 0.647632 0.350201
O O16 0.000000 0.575461 0.000000
O O17 0.488880 0.733080 0.737362
O O18 0.500000 0.660515 0.000000
O O19 0.500000 0.328682 0.500000
#
# Coordination Sequence:
#
# PCOD9153470 Si02
#       7
#     4   4   4   4   4   4   4
#     4  11  23  43  70 101 137 175 221 277 328 394
#     4  11  22  43  70 100 138 175 220 275 333 394
#     4  11  27  47  71 105 138 177 223 265 326 398
#     4  10  22  40  58  85 127 169 216 275 334 390
#     4  10  22  38  60  89 123 170 220 271 334 396
#     4  11  24  40  63  94 126 168 222 270 332 395
#     4  11  21  41  62  93 128 165 219 276 329 390
#
# _framework density 20.424277
#
# number of rings (size 3 to 8) (size 9 to 14) (size 15 to 20)
#    0.000    1.286    4.286    1.286    4.000    5.714 
#    0.000    0.000    0.000    0.000    0.000    0.000 
#    0.000    0.000    0.000    0.000    0.000    0.000 
#
# Total GULP energy -156108.574318 kJ/mol
# GULP energy per Si atom -5575.306226 kJ/mol
# Density = 2.037779 g / cm^3
# Si number density = 20.424277 Si / 1000 Ang^3
#
#
#
# Elastic Constant Matrix: (Units=GPa)
#
#
# Indices 1 2 3 4 5 6 
#
# 1 143.7823 84.1962 46.1029 0.0000 18.0547 0.0000
# 2 84.1962 136.7352 91.2582 0.0000 1.6723 0.0000
# 3 46.1029 91.2582 107.0919 0.0000 4.2454 0.0000
# 4 0.0000 0.0000 0.0000 511.3060 0.0000 -63.7576
# 5 18.0547 1.6723 4.2454 0.0000 22.8812 0.0000
# 6 0.0000 0.0000 0.0000 -63.7576 0.0000 53.6790
#
#
#
# Elastic Compliance Matrix: (Units=1/GPa)
#
#
# Indices 1 2 3 4 5 6 
#
# 1 0.013177 -0.010376 0.003577 0.000000 -0.010303 0.000000
# 2 -0.010376 0.025175 -0.017366 0.000000 0.009569 0.000000
# 3 0.003577 -0.017366 0.022826 0.000000 -0.005788 0.000000
# 4 0.000000 0.000000 0.000000 0.002296 0.000000 0.002727
# 5 -0.010303 0.009569 -0.005788 0.000000 0.052208 0.000000
# 6 0.000000 0.000000 0.000000 0.002727 0.000000 0.021868
#
#
# Mechanical properties :
#
#
# Convention : Reuss Voigt Hill
#
# Bulk Modulus (GPa) = 77.82217 92.30266 85.06242
# Shear Modulus (GPa) = 26.29333 128.64341 77.46837
#
# Velocity S-wave (km/s) = 3.59187 7.94495 6.16538
# Velocity P-wave (km/s) = 7.44228 11.37777 9.61357
#
# Compressibility (1/GPa) = 0.01284981
#
# Stress axis : x y z
#
# Youngs Moduli (GPa) = 75.88703 39.72154 43.81062
#
# Poissons Ratio (x) = 0.41213 -0.15671
# Poissons Ratio (y) = 0.78737 0.76080
# Poissons Ratio (z) = -0.27145 0.68979
#
# Static dielectric constant tensor:
#      x y z
#    x 1.739790 0.000000 -0.024550 
#    y 0.000000 1.760770 0.000000 
#    z -0.024550 0.000000 1.770980 
# 
# From -- ./inp_files/30489.got.cif
#   From: 2010.05.17/outbox.cif.g08.bks.cpg/sg10_16_cif.got.tgz:30489.got - 2010.06.03 11:33:40.
