data_PCOD9153332
_publ_section_title
;
Structure prediction by ZEFSAII (Michael W. Deem and Ramdas Pophale) SiO2 
 PCOD9153332
Probable space group: P 2/M
;
_chemical_formula_sum "Si O2"
_cell_formula_units_Z 18
_cell_length_a 27.997015
_cell_length_b 5.745539
_cell_length_c 10.465889
_cell_angle_alpha 90.000000
_cell_angle_beta 156.503492
_cell_angle_gamma 90.000000
_cell_volume 671.208479
_symmetry_space_group_name_H-M "P 2/M"
_symmetry_group_IT_number 10
_symmetry_cell_setting 'monoclinic'
loop_
_space_group_symop_operation_xyz
x,y,z
-x,y,-z
-x,-y,-z
x,-y,z
loop_
_atom_site_type_symbol
_atom_site_label
_atom_site_fract_x
_atom_site_fract_y
_atom_site_fract_z
Si Si1 0.854461 0.000000 0.631091
Si Si2 0.894405 0.500000 0.347231
Si Si3 0.710428 0.000000 0.539813
Si Si4 0.365744 0.748267 0.228314
Si Si5 0.481083 0.249818 0.789011
Si Si6 0.891128 0.500000 0.630299
Si Si7 0.142199 0.000000 0.838701
O O1 0.791528 0.000000 0.614847
O O2 0.826202 0.250848 0.496414
O O3 0.000000 0.000000 0.000000
O O4 0.940467 0.500000 0.605745
O O5 0.831335 0.249476 0.163931
O O6 0.000000 0.500000 0.500000
O O7 0.617429 0.213772 0.339348
O O8 0.800197 0.000000 0.880650
O O9 0.500000 0.742873 0.500000
O O10 0.311188 0.500000 0.052409
O O11 0.400019 0.749162 0.462719
O O12 0.318918 0.000000 0.071827
O O13 0.541822 0.500000 0.939480
O O14 0.548192 0.000000 0.945660
O O15 0.000000 0.500000 0.000000
O O16 0.000000 0.000000 0.500000
#
# Coordination Sequence:
#
# PCOD9153332 Si02
#       7
#     2   2   2   4   4   2   2
#     4  10  23  32  52  65  93 114 154 193 239 279
#     4  10  22  36  54  70  90 110 146 191 247 285
#     4  10  22  32  49  68  94 122 160 192 247 270
#     4   8  12  20  34  54  78 114 150 178 204 254
#     4   8  16  26  40  58  90 114 154 182 220 271
#     4  10  22  36  54  70  90 110 146 191 247 285
#     4  10  23  32  52  65  93 114 154 193 239 279
#
# _framework density 26.817301
#
# number of rings (size 3 to 8) (size 9 to 14) (size 15 to 20)
#    0.667    2.222    0.000    0.667   15.556    0.000 
#    0.000    0.000    0.000    0.000    0.000    0.000 
#    0.000    0.000    0.000    0.000    0.000   26.667 
#
# Total GULP energy -100515.153062 kJ/mol
# GULP energy per Si atom -5584.175170 kJ/mol
# Density = 2.675626 g / cm^3
# Si number density = 26.817301 Si / 1000 Ang^3
#
#
#
# Elastic Constant Matrix: (Units=GPa)
#
#
# Indices 1 2 3 4 5 6 
#
# 1 152.2631 67.0023 40.4427 0.0000 -33.3241 0.0000
# 2 67.0023 346.9766 60.1247 0.0000 -6.3597 0.0000
# 3 40.4427 60.1247 106.2027 0.0000 -19.2966 0.0000
# 4 0.0000 0.0000 0.0000 52.1877 0.0000 -0.3299
# 5 -33.3241 -6.3597 -19.2966 0.0000 49.2915 0.0000
# 6 0.0000 0.0000 0.0000 -0.3299 0.0000 60.9645
#
#
#
# Elastic Compliance Matrix: (Units=1/GPa)
#
#
# Indices 1 2 3 4 5 6 
#
# 1 0.008685 -0.001298 -0.001654 0.000000 0.005056 0.000000
# 2 -0.001298 0.003394 -0.001623 0.000000 -0.001075 0.000000
# 3 -0.001654 -0.001623 0.011544 0.000000 0.003192 0.000000
# 4 0.000000 0.000000 0.000000 0.019162 0.000000 0.000104
# 5 0.005056 -0.001075 0.003192 0.000000 0.024817 0.000000
# 6 0.000000 0.000000 0.000000 0.000104 0.000000 0.016404
#
#
# Mechanical properties :
#
#
# Convention : Reuss Voigt Hill
#
# Bulk Modulus (GPa) = 69.08542 104.50910 86.79726
# Shear Modulus (GPa) = 51.03153 61.68024 56.35589
#
# Velocity S-wave (km/s) = 4.36699 4.80105 4.58916
# Velocity P-wave (km/s) = 7.15856 8.35397 7.77926
#
# Compressibility (1/GPa) = 0.01447483
#
# Stress axis : x y z
#
# Youngs Moduli (GPa) = 115.14705 294.62822 86.62326
#
# Poissons Ratio (x) = 0.38236 0.14325
# Poissons Ratio (y) = 0.14944 0.14055
# Poissons Ratio (z) = 0.19042 0.47805
#
# Static dielectric constant tensor:
#      x y z
#    x 1.900640 0.000000 -0.128220 
#    y 0.000000 2.133370 0.000000 
#    z -0.128220 0.000000 2.095770 
# 
# From -- ./inp_files/30759.got.cif
#   From: 2010.05.17/outbox.cif.g08.bks.cpg/sg10_16_cif.got.tgz:30759.got - 2010.06.03 11:33:40.
