data_PCOD9153511
_publ_section_title
;
Structure prediction by ZEFSAII (Michael W. Deem and Ramdas Pophale) SiO2 
 PCOD9153511
Probable space group: P 2/M
;
_chemical_formula_sum "Si O2"
_cell_formula_units_Z 21
_cell_length_a 8.173702
_cell_length_b 7.172734
_cell_length_c 14.956338
_cell_angle_alpha 90.000000
_cell_angle_beta 100.488540
_cell_angle_gamma 90.000000
_cell_volume 862.205939
_symmetry_space_group_name_H-M "P 2/M"
_symmetry_group_IT_number 10
_symmetry_cell_setting 'monoclinic'
loop_
_space_group_symop_operation_xyz
x,y,z
-x,y,-z
-x,-y,-z
x,-y,z
loop_
_atom_site_type_symbol
_atom_site_label
_atom_site_fract_x
_atom_site_fract_y
_atom_site_fract_z
Si Si1 0.184026 0.776752 0.974922
Si Si2 0.488492 0.222868 0.641753
Si Si3 0.670593 0.225434 0.834405
Si Si4 0.973490 0.226753 0.214762
Si Si5 0.500000 0.500000 0.500000
Si Si6 0.105677 0.226334 0.594594
O O1 0.165384 0.711235 0.871217
O O2 0.206181 0.000000 0.971823
O O3 0.316615 0.709172 0.061598
O O4 0.000000 0.745858 0.000000
O O5 0.534211 0.277662 0.747777
O O6 0.580157 0.337030 0.574604
O O7 0.298021 0.277341 0.605159
O O8 0.512775 0.000000 0.635478
O O9 0.846216 0.275871 0.805970
O O10 0.662932 0.000000 0.838601
O O11 0.952902 0.288581 0.313737
O O12 0.967214 0.000000 0.214850
O O13 0.000000 0.291003 0.500000
O O14 0.099172 0.000000 0.594314
#
# Coordination Sequence:
#
# PCOD9153511 Si02
#       6
#     4   4   4   4   1   4
#     4   7  10  19  38  71 108 136 173 223 265 311
#     4  10  22  39  58  80 110 143 184 229 274 327
#     4   8  14  26  49  77 105 140 180 224 270 317
#     4   8  13  23  44  74 108 144 181 221 268 319
#     4  12  26  40  58  82 108 144 186 234 278 322
#     4   9  18  31  49  75 109 148 185 224 273 325
#
# _framework density 24.356131000000001
#
# number of rings (size 3 to 8) (size 9 to 14) (size 15 to 20)
#    0.000    3.429    0.000    2.571    2.667    0.000 
#    0.000    1.429    0.000    5.714    0.000    8.667 
#    0.000    0.000    0.000    0.000    0.000    0.762 
#
# Total GULP energy -116953.123124 kJ/mol
# GULP energy per Si atom -5569.196339 kJ/mol
# Density = 2.430069 g / cm^3
# Si number density = 24.356131 Si / 1000 Ang^3
#
#
#
# Elastic Constant Matrix: (Units=GPa)
#
#
# Indices 1 2 3 4 5 6 
#
# 1 41.8818 -0.0824 72.7547 0.0000 24.4451 0.0000
# 2 -0.0824 134.0639 19.1521 0.0000 9.4349 0.0000
# 3 72.7547 19.1521 281.5632 0.0000 46.4410 0.0000
# 4 0.0000 0.0000 0.0000 -45.2697 0.0000 -21.3544
# 5 24.4451 9.4349 46.4410 0.0000 44.7286 0.0000
# 6 0.0000 0.0000 0.0000 -21.3544 0.0000 24.1082
#
#
#
# Elastic Compliance Matrix: (Units=1/GPa)
#
#
# Indices 1 2 3 4 5 6 
#
# 1 0.054004 0.002927 -0.011081 0.000000 -0.018626 0.000000
# 2 0.002927 0.007752 -0.000905 0.000000 -0.002295 0.000000
# 3 -0.011081 -0.000905 0.006572 0.000000 -0.000576 0.000000
# 4 0.000000 0.000000 0.000000 -0.015580 0.000000 -0.013800
# 5 -0.018626 -0.002295 -0.000576 0.000000 0.033619 0.000000
# 6 0.000000 0.000000 0.000000 -0.013800 0.000000 0.029256
#
#
# Mechanical properties :
#
#
# Convention : Reuss Voigt Hill
#
# Bulk Modulus (GPa) = 19.91699 71.23975 45.57837
# Shear Modulus (GPa) = 33.22791 29.09238 31.16015
#
# Velocity S-wave (km/s) = 3.69759 3.45984 3.58069
# Velocity P-wave (km/s) = 5.14049 6.72855 5.98741
#
# Compressibility (1/GPa) = 0.05020839
#
# Stress axis : x y z
#
# Youngs Moduli (GPa) = 18.51730 129.00327 152.17200
#
# Poissons Ratio (x) = -0.37760 1.68625
# Poissons Ratio (y) = -0.05420 0.13772
# Poissons Ratio (z) = 0.20519 0.11676
#
# Static dielectric constant tensor:
#      x y z
#    x 1.962720 0.000000 -0.037620 
#    y 0.000000 1.872440 0.000000 
#    z -0.037620 0.000000 1.989390 
# 
# From -- ./inp_files/60149.got.cif
#   From: 2010.05.17/outbox.cif.g08.bks.cpg/sg10_31_cif.got.tgz:60149.got - 2010.06.03 11:33:40.
