data_PCOD9153976
_publ_section_title
;
Structure prediction by ZEFSAII (Michael W. Deem and Ramdas Pophale) SiO2 
 PCOD9153976
Probable space group: P 2/M
;
_chemical_formula_sum "Si O2"
_cell_formula_units_Z 28
_cell_length_a 11.152483
_cell_length_b 8.661160
_cell_length_c 15.107128
_cell_angle_alpha 90.000000
_cell_angle_beta 66.966290
_cell_angle_gamma 90.000000
_cell_volume 1342.910513
_symmetry_space_group_name_H-M "P 2/M"
_symmetry_group_IT_number 10
_symmetry_cell_setting 'monoclinic'
loop_
_space_group_symop_operation_xyz
x,y,z
-x,y,-z
-x,-y,-z
x,-y,z
loop_
_atom_site_type_symbol
_atom_site_label
_atom_site_fract_x
_atom_site_fract_y
_atom_site_fract_z
Si Si1 0.651703 0.314091 0.961597
Si Si2 0.392101 0.821935 0.344086
Si Si3 0.046561 0.173101 0.587812
Si Si4 0.151157 0.186834 0.946149
Si Si5 0.310966 0.323932 0.542155
Si Si6 0.316914 0.817869 0.732678
Si Si7 0.799504 0.680548 0.736848
O O1 0.648278 0.500000 0.973942
O O2 0.721329 0.279306 0.848099
O O3 0.500000 0.261000 0.000000
O O4 0.745814 0.247008 0.010674
O O5 0.387037 0.780702 0.449356
O O6 0.538936 0.802162 0.267585
O O7 0.294589 0.714346 0.318801
O O8 0.351679 0.000000 0.344096
O O9 0.927554 0.218059 0.685018
O O10 0.000000 0.172578 0.500000
O O11 0.160333 0.295925 0.562713
O O12 0.095138 0.000000 0.594676
O O13 0.207962 0.232407 0.833702
O O14 0.152665 0.000000 0.950085
O O15 0.000000 0.237210 0.000000
O O16 0.350165 0.500000 0.518187
O O17 0.320009 0.274048 0.640860
O O18 0.299077 0.000000 0.718399
O O19 0.834115 0.500000 0.729280
#
# Coordination Sequence:
#
# PCOD9153976 Si02
#       7
#     4   4   4   4   4   4   4
#     4  10  23  43  66  95 131 168 209 261 322 382
#     4  11  22  39  62  90 124 166 207 248 305 366
#     4  11  23  40  62  87 120 164 205 247 307 370
#     4  10  23  43  66  95 126 164 216 269 318 371
#     4  12  25  39  61  91 124 160 203 253 307 368
#     4  10  23  42  63  88 124 164 207 256 304 366
#     4  11  23  38  62  94 126 160 205 256 308 365
#
# _framework density 20.850235999999999
#
# number of rings (size 3 to 8) (size 9 to 14) (size 15 to 20)
#    0.000    1.286    1.429    3.857    2.000    5.714 
#    0.000    0.000    0.000    0.000    0.000    0.000 
#    0.000    0.000    0.000    0.000    0.000    0.000 
#
# Total GULP energy -156517.333162 kJ/mol
# GULP energy per Si atom -5589.904756 kJ/mol
# Density = 2.080278 g / cm^3
# Si number density = 20.850236 Si / 1000 Ang^3
#
#
#
# Elastic Constant Matrix: (Units=GPa)
#
#
# Indices 1 2 3 4 5 6 
#
# 1 95.5325 5.2474 32.0935 0.0000 -13.2556 0.0000
# 2 5.2474 29.1570 7.3157 0.0000 -7.6590 0.0000
# 3 32.0935 7.3157 95.1454 0.0000 -19.2187 0.0000
# 4 0.0000 0.0000 0.0000 23.7705 0.0000 9.7528
# 5 -13.2556 -7.6590 -19.2187 0.0000 38.7216 0.0000
# 6 0.0000 0.0000 0.0000 9.7528 0.0000 26.8311
#
#
#
# Elastic Compliance Matrix: (Units=1/GPa)
#
#
# Indices 1 2 3 4 5 6 
#
# 1 0.012005 -0.000689 -0.003550 0.000000 0.002212 0.000000
# 2 -0.000689 0.036406 -0.001289 0.000000 0.006325 0.000000
# 3 -0.003550 -0.001289 0.012792 0.000000 0.004879 0.000000
# 4 0.000000 0.000000 0.000000 0.049443 0.000000 -0.017972
# 5 0.002212 0.006325 0.004879 0.000000 0.030255 0.000000
# 6 0.000000 0.000000 0.000000 -0.017972 0.000000 0.043803
#
#
# Mechanical properties :
#
#
# Convention : Reuss Voigt Hill
#
# Bulk Modulus (GPa) = 19.94117 34.34979 27.14548
# Shear Modulus (GPa) = 23.53217 29.54318 26.53767
#
# Velocity S-wave (km/s) = 3.36315 3.76829 3.57147
# Velocity P-wave (km/s) = 4.96647 5.95345 5.48222
#
# Compressibility (1/GPa) = 0.05014751
#
# Stress axis : x y z
#
# Youngs Moduli (GPa) = 83.29973 27.46791 78.17252
#
# Poissons Ratio (x) = 0.01892 0.27749
# Poissons Ratio (y) = 0.05739 0.10078
# Poissons Ratio (z) = 0.29569 0.03541
#
# Static dielectric constant tensor:
#      x y z
#    x 1.766890 0.000000 -0.014510 
#    y 0.000000 1.707710 0.000000 
#    z -0.014510 0.000000 1.729280 
# 
# From -- ./inp_files/49397.got.cif
#   From: 2010.05.17/outbox.cif.g08.bks.cpg/sg10_25_cif.got.tgz:49397.got - 2010.06.03 11:33:40.
