data_PCOD9153408
_publ_section_title
;
Structure prediction by ZEFSAII (Michael W. Deem and Ramdas Pophale) SiO2 
 PCOD9153408
Probable space group: P 2/M
;
_chemical_formula_sum "Si O2"
_cell_formula_units_Z 32
_cell_length_a 30.278062
_cell_length_b 8.859617
_cell_length_c 11.568301
_cell_angle_alpha 90.000000
_cell_angle_beta 34.602987
_cell_angle_gamma 90.000000
_cell_volume 1762.277379
_symmetry_space_group_name_H-M "P 2/M"
_symmetry_group_IT_number 10
_symmetry_cell_setting 'monoclinic'
loop_
_space_group_symop_operation_xyz
x,y,z
-x,y,-z
-x,-y,-z
x,-y,z
loop_
_atom_site_type_symbol
_atom_site_label
_atom_site_fract_x
_atom_site_fract_y
_atom_site_fract_z
Si Si1 0.998868 0.674960 0.815794
Si Si2 0.424765 0.182083 0.088349
Si Si3 0.870267 0.325587 0.295813
Si Si4 0.383635 0.316767 0.683691
Si Si5 0.230783 0.318796 0.875238
Si Si6 0.451876 0.317526 0.779597
Si Si7 0.263292 0.179254 0.554249
Si Si8 0.934189 0.821524 0.731198
O O1 0.003127 0.500000 0.766579
O O2 0.081685 0.717246 0.693297
O O3 0.969298 0.782993 0.780371
O O4 0.934559 0.677852 0.055499
O O5 0.347511 0.225531 0.324940
O O6 0.425598 0.000000 0.077289
O O7 0.500000 0.229558 0.000000
O O8 0.427544 0.249665 0.954094
O O9 0.844588 0.500000 0.362885
O O10 0.799845 0.223723 0.406310
O O11 0.383071 0.500000 0.685447
O O12 0.303797 0.267017 0.796206
O O13 0.399016 0.270648 0.783382
O O14 0.459676 0.272599 0.445394
O O15 0.229511 0.500000 0.875482
O O16 0.242486 0.259772 0.719393
O O17 0.148738 0.259505 0.099336
O O18 0.449741 0.500000 0.791126
O O19 0.262461 0.000000 0.575423
O O20 0.000000 0.769490 0.500000
O O21 0.922518 0.000000 0.742611
#
# Coordination Sequence:
#
# PCOD9153408 Si02
#       8
#     4   4   4   4   4   4   4   4
#     4   9  18  35  59  83 107 137 177 223 271 326
#     4  10  22  38  53  77 117 155 184 221 270 324
#     4   9  18  34  57  84 109 136 176 226 273 322
#     4   8  17  34  58  86 111 141 180 230 279 318
#     4  11  21  36  59  83 109 140 184 230 274 328
#     4   9  17  35  60  83 111 143 184 229 271 322
#     4  11  22  35  54  81 113 147 184 227 276 325
#     4  11  24  40  56  79 112 146 182 225 273 326
#
# _framework density 18.158321999999998
#
# number of rings (size 3 to 8) (size 9 to 14) (size 15 to 20)
#    0.000    2.250    1.250    3.375    0.000    2.750 
#    2.250    4.375    0.000    0.000    0.000    0.000 
#    0.000    0.000    0.000    0.000    0.000    0.000 
#
# Total GULP energy -178532.988614 kJ/mol
# GULP energy per Si atom -5579.155894 kJ/mol
# Density = 1.811699 g / cm^3
# Si number density = 18.158322 Si / 1000 Ang^3
#
#
#
# Elastic Constant Matrix: (Units=GPa)
#
#
# Indices 1 2 3 4 5 6 
#
# 1 84.3448 21.1156 51.0064 0.0000 -26.0727 0.0000
# 2 21.1156 26.2521 34.5772 0.0000 -8.3237 0.0000
# 3 51.0064 34.5772 110.5537 0.0000 -19.4244 0.0000
# 4 0.0000 0.0000 0.0000 28.4965 0.0000 -0.7466
# 5 -26.0727 -8.3237 -19.4244 0.0000 29.5911 0.0000
# 6 0.0000 0.0000 0.0000 -0.7466 0.0000 27.7437
#
#
#
# Elastic Compliance Matrix: (Units=1/GPa)
#
#
# Indices 1 2 3 4 5 6 
#
# 1 0.020520 -0.004971 -0.005631 0.000000 0.012985 0.000000
# 2 -0.004971 0.066801 -0.018162 0.000000 0.002489 0.000000
# 3 -0.005631 -0.018162 0.017582 0.000000 0.001471 0.000000
# 4 0.000000 0.000000 0.000000 0.035117 0.000000 0.000945
# 5 0.012985 0.002489 0.001471 0.000000 0.046901 0.000000
# 6 0.000000 0.000000 0.000000 0.000945 0.000000 0.036070
#
#
# Mechanical properties :
#
#
# Convention : Reuss Voigt Hill
#
# Bulk Modulus (GPa) = 21.10813 48.28320 34.69566
# Shear Modulus (GPa) = 16.87414 24.79638 20.83526
#
# Velocity S-wave (km/s) = 3.05171 3.69936 3.39104
# Velocity P-wave (km/s) = 4.90581 6.70037 5.87205
#
# Compressibility (1/GPa) = 0.04737511
#
# Stress axis : x y z
#
# Youngs Moduli (GPa) = 48.73315 14.96975 56.87517
#
# Poissons Ratio (x) = 0.07441 0.32027
# Poissons Ratio (y) = 0.24225 1.03299
# Poissons Ratio (z) = 0.27442 0.27189
#
# Static dielectric constant tensor:
#      x y z
#    x 1.624380 0.000000 -0.010840 
#    y 0.000000 1.614020 0.000000 
#    z -0.010840 0.000000 1.618760 
# 
# From -- ./inp_files/58170.got.cif
#   From: 2010.05.17/outbox.cif.g08.bks.cpg/sg10_30_cif.got.tgz:58170.got - 2010.06.03 11:33:40.
