data_PCOD9153689
_publ_section_title
;
Structure prediction by ZEFSAII (Michael W. Deem and Ramdas Pophale) SiO2 
 PCOD9153689
Probable space group: P 2/M
;
_chemical_formula_sum "Si O2"
_cell_formula_units_Z 28
_cell_length_a 9.131690
_cell_length_b 31.940750
_cell_length_c 5.145765
_cell_angle_alpha 90.000000
_cell_angle_beta 65.807112
_cell_angle_gamma 90.000000
_cell_volume 1369.059979
_symmetry_space_group_name_H-M "P 2/M"
_symmetry_group_IT_number 10
_symmetry_cell_setting 'monoclinic'
loop_
_space_group_symop_operation_xyz
x,y,z
-x,y,-z
-x,-y,-z
x,-y,z
loop_
_atom_site_type_symbol
_atom_site_label
_atom_site_fract_x
_atom_site_fract_y
_atom_site_fract_z
Si Si1 0.616498 0.092019 0.663251
Si Si2 0.608593 0.548709 0.178402
Si Si3 0.000000 0.235325 0.000000
Si Si4 0.834434 0.698056 0.737714
Si Si5 0.887097 0.611962 0.835251
Si Si6 0.614217 0.000000 0.668121
Si Si7 0.827501 0.827112 0.489802
Si Si8 0.396679 0.244135 0.316819
O O1 0.500000 0.093598 0.500000
O O2 0.695853 0.045523 0.615926
O O3 0.749687 0.127513 0.526267
O O4 0.500000 0.097899 0.000000
O O5 0.500000 0.564189 0.500000
O O6 0.648741 0.500000 0.203405
O O7 0.500000 0.550497 0.000000
O O8 0.768451 0.574771 0.003130
O O9 0.105322 0.265161 0.111369
O O10 0.871575 0.202721 0.215304
O O11 0.773936 0.653901 0.885763
O O12 0.737505 0.720103 0.576897
O O13 0.000000 0.683025 0.500000
O O14 0.000000 0.601245 0.500000
O O15 0.000000 0.621541 0.000000
O O16 0.500000 0.000000 0.500000
O O17 0.500000 0.000000 0.000000
O O18 0.687681 0.798748 0.715338
O O19 0.000000 0.829918 0.500000
O O20 0.500000 0.238632 0.500000
O O21 0.500000 0.259422 0.000000
#
# Coordination Sequence:
#
# PCOD9153689 Si02
#       8
#     4   4   2   4   4   2   4   4
#     4  10  22  40  64  93 122 153 203 256 307 371
#     4  10  22  43  68  95 133 173 207 258 330 393
#     4  12  20  42  64  79 125 172 218 238 316 376
#     4  11  23  43  63  87 125 175 213 256 319 378
#     4  11  24  40  67  98 128 167 219 271 316 378
#     4   8  16  36  63  87 118 158 188 241 318 375
#     4  12  25  38  61  87 120 168 205 257 309 375
#     4  12  25  40  61  89 120 158 214 268 308 358
#
# _framework density 20.451989000000001
#
# number of rings (size 3 to 8) (size 9 to 14) (size 15 to 20)
#    0.000    1.143    3.571    2.571    2.000    1.143 
#    0.000    3.214    0.000    0.429    0.000    0.000 
#    0.000    0.000    0.000    0.000    0.000    0.000 
#
# Total GULP energy -155975.086431 kJ/mol
# GULP energy per Si atom -5570.538801 kJ/mol
# Density = 2.040544 g / cm^3
# Si number density = 20.451989 Si / 1000 Ang^3
#
#
#
# Elastic Constant Matrix: (Units=GPa)
#
#
# Indices 1 2 3 4 5 6 
#
# 1 93.6328 42.0260 15.7018 0.0000 7.4769 0.0000
# 2 42.0260 146.5959 30.3110 0.0000 -11.1177 0.0000
# 3 15.7018 30.3110 102.0395 0.0000 9.7437 0.0000
# 4 0.0000 0.0000 0.0000 19.6719 0.0000 -4.3461
# 5 7.4769 -11.1177 9.7437 0.0000 29.9529 0.0000
# 6 0.0000 0.0000 0.0000 -4.3461 0.0000 19.2180
#
#
#
# Elastic Compliance Matrix: (Units=1/GPa)
#
#
# Indices 1 2 3 4 5 6 
#
# 1 0.012886 -0.003964 -0.000369 0.000000 -0.004568 0.000000
# 2 -0.003964 0.008863 -0.002509 0.000000 0.005096 0.000000
# 3 -0.000369 -0.002509 0.011025 0.000000 -0.004426 0.000000
# 4 0.000000 0.000000 0.000000 0.053507 0.000000 0.012100
# 5 -0.004568 0.005096 -0.004426 0.000000 0.037857 0.000000
# 6 0.000000 0.000000 0.000000 0.012100 0.000000 0.054771
#
#
# Mechanical properties :
#
#
# Convention : Reuss Voigt Hill
#
# Bulk Modulus (GPa) = 52.38714 57.59397 54.99055
# Shear Modulus (GPa) = 25.13095 30.71720 27.92407
#
# Velocity S-wave (km/s) = 3.50920 3.87966 3.69907
# Velocity P-wave (km/s) = 6.48765 6.94915 6.72236
#
# Compressibility (1/GPa) = 0.01908866
#
# Stress axis : x y z
#
# Youngs Moduli (GPa) = 77.60364 112.82539 90.70330
#
# Poissons Ratio (x) = 0.44727 0.03348
# Poissons Ratio (y) = 0.30764 0.22761
# Poissons Ratio (z) = 0.02864 0.28312
#
# Static dielectric constant tensor:
#      x y z
#    x 1.686400 0.000000 0.119700 
#    y 0.000000 1.769680 0.000000 
#    z 0.119700 0.000000 1.485300 
# 
# From -- ./inp_files/5508.got.cif
#   From: 2010.05.17/outbox.cif.g08.bks.cpg/sg10_3_cif.got.tgz:5508.got - 2010.06.03 11:33:40.
