data_PCOD9153584
_publ_section_title
;
Structure prediction by ZEFSAII (Michael W. Deem and Ramdas Pophale) SiO2 
 PCOD9153584
Probable space group: P 2/M
;
_chemical_formula_sum "Si O2"
_cell_formula_units_Z 28
_cell_length_a 16.311734
_cell_length_b 17.579071
_cell_length_c 9.181175
_cell_angle_alpha 90.000000
_cell_angle_beta 150.611425
_cell_angle_gamma 90.000000
_cell_volume 1291.923931
_symmetry_space_group_name_H-M "P 2/M"
_symmetry_group_IT_number 10
_symmetry_cell_setting 'monoclinic'
loop_
_space_group_symop_operation_xyz
x,y,z
-x,y,-z
-x,-y,-z
x,-y,z
loop_
_atom_site_type_symbol
_atom_site_label
_atom_site_fract_x
_atom_site_fract_y
_atom_site_fract_z
Si Si1 0.185552 0.415355 0.223491
Si Si2 0.029824 0.084620 0.720345
Si Si3 0.665138 0.190612 0.852992
Si Si4 0.674776 0.627983 0.846991
Si Si5 0.145733 0.414510 0.612536
Si Si6 0.670715 0.145855 0.205432
Si Si7 0.679736 0.686389 0.337988
O O1 0.251251 0.500000 0.360736
O O2 0.190705 0.403998 0.059070
O O3 0.291087 0.346593 0.456978
O O4 0.000000 0.411124 0.000000
O O5 0.846391 0.103448 0.497984
O O6 0.000000 0.083826 0.500000
O O7 0.084100 0.000000 0.849744
O O8 0.175277 0.146541 0.967488
O O9 0.500000 0.175179 0.500000
O O10 0.693081 0.281411 0.895566
O O11 0.649643 0.165457 0.999642
O O12 0.500000 0.611321 0.500000
O O13 0.695155 0.588787 0.033176
O O14 0.124233 0.500000 0.523166
O O15 0.180343 0.353452 0.543684
O O16 0.000000 0.394017 0.500000
O O17 0.686638 0.224034 0.322286
O O18 0.500000 0.108062 0.000000
O O19 0.500000 0.661720 0.000000
#
# Coordination Sequence:
#
# PCOD9153584 Si02
#       7
#     4   4   4   4   4   4   4
#     4  11  25  41  57  83 119 158 203 254 312 362
#     4   9  20  40  67  97 128 167 203 239 301 369
#     4  10  22  39  63  96 126 161 207 253 301 362
#     4  11  23  38  58  85 115 157 201 251 300 359
#     4  11  23  37  57  83 113 152 201 252 304 352
#     4  10  22  39  63  96 126 161 207 253 301 362
#     4  11  23  38  58  85 115 157 201 251 300 359
#
# _framework density 21.673103000000001
#
# number of rings (size 3 to 8) (size 9 to 14) (size 15 to 20)
#    0.000    1.571    1.429    2.571   10.000    6.286 
#    0.000    0.714    0.000    0.857    0.000    0.000 
#    0.000    0.000    0.000    0.000    0.000    0.000 
#
# Total GULP energy -156476.220351 kJ/mol
# GULP energy per Si atom -5588.436441 kJ/mol
# Density = 2.162377 g / cm^3
# Si number density = 21.673103 Si / 1000 Ang^3
#
#
#
# Elastic Constant Matrix: (Units=GPa)
#
#
# Indices 1 2 3 4 5 6 
#
# 1 72.2742 4.4169 4.5842 0.0000 15.8344 0.0000
# 2 4.4169 58.4183 33.2235 0.0000 12.6070 0.0000
# 3 4.5842 33.2235 74.3367 0.0000 10.7733 0.0000
# 4 0.0000 0.0000 0.0000 18.3867 0.0000 -3.5478
# 5 15.8344 12.6070 10.7733 0.0000 49.1035 0.0000
# 6 0.0000 0.0000 0.0000 -3.5478 0.0000 9.2037
#
#
#
# Elastic Compliance Matrix: (Units=1/GPa)
#
#
# Indices 1 2 3 4 5 6 
#
# 1 0.014892 0.000042 -0.000247 0.000000 -0.004759 0.000000
# 2 0.000042 0.023645 -0.010007 0.000000 -0.003889 0.000000
# 3 -0.000247 -0.010007 0.018133 0.000000 -0.001329 0.000000
# 4 0.000000 0.000000 0.000000 0.058758 0.000000 0.022649
# 5 -0.004759 -0.003889 -0.001329 0.000000 0.023190 0.000000
# 6 0.000000 0.000000 0.000000 0.022649 0.000000 0.117383
#
#
# Mechanical properties :
#
#
# Convention : Reuss Voigt Hill
#
# Bulk Modulus (GPa) = 27.59032 32.16428 29.87730
# Shear Modulus (GPa) = 17.33069 26.19242 21.76155
#
# Velocity S-wave (km/s) = 2.83086 3.48015 3.17216
# Velocity P-wave (km/s) = 4.84178 5.56969 5.21844
#
# Compressibility (1/GPa) = 0.03624460
#
# Stress axis : x y z
#
# Youngs Moduli (GPa) = 67.15061 42.29238 55.14949
#
# Poissons Ratio (x) = -0.00176 0.01364
# Poissons Ratio (y) = -0.00280 0.55186
# Poissons Ratio (z) = 0.01661 0.42321
#
# Static dielectric constant tensor:
#      x y z
#    x 1.816330 0.000000 0.031660 
#    y 0.000000 1.746040 0.000000 
#    z 0.031660 0.000000 1.886350 
# 
# From -- ./inp_files/30464.got.cif
#   From: 2010.05.17/outbox.cif.g08.bks.cpg/sg10_16_cif.got.tgz:30464.got - 2010.06.03 11:33:40.
