data_PCOD9153294
_publ_section_title
;
Structure prediction by ZEFSAII (Michael W. Deem and Ramdas Pophale) SiO2 
 PCOD9153294
Probable space group: P 2/M
;
_chemical_formula_sum "Si O2"
_cell_formula_units_Z 26
_cell_length_a 8.643794
_cell_length_b 7.786586
_cell_length_c 26.467851
_cell_angle_alpha 90.000000
_cell_angle_beta 36.872739
_cell_angle_gamma 90.000000
_cell_volume 1068.932149
_symmetry_space_group_name_H-M "P 2/M"
_symmetry_group_IT_number 10
_symmetry_cell_setting 'monoclinic'
loop_
_space_group_symop_operation_xyz
x,y,z
-x,y,-z
-x,-y,-z
x,-y,z
loop_
_atom_site_type_symbol
_atom_site_label
_atom_site_fract_x
_atom_site_fract_y
_atom_site_fract_z
Si Si1 0.397571 0.796817 0.080017
Si Si2 0.182035 0.682946 0.756306
Si Si3 0.658840 0.205736 0.116708
Si Si4 0.808415 0.500000 0.141794
Si Si5 0.873181 0.198526 0.694781
Si Si6 0.965286 0.302626 0.453205
Si Si7 0.599891 0.196129 0.395576
O O1 0.595879 0.777508 0.073919
O O2 0.121618 0.721099 0.167036
O O3 0.352559 0.000000 0.084818
O O4 0.500000 0.724439 0.000000
O O5 0.238213 0.500000 0.716212
O O6 0.233704 0.648473 0.801528
O O7 0.347189 0.807216 0.678573
O O8 0.849645 0.344303 0.089888
O O9 0.389406 0.268885 0.213700
O O10 0.709298 0.000000 0.113532
O O11 0.887424 0.214127 0.631015
O O12 0.139544 0.269466 0.647543
O O13 0.870090 0.000000 0.711739
O O14 0.055417 0.500000 0.430868
O O15 0.660331 0.292747 0.523045
O O16 0.000000 0.226933 0.500000
O O17 0.565639 0.000000 0.422346
#
# Coordination Sequence:
#
# PCOD9153294 Si02
#       7
#     4   4   4   2   4   4   4
#     4  10  21  42  72 101 129 168 221 276 327 386
#     4  10  23  40  60  97 128 169 214 260 332 385
#     4  10  22  42  67  97 132 174 220 273 331 390
#     4  10  26  40  63  99 136 180 214 266 322 413
#     4  10  22  39  61  88 119 161 214 267 327 379
#     4  11  26  40  56  85 125 165 208 263 321 387
#     4  11  22  40  64  87 122 159 213 274 320 384
#
# _framework density 24.323339000000001
#
# number of rings (size 3 to 8) (size 9 to 14) (size 15 to 20)
#    0.462    1.231    1.538    1.846    4.308    5.846 
#    0.000    1.538    0.000    2.769    0.000    0.000 
#    0.000    0.000    0.000    0.000    0.000    0.000 
#
# Total GULP energy -144759.368046 kJ/mol
# GULP energy per Si atom -5567.668002 kJ/mol
# Density = 2.426798 g / cm^3
# Si number density = 24.323339 Si / 1000 Ang^3
#
#
#
# Elastic Constant Matrix: (Units=GPa)
#
#
# Indices 1 2 3 4 5 6 
#
# 1 65.2755 22.8532 20.7034 0.0000 21.1111 0.0000
# 2 22.8532 76.6401 4.9708 0.0000 10.2178 0.0000
# 3 20.7034 4.9708 112.8242 0.0000 7.7476 0.0000
# 4 0.0000 0.0000 0.0000 380.7415 0.0000 83.8318
# 5 21.1111 10.2178 7.7476 0.0000 42.9393 0.0000
# 6 0.0000 0.0000 0.0000 83.8318 0.0000 34.4142
#
#
#
# Elastic Compliance Matrix: (Units=1/GPa)
#
#
# Indices 1 2 3 4 5 6 
#
# 1 0.020716 -0.004851 -0.003005 0.000000 -0.008489 0.000000
# 2 -0.004851 0.014627 0.000325 0.000000 -0.001154 0.000000
# 3 -0.003005 0.000325 0.009421 0.000000 -0.000300 0.000000
# 4 0.000000 0.000000 0.000000 0.005665 0.000000 -0.013799
# 5 -0.008489 -0.001154 -0.000300 0.000000 0.027791 0.000000
# 6 0.000000 0.000000 0.000000 -0.013799 0.000000 0.062672
#
#
# Mechanical properties :
#
#
# Convention : Reuss Voigt Hill
#
# Bulk Modulus (GPa) = 33.66624 39.08830 36.37727
# Shear Modulus (GPa) = 30.14684 105.36649 67.75666
#
# Velocity S-wave (km/s) = 3.52436 6.58886 5.28367
# Velocity P-wave (km/s) = 5.51658 8.60171 7.22572
#
# Compressibility (1/GPa) = 0.02970335
#
# Stress axis : x y z
#
# Youngs Moduli (GPa) = 48.27098 68.36540 106.14572
#
# Poissons Ratio (x) = 0.33162 0.31895
# Poissons Ratio (y) = 0.23415 -0.03449
# Poissons Ratio (z) = 0.14505 -0.02222
#
# Static dielectric constant tensor:
#      x y z
#    x 2.004490 0.000000 -0.017560 
#    y 0.000000 2.058440 0.000000 
#    z -0.017560 0.000000 1.949170 
# 
# From -- ./inp_files/31538.got.cif
#   From: 2010.05.17/outbox.cif.g08.bks.cpg/sg10_16_cif.got.tgz:31538.got - 2010.06.03 11:33:40.
