data_PCOD9153906
_publ_section_title
;
Structure prediction by ZEFSAII (Michael W. Deem and Ramdas Pophale) SiO2 
 PCOD9153906
Probable space group: P 2/M
;
_chemical_formula_sum "Si O2"
_cell_formula_units_Z 28
_cell_length_a 14.194978
_cell_length_b 9.612706
_cell_length_c 11.521500
_cell_angle_alpha 90.000000
_cell_angle_beta 105.367293
_cell_angle_gamma 90.000000
_cell_volume 1515.924707
_symmetry_space_group_name_H-M "P 2/M"
_symmetry_group_IT_number 10
_symmetry_cell_setting 'monoclinic'
loop_
_space_group_symop_operation_xyz
x,y,z
-x,y,-z
-x,-y,-z
x,-y,z
loop_
_atom_site_type_symbol
_atom_site_label
_atom_site_fract_x
_atom_site_fract_y
_atom_site_fract_z
Si Si1 0.691192 0.831829 0.616026
Si Si2 0.874829 0.838928 0.826955
Si Si3 0.311336 0.660213 0.608095
Si Si4 0.933799 0.712450 0.076487
Si Si5 0.400566 0.840116 0.042007
Si Si6 0.455344 0.664240 0.285768
Si Si7 0.256081 0.345680 0.849789
O O1 0.777785 0.786430 0.732894
O O2 0.716168 0.772235 0.497666
O O3 0.595163 0.749994 0.627260
O O4 0.679336 0.000000 0.613988
O O5 0.978703 0.777587 0.820082
O O6 0.877054 0.000000 0.803804
O O7 0.878319 0.815013 0.967362
O O8 0.294202 0.500000 0.563150
O O9 0.427480 0.673440 0.670282
O O10 0.257326 0.680795 0.712922
O O11 0.851113 0.650472 0.128932
O O12 0.000000 0.635106 0.000000
O O13 0.418105 0.741479 0.157989
O O14 0.377295 0.000000 0.068925
O O15 0.500000 0.842765 0.000000
O O16 0.318436 0.770601 0.935424
O O17 0.429216 0.500000 0.280220
O O18 0.301697 0.500000 0.881554
#
# Coordination Sequence:
#
# PCOD9153906 Si02
#       7
#     4   4   4   4   4   4   4
#     4  11  22  37  59  86 117 151 196 245 288 337
#     4   8  17  35  57  84 115 145 180 232 294 349
#     4  10  23  40  56  78 115 159 200 234 283 348
#     4   8  18  35  60  87 110 144 183 238 289 347
#     4  11  23  37  57  89 124 152 188 237 288 343
#     4  11  22  38  60  83 114 157 198 238 287 342
#     4  11  22  39  60  84 117 155 193 238 291 345
#
# _framework density 18.470575
#
# number of rings (size 3 to 8) (size 9 to 14) (size 15 to 20)
#    0.857    1.000    1.429    3.429    0.000    6.571 
#    0.000    2.857    0.000    3.429    0.000    0.000 
#    0.000    0.000    0.000    0.000    0.000    0.000 
#
# Total GULP energy -155869.084149 kJ/mol
# GULP energy per Si atom -5566.753005 kJ/mol
# Density = 1.842854 g / cm^3
# Si number density = 18.470575 Si / 1000 Ang^3
#
#
#
# Elastic Constant Matrix: (Units=GPa)
#
#
# Indices 1 2 3 4 5 6 
#
# 1 103.7507 36.8378 34.8798 0.0000 -13.3703 0.0000
# 2 36.8378 93.9908 32.5415 0.0000 -1.0798 0.0000
# 3 34.8798 32.5415 53.8605 0.0000 -4.7525 0.0000
# 4 0.0000 0.0000 0.0000 37.4433 0.0000 6.3297
# 5 -13.3703 -1.0798 -4.7525 0.0000 21.7216 0.0000
# 6 0.0000 0.0000 0.0000 6.3297 0.0000 22.9662
#
#
#
# Elastic Compliance Matrix: (Units=1/GPa)
#
#
# Indices 1 2 3 4 5 6 
#
# 1 0.013800 -0.003094 -0.006457 0.000000 0.006928 0.000000
# 2 -0.003094 0.014174 -0.006797 0.000000 -0.002687 0.000000
# 3 -0.006457 -0.006797 0.026995 0.000000 0.001594 0.000000
# 4 0.000000 0.000000 0.000000 0.028012 0.000000 -0.007720
# 5 0.006928 -0.002687 0.001594 0.000000 0.050517 0.000000
# 6 0.000000 0.000000 0.000000 -0.007720 0.000000 0.045670
#
#
# Mechanical properties :
#
#
# Convention : Reuss Voigt Hill
#
# Bulk Modulus (GPa) = 44.89445 51.12446 48.00946
# Shear Modulus (GPa) = 22.80088 26.24907 24.52498
#
# Velocity S-wave (km/s) = 3.51728 3.77388 3.64783
# Velocity P-wave (km/s) = 6.39169 6.83582 6.61748
#
# Compressibility (1/GPa) = 0.02227447
#
# Stress axis : x y z
#
# Youngs Moduli (GPa) = 72.46163 70.54941 37.04355
#
# Poissons Ratio (x) = 0.21827 0.23917
# Poissons Ratio (y) = 0.22418 0.25180
# Poissons Ratio (z) = 0.46785 0.47956
#
# Static dielectric constant tensor:
#      x y z
#    x 1.674750 0.000000 0.009920 
#    y 0.000000 1.640940 0.000000 
#    z 0.009920 0.000000 1.666850 
# 
# From -- ./inp_files/49320.got.cif
#   From: 2010.05.17/outbox.cif.g08.bks.cpg/sg10_25_cif.got.tgz:49320.got - 2010.06.03 11:33:40.
