data_PCOD9153989
_publ_section_title
;
Structure prediction by ZEFSAII (Michael W. Deem and Ramdas Pophale) SiO2 
 PCOD9153989
Probable space group: P 2/M
;
_chemical_formula_sum "Si O2"
_cell_formula_units_Z 29
_cell_length_a 14.425743
_cell_length_b 20.359237
_cell_length_c 9.372229
_cell_angle_alpha 90.000000
_cell_angle_beta 28.275472
_cell_angle_gamma 90.000000
_cell_volume 1303.935977
_symmetry_space_group_name_H-M "P 2/M"
_symmetry_group_IT_number 10
_symmetry_cell_setting 'monoclinic'
loop_
_space_group_symop_operation_xyz
x,y,z
-x,y,-z
-x,-y,-z
x,-y,z
loop_
_atom_site_type_symbol
_atom_site_label
_atom_site_fract_x
_atom_site_fract_y
_atom_site_fract_z
Si Si1 0.234478 0.573411 0.194359
Si Si2 0.034480 0.755320 0.780354
Si Si3 0.723666 0.071580 0.249547
Si Si4 0.598197 0.813001 0.620025
Si Si5 0.847755 0.388369 0.390467
Si Si6 0.833971 0.149352 0.843474
Si Si7 0.511203 0.335465 0.649174
Si Si8 0.000000 0.500000 0.000000
O O1 0.305060 0.500000 0.056198
O O2 0.268178 0.585765 0.315879
O O3 0.000000 0.574330 0.500000
O O4 0.328985 0.632569 0.978283
O O5 0.246308 0.790658 0.470480
O O6 0.047341 0.679936 0.719000
O O7 0.877800 0.790252 0.892273
O O8 0.000000 0.757439 0.000000
O O9 0.500000 0.068921 0.500000
O O10 0.717840 0.132064 0.367461
O O11 0.777722 0.000000 0.234868
O O12 0.840137 0.089423 0.948042
O O13 0.547894 0.742655 0.615729
O O14 0.382081 0.843630 0.933165
O O15 0.694301 0.370519 0.475403
O O16 0.988438 0.443215 0.139670
O O17 0.000000 0.146284 0.500000
O O18 0.500000 0.351751 0.500000
#
# Coordination Sequence:
#
# PCOD9153989 Si02
#       8
#     4   4   4   4   4   4   4   1
#     4  11  27  45  65  93 132 173 220 272 334 397
#     4  11  23  40  65  96 129 169 224 274 323 395
#     4   9  18  38  67  95 131 175 217 264 322 392
#     4  10  23  42  65  97 134 167 225 268 322 392
#     4  11  26  42  64  91 130 165 217 276 334 387
#     4  11  24  39  65  97 134 172 209 274 331 383
#     4  11  26  42  68  92 128 171 216 272 327 397
#     4  12  24  40  70  88 120 170 212 268 332 388
#
# _framework density 22.240355999999998
#
# number of rings (size 3 to 8) (size 9 to 14) (size 15 to 20)
#    0.000    1.379    2.759    1.655    8.690    1.655 
#    0.000    1.379    0.000    0.000    0.000    4.828 
#    0.000    0.000    0.000    0.000    0.000    0.000 
#
# Total GULP energy -161699.839833 kJ/mol
# GULP energy per Si atom -5575.856546 kJ/mol
# Density = 2.218974 g / cm^3
# Si number density = 22.240356 Si / 1000 Ang^3
#
#
#
# Elastic Constant Matrix: (Units=GPa)
#
#
# Indices 1 2 3 4 5 6 
#
# 1 54.1295 20.5064 8.3264 0.0000 1.1923 0.0000
# 2 20.5064 157.6803 35.1967 0.0000 5.6507 0.0000
# 3 8.3264 35.1967 94.9949 0.0000 15.4604 0.0000
# 4 0.0000 0.0000 0.0000 21.9517 0.0000 1.5665
# 5 1.1923 5.6507 15.4604 0.0000 36.6575 0.0000
# 6 0.0000 0.0000 0.0000 1.5665 0.0000 14.2499
#
#
#
# Elastic Compliance Matrix: (Units=1/GPa)
#
#
# Indices 1 2 3 4 5 6 
#
# 1 0.019493 -0.002348 -0.000853 0.000000 0.000088 0.000000
# 2 -0.002348 0.007197 -0.002461 0.000000 0.000005 0.000000
# 3 -0.000853 -0.002461 0.012291 0.000000 -0.004777 0.000000
# 4 0.000000 0.000000 0.000000 0.045915 0.000000 -0.005047
# 5 0.000088 0.000005 -0.004777 0.000000 0.029290 0.000000
# 6 0.000000 0.000000 0.000000 -0.005047 0.000000 0.070731
#
#
# Mechanical properties :
#
#
# Convention : Reuss Voigt Hill
#
# Bulk Modulus (GPa) = 36.15844 48.31819 42.23832
# Shear Modulus (GPa) = 24.33566 30.75681 27.54624
#
# Velocity S-wave (km/s) = 3.31148 3.72281 3.52315
# Velocity P-wave (km/s) = 5.56008 6.34442 5.96516
#
# Compressibility (1/GPa) = 0.02765606
#
# Stress axis : x y z
#
# Youngs Moduli (GPa) = 51.30067 138.95585 81.36020
#
# Poissons Ratio (x) = 0.32624 0.06940
# Poissons Ratio (y) = 0.12044 0.20026
# Poissons Ratio (z) = 0.04376 0.34203
#
# Static dielectric constant tensor:
#      x y z
#    x 1.831660 0.000000 -0.020650 
#    y 0.000000 1.807040 0.000000 
#    z -0.020650 0.000000 1.876750 
# 
# From -- ./inp_files/30435.got.cif
#   From: 2010.05.17/outbox.cif.g08.bks.cpg/sg10_16_cif.got.tgz:30435.got - 2010.06.03 11:33:40.
