data_PCOD9153940
_publ_section_title
;
Structure prediction by ZEFSAII (Michael W. Deem and Ramdas Pophale) SiO2 
 PCOD9153940
Probable space group: P 2/M
;
_chemical_formula_sum "Si O2"
_cell_formula_units_Z 24
_cell_length_a 12.711037
_cell_length_b 9.150573
_cell_length_c 10.658215
_cell_angle_alpha 90.000000
_cell_angle_beta 91.125971
_cell_angle_gamma 90.000000
_cell_volume 1239.452485
_symmetry_space_group_name_H-M "P 2/M"
_symmetry_group_IT_number 10
_symmetry_cell_setting 'monoclinic'
loop_
_space_group_symop_operation_xyz
x,y,z
-x,y,-z
-x,-y,-z
x,-y,z
loop_
_atom_site_type_symbol
_atom_site_label
_atom_site_fract_x
_atom_site_fract_y
_atom_site_fract_z
Si Si1 0.994166 0.830691 0.650250
Si Si2 0.777010 0.325287 0.710132
Si Si3 0.698835 0.668136 0.984982
Si Si4 0.421011 0.825783 0.383436
Si Si5 0.404359 0.173955 0.805492
Si Si6 0.802065 0.669007 0.240852
O O1 0.888584 0.748440 0.688456
O O2 0.000000 0.826462 0.500000
O O3 0.096882 0.751494 0.706902
O O4 0.991547 0.000000 0.690223
O O5 0.784726 0.500000 0.699704
O O6 0.737719 0.287845 0.849919
O O7 0.687101 0.261955 0.617121
O O8 0.661153 0.500000 0.979199
O O9 0.613759 0.767674 0.054165
O O10 0.794767 0.671522 0.088252
O O11 0.500000 0.796607 0.500000
O O12 0.487109 0.787054 0.259421
O O13 0.399187 0.000000 0.382037
O O14 0.307183 0.249253 0.728396
O O15 0.392968 0.000000 0.800842
O O16 0.800563 0.500000 0.281082
#
# Coordination Sequence:
#
# PCOD9153940 Si02
#       6
#     4   4   4   4   4   4
#     4  11  25  42  61  86 121 158 195 242 296 352
#     4  11  24  41  61  89 120 153 199 246 295 351
#     4   8  19  38  59  87 122 155 189 244 300 347
#     4  10  23  41  60  85 122 161 196 243 298 349
#     4   9  18  35  61  88 116 155 199 238 289 352
#     4   9  19  38  62  87 119 154 194 240 293 349
#
# _framework density 19.363389000000002
#
# number of rings (size 3 to 8) (size 9 to 14) (size 15 to 20)
#    1.000    1.333    0.000    1.500    2.333    5.667 
#    0.000    6.667    0.000    0.000    0.000    0.000 
#    0.000    0.000    0.000    0.000    0.000    0.000 
#
# Total GULP energy -133839.877063 kJ/mol
# GULP energy per Si atom -5576.661544 kJ/mol
# Density = 1.931932 g / cm^3
# Si number density = 19.363389 Si / 1000 Ang^3
#
#
#
# Elastic Constant Matrix: (Units=GPa)
#
#
# Indices 1 2 3 4 5 6 
#
# 1 124.5181 59.2553 6.6624 0.0000 8.8539 0.0000
# 2 59.2553 81.0575 18.2827 0.0000 -2.7601 0.0000
# 3 6.6624 18.2827 36.2427 0.0000 -2.4860 0.0000
# 4 0.0000 0.0000 0.0000 27.0375 0.0000 9.6365
# 5 8.8539 -2.7601 -2.4860 0.0000 26.9430 0.0000
# 6 0.0000 0.0000 0.0000 9.6365 0.0000 85.2224
#
#
#
# Elastic Compliance Matrix: (Units=1/GPa)
#
#
# Indices 1 2 3 4 5 6 
#
# 1 0.013211 -0.010388 0.002457 0.000000 -0.005179 0.000000
# 2 -0.010388 0.022106 -0.008909 0.000000 0.004856 0.000000
# 3 0.002457 -0.008909 0.031717 0.000000 0.001207 0.000000
# 4 0.000000 0.000000 0.000000 0.038539 0.000000 -0.004358
# 5 -0.005179 0.004856 0.001207 0.000000 0.039426 0.000000
# 6 0.000000 0.000000 0.000000 -0.004358 0.000000 0.012227
#
#
# Mechanical properties :
#
#
# Convention : Reuss Voigt Hill
#
# Bulk Modulus (GPa) = 29.98194 45.57990 37.78092
# Shear Modulus (GPa) = 24.74955 38.34843 31.54899
#
# Velocity S-wave (km/s) = 3.57902 4.45506 4.04085
# Velocity P-wave (km/s) = 5.70934 7.07487 6.42847
#
# Compressibility (1/GPa) = 0.03335341
#
# Stress axis : x y z
#
# Youngs Moduli (GPa) = 75.69271 45.23715 31.52898
#
# Poissons Ratio (x) = 0.46994 -0.07745
# Poissons Ratio (y) = 0.78632 0.28088
# Poissons Ratio (z) = -0.18594 0.40300
#
# Static dielectric constant tensor:
#      x y z
#    x 1.641240 0.000000 0.016760 
#    y 0.000000 1.652370 0.000000 
#    z 0.016760 0.000000 1.710800 
# 
# From -- ./inp_files/45126.got.cif
#   From: 2010.05.17/outbox.cif.g08.bks.cpg/sg10_23_cif.got.tgz:45126.got - 2010.06.03 11:33:40.
