data_PCOD9153677
_publ_section_title
;
Structure prediction by ZEFSAII (Michael W. Deem and Ramdas Pophale) SiO2 
 PCOD9153677
Probable space group: P 2/M
;
_chemical_formula_sum "Si O2"
_cell_formula_units_Z 19
_cell_length_a 9.831097
_cell_length_b 11.479666
_cell_length_c 12.216833
_cell_angle_alpha 90.000000
_cell_angle_beta 33.867013
_cell_angle_gamma 90.000000
_cell_volume 768.339774
_symmetry_space_group_name_H-M "P 2/M"
_symmetry_group_IT_number 10
_symmetry_cell_setting 'monoclinic'
loop_
_space_group_symop_operation_xyz
x,y,z
-x,y,-z
-x,-y,-z
x,-y,z
loop_
_atom_site_type_symbol
_atom_site_label
_atom_site_fract_x
_atom_site_fract_y
_atom_site_fract_z
Si Si1 0.000000 0.500000 0.500000
Si Si2 0.616300 0.258989 0.534120
Si Si3 0.101869 0.500000 0.682500
Si Si4 0.898295 0.869582 0.741368
Si Si5 0.604773 0.500000 0.085147
Si Si6 0.500000 0.294985 0.000000
Si Si7 0.245779 0.129695 0.907007
O O1 0.037906 0.500000 0.342777
O O2 0.686859 0.500000 0.684002
O O3 0.500000 0.210002 0.500000
O O4 0.728833 0.384733 0.430570
O O5 0.404203 0.239861 0.763570
O O6 0.835876 0.183150 0.434746
O O7 0.900850 0.500000 0.915807
O O8 0.709592 0.785164 0.808469
O O9 0.884801 0.000000 0.708398
O O10 0.815093 0.868046 0.924190
O O11 0.608154 0.379476 0.017075
O O12 0.358837 0.000000 0.809318
O O13 0.000000 0.133434 0.000000
#
# Coordination Sequence:
#
# PCOD9153677 Si02
#       7
#     1   4   2   4   2   2   4
#     4  12  22  42  70  88 122 172 214 258 322 374
#     4  12  24  42  65  92 130 174 213 266 322 381
#     4  12  26  41  63 100 128 167 219 260 323 389
#     4  11  23  40  66  94 128 168 209 268 325 384
#     4  11  22  42  65  92 124 175 210 259 310 395
#     4  11  21  44  62  92 133 159 214 264 322 387
#     4  10  22  40  63  93 124 166 221 262 312 387
#
# _framework density 24.728643000000002
#
# number of rings (size 3 to 8) (size 9 to 14) (size 15 to 20)
#    0.000    0.842    6.316    1.263    2.947    0.842 
#    0.000    0.526    0.000    3.789    0.000    0.000 
#    0.000    0.000    0.000    0.000    0.000    0.000 
#
# Total GULP energy -105840.900156 kJ/mol
# GULP energy per Si atom -5570.573692 kJ/mol
# Density = 2.467236 g / cm^3
# Si number density = 24.728643 Si / 1000 Ang^3
#
#
#
# Elastic Constant Matrix: (Units=GPa)
#
#
# Indices 1 2 3 4 5 6 
#
# 1 55.7891 -2.8598 8.4947 0.0000 -5.8050 0.0000
# 2 -2.8598 129.5528 42.0982 0.0000 -28.0824 0.0000
# 3 8.4947 42.0982 140.5563 0.0000 -19.3583 0.0000
# 4 0.0000 0.0000 0.0000 8.4874 0.0000 -33.3348
# 5 -5.8050 -28.0824 -19.3583 0.0000 37.9743 0.0000
# 6 0.0000 0.0000 0.0000 -33.3348 0.0000 -53.6971
#
#
#
# Elastic Compliance Matrix: (Units=1/GPa)
#
#
# Indices 1 2 3 4 5 6 
#
# 1 0.018521 0.001500 -0.001103 0.000000 0.003378 0.000000
# 2 0.001500 0.009842 -0.002156 0.000000 0.006408 0.000000
# 3 -0.001103 -0.002156 0.008157 0.000000 0.002395 0.000000
# 4 0.000000 0.000000 0.000000 0.034268 0.000000 -0.021274
# 5 0.003378 0.006408 0.002395 0.000000 0.032810 0.000000
# 6 0.000000 0.000000 0.000000 -0.021274 0.000000 -0.005416
#
#
# Mechanical properties :
#
#
# Convention : Reuss Voigt Hill
#
# Bulk Modulus (GPa) = 30.30259 46.81826 38.56043
# Shear Modulus (GPa) = 44.36549 17.09726 30.73138
#
# Velocity S-wave (km/s) = 4.24027 2.63229 3.52908
# Velocity P-wave (km/s) = 6.02111 5.31155 5.67743
#
# Compressibility (1/GPa) = 0.03300048
#
# Stress axis : x y z
#
# Youngs Moduli (GPa) = 53.99284 101.61022 122.59683
#
# Poissons Ratio (x) = -0.15237 0.13526
# Poissons Ratio (y) = -0.08096 0.26428
# Poissons Ratio (z) = 0.05957 0.21904
#
# Static dielectric constant tensor:
#      x y z
#    x 1.944050 0.000000 0.016730 
#    y 0.000000 1.966810 0.000000 
#    z 0.016730 0.000000 2.069840 
# 
# From -- ./inp_files/64269.got.cif
#   From: 2010.05.17/outbox.cif.g08.bks.cpg/sg10_33_cif.got.tgz:64269.got - 2010.06.03 11:33:40.
