data_PCOD9153878
_publ_section_title
;
Structure prediction by ZEFSAII (Michael W. Deem and Ramdas Pophale) SiO2 
 PCOD9153878
Probable space group: P 2/M
;
_chemical_formula_sum "Si O2"
_cell_formula_units_Z 20
_cell_length_a 5.341766
_cell_length_b 23.710919
_cell_length_c 8.185930
_cell_angle_alpha 90.000000
_cell_angle_beta 115.698055
_cell_angle_gamma 90.000000
_cell_volume 934.265437
_symmetry_space_group_name_H-M "P 2/M"
_symmetry_group_IT_number 10
_symmetry_cell_setting 'monoclinic'
loop_
_space_group_symop_operation_xyz
x,y,z
-x,y,-z
-x,-y,-z
x,-y,z
loop_
_atom_site_type_symbol
_atom_site_label
_atom_site_fract_x
_atom_site_fract_y
_atom_site_fract_z
Si Si1 0.255689 0.229291 0.796406
Si Si2 0.319658 0.341190 0.604768
Si Si3 0.325483 0.563989 0.118364
Si Si4 0.000000 0.822230 0.000000
Si Si5 0.477932 0.876653 0.692027
Si Si6 0.325828 0.000000 0.619861
O O1 0.278029 0.287048 0.708288
O O2 0.277599 0.174455 0.689107
O O3 0.500000 0.227362 0.000000
O O4 0.998773 0.219429 0.843049
O O5 0.500000 0.321455 0.500000
O O6 0.514555 0.390413 0.729668
O O7 0.000000 0.362905 0.500000
O O8 0.329823 0.500000 0.187895
O O9 0.500000 0.563127 0.000000
O O10 0.000000 0.578775 0.000000
O O11 0.750671 0.862827 0.875900
O O12 0.500000 0.875212 0.500000
O O13 0.389029 0.939557 0.717110
O O14 0.500000 0.000000 0.500000
O O15 0.000000 0.000000 0.500000
#
# Coordination Sequence:
#
# PCOD9153878 Si02
#       6
#     4   4   4   2   4   2
#     4  10  24  42  65  94 134 178 230 281 338 412
#     4  12  27  41  67 106 139 181 227 286 351 405
#     4  10  22  45  73  99 136 187 231 276 340 410
#     4  10  24  43  66 100 127 188 228 284 348 404
#     4  10  23  42  69  96 134 177 227 286 343 416
#     4  10  24  41  69 103 130 175 225 277 347 412
#
# _framework density 21.407191000000001
#
# number of rings (size 3 to 8) (size 9 to 14) (size 15 to 20)
#    0.000    1.600    0.000    2.400   14.000    1.200 
#    3.600    4.500    0.000    0.000    0.000    0.000 
#    0.000    0.000    0.000    0.000    0.000    0.000 
#
# Total GULP energy -111506.750663 kJ/mol
# GULP energy per Si atom -5575.337533 kJ/mol
# Density = 2.135847 g / cm^3
# Si number density = 21.407191 Si / 1000 Ang^3
#
#
#
# Elastic Constant Matrix: (Units=GPa)
#
#
# Indices 1 2 3 4 5 6 
#
# 1 131.4480 60.9893 51.8488 0.0000 16.0269 0.0000
# 2 60.9893 180.2324 74.1356 0.0000 14.1692 0.0000
# 3 51.8488 74.1356 85.8915 0.0000 9.3279 0.0000
# 4 0.0000 0.0000 0.0000 45.4732 0.0000 1.8075
# 5 16.0269 14.1692 9.3279 0.0000 34.0426 0.0000
# 6 0.0000 0.0000 0.0000 1.8075 0.0000 33.9191
#
#
#
# Elastic Compliance Matrix: (Units=1/GPa)
#
#
# Indices 1 2 3 4 5 6 
#
# 1 0.010516 -0.001307 -0.004886 0.000000 -0.003068 0.000000
# 2 -0.001307 0.008850 -0.006716 0.000000 -0.001228 0.000000
# 3 -0.004886 -0.006716 0.020444 0.000000 -0.000506 0.000000
# 4 0.000000 0.000000 0.000000 0.022038 0.000000 -0.001174
# 5 -0.003068 -0.001228 -0.000506 0.000000 0.031469 0.000000
# 6 0.000000 0.000000 0.000000 -0.001174 0.000000 0.029545
#
#
# Mechanical properties :
#
#
# Convention : Reuss Voigt Hill
#
# Bulk Modulus (GPa) = 71.47893 85.72437 78.60165
# Shear Modulus (GPa) = 32.60668 36.72685 34.66676
#
# Velocity S-wave (km/s) = 3.90701 4.14651 4.02854
# Velocity P-wave (km/s) = 7.33591 7.94080 7.64434
#
# Compressibility (1/GPa) = 0.01399014
#
# Stress axis : x y z
#
# Youngs Moduli (GPa) = 95.09771 112.99637 48.91426
#
# Poissons Ratio (x) = 0.14773 0.23900
# Poissons Ratio (y) = 0.12433 0.32851
# Poissons Ratio (z) = 0.46466 0.75889
#
# Static dielectric constant tensor:
#      x y z
#    x 2.100580 0.000000 -0.055030 
#    y 0.000000 1.767920 0.000000 
#    z -0.055030 0.000000 1.796320 
# 
# From -- ./inp_files/15319.got.cif
#   From: 2010.05.17/outbox.cif.g08.bks.cpg/sg10_8_cif.got.tgz:15319.got - 2010.06.03 11:33:40.
