data_PCOD9153517
_publ_section_title
;
Structure prediction by ZEFSAII (Michael W. Deem and Ramdas Pophale) SiO2 
 PCOD9153517
Probable space group: P 2/M
;
_chemical_formula_sum "Si O2"
_cell_formula_units_Z 17
_cell_length_a 5.166643
_cell_length_b 25.469504
_cell_length_c 4.800534
_cell_angle_alpha 90.000000
_cell_angle_beta 90.135697
_cell_angle_gamma 90.000000
_cell_volume 631.709304
_symmetry_space_group_name_H-M "P 2/M"
_symmetry_group_IT_number 10
_symmetry_cell_setting 'monoclinic'
loop_
_space_group_symop_operation_xyz
x,y,z
-x,y,-z
-x,-y,-z
x,-y,z
loop_
_atom_site_type_symbol
_atom_site_label
_atom_site_fract_x
_atom_site_fract_y
_atom_site_fract_z
Si Si1 0.748959 0.593534 0.199859
Si Si2 0.750070 0.707240 0.194956
Si Si3 0.000000 0.500000 0.500000
Si Si4 0.746703 0.822463 0.201894
Si Si5 0.294581 0.000000 0.753437
Si Si6 0.000000 0.908098 0.500000
O O1 0.793285 0.546146 0.407620
O O2 0.500000 0.587898 0.000000
O O3 0.746444 0.651019 0.344082
O O4 0.000000 0.590790 0.000000
O O5 0.500000 0.706923 0.000000
O O6 0.748410 0.764063 0.335501
O O7 0.000000 0.707100 0.000000
O O8 0.774782 0.865277 0.444203
O O9 0.500000 0.828527 0.000000
O O10 0.000000 0.828244 0.000000
O O11 0.500000 0.000000 0.500000
O O12 0.104040 0.950266 0.726207
O O13 0.500000 0.000000 0.000000
#
# Coordination Sequence:
#
# PCOD9153517 Si02
#       6
#     4   4   1   4   2   2
#     4  10  22  39  58  83 121 159 208 262 320 385
#     4   8  16  35  58  84 120 163 200 259 323 391
#     4  12  24  36  60  86 112 166 208 272 312 392
#     4  10  22  39  65  97 131 165 216 269 334 401
#     4  11  28  49  72 100 141 188 239 283 344 408
#     4  11  26  39  70  97 134 177 220 286 328 405
#
# _framework density 26.911113
#
# number of rings (size 3 to 8) (size 9 to 14) (size 15 to 20)
#    0.000    2.118    0.000    1.412    6.588    3.765 
#    0.000    0.000    0.000   16.941    0.000    0.000 
#    0.000    0.000    0.000    0.000    0.000    0.000 
#
# Total GULP energy -94722.662489 kJ/mol
# GULP energy per Si atom -5571.921323 kJ/mol
# Density = 2.684986 g / cm^3
# Si number density = 26.911113 Si / 1000 Ang^3
#
#
#
# Elastic Constant Matrix: (Units=GPa)
#
#
# Indices 1 2 3 4 5 6 
#
# 1 241.2310 36.1116 77.9786 0.0000 35.3289 0.0000
# 2 36.1116 325.6984 63.1338 0.0000 53.6774 0.0000
# 3 77.9786 63.1338 119.6711 0.0000 35.6592 0.0000
# 4 0.0000 0.0000 0.0000 -1.5612 0.0000 36.2058
# 5 35.3289 53.6774 35.6592 0.0000 89.9393 0.0000
# 6 0.0000 0.0000 0.0000 36.2058 0.0000 29.0226
#
#
#
# Elastic Compliance Matrix: (Units=1/GPa)
#
#
# Indices 1 2 3 4 5 6 
#
# 1 0.005314 0.000198 -0.003300 0.000000 -0.000897 0.000000
# 2 0.000198 0.003617 -0.001555 0.000000 -0.001620 0.000000
# 3 -0.003300 -0.001555 0.012092 0.000000 -0.002570 0.000000
# 4 0.000000 0.000000 0.000000 -0.021400 0.000000 0.026697
# 5 -0.000897 -0.001620 -0.002570 0.000000 0.013457 0.000000
# 6 0.000000 0.000000 0.000000 0.026697 0.000000 0.001151
#
#
# Mechanical properties :
#
#
# Convention : Reuss Voigt Hill
#
# Bulk Modulus (GPa) = 85.38939 115.67207 100.53073
# Shear Modulus (GPa) = 182.17376 57.43857 119.80617
#
# Velocity S-wave (km/s) = 8.23660 4.62495 6.67951
# Velocity P-wave (km/s) = 11.05687 8.46147 9.84508
#
# Compressibility (1/GPa) = 0.01171106
#
# Stress axis : x y z
#
# Youngs Moduli (GPa) = 188.18954 276.49816 82.69642
#
# Poissons Ratio (x) = -0.05485 0.27288
# Poissons Ratio (y) = -0.03733 0.12855
# Poissons Ratio (z) = 0.62098 0.42982
#
# Static dielectric constant tensor:
#      x y z
#    x 2.118870 0.000000 -0.069080 
#    y 0.000000 2.105750 0.000000 
#    z -0.069080 0.000000 2.074030 
# 
# From -- ./inp_files/1797.got.cif
#   From: 2010.05.17/outbox.cif.g08.bks.cpg/sg10_1_cif.got.tgz:1797.got - 2010.06.03 11:33:40.
