data_PCOD9153372
_publ_section_title
;
Structure prediction by ZEFSAII (Michael W. Deem and Ramdas Pophale) SiO2 
 PCOD9153372
Probable space group: P 2/M
;
_chemical_formula_sum "Si O2"
_cell_formula_units_Z 24
_cell_length_a 9.523547
_cell_length_b 13.883315
_cell_length_c 14.855611
_cell_angle_alpha 90.000000
_cell_angle_beta 139.019705
_cell_angle_gamma 90.000000
_cell_volume 1288.111514
_symmetry_space_group_name_H-M "P 2/M"
_symmetry_group_IT_number 10
_symmetry_cell_setting 'monoclinic'
loop_
_space_group_symop_operation_xyz
x,y,z
-x,y,-z
-x,-y,-z
x,-y,z
loop_
_atom_site_type_symbol
_atom_site_label
_atom_site_fract_x
_atom_site_fract_y
_atom_site_fract_z
Si Si1 0.060971 0.612336 0.632119
Si Si2 0.044901 0.113402 0.414965
Si Si3 0.272489 0.243390 0.846888
Si Si4 0.651653 0.392934 0.786113
Si Si5 0.890954 0.608318 0.089055
Si Si6 0.352656 0.281166 0.517063
O O1 0.101370 0.500000 0.659473
O O2 0.850084 0.645947 0.585243
O O3 0.000000 0.634753 0.500000
O O4 0.260430 0.675220 0.762709
O O5 0.248210 0.177364 0.484450
O O6 0.000000 0.129493 0.500000
O O7 0.853879 0.155231 0.259749
O O8 0.073697 0.000000 0.415306
O O9 0.152153 0.301834 0.867852
O O10 0.500000 0.218504 0.000000
O O11 0.552491 0.500000 0.728667
O O12 0.493182 0.314943 0.669614
O O13 0.867668 0.390651 0.830904
O O14 0.736024 0.382300 0.927908
O O15 0.852572 0.500000 0.109525
O O16 0.500000 0.284794 0.500000
#
# Coordination Sequence:
#
# PCOD9153372 Si02
#       6
#     4   4   4   4   4   4
#     4  10  22  37  52  80 125 166 200 233 268 324
#     4  10  24  46  65  82 109 143 185 242 304 362
#     4  11  22  34  58  84 110 146 188 241 281 336
#     4   9  18  32  52  79 119 161 191 219 263 327
#     4   9  19  33  49  80 123 160 187 219 267 325
#     4  11  21  34  60  88 111 148 194 243 286 333
#
# _framework density 18.631926
#
# number of rings (size 3 to 8) (size 9 to 14) (size 15 to 20)
#    0.000    2.000    0.000    6.000    4.667    4.667 
#    0.000    0.000    0.000    0.000    0.000    3.500 
#    0.000    0.000    0.000    0.000    0.000    0.000 
#
# Total GULP energy -133948.676148 kJ/mol
# GULP energy per Si atom -5581.194840 kJ/mol
# Density = 1.858952 g / cm^3
# Si number density = 18.631926 Si / 1000 Ang^3
#
#
#
# Elastic Constant Matrix: (Units=GPa)
#
#
# Indices 1 2 3 4 5 6 
#
# 1 78.7361 18.8082 30.9215 0.0000 -4.2537 0.0000
# 2 18.8082 121.0178 58.2729 0.0000 1.6698 0.0000
# 3 30.9215 58.2729 145.7624 0.0000 -2.0050 0.0000
# 4 0.0000 0.0000 0.0000 19.5261 0.0000 -12.9743
# 5 -4.2537 1.6698 -2.0050 0.0000 30.2575 0.0000
# 6 0.0000 0.0000 0.0000 -12.9743 0.0000 19.8412
#
#
#
# Elastic Compliance Matrix: (Units=1/GPa)
#
#
# Indices 1 2 3 4 5 6 
#
# 1 0.014040 -0.000973 -0.002564 0.000000 0.001858 0.000000
# 2 -0.000973 0.010322 -0.003933 0.000000 -0.000967 0.000000
# 3 -0.002564 -0.003933 0.008983 0.000000 0.000452 0.000000
# 4 0.000000 0.000000 0.000000 0.090562 0.000000 0.059219
# 5 0.001858 -0.000967 0.000452 0.000000 0.033394 0.000000
# 6 0.000000 0.000000 0.000000 0.059219 0.000000 0.089123
#
#
# Mechanical properties :
#
#
# Convention : Reuss Voigt Hill
#
# Bulk Modulus (GPa) = 54.33446 62.39127 58.36287
# Shear Modulus (GPa) = 18.69157 29.75921 24.22539
#
# Velocity S-wave (km/s) = 3.17077 4.00085 3.60975
# Velocity P-wave (km/s) = 6.52919 7.40954 6.98326
#
# Compressibility (1/GPa) = 0.01840453
#
# Stress axis : x y z
#
# Youngs Moduli (GPa) = 71.22313 96.88213 111.32080
#
# Poissons Ratio (x) = 0.09428 0.28541
# Poissons Ratio (y) = 0.06931 0.43786
# Poissons Ratio (z) = 0.18261 0.38107
#
# Static dielectric constant tensor:
#      x y z
#    x 1.696890 0.000000 -0.008760 
#    y 0.000000 1.616220 0.000000 
#    z -0.008760 0.000000 1.680700 
# 
# From -- ./inp_files/61944.got.cif
#   From: 2010.05.17/outbox.cif.g08.bks.cpg/sg10_31_cif.got.tgz:61944.got - 2010.06.03 11:33:40.
