data_PCOD9153616
_publ_section_title
;
Structure prediction by ZEFSAII (Michael W. Deem and Ramdas Pophale) SiO2 
 PCOD9153616
Probable space group: P 2/M
;
_chemical_formula_sum "Si O2"
_cell_formula_units_Z 28
_cell_length_a 25.075043
_cell_length_b 8.974633
_cell_length_c 22.774786
_cell_angle_alpha 90.000000
_cell_angle_beta 16.971050
_cell_angle_gamma 90.000000
_cell_volume 1495.993248
_symmetry_space_group_name_H-M "P 2/M"
_symmetry_group_IT_number 10
_symmetry_cell_setting 'monoclinic'
loop_
_space_group_symop_operation_xyz
x,y,z
-x,y,-z
-x,-y,-z
x,-y,z
loop_
_atom_site_type_symbol
_atom_site_label
_atom_site_fract_x
_atom_site_fract_y
_atom_site_fract_z
Si Si1 0.386609 0.322488 0.340224
Si Si2 0.627783 0.175733 0.184938
Si Si3 0.568174 0.330204 0.365774
Si Si4 0.997890 0.669794 0.936058
Si Si5 0.059533 0.824267 0.753189
Si Si6 0.548504 0.819638 0.854495
Si Si7 0.206028 0.819074 0.293977
O O1 0.387279 0.500000 0.338213
O O2 0.541474 0.262702 0.221569
O O3 0.195529 0.262709 0.567519
O O4 0.419608 0.255612 0.241205
O O5 0.535603 0.234691 0.342148
O O6 0.595209 0.000000 0.212650
O O7 0.846659 0.198945 0.960061
O O8 0.500000 0.269092 0.500000
O O9 0.497175 0.500000 0.434199
O O10 0.785731 0.339453 0.142818
O O11 0.071465 0.500000 0.859909
O O12 0.086667 0.765314 0.791086
O O13 0.000000 0.730910 0.000000
O O14 0.096972 0.000000 0.710887
O O15 0.704186 0.777362 0.738154
O O16 0.551626 0.000000 0.845128
O O17 0.353485 0.777372 0.088864
O O18 0.000000 0.765034 0.500000
O O19 0.200741 0.000000 0.299266
#
# Coordination Sequence:
#
# PCOD9153616 Si02
#       7
#     4   4   4   4   4   4   4
#     4  12  25  39  59  84 118 160 198 240 294 352
#     4  10  22  40  59  81 110 146 192 245 295 346
#     4   9  18  32  51  77 108 142 181 226 284 355
#     4   9  18  32  51  77 108 142 181 226 284 355
#     4  10  22  40  59  81 110 146 192 245 295 346
#     4   9  18  34  56  86 118 148 194 240 274 330
#     4   8  15  31  58  88 118 152 188 231 280 327
#
# _framework density 18.716660999999998
#
# number of rings (size 3 to 8) (size 9 to 14) (size 15 to 20)
#    0.000    2.429    0.000    3.000    2.000    3.429 
#    0.000    4.286    0.000    0.857    0.000    0.000 
#    0.000    0.000    0.000    0.000    0.000    0.000 
#
# Total GULP energy -156244.905654 kJ/mol
# GULP energy per Si atom -5580.175202 kJ/mol
# Density = 1.867406 g / cm^3
# Si number density = 18.716661 Si / 1000 Ang^3
#
#
#
# Elastic Constant Matrix: (Units=GPa)
#
#
# Indices 1 2 3 4 5 6 
#
# 1 158.7603 75.8614 95.8026 0.0000 31.2484 0.0000
# 2 75.8614 91.4285 59.3875 0.0000 15.5460 0.0000
# 3 95.8026 59.3875 117.4159 0.0000 7.7273 0.0000
# 4 0.0000 0.0000 0.0000 19.8388 0.0000 28.4072
# 5 31.2484 15.5460 7.7273 0.0000 37.1228 0.0000
# 6 0.0000 0.0000 0.0000 28.4072 0.0000 49.9945
#
#
#
# Elastic Compliance Matrix: (Units=1/GPa)
#
#
# Indices 1 2 3 4 5 6 
#
# 1 0.017536 -0.005920 -0.010652 0.000000 -0.010065 0.000000
# 2 -0.005920 0.019332 -0.004808 0.000000 -0.002111 0.000000
# 3 -0.010652 -0.004808 0.019180 0.000000 0.006987 0.000000
# 4 0.000000 0.000000 0.000000 0.270437 0.000000 -0.153664
# 5 -0.010065 -0.002111 0.006987 0.000000 0.034840 0.000000
# 6 0.000000 0.000000 0.000000 -0.153664 0.000000 0.107315
#
#
# Mechanical properties :
#
#
# Convention : Reuss Voigt Hill
#
# Bulk Modulus (GPa) = 75.25788 92.18974 83.72381
# Shear Modulus (GPa) = 9.69312 30.49478 20.09395
#
# Velocity S-wave (km/s) = 2.27818 4.04082 3.28012
# Velocity P-wave (km/s) = 6.87142 8.43406 7.69252
#
# Compressibility (1/GPa) = 0.01328764
#
# Stress axis : x y z
#
# Youngs Moduli (GPa) = 57.02395 51.72713 52.13824
#
# Poissons Ratio (x) = 0.30625 0.55535
# Poissons Ratio (y) = 0.33761 0.25070
# Poissons Ratio (z) = 0.60739 0.24872
#
# Static dielectric constant tensor:
#      x y z
#    x 1.636880 0.000000 -0.020360 
#    y 0.000000 1.631530 0.000000 
#    z -0.020360 0.000000 1.658420 
# 
# From -- ./inp_files/86429.got.cif
#   From: 2010.05.17/outbox.cif.g08.bks.cpg/sg10_44_cif.got.tgz:86429.got - 2010.06.03 11:33:40.
