data_PCOD9153683
_publ_section_title
;
Structure prediction by ZEFSAII (Michael W. Deem and Ramdas Pophale) SiO2 
 PCOD9153683
Probable space group: P 2/M
;
_chemical_formula_sum "Si O2"
_cell_formula_units_Z 20
_cell_length_a 24.763003
_cell_length_b 8.563499
_cell_length_c 7.678856
_cell_angle_alpha 90.000000
_cell_angle_beta 141.211219
_cell_angle_gamma 90.000000
_cell_volume 1020.089622
_symmetry_space_group_name_H-M "P 2/M"
_symmetry_group_IT_number 10
_symmetry_cell_setting 'monoclinic'
loop_
_space_group_symop_operation_xyz
x,y,z
-x,y,-z
-x,-y,-z
x,-y,z
loop_
_atom_site_type_symbol
_atom_site_label
_atom_site_fract_x
_atom_site_fract_y
_atom_site_fract_z
Si Si1 0.098980 0.811225 0.742895
Si Si2 0.778319 0.189808 0.260377
Si Si3 0.223578 0.685026 0.352538
Si Si4 0.406387 0.821993 0.807415
Si Si5 0.591945 0.821964 0.771360
O O1 0.147274 0.763807 0.686277
O O2 0.000000 0.758434 0.500000
O O3 0.099686 0.000000 0.749792
O O4 0.153782 0.751421 0.043687
O O5 0.790546 0.249368 0.487443
O O6 0.774061 0.000000 0.256884
O O7 0.684648 0.245907 0.953137
O O8 0.218921 0.500000 0.346873
O O9 0.319723 0.736006 0.534057
O O10 0.404730 0.000000 0.733482
O O11 0.500000 0.752319 0.000000
O O12 0.402517 0.830548 0.006382
O O13 0.500000 0.744721 0.500000
O O14 0.587780 0.000000 0.688827
#
# Coordination Sequence:
#
# PCOD9153683 Si02
#       5
#     4   4   4   4   4
#     4  10  22  40  64  90 112 144 197 254 300 342
#     4   9  19  37  60  83 113 150 193 245 289 340
#     4  11  23  38  57  83 123 161 189 233 292 359
#     4   9  18  32  54  81 110 149 197 242 281 333
#     4   8  14  25  46  78 106 134 178 228 278 326
#
# _framework density 19.606121000000002
#
# number of rings (size 3 to 8) (size 9 to 14) (size 15 to 20)
#    0.000    2.600    0.000    3.000    2.800    2.400 
#    0.000    4.000    0.000    2.400    0.000    0.000 
#    0.000    0.000    0.000    0.000    0.000    0.000 
#
# Total GULP energy -111519.371665 kJ/mol
# GULP energy per Si atom -5575.968583 kJ/mol
# Density = 1.956150 g / cm^3
# Si number density = 19.606121 Si / 1000 Ang^3
#
#
#
# Elastic Constant Matrix: (Units=GPa)
#
#
# Indices 1 2 3 4 5 6 
#
# 1 135.0401 23.4753 88.4706 0.0000 32.7792 0.0000
# 2 23.4753 19.0207 28.7278 0.0000 7.2367 0.0000
# 3 88.4706 28.7278 177.9603 0.0000 29.9088 0.0000
# 4 0.0000 0.0000 0.0000 -42.0734 0.0000 -18.6893
# 5 32.7792 7.2367 29.9088 0.0000 38.4293 0.0000
# 6 0.0000 0.0000 0.0000 -18.6893 0.0000 -19.2149
#
#
#
# Elastic Compliance Matrix: (Units=1/GPa)
#
#
# Indices 1 2 3 4 5 6 
#
# 1 0.012977 -0.007217 -0.004204 0.000000 -0.006438 0.000000
# 2 -0.007217 0.074389 -0.008170 0.000000 -0.001494 0.000000
# 3 -0.004204 -0.008170 0.009396 0.000000 -0.002188 0.000000
# 4 0.000000 0.000000 0.000000 -0.041849 0.000000 0.040704
# 5 -0.006438 -0.001494 -0.002188 0.000000 0.033497 0.000000
# 6 0.000000 0.000000 0.000000 0.040704 0.000000 -0.091633
#
#
# Mechanical properties :
#
#
# Convention : Reuss Voigt Hill
#
# Bulk Modulus (GPa) = 17.36707 68.15207 42.75957
# Shear Modulus (GPa) = 90.65979 8.18466 49.42222
#
# Velocity S-wave (km/s) = 6.80742 2.04539 5.02616
# Velocity P-wave (km/s) = 8.40626 6.35722 7.45249
#
# Compressibility (1/GPa) = 0.05758024
#
# Stress axis : x y z
#
# Youngs Moduli (GPa) = 77.05998 13.44290 106.42937
#
# Poissons Ratio (x) = 0.09701 0.44747
# Poissons Ratio (y) = 0.55612 0.86948
# Poissons Ratio (z) = 0.32399 0.10982
#
# Static dielectric constant tensor:
#      x y z
#    x 1.704160 0.000000 0.033680 
#    y 0.000000 1.667350 0.000000 
#    z 0.033680 0.000000 1.694940 
# 
# From -- ./inp_files/26771.got.cif
#   From: 2010.05.17/outbox.cif.g08.bks.cpg/sg10_14_cif.got.tgz:26771.got - 2010.06.03 11:33:40.
