data_PCOD9153604
_publ_section_title
;
Structure prediction by ZEFSAII (Michael W. Deem and Ramdas Pophale) SiO2 
 PCOD9153604
Probable space group: P 2/M
;
_chemical_formula_sum "Si O2"
_cell_formula_units_Z 29
_cell_length_a 21.355641
_cell_length_b 10.023284
_cell_length_c 14.625893
_cell_angle_alpha 90.000000
_cell_angle_beta 30.951597
_cell_angle_gamma 90.000000
_cell_volume 1610.175394
_symmetry_space_group_name_H-M "P 2/M"
_symmetry_group_IT_number 10
_symmetry_cell_setting 'monoclinic'
loop_
_space_group_symop_operation_xyz
x,y,z
-x,y,-z
-x,-y,-z
x,-y,z
loop_
_atom_site_type_symbol
_atom_site_label
_atom_site_fract_x
_atom_site_fract_y
_atom_site_fract_z
Si Si1 0.625644 0.658047 0.534871
Si Si2 0.291575 0.224677 0.757610
Si Si3 0.013549 0.152234 0.092662
Si Si4 0.347854 0.346779 0.871036
Si Si5 0.826644 0.659560 0.432710
Si Si6 0.162819 0.847296 0.202822
Si Si7 0.123956 0.846216 0.466892
Si Si8 0.500000 0.000000 0.500000
O O1 0.621903 0.500000 0.521935
O O2 0.692116 0.724759 0.366049
O O3 0.485703 0.703074 0.715558
O O4 0.703805 0.679631 0.527966
O O5 0.319010 0.335470 0.799521
O O6 0.394036 0.114402 0.643630
O O7 0.154834 0.171576 0.940586
O O8 0.932647 0.262961 0.244431
O O9 0.975720 0.000000 0.164146
O O10 0.000000 0.166244 0.000000
O O11 0.338881 0.500000 0.912257
O O12 0.251800 0.254887 0.043089
O O13 0.849126 0.500000 0.412446
O O14 0.819722 0.735866 0.537648
O O15 0.162336 0.830569 0.313209
O O16 0.022816 0.830855 0.346846
O O17 0.198566 0.000000 0.137114
O O18 0.151963 0.000000 0.458687
#
# Coordination Sequence:
#
# PCOD9153604 Si02
#       8
#     4   4   4   4   4   4   4   1
#     4  10  22  40  56  77 115 159 194 232 283 340
#     4  12  22  38  58  82 116 153 197 240 281 332
#     4  11  23  37  55  82 115 151 190 233 284 335
#     4  11  23  37  58  85 112 150 195 237 286 338
#     4  11  23  38  59  85 115 154 194 236 283 339
#     4   9  20  38  64  86 114 144 185 234 289 346
#     4   9  19  40  62  87 113 148 182 231 293 347
#     4  12  24  36  56  88 112 152 206 240 282 332
#
# _framework density 18.010460999999999
#
# number of rings (size 3 to 8) (size 9 to 14) (size 15 to 20)
#    0.000    1.517    3.448    2.483    0.966    5.793 
#    1.241    2.069    0.000    4.138    0.000    0.000 
#    0.000    0.000    0.000    0.000    0.000    0.000 
#
# Total GULP energy -161661.822744 kJ/mol
# GULP energy per Si atom -5574.545612 kJ/mol
# Density = 1.796947 g / cm^3
# Si number density = 18.010461 Si / 1000 Ang^3
#
#
#
# Elastic Constant Matrix: (Units=GPa)
#
#
# Indices 1 2 3 4 5 6 
#
# 1 80.7732 54.5396 23.5051 0.0000 -2.7019 0.0000
# 2 54.5396 98.7821 33.0555 0.0000 2.8039 0.0000
# 3 23.5051 33.0555 47.1556 0.0000 -8.2415 0.0000
# 4 0.0000 0.0000 0.0000 31.3951 0.0000 14.5255
# 5 -2.7019 2.8039 -8.2415 0.0000 24.4123 0.0000
# 6 0.0000 0.0000 0.0000 14.5255 0.0000 14.8550
#
#
#
# Elastic Compliance Matrix: (Units=1/GPa)
#
#
# Indices 1 2 3 4 5 6 
#
# 1 0.020198 -0.010471 -0.002260 0.000000 0.002675 0.000000
# 2 -0.010471 0.019240 -0.009411 0.000000 -0.006546 0.000000
# 3 -0.002260 -0.009411 0.030899 0.000000 0.011262 0.000000
# 4 0.000000 0.000000 0.000000 0.058167 0.000000 -0.056877
# 5 0.002675 -0.006546 0.011262 0.000000 0.045813 0.000000
# 6 0.000000 0.000000 0.000000 -0.056877 0.000000 0.122933
#
#
# Mechanical properties :
#
#
# Convention : Reuss Voigt Hill
#
# Bulk Modulus (GPa) = 38.38663 49.87903 44.13283
# Shear Modulus (GPa) = 14.27679 21.83985 18.05832
#
# Velocity S-wave (km/s) = 2.81854 3.48605 3.16991
# Velocity P-wave (km/s) = 5.65261 6.63008 6.16076
#
# Compressibility (1/GPa) = 0.02605074
#
# Stress axis : x y z
#
# Youngs Moduli (GPa) = 49.50994 51.97523 32.36396
#
# Poissons Ratio (x) = 0.54425 0.07314
# Poissons Ratio (y) = 0.51844 0.30459
# Poissons Ratio (z) = 0.11189 0.48916
#
# Static dielectric constant tensor:
#      x y z
#    x 1.628990 0.000000 0.006230 
#    y 0.000000 1.603810 0.000000 
#    z 0.006230 0.000000 1.596150 
# 
# From -- ./inp_files/70256.got.cif
#   From: 2010.05.17/outbox.cif.g08.bks.cpg/sg10_36_cif.got.tgz:70256.got - 2010.06.03 11:33:40.
