data_PCOD9153341
_publ_section_title
;
Structure prediction by ZEFSAII (Michael W. Deem and Ramdas Pophale) SiO2 
 PCOD9153341
Probable space group: P 2/M
;
_chemical_formula_sum "Si O2"
_cell_formula_units_Z 30
_cell_length_a 27.793599
_cell_length_b 10.981387
_cell_length_c 5.309443
_cell_angle_alpha 90.000000
_cell_angle_beta 59.347091
_cell_angle_gamma 90.000000
_cell_volume 1394.076253
_symmetry_space_group_name_H-M "P 2/M"
_symmetry_group_IT_number 10
_symmetry_cell_setting 'monoclinic'
loop_
_space_group_symop_operation_xyz
x,y,z
-x,y,-z
-x,-y,-z
x,-y,z
loop_
_atom_site_type_symbol
_atom_site_label
_atom_site_fract_x
_atom_site_fract_y
_atom_site_fract_z
Si Si1 0.322530 0.298298 0.238496
Si Si2 0.937267 0.648526 0.589263
Si Si3 0.771407 0.364060 0.856080
Si Si4 0.464323 0.311573 0.347114
Si Si5 0.613488 0.864719 0.251027
Si Si6 0.269115 0.861824 0.751280
Si Si7 0.633281 0.500000 0.508708
Si Si8 0.121038 0.355098 0.756811
O O1 0.290128 0.367067 0.102688
O O2 0.285213 0.184832 0.430967
O O3 0.331141 0.393077 0.436950
O O4 0.378613 0.235795 0.988487
O O5 0.935500 0.500000 0.581515
O O6 0.918065 0.692536 0.365989
O O7 0.000000 0.681968 0.500000
O O8 0.895538 0.690405 0.923130
O O9 0.783401 0.500000 0.934861
O O10 0.816207 0.343668 0.514220
O O11 0.769808 0.244976 0.033494
O O12 0.500000 0.340075 0.500000
O O13 0.438871 0.176353 0.443946
O O14 0.410058 0.395980 0.479394
O O15 0.500000 0.329635 0.000000
O O16 0.671601 0.861283 0.254649
O O17 0.607055 0.000000 0.166099
O O18 0.247597 0.000000 0.814720
O O19 0.110624 0.500000 0.799440
#
# Coordination Sequence:
#
# PCOD9153341 Si02
#       8
#     4   4   4   4   4   4   2   4
#     4  11  22  39  65  90 120 162 204 251 301 377
#     4   9  16  28  47  72 111 167 214 248 298 365
#     4  10  22  35  58  91 126 163 201 257 317 371
#     4  12  27  46  67  96 126 158 195 251 310 364
#     4  10  23  43  65  89 119 156 203 249 304 369
#     4  10  22  40  62  86 119 161 207 251 302 376
#     4  12  24  44  66  92 122 158 201 245 304 372
#     4   9  18  30  47  78 120 157 200 255 309 358
#
# _framework density 21.519625999999999
#
# number of rings (size 3 to 8) (size 9 to 14) (size 15 to 20)
#    0.000    1.733    2.000    2.000    2.800    4.267 
#    0.000    0.000    0.000    0.000    0.000    0.000 
#    0.000    3.200    0.000    0.000    0.000    0.000 
#
# Total GULP energy -167023.517775 kJ/mol
# GULP energy per Si atom -5567.450593 kJ/mol
# Density = 2.147065 g / cm^3
# Si number density = 21.519626 Si / 1000 Ang^3
#
#
#
# Elastic Constant Matrix: (Units=GPa)
#
#
# Indices 1 2 3 4 5 6 
#
# 1 63.3920 4.8618 -3.2567 0.0000 1.4101 0.0000
# 2 4.8618 121.9818 27.4287 0.0000 -1.8051 0.0000
# 3 -3.2567 27.4287 72.2148 0.0000 10.1055 0.0000
# 4 0.0000 0.0000 0.0000 3.1972 0.0000 -20.7405
# 5 1.4101 -1.8051 10.1055 0.0000 21.8030 0.0000
# 6 0.0000 0.0000 0.0000 -20.7405 0.0000 -30.0377
#
#
#
# Elastic Compliance Matrix: (Units=1/GPa)
#
#
# Indices 1 2 3 4 5 6 
#
# 1 0.015955 -0.000959 0.001325 0.000000 -0.001726 0.000000
# 2 -0.000959 0.009148 -0.003885 0.000000 0.002620 0.000000
# 3 0.001325 -0.003885 0.016511 0.000000 -0.008060 0.000000
# 4 0.000000 0.000000 0.000000 0.057083 0.000000 -0.039415
# 5 -0.001726 0.002620 -0.008060 0.000000 0.049929 0.000000
# 6 0.000000 0.000000 0.000000 -0.039415 0.000000 -0.006076
#
#
# Mechanical properties :
#
#
# Convention : Reuss Voigt Hill
#
# Bulk Modulus (GPa) = 28.92124 35.07291 31.99707
# Shear Modulus (GPa) = 31.03393 14.22950 22.63172
#
# Velocity S-wave (km/s) = 3.80165 2.57424 3.24648
# Velocity P-wave (km/s) = 5.72177 5.01688 5.38088
#
# Compressibility (1/GPa) = 0.03457666
#
# Stress axis : x y z
#
# Youngs Moduli (GPa) = 62.67658 109.30801 60.56672
#
# Poissons Ratio (x) = 0.10488 -0.08028
# Poissons Ratio (y) = 0.06014 0.23528
# Poissons Ratio (z) = -0.08307 0.42463
#
# Static dielectric constant tensor:
#      x y z
#    x 1.808620 0.000000 0.012740 
#    y 0.000000 1.740730 0.000000 
#    z 0.012740 0.000000 1.875220 
# 
# From -- ./inp_files/13713.got.cif
#   From: 2010.05.17/outbox.cif.g08.bks.cpg/sg10_7_cif.got.tgz:13713.got - 2010.06.03 11:33:40.
