data_PCOD9153971
_publ_section_title
;
Structure prediction by ZEFSAII (Michael W. Deem and Ramdas Pophale) SiO2 
 PCOD9153971
Probable space group: P 2/M
;
_chemical_formula_sum "Si O2"
_cell_formula_units_Z 15
_cell_length_a 5.115960
_cell_length_b 21.341225
_cell_length_c 5.096447
_cell_angle_alpha 90.000000
_cell_angle_beta 86.703811
_cell_angle_gamma 90.000000
_cell_volume 555.513892
_symmetry_space_group_name_H-M "P 2/M"
_symmetry_group_IT_number 10
_symmetry_cell_setting 'monoclinic'
loop_
_space_group_symop_operation_xyz
x,y,z
-x,y,-z
-x,-y,-z
x,-y,z
loop_
_atom_site_type_symbol
_atom_site_label
_atom_site_fract_x
_atom_site_fract_y
_atom_site_fract_z
Si Si1 0.231358 0.756292 0.683176
Si Si2 0.500000 0.664845 0.000000
Si Si3 0.500000 0.000000 0.000000
Si Si4 0.183895 0.427047 0.731520
Si Si5 0.767216 0.902332 0.318031
O O1 0.500000 0.750120 0.500000
O O2 0.273113 0.714418 0.938510
O O3 0.200252 0.829395 0.753092
O O4 0.000000 0.737861 0.500000
O O5 0.437153 0.615230 0.773020
O O6 0.288963 0.054550 0.924528
O O7 0.256426 0.500000 0.700753
O O8 0.000000 0.409036 0.500000
O O9 0.000000 0.420933 0.000000
O O10 0.500000 0.910439 0.500000
O O11 0.000000 0.921042 0.500000
#
# Coordination Sequence:
#
# PCOD9153971 Si02
#       5
#     4   2   1   4   4
#     4  10  24  43  64  93 134 174 221 280 344 408
#     4  12  24  36  68  94 130 172 232 280 342 416
#     4  12  22  38  68  94 124 174 222 274 332 402
#     4  10  24  44  66  97 138 180 228 288 352 417
#     4  10  23  42  61  92 131 170 218 275 334 401
#
# _framework density 27.002023999999999
#
# number of rings (size 3 to 8) (size 9 to 14) (size 15 to 20)
#    0.000    1.600    0.000    2.800    7.467    2.133 
#    0.000   12.000    0.000    0.000    0.000    0.000 
#    0.000    0.000    0.000    0.000    0.000    0.000 
#
# Total GULP energy -83752.859558 kJ/mol
# GULP energy per Si atom -5583.523971 kJ/mol
# Density = 2.694057 g / cm^3
# Si number density = 27.002024 Si / 1000 Ang^3
#
#
#
# Elastic Constant Matrix: (Units=GPa)
#
#
# Indices 1 2 3 4 5 6 
#
# 1 186.7336 39.3790 102.4234 0.0000 53.4868 0.0000
# 2 39.3790 209.0691 87.3164 0.0000 71.0788 0.0000
# 3 102.4234 87.3164 208.0843 0.0000 63.9227 0.0000
# 4 0.0000 0.0000 0.0000 49.3656 0.0000 46.8749
# 5 53.4868 71.0788 63.9227 0.0000 86.5242 0.0000
# 6 0.0000 0.0000 0.0000 46.8749 0.0000 21.9222
#
#
#
# Elastic Compliance Matrix: (Units=1/GPa)
#
#
# Indices 1 2 3 4 5 6 
#
# 1 0.007889 0.001001 -0.003302 0.000000 -0.003260 0.000000
# 2 0.001001 0.007113 -0.001931 0.000000 -0.005036 0.000000
# 3 -0.003302 -0.001931 0.007926 0.000000 -0.002228 0.000000
# 4 0.000000 0.000000 0.000000 -0.019660 0.000000 0.042038
# 5 -0.003260 -0.005036 -0.002228 0.000000 0.019356 0.000000
# 6 0.000000 0.000000 0.000000 0.042038 0.000000 -0.044272
#
#
# Mechanical properties :
#
#
# Convention : Reuss Voigt Hill
#
# Bulk Modulus (GPa) = 69.13095 118.01382 93.57238
# Shear Modulus (GPa) = -597.70761 56.54697 -270.58032
#
# Velocity S-wave (km/s) = -14.89420 4.58118 -10.02123
# Velocity P-wave (km/s) = 16.43548 8.47251 9.95846
#
# Compressibility (1/GPa) = 0.01446530
#
# Stress axis : x y z
#
# Youngs Moduli (GPa) = 126.76111 140.58970 126.17353
#
# Poissons Ratio (x) = -0.14079 0.41660
# Poissons Ratio (y) = -0.12694 0.24359
# Poissons Ratio (z) = 0.41854 0.27142
#
# Static dielectric constant tensor:
#      x y z
#    x 2.002080 0.000000 -0.208860 
#    y 0.000000 2.056860 0.000000 
#    z -0.208860 0.000000 2.156570 
# 
# From -- ./inp_files/1082.got.cif
#   From: 2010.05.17/outbox.cif.g08.bks.cpg/sg10_1_cif.got.tgz:1082.got - 2010.06.03 11:33:40.
