data_PCOD9153067
_publ_section_title
;
Structure prediction by ZEFSAII (Michael W. Deem and Ramdas Pophale) SiO2 
 PCOD9153067
Probable space group: P 2/M
;
_chemical_formula_sum "Si O2"
_cell_formula_units_Z 26
_cell_length_a 7.569853
_cell_length_b 9.542309
_cell_length_c 19.358638
_cell_angle_alpha 90.000000
_cell_angle_beta 56.358783
_cell_angle_gamma 90.000000
_cell_volume 1164.157994
_symmetry_space_group_name_H-M "P 2/M"
_symmetry_group_IT_number 10
_symmetry_cell_setting 'monoclinic'
loop_
_space_group_symop_operation_xyz
x,y,z
-x,y,-z
-x,-y,-z
x,-y,z
loop_
_atom_site_type_symbol
_atom_site_label
_atom_site_fract_x
_atom_site_fract_y
_atom_site_fract_z
Si Si1 0.620244 0.659992 0.124816
Si Si2 0.964354 0.342745 0.426690
Si Si3 0.053825 0.657854 0.817135
Si Si4 0.256571 0.841327 0.029731
Si Si5 0.699747 0.161899 0.722451
Si Si6 0.350659 0.152695 0.675778
Si Si7 0.500000 0.746662 0.500000
O O1 0.575317 0.500000 0.112406
O O2 0.776399 0.652872 0.156751
O O3 0.738571 0.747564 0.040127
O O4 0.412033 0.743973 0.194843
O O5 0.049029 0.500000 0.395516
O O6 0.714277 0.338431 0.467142
O O7 0.000000 0.310512 0.500000
O O8 0.088130 0.231914 0.352879
O O9 0.980333 0.500000 0.819062
O O10 0.181833 0.725686 0.726398
O O11 0.874424 0.761059 0.883512
O O12 0.176979 0.000000 0.035608
O O13 0.500000 0.849296 0.000000
O O14 0.534253 0.163473 0.693817
O O15 0.726913 0.000000 0.738069
O O16 0.454133 0.165766 0.578698
O O17 0.248085 0.000000 0.706599
#
# Coordination Sequence:
#
# PCOD9153067 Si02
#       7
#     4   4   4   4   4   4   2
#     4  10  21  39  65  95 125 162 208 256 312 374
#     4  11  24  42  64  91 126 167 213 267 322 382
#     4  10  22  40  64  92 124 162 208 260 312 374
#     4  11  24  40  60  89 126 165 208 257 311 373
#     4  10  21  40  65  93 126 167 211 260 319 381
#     4  10  22  40  64  93 126 164 210 263 321 383
#     4  12  24  42  66  98 126 170 218 270 324 388
#
# _framework density 22.333739000000001
#
# number of rings (size 3 to 8) (size 9 to 14) (size 15 to 20)
#    0.000    1.538    1.538    2.769    0.000    9.538 
#    0.000    0.000    0.000    0.000    0.000    0.000 
#    0.000    0.000    0.000    0.000    0.000    0.000 
#
# Total GULP energy -145491.110779 kJ/mol
# GULP energy per Si atom -5595.811953 kJ/mol
# Density = 2.228291 g / cm^3
# Si number density = 22.333739 Si / 1000 Ang^3
#
#
#
# Elastic Constant Matrix: (Units=GPa)
#
#
# Indices 1 2 3 4 5 6 
#
# 1 59.7551 29.6758 20.7224 0.0000 -6.2840 0.0000
# 2 29.6758 192.0569 78.3389 0.0000 -15.2476 0.0000
# 3 20.7224 78.3389 124.8864 0.0000 -12.1428 0.0000
# 4 0.0000 0.0000 0.0000 11.6017 0.0000 -25.9806
# 5 -6.2840 -15.2476 -12.1428 0.0000 40.6271 0.0000
# 6 0.0000 0.0000 0.0000 -25.9806 0.0000 1.1459
#
#
#
# Elastic Compliance Matrix: (Units=1/GPa)
#
#
# Indices 1 2 3 4 5 6 
#
# 1 0.018492 -0.002072 -0.001613 0.000000 0.001600 0.000000
# 2 -0.002072 0.007302 -0.004121 0.000000 0.001188 0.000000
# 3 -0.001613 -0.004121 0.011005 0.000000 0.001493 0.000000
# 4 0.000000 0.000000 0.000000 -0.001732 0.000000 -0.039264
# 5 0.001600 0.001188 0.001493 0.000000 0.025754 0.000000
# 6 0.000000 0.000000 0.000000 -0.039264 0.000000 -0.017533
#
#
# Mechanical properties :
#
#
# Convention : Reuss Voigt Hill
#
# Bulk Modulus (GPa) = 47.19963 70.46364 58.83164
# Shear Modulus (GPa) = 75.79976 27.20569 51.50273
#
# Velocity S-wave (km/s) = 5.83209 3.49398 4.80734
# Velocity P-wave (km/s) = 8.15663 6.92069 7.56395
#
# Compressibility (1/GPa) = 0.02118660
#
# Stress axis : x y z
#
# Youngs Moduli (GPa) = 54.07813 136.94179 90.86591
#
# Poissons Ratio (x) = 0.28379 0.14655
# Poissons Ratio (y) = 0.11207 0.37448
# Poissons Ratio (z) = 0.08722 0.56437
#
# Static dielectric constant tensor:
#      x y z
#    x 1.851850 0.000000 0.014540 
#    y 0.000000 1.808590 0.000000 
#    z 0.014540 0.000000 1.769450 
# 
# From -- ./inp_files/82183.got.cif
#   From: 2010.05.17/outbox.cif.g08.bks.cpg/sg10_42_cif.got.tgz:82183.got - 2010.06.03 11:33:40.
