data_PCOD9153140
_publ_section_title
;
Structure prediction by ZEFSAII (Michael W. Deem and Ramdas Pophale) SiO2 
 PCOD9153140
Probable space group: P 2/M
;
_chemical_formula_sum "Si O2"
_cell_formula_units_Z 30
_cell_length_a 5.206067
_cell_length_b 21.399515
_cell_length_c 11.280105
_cell_angle_alpha 90.000000
_cell_angle_beta 94.246216
_cell_angle_gamma 90.000000
_cell_volume 1253.236635
_symmetry_space_group_name_H-M "P 2/M"
_symmetry_group_IT_number 10
_symmetry_cell_setting 'monoclinic'
loop_
_space_group_symop_operation_xyz
x,y,z
-x,y,-z
-x,-y,-z
x,-y,z
loop_
_atom_site_type_symbol
_atom_site_label
_atom_site_fract_x
_atom_site_fract_y
_atom_site_fract_z
Si Si1 0.547146 0.573067 0.247885
Si Si2 0.844694 0.750801 0.328254
Si Si3 0.555311 0.308514 0.869493
Si Si4 0.929508 0.381401 0.627760
Si Si5 0.827397 0.930874 0.613410
Si Si6 0.500000 0.824682 0.500000
Si Si7 0.812497 0.066993 0.878124
Si Si8 0.879780 0.196780 0.866117
O O1 0.515104 0.500000 0.228927
O O2 0.444773 0.617468 0.139646
O O3 0.846223 0.589244 0.282112
O O4 0.355116 0.596925 0.345595
O O5 0.638955 0.717035 0.235460
O O6 0.034444 0.693839 0.370002
O O7 0.700401 0.781858 0.434793
O O8 0.955615 0.805790 0.248899
O O9 0.805506 0.269297 0.850637
O O10 0.500000 0.288209 0.000000
O O11 0.000000 0.404196 0.500000
O O12 0.636355 0.872395 0.595355
O O13 0.943696 0.933614 0.751225
O O14 0.000000 0.925302 0.500000
O O15 0.701900 0.000000 0.600054
O O16 0.688362 0.136693 0.868884
O O17 0.667252 0.000000 0.880205
O O18 0.000000 0.066887 0.000000
O O19 0.000000 0.194835 0.000000
#
# Coordination Sequence:
#
# PCOD9153140 Si02
#       8
#     4   4   4   4   4   2   4   4
#     4  11  25  45  70 102 137 179 232 288 353 424
#     4  11  25  39  63  99 132 179 225 289 352 414
#     4  11  23  42  66  95 134 170 228 283 344 422
#     4  11  25  43  68  98 140 185 232 287 348 421
#     4  10  21  40  63  90 133 183 231 292 363 436
#     4  12  25  38  64 102 137 176 234 296 352 432
#     4   9  19  35  60  92 127 170 225 286 349 420
#     4  11  20  39  66  91 127 178 228 281 351 419
#
# _framework density 23.938019000000001
#
# number of rings (size 3 to 8) (size 9 to 14) (size 15 to 20)
#    0.000    1.333    2.667    2.600    3.733    3.467 
#    0.000    0.667    0.000    4.000    0.000    0.000 
#    0.000    0.000    0.000    0.000    0.000    0.000 
#
# Total GULP energy -167056.776913 kJ/mol
# GULP energy per Si atom -5568.559230 kJ/mol
# Density = 2.388353 g / cm^3
# Si number density = 23.938019 Si / 1000 Ang^3
#
#
#
# Elastic Constant Matrix: (Units=GPa)
#
#
# Indices 1 2 3 4 5 6 
#
# 1 35.7576 26.3875 15.3246 0.0000 -6.1443 0.0000
# 2 26.3875 203.5534 16.4316 0.0000 6.6488 0.0000
# 3 15.3246 16.4316 125.4579 0.0000 -1.8135 0.0000
# 4 0.0000 0.0000 0.0000 34.6156 0.0000 -28.3000
# 5 -6.1443 6.6488 -1.8135 0.0000 29.0748 0.0000
# 6 0.0000 0.0000 0.0000 -28.3000 0.0000 61.3929
#
#
#
# Elastic Compliance Matrix: (Units=1/GPa)
#
#
# Indices 1 2 3 4 5 6 
#
# 1 0.034071 -0.004398 -0.003470 0.000000 0.007989 0.000000
# 2 -0.004398 0.005573 -0.000225 0.000000 -0.002218 0.000000
# 3 -0.003470 -0.000225 0.008422 0.000000 -0.000157 0.000000
# 4 0.000000 0.000000 0.000000 0.046360 0.000000 0.021370
# 5 0.007989 -0.002218 -0.000157 0.000000 0.036580 0.000000
# 6 0.000000 0.000000 0.000000 0.021370 0.000000 0.026140
#
#
# Mechanical properties :
#
#
# Convention : Reuss Voigt Hill
#
# Bulk Modulus (GPa) = 31.36658 53.45068 42.40863
# Shear Modulus (GPa) = 27.17997 45.45835 36.31916
#
# Velocity S-wave (km/s) = 3.37327 4.36248 3.89937
# Velocity P-wave (km/s) = 5.32012 6.91030 6.16668
#
# Compressibility (1/GPa) = 0.03188106
#
# Stress axis : x y z
#
# Youngs Moduli (GPa) = 29.35006 179.42374 118.73821
#
# Poissons Ratio (x) = 0.78904 0.41206
# Poissons Ratio (y) = 0.12907 0.02670
# Poissons Ratio (z) = 0.10185 0.04034
#
# Static dielectric constant tensor:
#      x y z
#    x 1.993800 0.000000 -0.040890 
#    y 0.000000 2.009360 0.000000 
#    z -0.040890 0.000000 1.910120 
# 
# From -- ./inp_files/39750.got.cif
#   From: 2010.05.17/outbox.cif.g08.bks.cpg/sg10_20_cif.got.tgz:39750.got - 2010.06.03 11:33:40.
