data_PCOD9153456
_publ_section_title
;
Structure prediction by ZEFSAII (Michael W. Deem and Ramdas Pophale) SiO2 
 PCOD9153456
Probable space group: P 2/M
;
_chemical_formula_sum "Si O2"
_cell_formula_units_Z 25
_cell_length_a 11.277001
_cell_length_b 21.879448
_cell_length_c 13.797315
_cell_angle_alpha 90.000000
_cell_angle_beta 19.557919
_cell_angle_gamma 90.000000
_cell_volume 1139.613481
_symmetry_space_group_name_H-M "P 2/M"
_symmetry_group_IT_number 10
_symmetry_cell_setting 'monoclinic'
loop_
_space_group_symop_operation_xyz
x,y,z
-x,y,-z
-x,-y,-z
x,-y,z
loop_
_atom_site_type_symbol
_atom_site_label
_atom_site_fract_x
_atom_site_fract_y
_atom_site_fract_z
Si Si1 0.446887 0.326352 0.360170
Si Si2 0.005222 0.852883 0.783624
Si Si3 0.500000 0.758332 0.500000
Si Si4 0.053830 0.405799 0.133516
Si Si5 0.898311 0.235284 0.687160
Si Si6 0.638937 0.071185 0.215470
Si Si7 0.422885 0.500000 0.171247
Si Si8 0.000000 0.500000 0.000000
O O1 0.561220 0.284081 0.360691
O O2 0.774505 0.344923 0.041858
O O3 0.168090 0.287706 0.512909
O O4 0.251741 0.386328 0.556113
O O5 0.170532 0.801715 0.727176
O O6 0.311952 0.902183 0.527101
O O7 0.914754 0.819173 0.753172
O O8 0.691444 0.887100 0.080268
O O9 0.375768 0.442548 0.935902
O O10 0.937248 0.447108 0.132883
O O11 0.000000 0.216375 0.500000
O O12 0.500000 0.260043 0.000000
O O13 0.588965 0.000000 0.231187
O O14 0.000000 0.076858 0.000000
O O15 0.000000 0.500000 0.500000
O O16 0.500000 0.500000 0.000000
#
# Coordination Sequence:
#
# PCOD9153456 Si02
#       8
#     4   4   2   4   4   4   2   1
#     4  11  24  39  63  89 121 152 198 249 297 361
#     4  11  22  39  62  89 127 161 200 254 301 368
#     4  10  22  38  59  91 120 154 192 238 308 356
#     4  11  24  41  61  89 116 158 192 243 303 353
#     4  11  24  42  63  89 121 166 211 251 305 359
#     4  11  21  36  61  95 128 159 199 250 310 364
#     4  11  24  41  62  85 112 149 196 242 290 345
#     4  10  24  42  64  86 128 156 200 236 302 396
#
# _framework density 21.937263000000002
#
# number of rings (size 3 to 8) (size 9 to 14) (size 15 to 20)
#    0.000    1.120    1.600    4.320    0.000   12.800 
#    0.000    0.000    0.000    9.600    0.000    0.000 
#    0.000    0.000    0.000    0.000    0.000    0.000 
#
# Total GULP energy -139764.826239 kJ/mol
# GULP energy per Si atom -5590.593050 kJ/mol
# Density = 2.188733 g / cm^3
# Si number density = 21.937263 Si / 1000 Ang^3
#
#
#
# Elastic Constant Matrix: (Units=GPa)
#
#
# Indices 1 2 3 4 5 6 
#
# 1 120.9885 35.1249 18.4177 0.0000 4.3715 0.0000
# 2 35.1249 85.5660 4.1085 0.0000 -4.4300 0.0000
# 3 18.4177 4.1085 82.2901 0.0000 4.7201 0.0000
# 4 0.0000 0.0000 0.0000 -14.5094 0.0000 -1.7631
# 5 4.3715 -4.4300 4.7201 0.0000 30.5413 0.0000
# 6 0.0000 0.0000 0.0000 -1.7631 0.0000 24.2664
#
#
#
# Elastic Compliance Matrix: (Units=1/GPa)
#
#
# Indices 1 2 3 4 5 6 
#
# 1 0.009779 -0.004011 -0.001891 0.000000 -0.001689 0.000000
# 2 -0.004011 0.013460 0.000081 0.000000 0.002514 0.000000
# 3 -0.001891 0.000081 0.012667 0.000000 -0.001675 0.000000
# 4 0.000000 0.000000 0.000000 -0.068318 0.000000 -0.004964
# 5 -0.001689 0.002514 -0.001675 0.000000 0.033608 0.000000
# 6 0.000000 0.000000 0.000000 -0.004964 0.000000 0.040849
#
#
# Mechanical properties :
#
#
# Convention : Reuss Voigt Hill
#
# Bulk Modulus (GPa) = 41.21308 44.90522 43.05915
# Shear Modulus (GPa) = 80.94009 23.47254 52.20631
#
# Velocity S-wave (km/s) = 6.08081 3.27461 4.88361
# Velocity P-wave (km/s) = 8.25404 5.90015 7.17429
#
# Compressibility (1/GPa) = 0.02426414
#
# Stress axis : x y z
#
# Youngs Moduli (GPa) = 102.26412 74.29675 78.94227
#
# Poissons Ratio (x) = 0.29799 0.14932
# Poissons Ratio (y) = 0.41016 -0.00643
# Poissons Ratio (z) = 0.19343 -0.00605
#
# Static dielectric constant tensor:
#      x y z
#    x 1.801070 0.000000 -0.020480 
#    y 0.000000 1.822310 0.000000 
#    z -0.020480 0.000000 1.769170 
# 
# From -- ./inp_files/65480.got.cif
#   From: 2010.05.17/outbox.cif.g08.bks.cpg/sg10_33_cif.got.tgz:65480.got - 2010.06.03 11:33:40.
