data_PCOD9153698
_publ_section_title
;
Structure prediction by ZEFSAII (Michael W. Deem and Ramdas Pophale) SiO2 
 PCOD9153698
Probable space group: P 2/M
;
_chemical_formula_sum "Si O2"
_cell_formula_units_Z 26
_cell_length_a 14.228415
_cell_length_b 15.699741
_cell_length_c 9.505611
_cell_angle_alpha 90.000000
_cell_angle_beta 43.308180
_cell_angle_gamma 90.000000
_cell_volume 1456.478034
_symmetry_space_group_name_H-M "P 2/M"
_symmetry_group_IT_number 10
_symmetry_cell_setting 'monoclinic'
loop_
_space_group_symop_operation_xyz
x,y,z
-x,y,-z
-x,-y,-z
x,-y,z
loop_
_atom_site_type_symbol
_atom_site_label
_atom_site_fract_x
_atom_site_fract_y
_atom_site_fract_z
Si Si1 0.500000 0.805433 0.000000
Si Si2 0.267906 0.171853 0.477446
Si Si3 0.374056 0.000000 0.834579
Si Si4 0.007698 0.260698 0.330929
Si Si5 0.650063 0.286014 0.348443
Si Si6 0.696859 0.000000 0.407240
Si Si7 0.695411 0.814748 0.020728
Si Si8 0.103282 0.595998 0.017091
O O1 0.615640 0.844907 0.768414
O O2 0.603395 0.765286 0.004555
O O3 0.321810 0.240733 0.533297
O O4 0.242142 0.084917 0.590382
O O5 0.128565 0.209741 0.564647
O O6 0.534987 0.000000 0.622409
O O7 0.295415 0.000000 0.770195
O O8 0.337554 0.085580 0.957394
O O9 0.144433 0.203576 0.168177
O O10 0.000000 0.287391 0.500000
O O11 0.033423 0.343052 0.207453
O O12 0.500000 0.324962 0.500000
O O13 0.763225 0.354763 0.183963
O O14 0.653911 0.213676 0.222686
O O15 0.132524 0.500000 0.035122
O O16 0.000000 0.591044 0.000000
#
# Coordination Sequence:
#
# PCOD9153698 Si02
#       8
#     2   4   2   4   4   2   4   4
#     4  12  22  37  58  88 121 154 206 242 297 346
#     4  12  23  39  59  89 117 164 201 249 291 342
#     4  11  20  37  56  83 117 156 209 252 287 340
#     4  11  24  42  60  88 125 155 192 240 305 362
#     4  11  20  38  63  88 118 155 202 244 290 344
#     4  11  22  35  60  81 119 158 209 248 297 330
#     4  11  23  36  59  87 115 159 205 246 286 347
#     4  10  22  40  65  93 116 150 196 241 294 363
#
# _framework density 17.851281
#
# number of rings (size 3 to 8) (size 9 to 14) (size 15 to 20)
#    0.000    0.923    7.692    0.000    0.000    2.462 
#    0.000    1.538    0.000    0.000    0.000    4.308 
#    0.000    0.000    0.000    0.000    0.000    0.000 
#
# Total GULP energy -144947.809676 kJ/mol
# GULP energy per Si atom -5574.915757 kJ/mol
# Density = 1.781065 g / cm^3
# Si number density = 17.851281 Si / 1000 Ang^3
#
#
#
# Elastic Constant Matrix: (Units=GPa)
#
#
# Indices 1 2 3 4 5 6 
#
# 1 128.1427 36.0010 45.7275 0.0000 -3.8492 0.0000
# 2 36.0010 106.0606 29.8976 0.0000 -6.5283 0.0000
# 3 45.7275 29.8976 89.8670 0.0000 1.3215 0.0000
# 4 0.0000 0.0000 0.0000 8.9426 0.0000 1.9064
# 5 -3.8492 -6.5283 1.3215 0.0000 35.0195 0.0000
# 6 0.0000 0.0000 0.0000 1.9064 0.0000 18.6748
#
#
#
# Elastic Compliance Matrix: (Units=1/GPa)
#
#
# Indices 1 2 3 4 5 6 
#
# 1 0.009988 -0.002097 -0.004398 0.000000 0.000873 0.000000
# 2 -0.002097 0.010997 -0.002620 0.000000 0.001918 0.000000
# 3 -0.004398 -0.002620 0.014259 0.000000 -0.001510 0.000000
# 4 0.000000 0.000000 0.000000 0.114312 0.000000 -0.011669
# 5 0.000873 0.001918 -0.001510 0.000000 0.029066 0.000000
# 6 0.000000 0.000000 0.000000 -0.011669 0.000000 0.054739
#
#
# Mechanical properties :
#
#
# Convention : Reuss Voigt Hill
#
# Bulk Modulus (GPa) = 58.76974 60.81363 59.79169
# Shear Modulus (GPa) = 19.43542 26.69033 23.06288
#
# Velocity S-wave (km/s) = 3.30319 3.87091 3.59826
# Velocity P-wave (km/s) = 6.89503 7.35659 7.12954
#
# Compressibility (1/GPa) = 0.01701556
#
# Stress axis : x y z
#
# Youngs Moduli (GPa) = 100.11534 90.93434 70.13127
#
# Poissons Ratio (x) = 0.19070 0.30841
# Poissons Ratio (y) = 0.20995 0.18372
# Poissons Ratio (z) = 0.44027 0.23822
#
# Static dielectric constant tensor:
#      x y z
#    x 1.623670 0.000000 -0.003450 
#    y 0.000000 1.587020 0.000000 
#    z -0.003450 0.000000 1.633320 
# 
# From -- ./inp_files/19670.got.cif
#   From: 2010.05.17/outbox.cif.g08.bks.cpg/sg10_10_cif.got.tgz:19670.got - 2010.06.03 11:33:40.
