data_PCOD9153266
_publ_section_title
;
Structure prediction by ZEFSAII (Michael W. Deem and Ramdas Pophale) SiO2 
 PCOD9153266
Probable space group: P 2/M
;
_chemical_formula_sum "Si O2"
_cell_formula_units_Z 16
_cell_length_a 4.838868
_cell_length_b 18.098900
_cell_length_c 9.572845
_cell_angle_alpha 90.000000
_cell_angle_beta 44.551509
_cell_angle_gamma 90.000000
_cell_volume 588.160334
_symmetry_space_group_name_H-M "P 2/M"
_symmetry_group_IT_number 10
_symmetry_cell_setting 'monoclinic'
loop_
_space_group_symop_operation_xyz
x,y,z
-x,y,-z
-x,-y,-z
x,-y,z
loop_
_atom_site_type_symbol
_atom_site_label
_atom_site_fract_x
_atom_site_fract_y
_atom_site_fract_z
Si Si1 0.249425 0.820644 0.500432
Si Si2 0.943869 0.916440 0.856173
Si Si3 0.535655 0.580846 0.651015
Si Si4 0.425665 0.273637 0.863992
O O1 0.500000 0.756542 0.500000
O O2 0.246404 0.778799 0.327953
O O3 0.000000 0.884691 0.500000
O O4 0.251518 0.861755 0.670674
O O5 0.971034 0.000000 0.790255
O O6 0.500000 0.887925 0.000000
O O7 0.000000 0.921170 0.000000
O O8 0.500000 0.592472 0.500000
O O9 0.360542 0.500000 0.749920
O O10 0.403576 0.648567 0.793731
O O11 0.000000 0.576848 0.500000
O O12 0.500000 0.283721 0.000000
O O13 0.000000 0.236985 0.000000
#
# Coordination Sequence:
#
# PCOD9153266 Si02
#       4
#     4   4   4   4
#     4  12  26  43  68  98 136 178 222 275 340 399
#     4  10  23  45  73 103 132 167 219 283 348 411
#     4  10  21  41  68  96 129 174 229 287 344 397
#     4  12  26  43  65  97 139 185 232 275 324 397
#
# _framework density 27.203467
#
# number of rings (size 3 to 8) (size 9 to 14) (size 15 to 20)
#    0.000    1.000    0.000    6.000    0.000    8.000 
#    0.000    0.000    0.000    1.500    0.000    0.000 
#    0.000    0.000    0.000    0.000    0.000    0.000 
#
# Total GULP energy -89357.532612 kJ/mol
# GULP energy per Si atom -5584.845788 kJ/mol
# Density = 2.714155 g / cm^3
# Si number density = 27.203467 Si / 1000 Ang^3
#
#
#
# Elastic Constant Matrix: (Units=GPa)
#
#
# Indices 1 2 3 4 5 6 
#
# 1 313.7737 18.6820 79.5414 0.0000 44.6118 0.0000
# 2 18.6820 210.5650 114.5766 0.0000 2.1751 0.0000
# 3 79.5414 114.5766 234.9412 0.0000 1.2006 0.0000
# 4 0.0000 0.0000 0.0000 48.0032 0.0000 6.2513
# 5 44.6118 2.1751 1.2006 0.0000 64.4367 0.0000
# 6 0.0000 0.0000 0.0000 6.2513 0.0000 29.9566
#
#
#
# Elastic Compliance Matrix: (Units=1/GPa)
#
#
# Indices 1 2 3 4 5 6 
#
# 1 0.003943 0.000541 -0.001585 0.000000 -0.002719 0.000000
# 2 0.000541 0.006540 -0.003370 0.000000 -0.000532 0.000000
# 3 -0.001585 -0.003370 0.006431 0.000000 0.001091 0.000000
# 4 0.000000 0.000000 0.000000 0.021414 0.000000 -0.004469
# 5 -0.002719 -0.000532 0.001091 0.000000 0.017399 0.000000
# 6 0.000000 0.000000 0.000000 -0.004469 0.000000 0.034314
#
#
# Mechanical properties :
#
#
# Convention : Reuss Voigt Hill
#
# Bulk Modulus (GPa) = 123.66909 131.65333 127.66121
# Shear Modulus (GPa) = 49.22974 64.91129 57.07051
#
# Velocity S-wave (km/s) = 4.25866 4.89011 4.58527
# Velocity P-wave (km/s) = 8.35111 8.96578 8.66389
#
# Compressibility (1/GPa) = 0.00808609
#
# Stress axis : x y z
#
# Youngs Moduli (GPa) = 253.60920 152.89681 155.50290
#
# Poissons Ratio (x) = -0.08264 0.24642
# Poissons Ratio (y) = -0.13708 0.52403
# Poissons Ratio (z) = 0.40189 0.51525
#
# Static dielectric constant tensor:
#      x y z
#    x 2.500020 0.000000 -0.013670 
#    y 0.000000 2.095760 0.000000 
#    z -0.013670 0.000000 2.254530 
# 
# From -- ./inp_files/15087.got.cif
#   From: 2010.05.17/outbox.cif.g08.bks.cpg/sg10_8_cif.got.tgz:15087.got - 2010.06.03 11:33:40.
