data_PCOD9153899
_publ_section_title
;
Structure prediction by ZEFSAII (Michael W. Deem and Ramdas Pophale) SiO2 
 PCOD9153899
Probable space group: P 2/M
;
_chemical_formula_sum "Si O2"
_cell_formula_units_Z 28
_cell_length_a 11.811967
_cell_length_b 8.144066
_cell_length_c 14.257061
_cell_angle_alpha 90.000000
_cell_angle_beta 118.452368
_cell_angle_gamma 90.000000
_cell_volume 1205.834927
_symmetry_space_group_name_H-M "P 2/M"
_symmetry_group_IT_number 10
_symmetry_cell_setting 'monoclinic'
loop_
_space_group_symop_operation_xyz
x,y,z
-x,y,-z
-x,-y,-z
x,-y,z
loop_
_atom_site_type_symbol
_atom_site_label
_atom_site_fract_x
_atom_site_fract_y
_atom_site_fract_z
Si Si1 0.409365 0.000000 0.058474
Si Si2 0.086633 0.185270 0.296290
Si Si3 0.239288 0.319755 0.192292
Si Si4 0.217438 0.696620 0.537244
Si Si5 0.835907 0.304980 0.276287
Si Si6 0.496964 0.804217 0.386868
Si Si7 0.462907 0.319548 0.875999
Si Si8 0.844805 0.000000 0.954703
O O1 0.456565 0.165489 0.128803
O O2 0.253560 0.000000 0.992804
O O3 0.500000 0.000000 0.000000
O O4 0.140909 0.307410 0.240715
O O5 0.153985 0.220593 0.422249
O O6 0.935874 0.209109 0.252630
O O7 0.118165 0.000000 0.279032
O O8 0.232004 0.500000 0.144873
O O9 0.378112 0.288332 0.293492
O O10 0.199472 0.168792 0.111533
O O11 0.207690 0.500000 0.523784
O O12 0.152369 0.743115 0.609972
O O13 0.366774 0.747030 0.600299
O O14 0.864540 0.500000 0.280695
O O15 0.687944 0.282137 0.190233
O O16 0.500000 0.771322 0.500000
O O17 0.480765 0.000000 0.368345
O O18 0.484959 0.500000 0.841205
O O19 0.500000 0.333851 0.000000
O O20 0.000000 0.000000 0.000000
#
# Coordination Sequence:
#
# PCOD9153899 Si02
#       8
#     2   4   4   4   4   4   4   2
#     4  10  24  46  76 107 136 180 228 287 360 420
#     4  12  24  42  64  95 138 187 241 292 356 438
#     4  12  26  47  74 104 142 192 240 293 364 435
#     4  11  23  38  61  95 137 185 237 294 361 437
#     4  10  23  39  60  95 136 181 236 298 362 435
#     4  11  22  39  66 100 138 181 239 296 355 429
#     4   9  20  41  68 101 137 177 232 291 351 423
#     4  12  30  54  77 113 152 187 243 309 361 436
#
# _framework density 23.220424999999999
#
# number of rings (size 3 to 8) (size 9 to 14) (size 15 to 20)
#    0.000    1.143    2.857    2.571    3.000    6.571 
#    0.000    1.429    0.000    0.000    0.000    0.000 
#    0.000    0.000    0.000    0.000    0.000    0.000 
#
# Total GULP energy -156683.009379 kJ/mol
# GULP energy per Si atom -5595.821764 kJ/mol
# Density = 2.316757 g / cm^3
# Si number density = 23.220425 Si / 1000 Ang^3
#
#
#
# Elastic Constant Matrix: (Units=GPa)
#
#
# Indices 1 2 3 4 5 6 
#
# 1 145.5504 29.4672 30.4915 0.0000 14.2791 0.0000
# 2 29.4672 132.8189 28.9517 0.0000 21.9954 0.0000
# 3 30.4915 28.9517 52.6126 0.0000 5.1437 0.0000
# 4 0.0000 0.0000 0.0000 18.3883 0.0000 22.5124
# 5 14.2791 21.9954 5.1437 0.0000 29.8059 0.0000
# 6 0.0000 0.0000 0.0000 22.5124 0.0000 18.6326
#
#
#
# Elastic Compliance Matrix: (Units=1/GPa)
#
#
# Indices 1 2 3 4 5 6 
#
# 1 0.008113 -0.000412 -0.004196 0.000000 -0.002859 0.000000
# 2 -0.000412 0.009604 -0.004447 0.000000 -0.006122 0.000000
# 3 -0.004196 -0.004447 0.023770 0.000000 0.001190 0.000000
# 4 0.000000 0.000000 0.000000 -0.113484 0.000000 0.137115
# 5 -0.002859 -0.006122 0.001190 0.000000 0.039233 0.000000
# 6 0.000000 0.000000 0.000000 0.137115 0.000000 -0.111996
#
#
# Mechanical properties :
#
#
# Convention : Reuss Voigt Hill
#
# Bulk Modulus (GPa) = 42.77882 56.53362 49.65622
# Shear Modulus (GPa) = -42.06675 29.50344 -6.28165
#
# Velocity S-wave (km/s) = -4.26094 3.56839 -1.64654
# Velocity P-wave (km/s) = 2.39678 6.43251 4.22094
#
# Compressibility (1/GPa) = 0.02337606
#
# Stress axis : x y z
#
# Youngs Moduli (GPa) = 123.25395 104.12568 42.07059
#
# Poissons Ratio (x) = 0.04290 0.17652
# Poissons Ratio (y) = 0.05078 0.18711
# Poissons Ratio (z) = 0.51716 0.46309
#
# Static dielectric constant tensor:
#      x y z
#    x -1.879840 0.000000 0.581410 
#    y 0.000000 -0.534990 0.000000 
#    z 0.581410 0.000000 1.772140 
# 
# From -- ./inp_files/63949.got.cif
#   From: 2010.05.17/outbox.cif.g08.bks.cpg/sg10_32_cif.got.tgz:63949.got - 2010.06.03 11:33:40.
