data_PCOD9153862
_publ_section_title
;
Structure prediction by ZEFSAII (Michael W. Deem and Ramdas Pophale) SiO2 
 PCOD9153862
Probable space group: P 2/M
;
_chemical_formula_sum "Si O2"
_cell_formula_units_Z 14
_cell_length_a 7.806157
_cell_length_b 16.367590
_cell_length_c 8.080779
_cell_angle_alpha 90.000000
_cell_angle_beta 35.477091
_cell_angle_gamma 90.000000
_cell_volume 599.219224
_symmetry_space_group_name_H-M "P 2/M"
_symmetry_group_IT_number 10
_symmetry_cell_setting 'monoclinic'
loop_
_space_group_symop_operation_xyz
x,y,z
-x,y,-z
-x,-y,-z
x,-y,z
loop_
_atom_site_type_symbol
_atom_site_label
_atom_site_fract_x
_atom_site_fract_y
_atom_site_fract_z
Si Si1 0.321601 0.644336 0.296986
Si Si2 0.666831 0.500000 0.197572
Si Si3 0.173293 0.769164 0.708003
Si Si4 0.817137 0.907678 0.812379
O O1 0.549288 0.577832 0.188625
O O2 0.232519 0.708570 0.508732
O O3 0.000000 0.608176 0.500000
O O4 0.500000 0.680884 0.000000
O O5 0.500000 0.500000 0.500000
O O6 0.000000 0.500000 0.000000
O O7 0.500000 0.797765 0.500000
O O8 0.972335 0.844542 0.810694
O O9 0.000000 0.729410 0.000000
O O10 0.000000 0.911783 0.500000
O O11 0.790772 0.000000 0.902420
O O12 0.500000 0.879199 0.000000
#
# Coordination Sequence:
#
# PCOD9153862 Si02
#       4
#     4   2   4   4
#     4  12  26  47  73 101 138 184 232 276 338 416
#     4  12  26  48  74 104 139 174 225 288 346 400
#     4  12  26  43  67 105 144 179 226 287 351 402
#     4  10  22  43  69  97 134 183 233 280 337 409
#
# _framework density 23.363737
#
# number of rings (size 3 to 8) (size 9 to 14) (size 15 to 20)
#    0.000    0.571    0.000    7.714    0.000    5.714 
#    0.000    0.000    0.000    0.000    0.000    0.000 
#    0.000    0.000    0.000    0.000    0.000    0.000 
#
# Total GULP energy -78415.381640 kJ/mol
# GULP energy per Si atom -5601.098689 kJ/mol
# Density = 2.331056 g / cm^3
# Si number density = 23.363737 Si / 1000 Ang^3
#
#
#
# Elastic Constant Matrix: (Units=GPa)
#
#
# Indices 1 2 3 4 5 6 
#
# 1 165.7455 87.7463 80.8110 0.0000 -41.8065 0.0000
# 2 87.7463 134.5079 40.8752 0.0000 -7.7391 0.0000
# 3 80.8110 40.8752 196.0713 0.0000 -10.2682 0.0000
# 4 0.0000 0.0000 0.0000 27.0871 0.0000 -2.7628
# 5 -41.8065 -7.7391 -10.2682 0.0000 76.9390 0.0000
# 6 0.0000 0.0000 0.0000 -2.7628 0.0000 34.7306
#
#
#
# Elastic Compliance Matrix: (Units=1/GPa)
#
#
# Indices 1 2 3 4 5 6 
#
# 1 0.012991 -0.007050 -0.003577 0.000000 0.005872 0.000000
# 2 -0.007050 0.011789 0.000312 0.000000 -0.002603 0.000000
# 3 -0.003577 0.000312 0.006454 0.000000 -0.001051 0.000000
# 4 0.000000 0.000000 0.000000 0.037220 0.000000 0.002961
# 5 0.005872 -0.002603 -0.001051 0.000000 0.015786 0.000000
# 6 0.000000 0.000000 0.000000 0.002961 0.000000 0.029029
#
#
# Mechanical properties :
#
#
# Convention : Reuss Voigt Hill
#
# Bulk Modulus (GPa) = 94.30453 101.68775 97.99614
# Shear Modulus (GPa) = 36.38140 46.87749 41.62944
#
# Velocity S-wave (km/s) = 3.95039 4.48417 4.22571
# Velocity P-wave (km/s) = 7.82679 8.39217 8.11441
#
# Compressibility (1/GPa) = 0.01060394
#
# Stress axis : x y z
#
# Youngs Moduli (GPa) = 76.97919 84.82603 154.93211
#
# Poissons Ratio (x) = 0.59798 0.55418
# Poissons Ratio (y) = 0.54267 -0.04826
# Poissons Ratio (z) = 0.27535 -0.02642
#
# Static dielectric constant tensor:
#      x y z
#    x 1.892590 0.000000 0.027870 
#    y 0.000000 1.859660 0.000000 
#    z 0.027870 0.000000 1.830450 
# 
# From -- ./inp_files/19446.got.cif
#   From: 2010.05.17/outbox.cif.g08.bks.cpg/sg10_10_cif.got.tgz:19446.got - 2010.06.03 11:33:40.
