data_PCOD9153797
_publ_section_title
;
Structure prediction by ZEFSAII (Michael W. Deem and Ramdas Pophale) SiO2 
 PCOD9153797
Probable space group: P 2/M
;
_chemical_formula_sum "Si O2"
_cell_formula_units_Z 22
_cell_length_a 7.731876
_cell_length_b 11.674940
_cell_length_c 12.543862
_cell_angle_alpha 90.000000
_cell_angle_beta 109.895385
_cell_angle_gamma 90.000000
_cell_volume 1064.742082
_symmetry_space_group_name_H-M "P 2/M"
_symmetry_group_IT_number 10
_symmetry_cell_setting 'monoclinic'
loop_
_space_group_symop_operation_xyz
x,y,z
-x,y,-z
-x,-y,-z
x,-y,z
loop_
_atom_site_type_symbol
_atom_site_label
_atom_site_fract_x
_atom_site_fract_y
_atom_site_fract_z
Si Si1 0.299479 0.000000 0.337521
Si Si2 0.500000 0.295272 0.500000
Si Si3 0.828873 0.362871 0.201313
Si Si4 0.187799 0.241514 0.592577
Si Si5 0.239138 0.264798 0.264948
Si Si6 0.261355 0.000000 0.583156
Si Si7 0.225056 0.631758 0.041561
O O1 0.241363 0.127163 0.283992
O O2 0.245549 0.000000 0.451222
O O3 0.518275 0.000000 0.358051
O O4 0.344631 0.234078 0.536386
O O5 0.370223 0.336064 0.374819
O O6 0.839965 0.500000 0.204371
O O7 0.749698 0.316435 0.295019
O O8 0.033689 0.310451 0.240941
O O9 0.730754 0.330482 0.069707
O O10 0.167379 0.109553 0.617595
O O11 0.000000 0.286205 0.500000
O O12 0.291185 0.293390 0.154169
O O13 0.285834 0.500000 0.069007
O O14 0.000000 0.631200 0.000000
#
# Coordination Sequence:
#
# PCOD9153797 Si02
#       7
#     2   2   4   4   4   2   4
#     4  11  18  34  60  89 129 160 197 254 308 375
#     4  12  22  39  61  96 128 162 205 257 310 372
#     4  10  22  42  63  87 124 167 214 260 303 365
#     4  12  22  39  63  93 127 167 206 254 312 365
#     4  11  19  37  63  92 125 163 203 252 314 364
#     4  11  19  36  59  88 125 164 206 243 304 382
#     4   8  17  37  63  85 115 165 214 256 302 362
#
# _framework density 20.662279000000002
#
# number of rings (size 3 to 8) (size 9 to 14) (size 15 to 20)
#    0.000    1.455    5.455    1.909    0.000    1.091 
#    0.000   10.000    0.000    3.273    0.000    0.000 
#    0.000    0.000    0.000    0.000    0.000    0.000 
#
# Total GULP energy -122530.527332 kJ/mol
# GULP energy per Si atom -5569.569424 kJ/mol
# Density = 2.061525 g / cm^3
# Si number density = 20.662279 Si / 1000 Ang^3
#
#
#
# Elastic Constant Matrix: (Units=GPa)
#
#
# Indices 1 2 3 4 5 6 
#
# 1 60.9471 8.1840 18.8790 0.0000 -1.1016 0.0000
# 2 8.1840 86.8587 72.9413 0.0000 -9.9673 0.0000
# 3 18.8790 72.9413 156.3576 0.0000 -12.4978 0.0000
# 4 0.0000 0.0000 0.0000 38.3119 0.0000 -9.5567
# 5 -1.1016 -9.9673 -12.4978 0.0000 28.9302 0.0000
# 6 0.0000 0.0000 0.0000 -9.5567 0.0000 -10.9782
#
#
#
# Elastic Compliance Matrix: (Units=1/GPa)
#
#
# Indices 1 2 3 4 5 6 
#
# 1 0.017049 0.000184 -0.002162 0.000000 -0.000221 0.000000
# 2 0.000184 0.019152 -0.008730 0.000000 0.002834 0.000000
# 3 -0.002162 -0.008730 0.010857 0.000000 0.001600 0.000000
# 4 0.000000 0.000000 0.000000 0.021445 0.000000 -0.018668
# 5 -0.000221 0.002834 0.001600 0.000000 0.036225 0.000000
# 6 0.000000 0.000000 0.000000 -0.018668 0.000000 -0.074839
#
#
# Mechanical properties :
#
#
# Convention : Reuss Voigt Hill
#
# Bulk Modulus (GPa) = 38.99957 56.01910 47.50933
# Shear Modulus (GPa) = 83.53757 24.86339 54.20048
#
# Velocity S-wave (km/s) = 6.36536 3.47266 5.12724
# Velocity P-wave (km/s) = 8.54046 6.57646 7.62198
#
# Compressibility (1/GPa) = 0.02564131
#
# Stress axis : x y z
#
# Youngs Moduli (GPa) = 58.65559 52.21322 92.10475
#
# Poissons Ratio (x) = -0.00959 0.19912
# Poissons Ratio (y) = -0.01078 0.80410
# Poissons Ratio (z) = 0.12681 0.45583
#
# Static dielectric constant tensor:
#      x y z
#    x 1.811100 0.000000 -0.004670 
#    y 0.000000 1.734970 0.000000 
#    z -0.004670 0.000000 1.786140 
# 
# From -- ./inp_files/42122.got.cif
#   From: 2010.05.17/outbox.cif.g08.bks.cpg/sg10_22_cif.got.tgz:42122.got - 2010.06.03 11:33:40.
