data_PCOD9153462
_publ_section_title
;
Structure prediction by ZEFSAII (Michael W. Deem and Ramdas Pophale) SiO2 
 PCOD9153462
Probable space group: P 2/M
;
_chemical_formula_sum "Si O2"
_cell_formula_units_Z 26
_cell_length_a 21.820363
_cell_length_b 9.520010
_cell_length_c 8.231200
_cell_angle_alpha 90.000000
_cell_angle_beta 132.934564
_cell_angle_gamma 90.000000
_cell_volume 1251.849121
_symmetry_space_group_name_H-M "P 2/M"
_symmetry_group_IT_number 10
_symmetry_cell_setting 'monoclinic'
loop_
_space_group_symop_operation_xyz
x,y,z
-x,y,-z
-x,-y,-z
x,-y,z
loop_
_atom_site_type_symbol
_atom_site_label
_atom_site_fract_x
_atom_site_fract_y
_atom_site_fract_z
Si Si1 0.399909 0.840294 0.655139
Si Si2 0.184147 0.659599 0.753801
Si Si3 0.941908 0.165387 0.038743
Si Si4 0.000000 0.260304 0.500000
Si Si5 0.540171 0.663904 0.751133
Si Si6 0.312772 0.162947 0.847195
Si Si7 0.768779 0.833012 0.845556
O O1 0.472129 0.730015 0.750221
O O2 0.358824 0.831868 0.757632
O O3 0.322327 0.817612 0.394203
O O4 0.433131 0.000000 0.692657
O O5 0.212996 0.500000 0.790797
O O6 0.224278 0.756163 0.686240
O O7 0.084207 0.661495 0.595640
O O8 0.218755 0.737410 0.975769
O O9 0.974073 0.184045 0.283489
O O10 0.938952 0.000000 0.002858
O O11 0.844958 0.211872 0.864266
O O12 0.000000 0.228251 0.000000
O O13 0.500000 0.676576 0.500000
O O14 0.556277 0.500000 0.813626
O O15 0.623894 0.755038 0.920050
O O16 0.301450 0.000000 0.872130
O O17 0.780416 0.000000 0.903386
#
# Coordination Sequence:
#
# PCOD9153462 Si02
#       7
#     4   4   4   2   4   4   4
#     4  10  22  39  61  89 123 157 197 248 302 359
#     4  11  23  40  61  86 121 161 205 251 304 365
#     4   9  18  32  57  89 121 156 204 259 310 368
#     4  10  22  38  60  84 125 166 209 256 319 370
#     4  11  24  41  62  89 122 159 200 243 294 357
#     4  11  24  40  62  91 121 155 199 250 304 360
#     4   9  19  37  59  86 117 154 197 247 305 358
#
# _framework density 20.769276000000001
#
# number of rings (size 3 to 8) (size 9 to 14) (size 15 to 20)
#    0.000    1.846    0.000    3.231    2.154    9.231 
#    0.000    0.000    0.000    2.308    0.000    0.000 
#    0.000    0.000    0.000    0.000    0.000    0.000 
#
# Total GULP energy -145082.134157 kJ/mol
# GULP energy per Si atom -5580.082083 kJ/mol
# Density = 2.072200 g / cm^3
# Si number density = 20.769276 Si / 1000 Ang^3
#
#
#
# Elastic Constant Matrix: (Units=GPa)
#
#
# Indices 1 2 3 4 5 6 
#
# 1 128.8254 43.1677 11.8985 0.0000 17.8897 0.0000
# 2 43.1677 103.0628 18.5984 0.0000 25.2808 0.0000
# 3 11.8985 18.5984 46.9493 0.0000 14.6329 0.0000
# 4 0.0000 0.0000 0.0000 20.8047 0.0000 7.4404
# 5 17.8897 25.2808 14.6329 0.0000 26.3362 0.0000
# 6 0.0000 0.0000 0.0000 7.4404 0.0000 10.5874
#
#
#
# Elastic Compliance Matrix: (Units=1/GPa)
#
#
# Indices 1 2 3 4 5 6 
#
# 1 0.009251 -0.003046 -0.000110 0.000000 -0.003300 0.000000
# 2 -0.003046 0.013780 -0.001462 0.000000 -0.010347 0.000000
# 3 -0.000110 -0.001462 0.025938 0.000000 -0.012933 0.000000
# 4 0.000000 0.000000 0.000000 0.064202 0.000000 -0.045118
# 5 -0.003300 -0.010347 -0.012933 0.000000 0.057330 0.000000
# 6 0.000000 0.000000 0.000000 -0.045118 0.000000 0.126159
#
#
# Mechanical properties :
#
#
# Convention : Reuss Voigt Hill
#
# Bulk Modulus (GPa) = 25.16726 47.35184 36.25955
# Shear Modulus (GPa) = 15.66709 25.22386 20.44547
#
# Velocity S-wave (km/s) = 2.74950 3.48872 3.14093
# Velocity P-wave (km/s) = 4.71419 6.25114 5.53626
#
# Compressibility (1/GPa) = 0.03973417
#
# Stress axis : x y z
#
# Youngs Moduli (GPa) = 108.09194 72.56669 38.55411
#
# Poissons Ratio (x) = 0.22102 0.00423
# Poissons Ratio (y) = 0.32922 0.05637
# Poissons Ratio (z) = 0.01185 0.10611
#
# Static dielectric constant tensor:
#      x y z
#    x 1.824260 0.000000 -0.005690 
#    y 0.000000 1.712180 0.000000 
#    z -0.005690 0.000000 1.753450 
# 
# From -- ./inp_files/34277.got.cif
#   From: 2010.05.17/outbox.cif.g08.bks.cpg/sg10_18_cif.got.tgz:34277.got - 2010.06.03 11:33:40.
