data_PCOD9153735
_publ_section_title
;
Structure prediction by ZEFSAII (Michael W. Deem and Ramdas Pophale) SiO2 
 PCOD9153735
Probable space group: P 2/M
;
_chemical_formula_sum "Si O2"
_cell_formula_units_Z 24
_cell_length_a 12.856961
_cell_length_b 16.062408
_cell_length_c 12.520663
_cell_angle_alpha 90.000000
_cell_angle_beta 27.510707
_cell_angle_gamma 90.000000
_cell_volume 1194.366938
_symmetry_space_group_name_H-M "P 2/M"
_symmetry_group_IT_number 10
_symmetry_cell_setting 'monoclinic'
loop_
_space_group_symop_operation_xyz
x,y,z
-x,y,-z
-x,-y,-z
x,-y,z
loop_
_atom_site_type_symbol
_atom_site_label
_atom_site_fract_x
_atom_site_fract_y
_atom_site_fract_z
Si Si1 0.500000 0.699905 0.000000
Si Si2 0.731257 0.000000 0.211657
Si Si3 0.896979 0.598539 0.714009
Si Si4 0.269977 0.000000 0.288063
Si Si5 0.856587 0.291571 0.334132
Si Si6 0.376274 0.178332 0.279488
Si Si7 0.254904 0.180623 0.901500
Si Si8 0.500000 0.710491 0.500000
O O1 0.651612 0.641063 0.934987
O O2 0.656757 0.762784 0.791702
O O3 0.500000 0.000000 0.500000
O O4 0.725380 0.084982 0.150263
O O5 0.000000 0.000000 0.000000
O O6 0.883210 0.500000 0.743877
O O7 0.000000 0.610557 0.500000
O O8 0.033378 0.642417 0.685150
O O9 0.300725 0.085156 0.325815
O O10 0.000000 0.000000 0.500000
O O11 0.500000 0.000000 0.000000
O O12 0.742071 0.223925 0.515642
O O13 0.688407 0.333676 0.401351
O O14 0.025699 0.231696 0.116544
O O15 0.636542 0.182744 0.078932
O O16 0.384954 0.230551 0.691688
#
# Coordination Sequence:
#
# PCOD9153735 Si02
#       8
#     2   2   4   2   4   4   4   2
#     4  12  21  43  66  98 136 176 226 281 351 422
#     4  12  25  41  64  95 134 178 231 294 347 397
#     4  11  24  42  68 103 136 171 221 287 355 430
#     4  12  29  43  64  97 146 195 240 290 346 420
#     4  11  23  41  69  96 131 179 229 288 349 425
#     4  11  25  40  66  94 134 185 232 278 347 414
#     4  11  23  42  66  91 133 175 232 282 343 406
#     4  10  22  41  63  98 124 178 226 276 341 415
#
# _framework density 20.094327
#
# number of rings (size 3 to 8) (size 9 to 14) (size 15 to 20)
#    0.000    0.833    5.000    2.250    7.000    0.667 
#    0.000    0.417    0.000    2.000    0.000    0.000 
#    0.000    0.000    0.000    0.000    0.000    0.000 
#
# Total GULP energy -133618.069458 kJ/mol
# GULP energy per Si atom -5567.419561 kJ/mol
# Density = 2.004859 g / cm^3
# Si number density = 20.094327 Si / 1000 Ang^3
#
#
#
# Elastic Constant Matrix: (Units=GPa)
#
#
# Indices 1 2 3 4 5 6 
#
# 1 141.3520 61.3265 24.3462 0.0000 -23.6116 0.0000
# 2 61.3265 126.7048 25.6238 0.0000 -8.3270 0.0000
# 3 24.3462 25.6238 72.3756 0.0000 3.3007 0.0000
# 4 0.0000 0.0000 0.0000 15.5694 0.0000 2.2019
# 5 -23.6116 -8.3270 3.3007 0.0000 35.1548 0.0000
# 6 0.0000 0.0000 0.0000 2.2019 0.0000 17.8216
#
#
#
# Elastic Compliance Matrix: (Units=1/GPa)
#
#
# Indices 1 2 3 4 5 6 
#
# 1 0.010276 -0.004109 -0.002282 0.000000 0.006143 0.000000
# 2 -0.004109 0.010334 -0.002272 0.000000 -0.000098 0.000000
# 3 -0.002282 -0.002272 0.015550 0.000000 -0.003531 0.000000
# 4 0.000000 0.000000 0.000000 0.065371 0.000000 -0.008077
# 5 0.006143 -0.000098 -0.003531 0.000000 0.032880 0.000000
# 6 0.000000 0.000000 0.000000 -0.008077 0.000000 0.057110
#
#
# Mechanical properties :
#
#
# Convention : Reuss Voigt Hill
#
# Bulk Modulus (GPa) = 53.09475 62.55841 57.82658
# Shear Modulus (GPa) = 23.24232 28.98487 26.11360
#
# Velocity S-wave (km/s) = 3.40466 3.80207 3.60884
# Velocity P-wave (km/s) = 6.47578 7.10452 6.79743
#
# Compressibility (1/GPa) = 0.01883426
#
# Stress axis : x y z
#
# Youngs Moduli (GPa) = 97.31084 96.76823 64.30863
#
# Poissons Ratio (x) = 0.39758 0.14678
# Poissons Ratio (y) = 0.39981 0.14611
# Poissons Ratio (z) = 0.22210 0.21987
#
# Static dielectric constant tensor:
#      x y z
#    x 1.774740 0.000000 -0.081980 
#    y 0.000000 1.604650 0.000000 
#    z -0.081980 0.000000 1.769740 
# 
# From -- ./inp_files/47891.got.cif
#   From: 2010.05.17/outbox.cif.g08.bks.cpg/sg10_24_cif.got.tgz:47891.got - 2010.06.03 11:33:40.
