data_PCOD9153901
_publ_section_title
;
Structure prediction by ZEFSAII (Michael W. Deem and Ramdas Pophale) SiO2 
 PCOD9153901
Probable space group: P 2/M
;
_chemical_formula_sum "Si O2"
_cell_formula_units_Z 30
_cell_length_a 7.289198
_cell_length_b 15.777442
_cell_length_c 14.128803
_cell_angle_alpha 90.000000
_cell_angle_beta 63.838038
_cell_angle_gamma 90.000000
_cell_volume 1458.414526
_symmetry_space_group_name_H-M "P 2/M"
_symmetry_group_IT_number 10
_symmetry_cell_setting 'monoclinic'
loop_
_space_group_symop_operation_xyz
x,y,z
-x,y,-z
-x,-y,-z
x,-y,z
loop_
_atom_site_type_symbol
_atom_site_label
_atom_site_fract_x
_atom_site_fract_y
_atom_site_fract_z
Si Si1 0.025327 0.398350 0.886698
Si Si2 0.240018 0.301805 0.203008
Si Si3 0.481735 0.600930 0.710507
Si Si4 0.619039 0.127996 0.880536
Si Si5 0.500000 0.680001 0.500000
Si Si6 0.052077 0.150114 0.727486
Si Si7 0.456213 0.096619 0.710593
Si Si8 0.205027 0.174359 0.506538
O O1 0.006232 0.500000 0.891651
O O2 0.253819 0.378170 0.799210
O O3 0.854280 0.362317 0.855050
O O4 0.000000 0.366904 0.000000
O O5 0.352365 0.348859 0.263466
O O6 0.388511 0.230873 0.124476
O O7 0.051047 0.240560 0.274790
O O8 0.514412 0.500000 0.713777
O O9 0.489195 0.626392 0.598576
O O10 0.860786 0.105688 0.822041
O O11 0.529079 0.097866 0.801793
O O12 0.500000 0.099282 0.000000
O O13 0.686763 0.744625 0.472294
O O14 0.633124 0.133107 0.602385
O O15 0.251892 0.152101 0.746134
O O16 0.133782 0.114383 0.609251
O O17 0.409578 0.000000 0.694015
O O18 0.000000 0.198217 0.500000
#
# Coordination Sequence:
#
# PCOD9153901 Si02
#       8
#     4   4   4   4   2   4   4   4
#     4  10  23  39  61  95 132 170 216 275 334 378
#     4  10  23  40  69  92 129 171 224 269 317 386
#     4  11  24  40  62  94 132 175 219 267 330 384
#     4  10  25  44  67  98 126 170 224 265 319 387
#     4  12  23  40  67  92 138 170 224 266 319 386
#     4  10  23  41  66  98 125 166 215 264 322 381
#     4  12  26  44  68  98 134 168 210 267 330 394
#     4  12  22  42  68 101 126 170 220 266 324 385
#
# _framework density 20.570284000000001
#
# number of rings (size 3 to 8) (size 9 to 14) (size 15 to 20)
#    0.800    0.400    2.667    3.000    3.733    2.667 
#    0.000    2.667    0.000    4.000    0.000    0.000 
#    0.000    0.000    0.000    0.000    0.000    0.000 
#
# Total GULP energy -167392.860876 kJ/mol
# GULP energy per Si atom -5579.762029 kJ/mol
# Density = 2.052346 g / cm^3
# Si number density = 20.570284 Si / 1000 Ang^3
#
#
#
# Elastic Constant Matrix: (Units=GPa)
#
#
# Indices 1 2 3 4 5 6 
#
# 1 128.3678 46.5520 61.8986 0.0000 5.5191 0.0000
# 2 46.5520 86.5854 33.9684 0.0000 1.0788 0.0000
# 3 61.8986 33.9684 175.6612 0.0000 0.0290 0.0000
# 4 0.0000 0.0000 0.0000 -29.4615 0.0000 43.7785
# 5 5.5191 1.0788 0.0290 0.0000 29.0555 0.0000
# 6 0.0000 0.0000 0.0000 43.7785 0.0000 -56.5801
#
#
#
# Elastic Compliance Matrix: (Units=1/GPa)
#
#
# Indices 1 2 3 4 5 6 
#
# 1 0.011021 -0.004738 -0.002967 0.000000 -0.001915 0.000000
# 2 -0.004738 0.014540 -0.001142 0.000000 0.000361 0.000000
# 3 -0.002967 -0.001142 0.006959 0.000000 0.000599 0.000000
# 4 0.000000 0.000000 0.000000 0.226660 0.000000 0.175377
# 5 -0.001915 0.000361 0.000599 0.000000 0.034767 0.000000
# 6 0.000000 0.000000 0.000000 0.175377 0.000000 0.118023
#
#
# Mechanical properties :
#
#
# Convention : Reuss Voigt Hill
#
# Bulk Modulus (GPa) = 67.44781 75.05028 71.24905
# Shear Modulus (GPa) = 11.50466 5.14917 8.32691
#
# Velocity S-wave (km/s) = 2.36749 1.58387 2.01415
# Velocity P-wave (km/s) = 6.35086 6.31735 6.33413
#
# Compressibility (1/GPa) = 0.01482628
#
# Stress axis : x y z
#
# Youngs Moduli (GPa) = 90.73367 68.77542 143.69613
#
# Poissons Ratio (x) = 0.32583 0.42637
# Poissons Ratio (y) = 0.42986 0.16415
# Poissons Ratio (z) = 0.26922 0.07856
#
# Static dielectric constant tensor:
#      x y z
#    x 1.722030 0.000000 -0.005330 
#    y 0.000000 1.751210 0.000000 
#    z -0.005330 0.000000 1.763080 
# 
# From -- ./inp_files/59406.got.cif
#   From: 2010.05.17/outbox.cif.g08.bks.cpg/sg10_30_cif.got.tgz:59406.got - 2010.06.03 11:33:40.
