data_PCOD9153155
_publ_section_title
;
Structure prediction by ZEFSAII (Michael W. Deem and Ramdas Pophale) SiO2 
 PCOD9153155
Probable space group: P 2/M
;
_chemical_formula_sum "Si O2"
_cell_formula_units_Z 32
_cell_length_a 12.978065
_cell_length_b 22.834799
_cell_length_c 13.211661
_cell_angle_alpha 90.000000
_cell_angle_beta 22.376918
_cell_angle_gamma 90.000000
_cell_volume 1490.544768
_symmetry_space_group_name_H-M "P 2/M"
_symmetry_group_IT_number 10
_symmetry_cell_setting 'monoclinic'
loop_
_space_group_symop_operation_xyz
x,y,z
-x,y,-z
-x,-y,-z
x,-y,z
loop_
_atom_site_type_symbol
_atom_site_label
_atom_site_fract_x
_atom_site_fract_y
_atom_site_fract_z
Si Si1 0.204001 0.233127 0.221544
Si Si2 0.358088 0.628391 0.519129
Si Si3 0.205549 0.636734 0.219008
Si Si4 0.578203 0.761074 0.547296
Si Si5 0.082438 0.166679 0.043159
Si Si6 0.808256 0.569659 0.974338
Si Si7 0.589102 0.933459 0.146213
Si Si8 0.007323 0.108255 0.372193
O O1 0.193904 0.297357 0.181977
O O2 0.000000 0.238797 0.500000
O O3 0.108644 0.174255 0.253856
O O4 0.500000 0.223093 0.000000
O O5 0.500000 0.627364 0.500000
O O6 0.334099 0.695790 0.504596
O O7 0.540958 0.594318 0.271676
O O8 0.067358 0.598671 0.792323
O O9 0.000000 0.630727 0.500000
O O10 0.500000 0.631057 0.000000
O O11 0.171532 0.590824 0.160176
O O12 0.500000 0.758216 0.500000
O O13 0.811803 0.809367 0.341405
O O14 0.311148 0.783147 0.845829
O O15 0.225532 0.107579 0.950850
O O16 0.000000 0.160291 0.000000
O O17 0.815204 0.500000 0.975163
O O18 0.289752 0.907527 0.399428
O O19 0.564484 0.000000 0.205574
O O20 0.761084 0.931969 0.886110
O O21 0.000000 0.103821 0.500000
#
# Coordination Sequence:
#
# PCOD9153155 Si02
#       8
#     4   4   4   4   4   4   4   4
#     4   9  18  36  61  88 116 150 196 247 312 374
#     4  11  24  43  65  92 129 164 203 263 315 362
#     4  10  22  41  64  91 126 161 200 262 319 364
#     4   9  19  38  65  94 120 154 200 249 314 373
#     4  10  21  40  64  91 124 155 194 254 308 360
#     4  12  26  41  63  95 125 169 222 247 294 379
#     4  12  26  40  59  89 120 162 211 239 287 367
#     4  11  23  41  62  85 118 157 200 253 302 351
#
# _framework density 21.468661999999998
#
# number of rings (size 3 to 8) (size 9 to 14) (size 15 to 20)
#    0.000    1.500    0.000    5.250    0.000    8.750 
#    0.000    2.500    0.000    3.750    0.000    0.000 
#    0.000    0.000    0.000    0.000    0.000    0.000 
#
# Total GULP energy -178903.552406 kJ/mol
# GULP energy per Si atom -5590.736013 kJ/mol
# Density = 2.141980 g / cm^3
# Si number density = 21.468662 Si / 1000 Ang^3
#
#
#
# Elastic Constant Matrix: (Units=GPa)
#
#
# Indices 1 2 3 4 5 6 
#
# 1 65.2730 41.5848 13.9870 0.0000 -14.0372 0.0000
# 2 41.5848 125.3549 11.5528 0.0000 -15.1029 0.0000
# 3 13.9870 11.5528 113.2998 0.0000 -20.0680 0.0000
# 4 0.0000 0.0000 0.0000 -0.8161 0.0000 4.3317
# 5 -14.0372 -15.1029 -20.0680 0.0000 34.5549 0.0000
# 6 0.0000 0.0000 0.0000 4.3317 0.0000 70.7204
#
#
#
# Elastic Compliance Matrix: (Units=1/GPa)
#
#
# Indices 1 2 3 4 5 6 
#
# 1 0.020516 -0.006101 -0.001011 0.000000 0.005081 0.000000
# 2 -0.006101 0.010240 0.000070 0.000000 0.002038 0.000000
# 3 -0.001011 0.000070 0.009894 0.000000 0.005366 0.000000
# 4 0.000000 0.000000 0.000000 -0.924696 0.000000 0.056639
# 5 0.005081 0.002038 0.005366 0.000000 0.035011 0.000000
# 6 0.000000 0.000000 0.000000 0.056639 0.000000 0.010671
#
#
# Mechanical properties :
#
#
# Convention : Reuss Voigt Hill
#
# Bulk Modulus (GPa) = 37.63960 48.68633 43.16297
# Shear Modulus (GPa) = -6.13177 36.67872 15.27347
#
# Velocity S-wave (km/s) = -1.69185 4.13786 2.67016
# Velocity P-wave (km/s) = 3.70863 6.74954 5.44565
#
# Compressibility (1/GPa) = 0.02656776
#
# Stress axis : x y z
#
# Youngs Moduli (GPa) = 48.74201 97.65367 101.06876
#
# Poissons Ratio (x) = 0.59575 0.10216
# Poissons Ratio (y) = 0.29736 -0.00707
# Poissons Ratio (z) = 0.04927 -0.00683
#
# Static dielectric constant tensor:
#      x y z
#    x 1.799620 0.000000 0.013070 
#    y 0.000000 1.800210 0.000000 
#    z 0.013070 0.000000 1.731530 
# 
# From -- ./inp_files/67955.got.cif
#   From: 2010.05.17/outbox.cif.g08.bks.cpg/sg10_34_cif.got.tgz:67955.got - 2010.06.03 11:33:40.
