data_PCOD9153273
_publ_section_title
;
Structure prediction by ZEFSAII (Michael W. Deem and Ramdas Pophale) SiO2 
 PCOD9153273
Probable space group: P 2/M
;
_chemical_formula_sum "Si O2"
_cell_formula_units_Z 22
_cell_length_a 8.803896
_cell_length_b 15.430478
_cell_length_c 11.171010
_cell_angle_alpha 90.000000
_cell_angle_beta 136.708634
_cell_angle_gamma 90.000000
_cell_volume 1040.606102
_symmetry_space_group_name_H-M "P 2/M"
_symmetry_group_IT_number 10
_symmetry_cell_setting 'monoclinic'
loop_
_space_group_symop_operation_xyz
x,y,z
-x,y,-z
-x,-y,-z
x,-y,z
loop_
_atom_site_type_symbol
_atom_site_label
_atom_site_fract_x
_atom_site_fract_y
_atom_site_fract_z
Si Si1 0.903652 0.603259 0.574765
Si Si2 0.822339 0.896666 0.300727
Si Si3 0.500000 0.325270 0.500000
Si Si4 0.304300 0.597918 0.982906
Si Si5 0.240257 0.268046 0.137119
Si Si6 0.293139 0.102289 0.028444
O O1 0.892247 0.500000 0.552804
O O2 0.668717 0.628146 0.502613
O O3 0.000000 0.636934 0.500000
O O4 0.087948 0.622091 0.781809
O O5 0.561626 0.887260 0.181008
O O6 0.000000 0.861390 0.500000
O O7 0.863142 0.000000 0.318846
O O8 0.823607 0.868015 0.162884
O O9 0.345424 0.270170 0.326080
O O10 0.276363 0.500000 0.018708
O O11 0.500000 0.593118 0.000000
O O12 0.364910 0.671508 0.112979
O O13 0.220947 0.170236 0.084172
O O14 0.000000 0.310970 0.000000
O O15 0.249240 0.000000 0.021185
#
# Coordination Sequence:
#
# PCOD9153273 Si02
#       6
#     4   4   2   4   4   4
#     4  10  21  41  69  99 130 171 220 273 334 398
#     4   8  15  33  62  94 123 158 209 271 336 391
#     4  12  25  44  63  96 134 174 220 280 328 398
#     4  10  22  42  67  96 131 168 212 269 330 398
#     4  12  26  43  62  91 131 174 219 266 331 391
#     4   9  20  38  60  91 128 167 217 272 323 388
#
# _framework density 21.141522999999999
#
# number of rings (size 3 to 8) (size 9 to 14) (size 15 to 20)
#    0.000    2.000    1.818    2.455    2.545    5.091 
#    0.000    0.455    0.000    0.000    0.000    0.000 
#    0.000    0.727    0.000    0.000    0.000    0.000 
#
# Total GULP energy -122529.060895 kJ/mol
# GULP energy per Si atom -5569.502768 kJ/mol
# Density = 2.109340 g / cm^3
# Si number density = 21.141523 Si / 1000 Ang^3
#
#
#
# Elastic Constant Matrix: (Units=GPa)
#
#
# Indices 1 2 3 4 5 6 
#
# 1 72.8083 19.4299 47.4185 0.0000 -9.5178 0.0000
# 2 19.4299 60.2724 48.1887 0.0000 -19.3936 0.0000
# 3 47.4185 48.1887 174.8418 0.0000 -6.5377 0.0000
# 4 0.0000 0.0000 0.0000 140.7344 0.0000 -54.4437
# 5 -9.5178 -19.3936 -6.5377 0.0000 30.4316 0.0000
# 6 0.0000 0.0000 0.0000 -54.4437 0.0000 17.9382
#
#
#
# Elastic Compliance Matrix: (Units=1/GPa)
#
#
# Indices 1 2 3 4 5 6 
#
# 1 0.017281 -0.000869 -0.004300 0.000000 0.003927 0.000000
# 2 -0.000869 0.027263 -0.006693 0.000000 0.015665 0.000000
# 3 -0.004300 -0.006693 0.008590 0.000000 -0.003765 0.000000
# 4 0.000000 0.000000 0.000000 -0.040805 0.000000 -0.123847
# 5 0.003927 0.015665 -0.003765 0.000000 0.043263 0.000000
# 6 0.000000 0.000000 0.000000 -0.123847 0.000000 -0.320139
#
#
# Mechanical properties :
#
#
# Convention : Reuss Voigt Hill
#
# Bulk Modulus (GPa) = 34.00301 59.77740 46.89020
# Shear Modulus (GPa) = -21.64298 50.67986 14.51844
#
# Velocity S-wave (km/s) = -3.20303 4.90140 2.62339
# Velocity P-wave (km/s) = 1.56180 7.76968 5.60389
#
# Compressibility (1/GPa) = 0.02940916
#
# Stress axis : x y z
#
# Youngs Moduli (GPa) = 57.86814 36.68032 116.42098
#
# Poissons Ratio (x) = 0.03187 0.50065
# Poissons Ratio (y) = 0.05028 0.77915
# Poissons Ratio (z) = 0.24885 0.24548
#
# Static dielectric constant tensor:
#      x y z
#    x 1.847730 0.000000 0.002700 
#    y 0.000000 1.736260 0.000000 
#    z 0.002700 0.000000 1.793250 
# 
# From -- ./inp_files/19728.got.cif
#   From: 2010.05.17/outbox.cif.g08.bks.cpg/sg10_10_cif.got.tgz:19728.got - 2010.06.03 11:33:40.
