data_PCOD9153658
_publ_section_title
;
Structure prediction by ZEFSAII (Michael W. Deem and Ramdas Pophale) SiO2 
 PCOD9153658
Probable space group: P 2/M
;
_chemical_formula_sum "Si O2"
_cell_formula_units_Z 25
_cell_length_a 8.721802
_cell_length_b 22.746912
_cell_length_c 8.772121
_cell_angle_alpha 90.000000
_cell_angle_beta 52.377238
_cell_angle_gamma 90.000000
_cell_volume 1378.428806
_symmetry_space_group_name_H-M "P 2/M"
_symmetry_group_IT_number 10
_symmetry_cell_setting 'monoclinic'
loop_
_space_group_symop_operation_xyz
x,y,z
-x,y,-z
-x,-y,-z
x,-y,z
loop_
_atom_site_type_symbol
_atom_site_label
_atom_site_fract_x
_atom_site_fract_y
_atom_site_fract_z
Si Si1 0.595594 0.726750 0.605561
Si Si2 0.510114 0.589696 0.674225
Si Si3 0.364036 0.184507 0.952031
Si Si4 0.801466 0.899192 0.206315
Si Si5 0.201523 0.500000 0.967596
Si Si6 0.959864 0.194794 0.352914
Si Si7 0.500000 0.000000 0.500000
Si Si8 0.218902 0.500000 0.320781
O O1 0.500000 0.740003 0.500000
O O2 0.554745 0.658490 0.662807
O O3 0.816405 0.749511 0.457823
O O4 0.487837 0.764342 0.799179
O O5 0.500000 0.576908 0.500000
O O6 0.313700 0.559772 0.852880
O O7 0.673201 0.555096 0.668649
O O8 0.164713 0.207640 0.147578
O O9 0.500000 0.157299 0.000000
O O10 0.309658 0.138442 0.854760
O O11 0.860309 0.854648 0.307449
O O12 0.660831 0.948955 0.354378
O O13 0.000000 0.919547 0.000000
O O14 0.214914 0.500000 0.141554
O O15 0.000000 0.500000 0.000000
O O16 0.000000 0.172630 0.500000
O O17 0.000000 0.500000 0.500000
#
# Coordination Sequence:
#
# PCOD9153658 Si02
#       8
#     4   4   4   4   2   4   1   2
#     4  11  22  40  61  95 128 162 204 259 314 373
#     4  10  22  40  62  89 124 152 203 263 310 372
#     4  11  22  39  66  91 128 166 208 253 308 378
#     4  10  23  41  65  93 126 162 217 251 308 368
#     4  11  22  43  64  86 116 167 214 255 316 371
#     4  11  22  40  65  92 127 169 206 251 311 376
#     4  12  22  40  72  86 124 170 206 266 316 350
#     4  11  22  41  64  82 116 165 210 249 314 370
#
# _framework density 18.136590999999999
#
# number of rings (size 3 to 8) (size 9 to 14) (size 15 to 20)
#    0.000    1.280    3.200    4.080    0.000    1.920 
#    8.640    0.800    0.000    0.000    0.000    0.000 
#    0.000    0.000    0.000    0.000    0.000    0.000 
#
# Total GULP energy -139192.144036 kJ/mol
# GULP energy per Si atom -5567.685761 kJ/mol
# Density = 1.809531 g / cm^3
# Si number density = 18.136591 Si / 1000 Ang^3
#
#
#
# Elastic Constant Matrix: (Units=GPa)
#
#
# Indices 1 2 3 4 5 6 
#
# 1 160.0190 60.2054 65.5951 0.0000 4.1086 0.0000
# 2 60.2054 92.2807 63.8361 0.0000 -9.9506 0.0000
# 3 65.5951 63.8361 116.3511 0.0000 -7.1597 0.0000
# 4 0.0000 0.0000 0.0000 -63.3139 0.0000 14.8268
# 5 4.1086 -9.9506 -7.1597 0.0000 47.6428 0.0000
# 6 0.0000 0.0000 0.0000 14.8268 0.0000 -8.8982
#
#
#
# Elastic Compliance Matrix: (Units=1/GPa)
#
#
# Indices 1 2 3 4 5 6 
#
# 1 0.009063 -0.004052 -0.003014 0.000000 -0.002081 0.000000
# 2 -0.004052 0.019514 -0.008226 0.000000 0.003189 0.000000
# 3 -0.003014 -0.008226 0.014855 0.000000 0.000774 0.000000
# 4 0.000000 0.000000 0.000000 -0.025901 0.000000 -0.043158
# 5 -0.002081 0.003189 0.000774 0.000000 0.021951 0.000000
# 6 0.000000 0.000000 0.000000 -0.043158 0.000000 -0.184295
#
#
# Mechanical properties :
#
#
# Convention : Reuss Voigt Hill
#
# Bulk Modulus (GPa) = 77.83531 83.10267 80.46899
# Shear Modulus (GPa) = -45.47704 7.02041 -19.22832
#
# Velocity S-wave (km/s) = -5.01290 1.96958 -3.25960
# Velocity P-wave (km/s) = 3.08282 7.14788 5.50436
#
# Compressibility (1/GPa) = 0.01284764
#
# Stress axis : x y z
#
# Youngs Moduli (GPa) = 110.34131 51.24442 67.31806
#
# Poissons Ratio (x) = 0.20764 0.20291
# Poissons Ratio (y) = 0.44710 0.55376
# Poissons Ratio (z) = 0.33260 0.42153
#
# Static dielectric constant tensor:
#      x y z
#    x 1.611820 0.000000 -0.018400 
#    y 0.000000 1.594460 0.000000 
#    z -0.018400 0.000000 1.628750 
# 
# From -- ./inp_files/20181.got.cif
#   From: 2010.05.17/outbox.cif.g08.bks.cpg/sg10_11_cif.got.tgz:20181.got - 2010.06.03 11:33:40.
