data_PCOD9153433
_publ_section_title
;
Structure prediction by ZEFSAII (Michael W. Deem and Ramdas Pophale) SiO2 
 PCOD9153433
Probable space group: P 2/M
;
_chemical_formula_sum "Si O2"
_cell_formula_units_Z 32
_cell_length_a 11.190164
_cell_length_b 14.008521
_cell_length_c 16.755697
_cell_angle_alpha 90.000000
_cell_angle_beta 146.567153
_cell_angle_gamma 90.000000
_cell_volume 1447.140575
_symmetry_space_group_name_H-M "P 2/M"
_symmetry_group_IT_number 10
_symmetry_cell_setting 'monoclinic'
loop_
_space_group_symop_operation_xyz
x,y,z
-x,y,-z
-x,-y,-z
x,-y,z
loop_
_atom_site_type_symbol
_atom_site_label
_atom_site_fract_x
_atom_site_fract_y
_atom_site_fract_z
Si Si1 0.880666 0.808941 0.346111
Si Si2 0.657933 0.810931 0.790793
Si Si3 0.001904 0.606803 0.404426
Si Si4 0.258163 0.395992 0.141915
Si Si5 0.723043 0.889064 0.525740
Si Si6 0.403511 0.893357 0.081262
Si Si7 0.063997 0.115466 0.191716
Si Si8 0.570109 0.607675 0.457578
O O1 0.637794 0.846623 0.207966
O O2 0.000000 0.809227 0.500000
O O3 0.865558 0.699729 0.308104
O O4 0.043738 0.871727 0.384637
O O5 0.661700 0.709067 0.839207
O O6 0.449103 0.825066 0.617696
O O7 0.650832 0.890257 0.854672
O O8 0.857429 0.827906 0.842296
O O9 0.937486 0.500000 0.341943
O O10 0.234959 0.632244 0.494435
O O11 0.000000 0.602616 0.500000
O O12 0.328201 0.500000 0.145026
O O13 0.355320 0.396556 0.284883
O O14 0.000000 0.394741 0.000000
O O15 0.766120 0.867947 0.642405
O O16 0.656729 0.000000 0.481146
O O17 0.426973 0.000000 0.063416
O O18 0.179642 0.853736 0.919591
O O19 0.060602 0.000000 0.175569
O O20 0.500000 0.659088 0.500000
O O21 0.638167 0.500000 0.519201
#
# Coordination Sequence:
#
# PCOD9153433 Si02
#       8
#     4   4   4   4   4   4   4   4
#     4  11  22  37  59  89 122 160 211 253 304 363
#     4  12  22  38  62  90 121 160 203 255 315 377
#     4   9  19  36  58  91 126 162 211 264 311 365
#     4  10  22  38  56  85 124 163 206 256 309 371
#     4  11  23  39  63  91 121 156 199 253 312 375
#     4  11  23  39  62  89 123 162 204 256 310 375
#     4  10  23  41  61  91 124 158 199 252 321 384
#     4   9  18  34  59  90 121 156 203 259 314 364
#
# _framework density 22.112570000000002
#
# number of rings (size 3 to 8) (size 9 to 14) (size 15 to 20)
#    0.000    1.625    1.250    3.750    1.750    5.000 
#    0.000    1.875    0.000    0.000    0.000    0.875 
#    0.000    0.750    0.000    0.000    0.000    0.000 
#
# Total GULP energy -178385.323350 kJ/mol
# GULP energy per Si atom -5574.541355 kJ/mol
# Density = 2.206224 g / cm^3
# Si number density = 22.112570 Si / 1000 Ang^3
#
#
#
# Elastic Constant Matrix: (Units=GPa)
#
#
# Indices 1 2 3 4 5 6 
#
# 1 85.3592 11.0452 19.4910 0.0000 16.1900 0.0000
# 2 11.0452 104.2888 26.2646 0.0000 15.8354 0.0000
# 3 19.4910 26.2646 107.7757 0.0000 30.1619 0.0000
# 4 0.0000 0.0000 0.0000 8.4479 0.0000 -52.8014
# 5 16.1900 15.8354 30.1619 0.0000 35.4409 0.0000
# 6 0.0000 0.0000 0.0000 -52.8014 0.0000 886.3136
#
#
#
# Elastic Compliance Matrix: (Units=1/GPa)
#
#
# Indices 1 2 3 4 5 6 
#
# 1 0.012907 -0.000396 -0.000836 0.000000 -0.005008 0.000000
# 2 -0.000396 0.010514 -0.001610 0.000000 -0.003147 0.000000
# 3 -0.000836 -0.001610 0.012488 0.000000 -0.009527 0.000000
# 4 0.000000 0.000000 0.000000 0.188598 0.000000 0.011236
# 5 -0.005008 -0.003147 -0.009527 0.000000 0.040017 0.000000
# 6 0.000000 0.000000 0.000000 0.011236 0.000000 0.001798
#
#
# Mechanical properties :
#
#
# Convention : Reuss Voigt Hill
#
# Bulk Modulus (GPa) = 33.08546 45.66947 39.37746
# Shear Modulus (GPa) = 17.72534 202.08201 109.90368
#
# Velocity S-wave (km/s) = 2.83432 9.57007 7.05761
# Velocity P-wave (km/s) = 5.07010 11.95044 9.17929
#
# Compressibility (1/GPa) = 0.03022475
#
# Stress axis : x y z
#
# Youngs Moduli (GPa) = 77.47626 95.11164 80.07526
#
# Poissons Ratio (x) = 0.03767 0.06697
# Poissons Ratio (y) = 0.03068 0.12892
# Poissons Ratio (z) = 0.06480 0.15313
#
# Static dielectric constant tensor:
#      x y z
#    x 1.852010 0.000000 0.049130 
#    y 0.000000 1.916350 0.000000 
#    z 0.049130 0.000000 1.729570 
# 
# From -- ./inp_files/53988.got.cif
#   From: 2010.05.17/outbox.cif.g08.bks.cpg/sg10_27_cif.got.tgz:53988.got - 2010.06.03 11:33:40.
