data_PCOD9153011
_publ_section_title
;
Structure prediction by ZEFSAII (Michael W. Deem and Ramdas Pophale) SiO2 
 PCOD9153011
Probable space group: P 2/M
;
_chemical_formula_sum "Si O2"
_cell_formula_units_Z 17
_cell_length_a 5.303661
_cell_length_b 23.790999
_cell_length_c 5.143839
_cell_angle_alpha 90.000000
_cell_angle_beta 95.779619
_cell_angle_gamma 90.000000
_cell_volume 645.747118
_symmetry_space_group_name_H-M "P 2/M"
_symmetry_group_IT_number 10
_symmetry_cell_setting 'monoclinic'
loop_
_space_group_symop_operation_xyz
x,y,z
-x,y,-z
-x,-y,-z
x,-y,z
loop_
_atom_site_type_symbol
_atom_site_label
_atom_site_fract_x
_atom_site_fract_y
_atom_site_fract_z
Si Si1 0.276231 0.700687 0.163431
Si Si2 0.500000 0.500000 0.000000
Si Si3 0.827666 0.415576 0.718976
Si Si4 0.829845 0.818134 0.724658
Si Si5 0.732509 0.939603 0.821666
O O1 0.240639 0.648946 0.354765
O O2 0.346098 0.764172 0.252573
O O3 0.500000 0.681668 0.000000
O O4 0.000000 0.706143 0.000000
O O5 0.591920 0.451543 0.796284
O O6 0.000000 0.437778 0.500000
O O7 0.000000 0.416531 0.000000
O O8 0.726856 0.880897 0.669321
O O9 0.000000 0.802355 0.500000
O O10 0.000000 0.823410 0.000000
O O11 0.724394 0.000000 0.677617
O O12 0.500000 0.937965 0.000000
O O13 0.000000 0.940353 0.000000
#
# Coordination Sequence:
#
# PCOD9153011 Si02
#       5
#     4   1   4   4   4
#     4  10  21  43  66  97 131 172 219 272 329 391
#     4  12  24  46  68 100 128 182 214 278 326 402
#     4  11  25  44  66  98 133 172 222 273 330 396
#     4  10  21  39  63  92 126 168 214 266 324 386
#     4   9  18  35  58  87 122 163 209 261 319 382
#
# _framework density 26.326098000000002
#
# number of rings (size 3 to 8) (size 9 to 14) (size 15 to 20)
#    0.000    1.882    1.176    2.118    0.000    2.353 
#    0.000   25.882    0.000   12.706    0.000    0.000 
#    0.000    0.000    0.000    0.000    0.000    0.000 
#
# Total GULP energy -94781.651992 kJ/mol
# GULP energy per Si atom -5575.391294 kJ/mol
# Density = 2.626618 g / cm^3
# Si number density = 26.326098 Si / 1000 Ang^3
#
#
#
# Elastic Constant Matrix: (Units=GPa)
#
#
# Indices 1 2 3 4 5 6 
#
# 1 141.4169 -16.6419 32.6070 0.0000 5.4111 0.0000
# 2 -16.6419 252.4869 13.4062 0.0000 -24.5770 0.0000
# 3 32.6070 13.4062 144.5801 0.0000 -31.2894 0.0000
# 4 0.0000 0.0000 0.0000 32.7033 0.0000 -43.5181
# 5 5.4111 -24.5770 -31.2894 0.0000 69.3020 0.0000
# 6 0.0000 0.0000 0.0000 -43.5181 0.0000 2.3302
#
#
#
# Elastic Compliance Matrix: (Units=1/GPa)
#
#
# Indices 1 2 3 4 5 6 
#
# 1 0.007656 0.000482 -0.002066 0.000000 -0.001359 0.000000
# 2 0.000482 0.004133 -0.000203 0.000000 0.001337 0.000000
# 3 -0.002066 -0.000203 0.008224 0.000000 0.003803 0.000000
# 4 0.000000 0.000000 0.000000 -0.001282 0.000000 -0.023942
# 5 -0.001359 0.001337 0.003803 0.000000 0.016727 0.000000
# 6 0.000000 0.000000 0.000000 -0.023942 0.000000 -0.017992
#
#
# Mechanical properties :
#
#
# Convention : Reuss Voigt Hill
#
# Bulk Modulus (GPa) = 60.82330 66.35850 63.59090
# Shear Modulus (GPa) = 188.54513 54.80797 121.67655
#
# Velocity S-wave (km/s) = 8.47199 4.56772 6.80583
# Velocity P-wave (km/s) = 10.90199 7.28559 9.27182
#
# Compressibility (1/GPa) = 0.01644107
#
# Stress axis : x y z
#
# Youngs Moduli (GPa) = 130.61125 241.94088 121.59290
#
# Poissons Ratio (x) = -0.11661 0.25117
# Poissons Ratio (y) = -0.06295 0.02465
# Poissons Ratio (z) = 0.26979 0.04904
#
# Static dielectric constant tensor:
#      x y z
#    x 1.748890 0.000000 -0.127800 
#    y 0.000000 2.100780 0.000000 
#    z -0.127800 0.000000 1.883150 
# 
# From -- ./inp_files/1950.got.cif
#   From: 2010.05.17/outbox.cif.g08.bks.cpg/sg10_1_cif.got.tgz:1950.got - 2010.06.03 11:33:40.
