data_PCOD9153052
_publ_section_title
;
Structure prediction by ZEFSAII (Michael W. Deem and Ramdas Pophale) SiO2 
 PCOD9153052
Probable space group: P 2/M
;
_chemical_formula_sum "Si O2"
_cell_formula_units_Z 18
_cell_length_a 8.134273
_cell_length_b 19.689721
_cell_length_c 7.600411
_cell_angle_alpha 90.000000
_cell_angle_beta 144.718597
_cell_angle_gamma 90.000000
_cell_volume 703.099962
_symmetry_space_group_name_H-M "P 2/M"
_symmetry_group_IT_number 10
_symmetry_cell_setting 'monoclinic'
loop_
_space_group_symop_operation_xyz
x,y,z
-x,y,-z
-x,-y,-z
x,-y,z
loop_
_atom_site_type_symbol
_atom_site_label
_atom_site_fract_x
_atom_site_fract_y
_atom_site_fract_z
Si Si1 0.450449 0.161773 0.666197
Si Si2 0.294368 0.500000 0.657806
Si Si3 0.057080 0.924918 0.838826
Si Si4 0.772697 0.717666 0.151376
Si Si5 0.206204 0.378144 0.322218
O O1 0.500000 0.171536 0.500000
O O2 0.127482 0.136853 0.399045
O O3 0.617618 0.096247 0.884967
O O4 0.596429 0.224257 0.894035
O O5 0.310255 0.433793 0.550734
O O6 0.000000 0.500000 0.500000
O O7 0.500000 0.500000 0.000000
O O8 0.994860 0.000000 0.716115
O O9 0.000000 0.926133 0.000000
O O10 0.000000 0.738679 0.500000
O O11 0.984970 0.676000 0.210619
O O12 0.500000 0.678249 0.000000
O O13 0.500000 0.348034 0.500000
O O14 0.000000 0.413455 0.000000
#
# Coordination Sequence:
#
# PCOD9153052 Si02
#       5
#     4   2   4   4   4
#     4  10  21  39  64  96 134 182 239 297 356 426
#     4  12  26  50  80 114 153 190 231 286 360 426
#     4   9  17  32  60  96 131 172 231 300 361 420
#     4  12  27  47  70 103 147 195 242 294 363 430
#     4  12  27  49  78 111 146 189 245 297 347 414
#
# _framework density 25.600908
#
# number of rings (size 3 to 8) (size 9 to 14) (size 15 to 20)
#    0.000    1.111    0.000    6.000    0.000    9.778 
#    0.000    0.000    0.000   13.333    0.000    0.000 
#    0.000    0.000    0.000    0.000    0.000    0.444 
#
# Total GULP energy -100665.677264 kJ/mol
# GULP energy per Si atom -5592.537626 kJ/mol
# Density = 2.554264 g / cm^3
# Si number density = 25.600908 Si / 1000 Ang^3
#
#
#
# Elastic Constant Matrix: (Units=GPa)
#
#
# Indices 1 2 3 4 5 6 
#
# 1 112.9861 51.3919 65.3758 0.0000 15.3976 0.0000
# 2 51.3919 121.3006 58.8255 0.0000 -16.5054 0.0000
# 3 65.3758 58.8255 223.0896 0.0000 -5.9152 0.0000
# 4 0.0000 0.0000 0.0000 50.1529 0.0000 -8.4359
# 5 15.3976 -16.5054 -5.9152 0.0000 59.5392 0.0000
# 6 0.0000 0.0000 0.0000 -8.4359 0.0000 14.9010
#
#
#
# Elastic Compliance Matrix: (Units=1/GPa)
#
#
# Indices 1 2 3 4 5 6 
#
# 1 0.013444 -0.005068 -0.002740 0.000000 -0.005154 0.000000
# 2 -0.005068 0.011712 -0.001486 0.000000 0.004410 0.000000
# 3 -0.002740 -0.001486 0.005700 0.000000 0.000863 0.000000
# 4 0.000000 0.000000 0.000000 0.022038 0.000000 0.012476
# 5 -0.005154 0.004410 0.000863 0.000000 0.019437 0.000000
# 6 0.000000 0.000000 0.000000 0.012476 0.000000 0.074173
#
#
# Mechanical properties :
#
#
# Convention : Reuss Voigt Hill
#
# Bulk Modulus (GPa) = 81.51741 89.84030 85.67885
# Shear Modulus (GPa) = 29.55423 43.70415 36.62919
#
# Velocity S-wave (km/s) = 3.40136 4.13623 3.78666
# Velocity P-wave (km/s) = 6.88015 7.61446 7.25660
#
# Compressibility (1/GPa) = 0.01226732
#
# Stress axis : x y z
#
# Youngs Moduli (GPa) = 74.38438 85.38204 175.43388
#
# Poissons Ratio (x) = 0.43274 0.48066
# Poissons Ratio (y) = 0.37701 0.26071
# Poissons Ratio (z) = 0.20380 0.12689
#
# Static dielectric constant tensor:
#      x y z
#    x 2.116090 0.000000 -0.046480 
#    y 0.000000 1.970280 0.000000 
#    z -0.046480 0.000000 1.922430 
# 
# From -- ./inp_files/20665.got.cif
#   From: 2010.05.17/outbox.cif.g08.bks.cpg/sg10_11_cif.got.tgz:20665.got - 2010.06.03 11:33:40.
