data_PCOD9153578
_publ_section_title
;
Structure prediction by ZEFSAII (Michael W. Deem and Ramdas Pophale) SiO2 
 PCOD9153578
Probable space group: P 2/M
;
_chemical_formula_sum "Si O2"
_cell_formula_units_Z 28
_cell_length_a 15.911218
_cell_length_b 19.925632
_cell_length_c 9.362556
_cell_angle_alpha 90.000000
_cell_angle_beta 26.659658
_cell_angle_gamma 90.000000
_cell_volume 1331.852770
_symmetry_space_group_name_H-M "P 2/M"
_symmetry_group_IT_number 10
_symmetry_cell_setting 'monoclinic'
loop_
_space_group_symop_operation_xyz
x,y,z
-x,y,-z
-x,-y,-z
x,-y,z
loop_
_atom_site_type_symbol
_atom_site_label
_atom_site_fract_x
_atom_site_fract_y
_atom_site_fract_z
Si Si1 0.684498 0.579351 0.311377
Si Si2 0.100227 0.076264 0.076756
Si Si3 0.205951 0.321421 0.621012
Si Si4 0.707116 0.209520 0.110315
Si Si5 0.022370 0.666102 0.295388
Si Si6 0.714175 0.925113 0.520160
Si Si7 0.484576 0.789594 0.183382
O O1 0.500000 0.595937 0.500000
O O2 0.693176 0.500000 0.322469
O O3 0.687637 0.619643 0.456005
O O4 0.858121 0.604769 0.951935
O O5 0.200065 0.136746 0.006836
O O6 0.192167 0.075681 0.779161
O O7 0.122605 0.000000 0.101114
O O8 0.880084 0.089142 0.381593
O O9 0.307214 0.252229 0.507523
O O10 0.167069 0.330416 0.511371
O O11 0.000000 0.320683 0.000000
O O12 0.500000 0.211664 0.500000
O O13 0.660949 0.221540 0.014504
O O14 0.852654 0.267590 0.930045
O O15 0.000000 0.660812 0.500000
O O16 0.561540 0.867895 0.750130
O O17 0.642640 0.000000 0.653152
O O18 0.500000 0.765395 0.000000
#
# Coordination Sequence:
#
# PCOD9153578 Si02
#       7
#     4   4   4   4   4   4   4
#     4  10  22  42  67  93 121 154 193 237 283 337
#     4   9  19  35  58  82 106 146 200 250 289 343
#     4  10  22  39  63  85 117 160 199 237 275 346
#     4  12  22  36  59  86 117 150 198 248 287 346
#     4  11  23  39  61  90 123 157 194 239 288 343
#     4   9  19  36  56  79 111 150 194 242 298 354
#     4  12  24  36  56  86 120 152 188 244 303 345
#
# _framework density 21.023344999999999
#
# number of rings (size 3 to 8) (size 9 to 14) (size 15 to 20)
#    0.000    1.571    1.429    5.571    2.000    4.000 
#    0.000    0.000    0.000    4.286    0.000    0.000 
#    0.000    0.000    0.000    0.000    0.000    0.000 
#
# Total GULP energy -156380.174916 kJ/mol
# GULP energy per Si atom -5585.006247 kJ/mol
# Density = 2.097550 g / cm^3
# Si number density = 21.023345 Si / 1000 Ang^3
#
#
#
# Elastic Constant Matrix: (Units=GPa)
#
#
# Indices 1 2 3 4 5 6 
#
# 1 166.1386 61.6752 17.8211 0.0000 -4.2993 0.0000
# 2 61.6752 81.2725 13.5485 0.0000 -19.9453 0.0000
# 3 17.8211 13.5485 13.2567 0.0000 -1.0498 0.0000
# 4 0.0000 0.0000 0.0000 18.3201 0.0000 -7.2400
# 5 -4.2993 -19.9453 -1.0498 0.0000 29.9158 0.0000
# 6 0.0000 0.0000 0.0000 -7.2400 0.0000 40.0689
#
#
#
# Elastic Compliance Matrix: (Units=1/GPa)
#
#
# Indices 1 2 3 4 5 6 
#
# 1 0.009037 -0.006781 -0.005488 0.000000 -0.003415 0.000000
# 2 -0.006781 0.023110 -0.013398 0.000000 0.013963 0.000000
# 3 -0.005488 -0.013398 0.096001 0.000000 -0.006353 0.000000
# 4 0.000000 0.000000 0.000000 0.058782 0.000000 0.010621
# 5 -0.003415 0.013963 -0.006353 0.000000 0.042023 0.000000
# 6 0.000000 0.000000 0.000000 0.010621 0.000000 0.026876
#
#
# Mechanical properties :
#
#
# Convention : Reuss Voigt Hill
#
# Bulk Modulus (GPa) = 13.01847 49.63972 31.32909
# Shear Modulus (GPa) = 15.02549 28.83583 21.93066
#
# Velocity S-wave (km/s) = 2.67630 3.70754 3.23330
# Velocity P-wave (km/s) = 3.96937 6.48003 5.37339
#
# Compressibility (1/GPa) = 0.07681395
#
# Stress axis : x y z
#
# Youngs Moduli (GPa) = 110.66117 43.27099 10.41655
#
# Poissons Ratio (x) = 0.29341 0.05717
# Poissons Ratio (y) = 0.75036 0.13956
# Poissons Ratio (z) = 0.60735 0.57974
#
# Static dielectric constant tensor:
#      x y z
#    x 1.799400 0.000000 0.042840 
#    y 0.000000 1.721410 0.000000 
#    z 0.042840 0.000000 1.793410 
# 
# From -- ./inp_files/30399.got.cif
#   From: 2010.05.17/outbox.cif.g08.bks.cpg/sg10_16_cif.got.tgz:30399.got - 2010.06.03 11:33:40.
