data_PCOD9153381
_publ_section_title
;
Structure prediction by ZEFSAII (Michael W. Deem and Ramdas Pophale) SiO2 
 PCOD9153381
Probable space group: P 2/M
;
_chemical_formula_sum "Si O2"
_cell_formula_units_Z 20
_cell_length_a 20.446197
_cell_length_b 7.639937
_cell_length_c 14.144512
_cell_angle_alpha 90.000000
_cell_angle_beta 156.712456
_cell_angle_gamma 90.000000
_cell_volume 873.509119
_symmetry_space_group_name_H-M "P 2/M"
_symmetry_group_IT_number 10
_symmetry_cell_setting 'monoclinic'
loop_
_space_group_symop_operation_xyz
x,y,z
-x,y,-z
-x,-y,-z
x,-y,z
loop_
_atom_site_type_symbol
_atom_site_label
_atom_site_fract_x
_atom_site_fract_y
_atom_site_fract_z
Si Si1 0.028609 0.792031 0.278536
Si Si2 0.707122 0.500000 0.376456
Si Si3 0.200189 0.803259 0.855029
Si Si4 0.327739 0.500000 0.895781
Si Si5 0.161438 0.790381 0.158193
Si Si6 0.481198 0.701498 0.368472
O O1 0.183296 0.671809 0.457931
O O2 0.065059 0.000000 0.320068
O O3 0.955473 0.754584 0.285261
O O4 0.882687 0.753746 0.009577
O O5 0.685754 0.500000 0.234378
O O6 0.525094 0.500000 0.180036
O O7 0.356270 0.798653 0.134192
O O8 0.178495 0.000000 0.790440
O O9 0.241888 0.667049 0.829276
O O10 0.330499 0.707349 0.417036
O O11 0.177121 0.000000 0.190347
O O12 0.000000 0.731702 0.000000
O O13 0.500000 0.774844 0.500000
O O14 0.424625 0.500000 0.299724
#
# Coordination Sequence:
#
# PCOD9153381 Si02
#       6
#     4   2   4   2   4   4
#     4  10  23  42  67  99 128 169 217 259 318 380
#     4  11  27  47  71  87 131 162 202 284 332 387
#     4  11  23  41  68  97 132 170 215 266 314 381
#     4  11  27  49  65  99 119 163 218 261 344 393
#     4  10  22  37  56  89 131 170 208 248 301 368
#     4  11  22  35  59  94 132 173 213 251 302 369
#
# _framework density 22.896155
#
# number of rings (size 3 to 8) (size 9 to 14) (size 15 to 20)
#    0.000    1.400    3.000    1.200    4.200    4.400 
#    0.000    4.000    0.000    0.000    0.000    0.000 
#    0.000    0.000    0.000    0.000    0.000    0.000 
#
# Total GULP energy -111966.041421 kJ/mol
# GULP energy per Si atom -5598.302071 kJ/mol
# Density = 2.284404 g / cm^3
# Si number density = 22.896155 Si / 1000 Ang^3
#
#
#
# Elastic Constant Matrix: (Units=GPa)
#
#
# Indices 1 2 3 4 5 6 
#
# 1 79.0467 29.7435 1.3151 0.0000 7.8313 0.0000
# 2 29.7435 92.9660 22.1863 0.0000 8.1369 0.0000
# 3 1.3151 22.1863 93.6175 0.0000 1.9086 0.0000
# 4 0.0000 0.0000 0.0000 2970.3046 0.0000 1327.5666
# 5 7.8313 8.1369 1.9086 0.0000 38.3476 0.0000
# 6 0.0000 0.0000 0.0000 1327.5666 0.0000 608.1334
#
#
#
# Elastic Compliance Matrix: (Units=1/GPa)
#
#
# Indices 1 2 3 4 5 6 
#
# 1 0.014614 -0.004726 0.000956 0.000000 -0.002029 0.000000
# 2 -0.004726 0.013134 -0.003012 0.000000 -0.001672 0.000000
# 3 0.000956 -0.003012 0.011385 0.000000 -0.000123 0.000000
# 4 0.000000 0.000000 0.000000 0.013850 0.000000 -0.030235
# 5 -0.002029 -0.001672 -0.000123 0.000000 0.026852 0.000000
# 6 0.000000 0.000000 0.000000 -0.030235 0.000000 0.067648
#
#
# Mechanical properties :
#
#
# Convention : Reuss Voigt Hill
#
# Bulk Modulus (GPa) = 39.11079 41.34668 40.22873
# Shear Modulus (GPa) = 29.48632 737.51614 383.50123
#
# Velocity S-wave (km/s) = 3.59253 17.96699 12.95606
# Velocity P-wave (km/s) = 5.85894 21.17816 15.53773
#
# Compressibility (1/GPa) = 0.02556839
#
# Stress axis : x y z
#
# Youngs Moduli (GPa) = 68.42624 76.13883 87.83741
#
# Poissons Ratio (x) = 0.35985 -0.08399
# Poissons Ratio (y) = 0.32340 0.26458
# Poissons Ratio (z) = -0.06543 0.22934
#
# Static dielectric constant tensor:
#      x y z
#    x 1.893290 0.000000 -0.002290 
#    y 0.000000 1.810920 0.000000 
#    z -0.002290 0.000000 1.839420 
# 
# From -- ./inp_files/26810.got.cif
#   From: 2010.05.17/outbox.cif.g08.bks.cpg/sg10_14_cif.got.tgz:26810.got - 2010.06.03 11:33:40.
