data_PCOD9153788
_publ_section_title
;
Structure prediction by ZEFSAII (Michael W. Deem and Ramdas Pophale) SiO2 
 PCOD9153788
Probable space group: P 2/M
;
_chemical_formula_sum "Si O2"
_cell_formula_units_Z 26
_cell_length_a 7.356810
_cell_length_b 13.716127
_cell_length_c 18.622345
_cell_angle_alpha 90.000000
_cell_angle_beta 137.076453
_cell_angle_gamma 90.000000
_cell_volume 1279.724435
_symmetry_space_group_name_H-M "P 2/M"
_symmetry_group_IT_number 10
_symmetry_cell_setting 'monoclinic'
loop_
_space_group_symop_operation_xyz
x,y,z
-x,y,-z
-x,-y,-z
x,-y,z
loop_
_atom_site_type_symbol
_atom_site_label
_atom_site_fract_x
_atom_site_fract_y
_atom_site_fract_z
Si Si1 0.708983 0.888832 0.309242
Si Si2 0.262295 0.754781 0.116787
Si Si3 0.653196 0.609908 0.469645
Si Si4 0.000000 0.238993 0.500000
Si Si5 0.176972 0.700710 0.253750
Si Si6 0.599110 0.615251 0.110843
Si Si7 0.253605 0.888266 0.374684
O O1 0.775851 0.828254 0.400144
O O2 0.224058 0.804699 0.306530
O O3 0.982164 0.886587 0.342596
O O4 0.645936 0.000000 0.308248
O O5 0.475188 0.838078 0.197380
O O6 0.411782 0.674830 0.111047
O O7 0.169026 0.712318 0.166151
O O8 0.000000 0.791009 0.000000
O O9 0.500000 0.620712 0.500000
O O10 0.755989 0.500000 0.493671
O O11 0.881683 0.689453 0.525869
O O12 0.098127 0.654682 0.797454
O O13 0.571719 0.367211 0.654336
O O14 0.592052 0.500000 0.124386
O O15 0.500000 0.629620 0.000000
O O16 0.500000 0.868228 0.500000
O O17 0.286795 0.000000 0.357079
#
# Coordination Sequence:
#
# PCOD9153788 Si02
#       7
#     4   4   4   2   4   4   4
#     4  11  24  43  69 100 136 177 229 285 342 409
#     4  12  26  45  70 100 138 181 228 283 341 408
#     4  11  25  41  63  98 138 181 224 271 340 413
#     4  12  22  44  66  96 136 178 220 284 338 400
#     4  12  22  43  68  95 136 182 224 277 342 403
#     4  11  25  45  70  97 129 173 228 283 335 394
#     4  10  22  41  69 102 137 180 230 282 343 407
#
# _framework density 20.316873000000001
#
# number of rings (size 3 to 8) (size 9 to 14) (size 15 to 20)
#    0.000    0.769    4.615    3.231    0.000    2.462 
#    0.000    0.000    0.000    3.231    0.000    0.000 
#    0.000    0.000    0.000    0.000    0.000    0.000 
#
# Total GULP energy -145518.684382 kJ/mol
# GULP energy per Si atom -5596.872476 kJ/mol
# Density = 2.027063 g / cm^3
# Si number density = 20.316873 Si / 1000 Ang^3
#
#
#
# Elastic Constant Matrix: (Units=GPa)
#
#
# Indices 1 2 3 4 5 6 
#
# 1 86.8523 50.5294 23.1294 0.0000 2.4078 0.0000
# 2 50.5294 179.8453 58.8728 0.0000 -1.7300 0.0000
# 3 23.1294 58.8728 114.8800 0.0000 10.0149 0.0000
# 4 0.0000 0.0000 0.0000 9.6203 0.0000 16.0458
# 5 2.4078 -1.7300 10.0149 0.0000 40.5690 0.0000
# 6 0.0000 0.0000 0.0000 16.0458 0.0000 -14.1794
#
#
#
# Elastic Compliance Matrix: (Units=1/GPa)
#
#
# Indices 1 2 3 4 5 6 
#
# 1 0.013873 -0.003620 -0.000872 0.000000 -0.000763 0.000000
# 2 -0.003620 0.007679 -0.003325 0.000000 0.001363 0.000000
# 3 -0.000872 -0.003325 0.010825 0.000000 -0.002762 0.000000
# 4 0.000000 0.000000 0.000000 0.036000 0.000000 0.040738
# 5 -0.000763 0.001363 -0.002762 0.000000 0.025435 0.000000
# 6 0.000000 0.000000 0.000000 0.040738 0.000000 -0.024425
#
#
# Mechanical properties :
#
#
# Convention : Reuss Voigt Hill
#
# Bulk Modulus (GPa) = 59.72378 71.84898 65.78638
# Shear Modulus (GPa) = 55.18665 23.80503 39.49584
#
# Velocity S-wave (km/s) = 5.21746 3.42671 4.41386
# Velocity P-wave (km/s) = 8.10900 7.14824 7.64373
#
# Compressibility (1/GPa) = 0.01674375
#
# Stress axis : x y z
#
# Youngs Moduli (GPa) = 72.08252 130.22500 92.37721
#
# Poissons Ratio (x) = 0.47138 0.08052
# Poissons Ratio (y) = 0.26092 0.30719
# Poissons Ratio (z) = 0.06283 0.43304
#
# Static dielectric constant tensor:
#      x y z
#    x 1.734640 0.000000 -0.007490 
#    y 0.000000 1.707190 0.000000 
#    z -0.007490 0.000000 1.712460 
# 
# From -- ./inp_files/73466.got.cif
#   From: 2010.05.17/outbox.cif.g08.bks.cpg/sg10_37_cif.got.tgz:73466.got - 2010.06.03 11:33:40.
