data_PCOD9153607
_publ_section_title
;
Structure prediction by ZEFSAII (Michael W. Deem and Ramdas Pophale) SiO2 
 PCOD9153607
Probable space group: P 2/M
;
_chemical_formula_sum "Si O2"
_cell_formula_units_Z 32
_cell_length_a 13.362794
_cell_length_b 20.309357
_cell_length_c 9.705794
_cell_angle_alpha 90.000000
_cell_angle_beta 138.743214
_cell_angle_gamma 90.000000
_cell_volume 1736.986393
_symmetry_space_group_name_H-M "P 2/M"
_symmetry_group_IT_number 10
_symmetry_cell_setting 'monoclinic'
loop_
_space_group_symop_operation_xyz
x,y,z
-x,y,-z
-x,-y,-z
x,-y,z
loop_
_atom_site_type_symbol
_atom_site_label
_atom_site_fract_x
_atom_site_fract_y
_atom_site_fract_z
Si Si1 0.334589 0.347149 0.818108
Si Si2 0.846331 0.652644 0.645249
Si Si3 0.164721 0.072727 0.748946
Si Si4 0.056245 0.212341 0.325677
Si Si5 0.325554 0.422579 0.298205
Si Si6 0.969113 0.928058 0.805902
Si Si7 0.233106 0.787349 0.796322
Si Si8 0.139001 0.577353 0.830706
O O1 0.282754 0.344420 0.606312
O O2 0.342880 0.275005 0.901103
O O3 0.205652 0.387071 0.766000
O O4 0.500000 0.378718 0.000000
O O5 0.900014 0.727334 0.725137
O O6 0.782611 0.618161 0.713768
O O7 0.988032 0.612611 0.729384
O O8 0.272673 0.134897 0.834442
O O9 0.000000 0.083644 0.500000
O O10 0.117469 0.070982 0.860811
O O11 0.218334 0.000000 0.763546
O O12 0.102131 0.141365 0.313007
O O13 0.140092 0.221804 0.558161
O O14 0.880222 0.217389 0.190180
O O15 0.500000 0.402559 0.500000
O O16 0.313824 0.500000 0.322927
O O17 0.266342 0.415742 0.081583
O O18 0.893860 0.000000 0.699922
O O19 0.000000 0.925326 0.000000
O O20 0.111350 0.500000 0.778641
#
# Coordination Sequence:
#
# PCOD9153607 Si02
#       8
#     4   4   4   4   4   4   4   4
#     4  11  23  37  55  78 108 144 177 218 276 328
#     4  11  21  36  58  81 106 138 180 226 266 319
#     4   9  14  23  44  69  94 131 172 211 259 312
#     4   9  16  28  47  71  98 132 168 211 258 303
#     4  10  22  40  58  78 110 145 175 215 267 321
#     4   9  16  24  37  65 106 133 157 205 262 306
#     4   9  15  30  48  68 100 132 169 213 257 308
#     4  11  23  38  58  83 107 136 178 223 268 318
#
# _framework density 18.422712000000001
#
# number of rings (size 3 to 8) (size 9 to 14) (size 15 to 20)
#    0.000    2.125    3.750    1.875    0.000    3.750 
#    0.000    0.000    0.000    0.375    0.000    0.000 
#    0.000    0.500    0.000    1.250    0.000    0.000 
#
# Total GULP energy -178172.548116 kJ/mol
# GULP energy per Si atom -5567.892129 kJ/mol
# Density = 1.838078 g / cm^3
# Si number density = 18.422712 Si / 1000 Ang^3
#
#
#
# Elastic Constant Matrix: (Units=GPa)
#
#
# Indices 1 2 3 4 5 6 
#
# 1 44.9928 13.6436 0.2535 0.0000 -8.4063 0.0000
# 2 13.6436 98.4933 -4.4314 0.0000 -1.3973 0.0000
# 3 0.2535 -4.4314 31.0296 0.0000 -3.0428 0.0000
# 4 0.0000 0.0000 0.0000 -71.7074 0.0000 -80.0923
# 5 -8.4063 -1.3973 -3.0428 0.0000 26.4675 0.0000
# 6 0.0000 0.0000 0.0000 -80.0923 0.0000 -34.3864
#
#
#
# Elastic Compliance Matrix: (Units=1/GPa)
#
#
# Indices 1 2 3 4 5 6 
#
# 1 0.024660 -0.003304 0.000079 0.000000 0.007667 0.000000
# 2 -0.003304 0.010675 0.001521 0.000000 -0.000311 0.000000
# 3 0.000079 0.001521 0.032824 0.000000 0.003879 0.000000
# 4 0.000000 0.000000 0.000000 0.008708 0.000000 -0.020282
# 5 0.007667 -0.000311 0.003879 0.000000 0.040647 0.000000
# 6 0.000000 0.000000 0.000000 -0.020282 0.000000 0.018158
#
#
# Mechanical properties :
#
#
# Convention : Reuss Voigt Hill
#
# Bulk Modulus (GPa) = 15.44395 21.49412 18.46904
# Shear Modulus (GPa) = 31.12114 -4.92192 13.09961
#
# Velocity S-wave (km/s) = 4.11455 -1.63629 2.66946
# Velocity P-wave (km/s) = 5.56542 2.85001 4.42134
#
# Compressibility (1/GPa) = 0.06475026
#
# Stress axis : x y z
#
# Youngs Moduli (GPa) = 40.55230 93.68012 30.46528
#
# Poissons Ratio (x) = 0.30948 -0.00239
# Poissons Ratio (y) = 0.13397 -0.04634
# Poissons Ratio (z) = -0.00319 -0.14248
#
# Static dielectric constant tensor:
#      x y z
#    x 1.611050 0.000000 0.000910 
#    y 0.000000 1.709090 0.000000 
#    z 0.000910 0.000000 1.641050 
# 
# From -- ./inp_files/26099.got.cif
#   From: 2010.05.17/outbox.cif.g08.bks.cpg/sg10_14_cif.got.tgz:26099.got - 2010.06.03 11:33:40.
