data_PCOD9153809
_publ_section_title
;
Structure prediction by ZEFSAII (Michael W. Deem and Ramdas Pophale) SiO2 
 PCOD9153809
Probable space group: P 2/M
;
_chemical_formula_sum "Si O2"
_cell_formula_units_Z 20
_cell_length_a 13.954931
_cell_length_b 8.189376
_cell_length_c 23.409553
_cell_angle_alpha 90.000000
_cell_angle_beta 20.161589
_cell_angle_gamma 90.000000
_cell_volume 922.091028
_symmetry_space_group_name_H-M "P 2/M"
_symmetry_group_IT_number 10
_symmetry_cell_setting 'monoclinic'
loop_
_space_group_symop_operation_xyz
x,y,z
-x,y,-z
-x,-y,-z
x,-y,z
loop_
_atom_site_type_symbol
_atom_site_label
_atom_site_fract_x
_atom_site_fract_y
_atom_site_fract_z
Si Si1 0.263732 0.825730 0.394341
Si Si2 0.785205 0.187819 0.267093
Si Si3 0.140258 0.809532 0.638588
Si Si4 0.816404 0.688060 0.048063
Si Si5 0.957795 0.500000 0.454598
Si Si6 0.773502 0.500000 0.807482
O O1 0.539100 0.794446 0.203524
O O2 0.211466 0.666290 0.461620
O O3 0.000000 0.834425 0.500000
O O4 0.287055 0.000000 0.411795
O O5 0.851762 0.200128 0.296808
O O6 0.459153 0.223221 0.441780
O O7 0.829962 0.000000 0.224362
O O8 0.990772 0.294236 0.114629
O O9 0.939201 0.666427 0.730006
O O10 0.067484 0.000000 0.665052
O O11 0.732256 0.500000 0.102624
O O12 0.000000 0.737005 0.000000
O O13 0.000000 0.500000 0.500000
O O14 0.226013 0.500000 0.262860
O O15 0.500000 0.500000 0.000000
#
# Coordination Sequence:
#
# PCOD9153809 Si02
#       6
#     4   4   4   4   2   2
#     4  10  22  42  66  92 126 178 223 265 334 400
#     4   9  20  40  65  94 128 171 220 273 339 398
#     4   9  22  43  67  95 129 171 222 277 329 397
#     4  11  24  36  59 100 138 172 221 282 337 401
#     4  10  24  46  65  93 137 172 223 281 323 399
#     4  12  28  43  68 102 131 179 227 270 337 398
#
# _framework density 21.689834000000001
#
# number of rings (size 3 to 8) (size 9 to 14) (size 15 to 20)
#    0.000    2.000    1.000    1.800    5.600    6.800 
#    0.000    2.000    0.000    0.000    0.000    0.000 
#    0.000    0.000    0.000    0.000    0.000    0.000 
#
# Total GULP energy -111674.681817 kJ/mol
# GULP energy per Si atom -5583.734091 kJ/mol
# Density = 2.164047 g / cm^3
# Si number density = 21.689834 Si / 1000 Ang^3
#
#
#
# Elastic Constant Matrix: (Units=GPa)
#
#
# Indices 1 2 3 4 5 6 
#
# 1 76.8217 32.2113 43.0512 0.0000 8.5975 0.0000
# 2 32.2113 138.7648 66.0982 0.0000 -3.7776 0.0000
# 3 43.0512 66.0982 154.3668 0.0000 12.9487 0.0000
# 4 0.0000 0.0000 0.0000 -763.5271 0.0000 595.6369
# 5 8.5975 -3.7776 12.9487 0.0000 29.3141 0.0000
# 6 0.0000 0.0000 0.0000 595.6369 0.0000 -408.7336
#
#
#
# Elastic Compliance Matrix: (Units=1/GPa)
#
#
# Indices 1 2 3 4 5 6 
#
# 1 0.016202 -0.002327 -0.003218 0.000000 -0.003631 0.000000
# 2 -0.002327 0.009647 -0.003783 0.000000 0.003597 0.000000
# 3 -0.003218 -0.003783 0.009302 0.000000 -0.003653 0.000000
# 4 0.000000 0.000000 0.000000 0.009571 0.000000 0.013948
# 5 -0.003631 0.003597 -0.003653 0.000000 0.037255 0.000000
# 6 0.000000 0.000000 0.000000 0.013948 0.000000 0.017879
#
#
# Mechanical properties :
#
#
# Convention : Reuss Voigt Hill
#
# Bulk Modulus (GPa) = 60.62580 72.51942 66.57261
# Shear Modulus (GPa) = 40.31891 -213.34982 -86.51545
#
# Velocity S-wave (km/s) = 4.31616 -9.92862 -6.32251
# Velocity P-wave (km/s) = 7.26986 9.89593 4.74755
#
# Compressibility (1/GPa) = 0.01649463
#
# Stress axis : x y z
#
# Youngs Moduli (GPa) = 61.71895 103.66271 107.50612
#
# Poissons Ratio (x) = 0.24125 0.34592
# Poissons Ratio (y) = 0.14363 0.40673
# Poissons Ratio (z) = 0.19859 0.39218
#
# Static dielectric constant tensor:
#      x y z
#    x 1.802000 0.000000 0.004440 
#    y 0.000000 1.830620 0.000000 
#    z 0.004440 0.000000 1.747520 
# 
# From -- ./inp_files/89306.got.cif
#   From: 2010.05.17/outbox.cif.g08.bks.cpg/sg10_45_cif.got.tgz:89306.got - 2010.06.03 11:33:40.
