data_PCOD9153087
_publ_section_title
;
Structure prediction by ZEFSAII (Michael W. Deem and Ramdas Pophale) SiO2 
 PCOD9153087
Probable space group: P 2/M
;
_chemical_formula_sum "Si O2"
_cell_formula_units_Z 32
_cell_length_a 9.305479
_cell_length_b 18.518487
_cell_length_c 11.066048
_cell_angle_alpha 90.000000
_cell_angle_beta 53.693150
_cell_angle_gamma 90.000000
_cell_volume 1536.721033
_symmetry_space_group_name_H-M "P 2/M"
_symmetry_group_IT_number 10
_symmetry_cell_setting 'monoclinic'
loop_
_space_group_symop_operation_xyz
x,y,z
-x,y,-z
-x,-y,-z
x,-y,z
loop_
_atom_site_type_symbol
_atom_site_label
_atom_site_fract_x
_atom_site_fract_y
_atom_site_fract_z
Si Si1 0.390271 0.580664 0.887106
Si Si2 0.306769 0.701581 0.286663
Si Si3 0.314485 0.856738 0.151571
Si Si4 0.806155 0.081413 0.557744
Si Si5 0.310352 0.216136 0.532237
Si Si6 0.308393 0.417111 0.645912
Si Si7 0.084209 0.356409 0.193663
Si Si8 0.025712 0.205597 0.126466
O O1 0.470389 0.500000 0.862637
O O2 0.532230 0.646033 0.820814
O O3 0.317365 0.584032 0.786607
O O4 0.229323 0.590020 0.062505
O O5 0.331416 0.778410 0.207845
O O6 0.287287 0.725085 0.436120
O O7 0.139914 0.665575 0.301487
O O8 0.287669 0.915935 0.267030
O O9 0.152742 0.848556 0.137452
O O10 0.500000 0.871726 0.000000
O O11 0.710319 0.137317 0.518485
O O12 0.000000 0.111839 0.500000
O O13 0.824182 0.000000 0.501838
O O14 0.500000 0.224461 0.500000
O O15 0.158251 0.216020 0.709581
O O16 0.500000 0.389005 0.500000
O O17 0.299164 0.500000 0.607271
O O18 0.119952 0.381434 0.707292
O O19 0.109842 0.285300 0.096849
O O20 0.000000 0.185841 0.000000
#
# Coordination Sequence:
#
# PCOD9153087 Si02
#       8
#     4   4   4   4   4   4   4   4
#     4  11  23  41  63  93 132 174 221 274 341 405
#     4  10  24  41  65  98 128 168 220 283 331 389
#     4  10  21  39  66  96 137 172 222 274 321 387
#     4  10  21  43  71  99 137 182 223 265 322 385
#     4  11  26  43  70 101 134 175 220 273 331 393
#     4  10  23  41  59  86 124 167 216 271 331 398
#     4  11  23  38  65  90 124 168 219 274 334 398
#     4  11  24  39  62  98 132 168 219 276 328 386
#
# _framework density 20.823558999999999
#
# number of rings (size 3 to 8) (size 9 to 14) (size 15 to 20)
#    0.000    1.500    1.250    3.375    8.750    3.000 
#    0.000    0.000    0.000    3.000    0.000    0.000 
#    0.000    0.000    0.000    0.000    0.000    0.000 
#
# Total GULP energy -178711.129847 kJ/mol
# GULP energy per Si atom -5584.722808 kJ/mol
# Density = 2.077616 g / cm^3
# Si number density = 20.823559 Si / 1000 Ang^3
#
#
#
# Elastic Constant Matrix: (Units=GPa)
#
#
# Indices 1 2 3 4 5 6 
#
# 1 119.4045 29.5459 53.9101 0.0000 4.6431 0.0000
# 2 29.5459 75.3584 7.0529 0.0000 5.3370 0.0000
# 3 53.9101 7.0529 134.0012 0.0000 2.3635 0.0000
# 4 0.0000 0.0000 0.0000 17.2722 0.0000 -6.7121
# 5 4.6431 5.3370 2.3635 0.0000 35.1590 0.0000
# 6 0.0000 0.0000 0.0000 -6.7121 0.0000 199.5933
#
#
#
# Elastic Compliance Matrix: (Units=1/GPa)
#
#
# Indices 1 2 3 4 5 6 
#
# 1 0.011350 -0.004001 -0.004345 0.000000 -0.000599 0.000000
# 2 -0.004001 0.014885 0.000858 0.000000 -0.001789 0.000000
# 3 -0.004345 0.000858 0.009169 0.000000 -0.000173 0.000000
# 4 0.000000 0.000000 0.000000 0.058663 0.000000 0.001973
# 5 -0.000599 -0.001789 -0.000173 0.000000 0.028805 0.000000
# 6 0.000000 0.000000 0.000000 0.001973 0.000000 0.005077
#
#
# Mechanical properties :
#
#
# Convention : Reuss Voigt Hill
#
# Bulk Modulus (GPa) = 48.95471 56.64243 52.79857
# Shear Modulus (GPa) = 33.39272 66.28857 49.84064
#
# Velocity S-wave (km/s) = 4.00885 5.64823 4.89762
# Velocity P-wave (km/s) = 6.70732 8.35446 7.57579
#
# Compressibility (1/GPa) = 0.02042704
#
# Stress axis : x y z
#
# Youngs Moduli (GPa) = 88.10612 67.18192 109.06804
#
# Poissons Ratio (x) = 0.26879 0.47391
# Poissons Ratio (y) = 0.35250 -0.09355
# Poissons Ratio (z) = 0.38283 -0.05762
#
# Static dielectric constant tensor:
#      x y z
#    x 1.743050 0.000000 0.006160 
#    y 0.000000 1.778730 0.000000 
#    z 0.006160 0.000000 1.841830 
# 
# From -- ./inp_files/43605.got.cif
#   From: 2010.05.17/outbox.cif.g08.bks.cpg/sg10_22_cif.got.tgz:43605.got - 2010.06.03 11:33:40.
