data_PCOD9153910
_publ_section_title
;
Structure prediction by ZEFSAII (Michael W. Deem and Ramdas Pophale) SiO2 
 PCOD9153910
Probable space group: P 2/M
;
_chemical_formula_sum "Si O2"
_cell_formula_units_Z 32
_cell_length_a 26.359953
_cell_length_b 8.600063
_cell_length_c 15.156921
_cell_angle_alpha 90.000000
_cell_angle_beta 30.397567
_cell_angle_gamma 90.000000
_cell_volume 1738.622564
_symmetry_space_group_name_H-M "P 2/M"
_symmetry_group_IT_number 10
_symmetry_cell_setting 'monoclinic'
loop_
_space_group_symop_operation_xyz
x,y,z
-x,y,-z
-x,-y,-z
x,-y,z
loop_
_atom_site_type_symbol
_atom_site_label
_atom_site_fract_x
_atom_site_fract_y
_atom_site_fract_z
Si Si1 0.655991 0.187526 0.516011
Si Si2 0.271835 0.687950 0.237760
Si Si3 0.211404 0.813758 0.849810
Si Si4 0.211477 0.813757 0.515851
Si Si5 0.887164 0.689138 0.669253
Si Si6 0.000029 0.686464 0.896591
Si Si7 0.728176 0.687949 0.053289
Si Si8 0.431838 0.312450 0.852204
O O1 0.717822 0.238090 0.337139
O O2 0.717740 0.238091 0.509551
O O3 0.543418 0.249242 0.684834
O O4 0.652813 0.000000 0.520776
O O5 0.273057 0.500000 0.242928
O O6 0.259397 0.759036 0.352322
O O7 0.176077 0.733859 0.321814
O O8 0.368276 0.734732 0.034491
O O9 0.204897 0.000000 0.858097
O O10 0.100482 0.746651 0.999640
O O11 0.259353 0.759048 0.869521
O O12 0.100553 0.746670 0.698824
O O13 0.204980 0.000000 0.527068
O O14 0.889640 0.500000 0.665535
O O15 0.823916 0.733850 0.850059
O O16 0.000000 0.747772 0.500000
O O17 0.000037 0.500000 0.894769
O O18 0.000000 0.737237 0.000000
O O19 0.726954 0.500000 0.062130
O O20 0.631719 0.734733 0.139399
O O21 0.433727 0.500000 0.849369
#
# Coordination Sequence:
#
# PCOD9153910 Si02
#       8
#     4   4   4   4   4   4   4   4
#     4  10  23  40  58  80 112 155 196 233 286 350
#     4   9  19  36  57  85 115 147 191 237 287 340
#     4  11  23  39  58  84 119 155 189 234 288 342
#     4  11  23  39  58  84 119 155 189 234 288 342
#     4   8  15  30  53  79 110 145 182 230 283 334
#     4  11  23  39  61  86 113 150 193 237 284 340
#     4   9  19  36  57  85 115 147 191 237 287 340
#     4   9  20  39  61  84 116 151 189 247 297 331
#
# _framework density 18.405374999999999
#
# number of rings (size 3 to 8) (size 9 to 14) (size 15 to 20)
#    0.000    2.250    1.250    2.625    1.750    4.500 
#    0.000    6.875    0.000    0.750    0.000    0.000 
#    0.000    0.000    0.000    0.000    0.000    0.000 
#
# Total GULP energy -178626.059662 kJ/mol
# GULP energy per Si atom -5582.064364 kJ/mol
# Density = 1.836348 g / cm^3
# Si number density = 18.405375 Si / 1000 Ang^3
#
#
#
# Elastic Constant Matrix: (Units=GPa)
#
#
# Indices 1 2 3 4 5 6 
#
# 1 151.0500 35.9992 131.9934 0.0000 17.1269 0.0000
# 2 35.9992 27.5624 34.4159 0.0000 1.5268 0.0000
# 3 131.9934 34.4159 151.3054 0.0000 -18.0807 0.0000
# 4 0.0000 0.0000 0.0000 27.3135 0.0000 -1.2863
# 5 17.1269 1.5268 -18.0807 0.0000 36.6808 0.0000
# 6 0.0000 0.0000 0.0000 -1.2863 0.0000 26.0426
#
#
#
# Elastic Compliance Matrix: (Units=1/GPa)
#
#
# Indices 1 2 3 4 5 6 
#
# 1 0.220808 -0.007057 -0.216030 0.000000 -0.209292 0.000000
# 2 -0.007057 0.053381 -0.006224 0.000000 -0.001995 0.000000
# 3 -0.216030 -0.006224 0.221621 0.000000 0.210369 0.000000
# 4 0.000000 0.000000 0.000000 0.036697 0.000000 0.001813
# 5 -0.209292 -0.001995 0.210369 0.000000 0.228762 0.000000
# 6 0.000000 0.000000 0.000000 0.001813 0.000000 0.038488
#
#
# Mechanical properties :
#
#
# Convention : Reuss Voigt Hill
#
# Bulk Modulus (GPa) = 26.89094 81.63719 54.26406
# Shear Modulus (GPa) = 3.93460 26.50799 15.22130
#
# Velocity S-wave (km/s) = 1.46369 3.79915 2.87889
# Velocity P-wave (km/s) = 4.18313 7.98099 6.37161
#
# Compressibility (1/GPa) = 0.03718724
#
# Stress axis : x y z
#
# Youngs Moduli (GPa) = 4.52881 18.73337 4.51221
#
# Poissons Ratio (x) = 0.13219 0.97477
# Poissons Ratio (y) = 0.03196 0.02809
# Poissons Ratio (z) = 0.97836 0.11661
#
# Static dielectric constant tensor:
#      x y z
#    x 1.622900 0.000000 0.009100 
#    y 0.000000 1.630630 0.000000 
#    z 0.009100 0.000000 1.613900 
# 
# From -- ./inp_files/72175.got.cif
#   From: 2010.05.17/outbox.cif.g08.bks.cpg/sg10_37_cif.got.tgz:72175.got - 2010.06.03 11:33:40.
