data_PCOD9153875
_publ_section_title
;
Structure prediction by ZEFSAII (Michael W. Deem and Ramdas Pophale) SiO2 
 PCOD9153875
Probable space group: P 2/M
;
_chemical_formula_sum "Si O2"
_cell_formula_units_Z 17
_cell_length_a 5.183960
_cell_length_b 25.398194
_cell_length_c 4.950010
_cell_angle_alpha 90.000000
_cell_angle_beta 86.598982
_cell_angle_gamma 90.000000
_cell_volume 650.586413
_symmetry_space_group_name_H-M "P 2/M"
_symmetry_group_IT_number 10
_symmetry_cell_setting 'monoclinic'
loop_
_space_group_symop_operation_xyz
x,y,z
-x,y,-z
-x,-y,-z
x,-y,z
loop_
_atom_site_type_symbol
_atom_site_label
_atom_site_fract_x
_atom_site_fract_y
_atom_site_fract_z
Si Si1 0.500000 0.918536 0.500000
Si Si2 0.183478 0.438805 0.224629
Si Si3 0.765666 0.716744 0.810476
Si Si4 0.500000 0.000000 0.000000
Si Si5 0.234783 0.837584 0.186330
Si Si6 0.500000 0.362893 0.500000
O O1 0.272908 0.879306 0.422009
O O2 0.450861 0.954610 0.765984
O O3 0.245065 0.500000 0.171474
O O4 0.437110 0.405140 0.270803
O O5 0.000000 0.436484 0.500000
O O6 0.000000 0.418245 0.000000
O O7 0.785715 0.777287 0.716320
O O8 0.726934 0.678239 0.559185
O O9 0.500000 0.710916 0.000000
O O10 0.000000 0.706215 0.000000
O O11 0.500000 0.839691 0.000000
O O12 0.000000 0.849097 0.000000
#
# Coordination Sequence:
#
# PCOD9153875 Si02
#       6
#     2   4   4   1   4   2
#     4  11  21  46  71 109 142 197 231 308 342 436
#     4  10  24  44  66  95 132 179 236 289 348 423
#     4  10  24  42  66 104 141 180 234 290 352 425
#     4  10  24  42  74 108 154 178 252 292 370 392
#     4  10  22  44  73 102 140 191 238 288 352 426
#     4  12  24  36  67  95 138 182 220 298 350 432
#
# _framework density 26.130268000000001
#
# number of rings (size 3 to 8) (size 9 to 14) (size 15 to 20)
#    0.000    1.647    1.176    1.765    6.588    0.941 
#    0.000   14.118    0.000    0.000    0.000    0.000 
#    0.000    0.000    0.000    0.000    0.000    0.000 
#
# Total GULP energy -94877.370535 kJ/mol
# GULP energy per Si atom -5581.021796 kJ/mol
# Density = 2.607079 g / cm^3
# Si number density = 26.130268 Si / 1000 Ang^3
#
#
#
# Elastic Constant Matrix: (Units=GPa)
#
#
# Indices 1 2 3 4 5 6 
#
# 1 166.3538 30.3580 76.4411 0.0000 31.9871 0.0000
# 2 30.3580 245.1099 110.4433 0.0000 53.0584 0.0000
# 3 76.4411 110.4433 210.8525 0.0000 43.4269 0.0000
# 4 0.0000 0.0000 0.0000 129.7871 0.0000 49.9799
# 5 31.9871 53.0584 43.4269 0.0000 67.9137 0.0000
# 6 0.0000 0.0000 0.0000 49.9799 0.0000 -2.3570
#
#
#
# Elastic Compliance Matrix: (Units=1/GPa)
#
#
# Indices 1 2 3 4 5 6 
#
# 1 0.007560 0.000794 -0.002644 0.000000 -0.002491 0.000000
# 2 0.000794 0.005908 -0.002712 0.000000 -0.003256 0.000000
# 3 -0.002644 -0.002712 0.007404 0.000000 -0.001370 0.000000
# 4 0.000000 0.000000 0.000000 0.000841 0.000000 0.017825
# 5 -0.002491 -0.003256 -0.001370 0.000000 0.019317 0.000000
# 6 0.000000 0.000000 0.000000 0.017825 0.000000 -0.046288
#
#
# Mechanical properties :
#
#
# Convention : Reuss Voigt Hill
#
# Bulk Modulus (GPa) = 85.11567 117.42235 101.26901
# Shear Modulus (GPa) = 642.51363 66.07368 354.29365
#
# Velocity S-wave (km/s) = 15.69785 5.03400 11.65684
# Velocity P-wave (km/s) = 19.00546 8.87823 14.83291
#
# Compressibility (1/GPa) = 0.01174872
#
# Stress axis : x y z
#
# Youngs Moduli (GPa) = 132.27334 169.25637 135.06449
#
# Poissons Ratio (x) = -0.13439 0.35707
# Poissons Ratio (y) = -0.10503 0.36630
# Poissons Ratio (z) = 0.34970 0.45902
#
# Static dielectric constant tensor:
#      x y z
#    x 2.179170 0.000000 -0.159280 
#    y 0.000000 2.042890 0.000000 
#    z -0.159280 0.000000 2.098410 
# 
# From -- ./inp_files/2211.got.cif
#   From: 2010.05.17/outbox.cif.g08.bks.cpg/sg10_2_cif.got.tgz:2211.got - 2010.06.03 11:33:40.
