data_PCOD9153272
_publ_section_title
;
Structure prediction by ZEFSAII (Michael W. Deem and Ramdas Pophale) SiO2 
 PCOD9153272
Probable space group: P 2/M
;
_chemical_formula_sum "Si O2"
_cell_formula_units_Z 29
_cell_length_a 31.425746
_cell_length_b 7.810784
_cell_length_c 10.266562
_cell_angle_alpha 90.000000
_cell_angle_beta 148.925073
_cell_angle_gamma 90.000000
_cell_volume 1300.733729
_symmetry_space_group_name_H-M "P 2/M"
_symmetry_group_IT_number 10
_symmetry_cell_setting 'monoclinic'
loop_
_space_group_symop_operation_xyz
x,y,z
-x,y,-z
-x,-y,-z
x,-y,z
loop_
_atom_site_type_symbol
_atom_site_label
_atom_site_fract_x
_atom_site_fract_y
_atom_site_fract_z
Si Si1 0.164609 0.301647 0.960211
Si Si2 0.665699 0.796695 0.720085
Si Si3 0.077644 0.293229 0.475542
Si Si4 0.107134 0.806790 0.082560
Si Si5 0.798905 0.303396 0.424685
Si Si6 0.500000 0.500000 0.000000
Si Si7 0.627243 0.195554 0.905096
Si Si8 0.517007 0.795393 0.852104
O O1 0.142993 0.500000 0.927900
O O2 0.103761 0.233494 0.687779
O O3 0.256056 0.289347 0.141292
O O4 0.155122 0.209434 0.072329
O O5 0.581725 0.777886 0.419567
O O6 0.685005 0.000000 0.780050
O O7 0.646601 0.726427 0.814780
O O8 0.081362 0.500000 0.487339
O O9 0.144638 0.234503 0.545046
O O10 0.986753 0.242671 0.194071
O O11 0.149179 0.700558 0.307012
O O12 0.109118 0.000000 0.135798
O O13 0.777629 0.500000 0.339034
O O14 0.713344 0.203981 0.208101
O O15 0.456514 0.654413 0.974324
O O16 0.603666 0.000000 0.813668
O O17 0.556722 0.256448 0.817276
O O18 0.535664 0.000000 0.925273
#
# Coordination Sequence:
#
# PCOD9153272 Si02
#       8
#     4   4   4   4   4   1   4   4
#     4  11  23  41  65  95 130 171 216 273 331 393
#     4  10  21  41  69  98 131 167 212 271 336 393
#     4  10  22  42  65  92 127 168 214 273 335 392
#     4  12  26  41  61  92 127 171 223 269 330 400
#     4  11  23  41  65  95 130 171 216 273 331 393
#     4  12  26  44  66  98 128 192 222 270 320 402
#     4  10  21  41  69  98 131 167 212 271 336 393
#     4  10  24  45  69 101 139 178 221 276 332 393
#
# _framework density 22.295110000000001
#
# number of rings (size 3 to 8) (size 9 to 14) (size 15 to 20)
#    0.000    1.379    1.379    3.517    1.931    8.276 
#    0.000    2.069    0.000    0.000    0.000    0.000 
#    0.000    0.000    0.000    0.000    0.000    0.000 
#
# Total GULP energy -161833.520353 kJ/mol
# GULP energy per Si atom -5580.466219 kJ/mol
# Density = 2.224436 g / cm^3
# Si number density = 22.295110 Si / 1000 Ang^3
#
#
#
# Elastic Constant Matrix: (Units=GPa)
#
#
# Indices 1 2 3 4 5 6 
#
# 1 135.6712 17.9371 -91.4412 0.0000 25.3638 0.0000
# 2 17.9371 71.3379 -8.7997 0.0000 -0.4997 0.0000
# 3 -91.4412 -8.7997 168.7115 0.0000 -27.1600 0.0000
# 4 0.0000 0.0000 0.0000 17.1363 0.0000 6.7468
# 5 25.3638 -0.4997 -27.1600 0.0000 42.6682 0.0000
# 6 0.0000 0.0000 0.0000 6.7468 0.0000 22.9190
#
#
#
# Elastic Compliance Matrix: (Units=1/GPa)
#
#
# Indices 1 2 3 4 5 6 
#
# 1 0.012422 -0.002404 0.006032 0.000000 -0.003573 0.000000
# 2 -0.002404 0.014593 -0.000317 0.000000 0.001398 0.000000
# 3 0.006032 -0.000317 0.009585 0.000000 0.002511 0.000000
# 4 0.000000 0.000000 0.000000 0.066006 0.000000 -0.019430
# 5 -0.003573 0.001398 0.002511 0.000000 0.027175 0.000000
# 6 0.000000 0.000000 0.000000 -0.019430 0.000000 0.049352
#
#
# Mechanical properties :
#
#
# Convention : Reuss Voigt Hill
#
# Bulk Modulus (GPa) = 23.13643 23.45700 23.29671
# Shear Modulus (GPa) = 26.74971 47.07967 36.91469
#
# Velocity S-wave (km/s) = 3.46757 4.60026 4.07348
# Velocity P-wave (km/s) = 5.14120 6.22580 5.70931
#
# Compressibility (1/GPa) = 0.04322189
#
# Stress axis : x y z
#
# Youngs Moduli (GPa) = 80.50067 68.52576 104.33488
#
# Poissons Ratio (x) = 0.16476 -0.62938
# Poissons Ratio (y) = 0.19355 0.03306
# Poissons Ratio (z) = -0.48560 0.02171
#
# Static dielectric constant tensor:
#      x y z
#    x 1.816350 0.000000 -0.025250 
#    y 0.000000 1.825800 0.000000 
#    z -0.025250 0.000000 1.819270 
# 
# From -- ./inp_files/37426.got.cif
#   From: 2010.05.17/outbox.cif.g08.bks.cpg/sg10_19_cif.got.tgz:37426.got - 2010.06.03 11:33:40.
