data_PCOD9153183
_publ_section_title
;
Structure prediction by ZEFSAII (Michael W. Deem and Ramdas Pophale) SiO2 
 PCOD9153183
Probable space group: P 2/M
;
_chemical_formula_sum "Si O2"
_cell_formula_units_Z 18
_cell_length_a 5.079059
_cell_length_b 18.631794
_cell_length_c 7.766239
_cell_angle_alpha 90.000000
_cell_angle_beta 103.089428
_cell_angle_gamma 90.000000
_cell_volume 715.839343
_symmetry_space_group_name_H-M "P 2/M"
_symmetry_group_IT_number 10
_symmetry_cell_setting 'monoclinic'
loop_
_space_group_symop_operation_xyz
x,y,z
-x,y,-z
-x,-y,-z
x,-y,z
loop_
_atom_site_type_symbol
_atom_site_label
_atom_site_fract_x
_atom_site_fract_y
_atom_site_fract_z
Si Si1 0.704329 0.080132 0.691573
Si Si2 0.497417 0.219104 0.199845
Si Si3 0.186465 0.415709 0.864032
Si Si4 0.331664 0.358029 0.303467
Si Si5 0.000000 0.814370 0.500000
O O1 0.500000 0.073656 0.500000
O O2 0.575966 0.135099 0.806605
O O3 0.933699 0.129188 0.643241
O O4 0.775800 0.000000 0.759503
O O5 0.282506 0.274011 0.251765
O O6 0.751942 0.227111 0.370438
O O7 0.500000 0.239671 0.000000
O O8 0.221646 0.500000 0.898107
O O9 0.465930 0.386777 0.820854
O O10 0.943468 0.399623 0.698154
O O11 0.000000 0.386729 0.000000
O O12 0.500000 0.364230 0.500000
#
# Coordination Sequence:
#
# PCOD9153183 Si02
#       5
#     4   4   4   4   2
#     4   9  19  38  63  93 129 171 223 280 343 412
#     4  11  25  42  64  96 133 176 228 285 347 414
#     4  11  25  46  72 103 140 183 231 286 353 424
#     4  12  26  44  70 102 141 183 236 291 349 422
#     4  10  21  40  66  90 129 174 224 282 345 416
#
# _framework density 25.145305
#
# number of rings (size 3 to 8) (size 9 to 14) (size 15 to 20)
#    0.000    1.333    0.000    5.667    6.222    6.667 
#    0.000    1.111    0.000    0.000    0.000    0.000 
#    0.000    0.000    0.000    0.000    0.000    0.000 
#
# Total GULP energy -100282.701236 kJ/mol
# GULP energy per Si atom -5571.261180 kJ/mol
# Density = 2.508807 g / cm^3
# Si number density = 25.145305 Si / 1000 Ang^3
#
#
#
# Elastic Constant Matrix: (Units=GPa)
#
#
# Indices 1 2 3 4 5 6 
#
# 1 147.1235 40.3695 9.9479 0.0000 -5.0794 0.0000
# 2 40.3695 116.2162 -0.0080 0.0000 1.8892 0.0000
# 3 9.9479 -0.0080 65.8945 0.0000 -30.1464 0.0000
# 4 0.0000 0.0000 0.0000 10.1986 0.0000 19.5853
# 5 -5.0794 1.8892 -30.1464 0.0000 28.5894 0.0000
# 6 0.0000 0.0000 0.0000 19.5853 0.0000 14.9232
#
#
#
# Elastic Compliance Matrix: (Units=1/GPa)
#
#
# Indices 1 2 3 4 5 6 
#
# 1 0.007604 -0.002651 -0.000870 0.000000 0.000609 0.000000
# 2 -0.002651 0.009547 -0.000198 0.000000 -0.001311 0.000000
# 3 -0.000870 -0.000198 0.029449 0.000000 0.030911 0.000000
# 4 0.000000 0.000000 0.000000 -0.064494 0.000000 0.084643
# 5 0.000609 -0.001311 0.030911 0.000000 0.067768 0.000000
# 6 0.000000 0.000000 0.000000 0.084643 0.000000 -0.044076
#
#
# Mechanical properties :
#
#
# Convention : Reuss Voigt Hill
#
# Bulk Modulus (GPa) = 25.53546 47.76146 36.64846
# Shear Modulus (GPa) = 190.18432 29.33724 109.76078
#
# Velocity S-wave (km/s) = 8.70622 3.41942 6.61403
# Velocity P-wave (km/s) = 10.54711 5.88433 8.54011
#
# Compressibility (1/GPa) = 0.03916124
#
# Stress axis : x y z
#
# Youngs Moduli (GPa) = 131.50309 104.74519 33.95728
#
# Poissons Ratio (x) = 0.27773 0.02953
# Poissons Ratio (y) = 0.34868 0.00674
# Poissons Ratio (z) = 0.11435 0.02078
#
# Static dielectric constant tensor:
#      x y z
#    x 2.239720 0.000000 0.070740 
#    y 0.000000 1.949270 0.000000 
#    z 0.070740 0.000000 2.310200 
# 
# From -- ./inp_files/14550.got.cif
#   From: 2010.05.17/outbox.cif.g08.bks.cpg/sg10_8_cif.got.tgz:14550.got - 2010.06.03 11:33:40.
