data_PCOD9153063
_publ_section_title
;
Structure prediction by ZEFSAII (Michael W. Deem and Ramdas Pophale) SiO2 
 PCOD9153063
Probable space group: P 2/M
;
_chemical_formula_sum "Si O2"
_cell_formula_units_Z 17
_cell_length_a 4.218101
_cell_length_b 25.606535
_cell_length_c 5.277884
_cell_angle_alpha 90.000000
_cell_angle_beta 89.417715
_cell_angle_gamma 90.000000
_cell_volume 570.039831
_symmetry_space_group_name_H-M "P 2/M"
_symmetry_group_IT_number 10
_symmetry_cell_setting 'monoclinic'
loop_
_space_group_symop_operation_xyz
x,y,z
-x,y,-z
-x,-y,-z
x,-y,z
loop_
_atom_site_type_symbol
_atom_site_label
_atom_site_fract_x
_atom_site_fract_y
_atom_site_fract_z
Si Si1 0.768986 0.292419 0.751421
Si Si2 0.786194 0.500000 0.251418
Si Si3 0.768446 0.613283 0.251393
Si Si4 0.500000 0.086041 0.500000
Si Si5 0.000000 0.000000 0.500000
Si Si6 0.210164 0.178453 0.246092
O O1 0.617246 0.234853 0.753501
O O2 0.000000 0.292193 0.500000
O O3 0.499920 0.339518 0.749964
O O4 0.000000 0.291718 0.000000
O O5 0.000000 0.500000 0.500000
O O6 0.611803 0.555906 0.251261
O O7 0.000000 0.500000 0.000000
O O8 0.000000 0.612610 0.500000
O O9 0.000000 0.612993 0.000000
O O10 0.406668 0.125979 0.279473
O O11 0.235569 0.046412 0.600832
O O12 0.000000 0.178334 0.500000
O O13 0.000000 0.176088 0.000000
#
# Coordination Sequence:
#
# PCOD9153063 Si02
#       6
#     4   2   4   2   1   4
#     4   8  14  25  43  69 100 139 187 241 299 357
#     4   8  12  16  24  42  74 121 170 222 281 341
#     4   8  12  18  29  49  82 124 174 228 284 347
#     4  11  22  46  72 102 138 173 222 262 324 375
#     4  10  24  46  74 104 138 178 216 270 312 384
#     4  10  21  39  65  94 127 167 211 263 319 378
#
# _framework density 29.822476000000002
#
# number of rings (size 3 to 8) (size 9 to 14) (size 15 to 20)
#    0.000    3.059    1.176    0.000    0.000    0.941 
#    0.000    3.529    0.000    0.000    0.000    0.000 
#    0.000    0.941    0.000    0.235    0.000  300.824 
#
# Total GULP energy -94713.499021 kJ/mol
# GULP energy per Si atom -5571.382295 kJ/mol
# Density = 2.975460 g / cm^3
# Si number density = 29.822476 Si / 1000 Ang^3
#
#
#
# Elastic Constant Matrix: (Units=GPa)
#
#
# Indices 1 2 3 4 5 6 
#
# 1 160.3030 126.5042 121.6178 0.0000 -4.1060 0.0000
# 2 126.5042 438.5441 49.0755 0.0000 38.7039 0.0000
# 3 121.6178 49.0755 339.9951 0.0000 11.0306 0.0000
# 4 0.0000 0.0000 0.0000 -15.7309 0.0000 34.0755
# 5 -4.1060 38.7039 11.0306 0.0000 109.0583 0.0000
# 6 0.0000 0.0000 0.0000 34.0755 0.0000 129.6516
#
#
#
# Elastic Compliance Matrix: (Units=1/GPa)
#
#
# Indices 1 2 3 4 5 6 
#
# 1 0.011573 -0.003087 -0.003756 0.000000 0.001911 0.000000
# 2 -0.003087 0.003211 0.000684 0.000000 -0.001325 0.000000
# 3 -0.003756 0.000684 0.004212 0.000000 -0.000810 0.000000
# 4 0.000000 0.000000 0.000000 -0.040507 0.000000 0.010646
# 5 0.001911 -0.001325 -0.000810 0.000000 0.009793 0.000000
# 6 0.000000 0.000000 0.000000 0.010646 0.000000 0.004915
#
#
# Mechanical properties :
#
#
# Convention : Reuss Voigt Hill
#
# Bulk Modulus (GPa) = 149.74726 170.35968 160.05347
# Shear Modulus (GPa) = 645.91491 87.37211 366.64351
#
# Velocity S-wave (km/s) = 14.73285 5.41858 11.09995
# Velocity P-wave (km/s) = 18.43179 9.81818 14.76698
#
# Compressibility (1/GPa) = 0.00667792
#
# Stress axis : x y z
#
# Youngs Moduli (GPa) = 86.41140 311.42153 237.39555
#
# Poissons Ratio (x) = 0.96123 0.89166
# Poissons Ratio (y) = 0.26672 -0.16228
# Poissons Ratio (z) = 0.32456 -0.21288
#
# Static dielectric constant tensor:
#      x y z
#    x 2.483880 0.000000 -0.048620 
#    y 0.000000 2.342190 0.000000 
#    z -0.048620 0.000000 2.558360 
# 
# From -- ./inp_files/1925.got.cif
#   From: 2010.05.17/outbox.cif.g08.bks.cpg/sg10_1_cif.got.tgz:1925.got - 2010.06.03 11:33:40.
