data_PCOD9153323
_publ_section_title
;
Structure prediction by ZEFSAII (Michael W. Deem and Ramdas Pophale) SiO2 
 PCOD9153323
Probable space group: P 2/M
;
_chemical_formula_sum "Si O2"
_cell_formula_units_Z 10
_cell_length_a 4.964990
_cell_length_b 14.165837
_cell_length_c 5.080536
_cell_angle_alpha 90.000000
_cell_angle_beta 87.111790
_cell_angle_gamma 90.000000
_cell_volume 356.876653
_symmetry_space_group_name_H-M "P 2/M"
_symmetry_group_IT_number 10
_symmetry_cell_setting 'monoclinic'
loop_
_space_group_symop_operation_xyz
x,y,z
-x,y,-z
-x,-y,-z
x,-y,z
loop_
_atom_site_type_symbol
_atom_site_label
_atom_site_fract_x
_atom_site_fract_y
_atom_site_fract_z
Si Si1 0.500000 0.660690 0.000000
Si Si2 0.306334 0.000000 0.758433
Si Si3 0.219360 0.207146 0.682558
Si Si4 0.204313 0.500000 0.738519
O O1 0.269768 0.737547 0.949972
O O2 0.407414 0.588075 0.775351
O O3 0.500000 0.000000 0.500000
O O4 0.150261 0.901606 0.746765
O O5 0.500000 0.000000 0.000000
O O6 0.500000 0.209349 0.500000
O O7 0.000000 0.251185 0.500000
O O8 0.000000 0.500000 0.500000
O O9 0.000000 0.500000 0.000000
#
# Coordination Sequence:
#
# PCOD9153323 Si02
#       4
#     2   2   4   2
#     4  11  26  43  74 104 144 187 244 303 360 440
#     4  10  21  46  68 107 151 195 238 296 354 427
#     4  11  25  44  72 107 149 193 243 295 359 430
#     4  11  28  49  74 102 145 186 241 305 376 434
#
# _framework density 28.020886000000001
#
# number of rings (size 3 to 8) (size 9 to 14) (size 15 to 20)
#    0.000    1.200    2.000    1.800   11.200    1.600 
#    0.000    4.000    0.000    0.000    0.000    0.000 
#    0.000    0.000    0.000    0.000    0.000    0.000 
#
# Total GULP energy -55853.577148 kJ/mol
# GULP energy per Si atom -5585.357715 kJ/mol
# Density = 2.795711 g / cm^3
# Si number density = 28.020886 Si / 1000 Ang^3
#
#
#
# Elastic Constant Matrix: (Units=GPa)
#
#
# Indices 1 2 3 4 5 6 
#
# 1 152.4760 13.0695 89.1596 0.0000 27.4243 0.0000
# 2 13.0695 213.5123 43.2084 0.0000 45.7132 0.0000
# 3 89.1596 43.2084 280.9651 0.0000 54.0401 0.0000
# 4 0.0000 0.0000 0.0000 -170.2508 0.0000 -788.1484
# 5 27.4243 45.7132 54.0401 0.0000 96.5655 0.0000
# 6 0.0000 0.0000 0.0000 -788.1484 0.0000-3577.1083
#
#
#
# Elastic Compliance Matrix: (Units=1/GPa)
#
#
# Indices 1 2 3 4 5 6 
#
# 1 0.008142 0.000218 -0.002412 0.000000 -0.001065 0.000000
# 2 0.000218 0.005252 -0.000433 0.000000 -0.002305 0.000000
# 3 -0.002412 -0.000433 0.004729 0.000000 -0.001756 0.000000
# 4 0.000000 0.000000 0.000000 0.293870 0.000000 -0.064749
# 5 -0.001065 -0.002305 -0.001756 0.000000 0.012732 0.000000
# 6 0.000000 0.000000 0.000000 -0.064749 0.000000 0.013987
#
#
# Mechanical properties :
#
#
# Convention : Reuss Voigt Hill
#
# Bulk Modulus (GPa) = 77.71754 104.20317 90.96035
# Shear Modulus (GPa) = 14.35726 -696.72433 -341.18353
#
# Velocity S-wave (km/s) = 2.26603 -15.78558 -11.04648
# Velocity P-wave (km/s) = 5.88577 17.17491 11.40910
#
# Compressibility (1/GPa) = 0.01286711
#
# Stress axis : x y z
#
# Youngs Moduli (GPa) = 122.82086 190.42121 211.45664
#
# Poissons Ratio (x) = -0.04149 0.51009
# Poissons Ratio (y) = -0.02676 0.09163
# Poissons Ratio (z) = 0.29628 0.08252
#
# Static dielectric constant tensor:
#      x y z
#    x 2.165070 0.000000 -0.173820 
#    y 0.000000 2.208940 0.000000 
#    z -0.173820 0.000000 2.161030 
# 
# From -- ./inp_files/295.got.cif
#   From: 2010.05.17/outbox.cif.g08.bks.cpg/sg10_1_cif.got.tgz:295.got - 2010.06.03 11:33:40.
