data_PCOD9153918
_publ_section_title
;
Structure prediction by ZEFSAII (Michael W. Deem and Ramdas Pophale) SiO2 
 PCOD9153918
Probable space group: P 2/M
;
_chemical_formula_sum "Si O2"
_cell_formula_units_Z 28
_cell_length_a 21.657187
_cell_length_b 11.084719
_cell_length_c 5.113449
_cell_angle_alpha 90.000000
_cell_angle_beta 84.551987
_cell_angle_gamma 90.000000
_cell_volume 1222.008998
_symmetry_space_group_name_H-M "P 2/M"
_symmetry_group_IT_number 10
_symmetry_cell_setting 'monoclinic'
loop_
_space_group_symop_operation_xyz
x,y,z
-x,y,-z
-x,-y,-z
x,-y,z
loop_
_atom_site_type_symbol
_atom_site_label
_atom_site_fract_x
_atom_site_fract_y
_atom_site_fract_z
Si Si1 0.660936 0.286538 0.759128
Si Si2 0.214744 0.500000 0.088395
Si Si3 0.441977 0.367900 0.828162
Si Si4 0.741403 0.136513 0.056857
Si Si5 0.070554 0.646089 0.378965
Si Si6 0.707444 0.500000 0.429668
Si Si7 0.392757 0.134483 0.594439
Si Si8 0.859432 0.278342 0.124016
O O1 0.672776 0.377176 0.516810
O O2 0.621110 0.168797 0.699440
O O3 0.619481 0.361011 0.972553
O O4 0.724795 0.233695 0.840864
O O5 0.274063 0.500000 0.875935
O O6 0.177325 0.386980 0.998367
O O7 0.235266 0.500000 0.381986
O O8 0.443714 0.500000 0.692284
O O9 0.436057 0.243870 0.670624
O O10 0.500000 0.362921 0.000000
O O11 0.677600 0.140323 0.254182
O O12 0.806386 0.175295 0.161554
O O13 0.747058 0.000000 0.955333
O O14 0.077672 0.500000 0.329667
O O15 0.114139 0.686002 0.604078
O O16 0.000000 0.662951 0.500000
O O17 0.085729 0.726887 0.115770
O O18 0.416594 0.000000 0.625015
#
# Coordination Sequence:
#
# PCOD9153918 Si02
#       8
#     4   2   4   4   4   2   4   4
#     4  11  22  37  61  92 123 167 205 269 328 402
#     4  12  22  36  55 100 126 165 200 259 320 398
#     4  10  23  42  62  89 125 167 220 276 337 393
#     4  10  23  40  60  88 124 164 208 261 322 387
#     4  11  23  40  62  92 129 168 208 258 319 381
#     4  12  24  34  61  91 140 166 202 265 342 396
#     4  10  23  42  64  89 124 169 215 269 332 406
#     4  12  22  38  62  91 128 163 208 261 315 382
#
# _framework density 22.913088999999999
#
# number of rings (size 3 to 8) (size 9 to 14) (size 15 to 20)
#    0.000    1.143    3.571    2.571    5.000    2.571 
#    0.000    2.143    0.000    2.571    0.000    0.000 
#    0.000    0.000    0.000    0.000    0.000    0.000 
#
# Total GULP energy -156359.782236 kJ/mol
# GULP energy per Si atom -5584.277937 kJ/mol
# Density = 2.286094 g / cm^3
# Si number density = 22.913089 Si / 1000 Ang^3
#
#
#
# Elastic Constant Matrix: (Units=GPa)
#
#
# Indices 1 2 3 4 5 6 
#
# 1 92.0593 43.4269 19.2972 0.0000 2.7429 0.0000
# 2 43.4269 145.3424 4.0527 0.0000 5.5040 0.0000
# 3 19.2972 4.0527 51.4321 0.0000 -4.6707 0.0000
# 4 0.0000 0.0000 0.0000 22.3628 0.0000 4.3343
# 5 2.7429 5.5040 -4.6707 0.0000 42.6847 0.0000
# 6 0.0000 0.0000 0.0000 4.3343 0.0000 56.5260
#
#
#
# Elastic Compliance Matrix: (Units=1/GPa)
#
#
# Indices 1 2 3 4 5 6 
#
# 1 0.013789 -0.003947 -0.004946 0.000000 -0.000918 0.000000
# 2 -0.003947 0.008064 0.000782 0.000000 -0.000701 0.000000
# 3 -0.004946 0.000782 0.021470 0.000000 0.002566 0.000000
# 4 0.000000 0.000000 0.000000 0.045392 0.000000 -0.003481
# 5 -0.000918 -0.000701 0.002566 0.000000 0.023858 0.000000
# 6 0.000000 0.000000 0.000000 -0.003481 0.000000 0.017958
#
#
# Mechanical properties :
#
#
# Convention : Reuss Voigt Hill
#
# Bulk Modulus (GPa) = 36.89901 46.93193 41.91547
# Shear Modulus (GPa) = 32.09517 39.11850 35.60683
#
# Velocity S-wave (km/s) = 3.74670 4.13638 3.94635
# Velocity P-wave (km/s) = 5.90389 6.58330 6.25283
#
# Compressibility (1/GPa) = 0.02710100
#
# Stress axis : x y z
#
# Youngs Moduli (GPa) = 72.52334 124.00128 46.57616
#
# Poissons Ratio (x) = 0.48946 0.23036
# Poissons Ratio (y) = 0.28627 -0.03642
# Poissons Ratio (z) = 0.35869 -0.09696
#
# Static dielectric constant tensor:
#      x y z
#    x 1.947710 0.000000 -0.036850 
#    y 0.000000 1.848040 0.000000 
#    z -0.036850 0.000000 1.939140 
# 
# From -- ./inp_files/12277.got.cif
#   From: 2010.05.17/outbox.cif.g08.bks.cpg/sg10_7_cif.got.tgz:12277.got - 2010.06.03 11:33:40.
