data_PCOD9153671
_publ_section_title
;
Structure prediction by ZEFSAII (Michael W. Deem and Ramdas Pophale) SiO2 
 PCOD9153671
Probable space group: P 2/M
;
_chemical_formula_sum "Si O2"
_cell_formula_units_Z 32
_cell_length_a 14.535049
_cell_length_b 8.791247
_cell_length_c 22.381175
_cell_angle_alpha 90.000000
_cell_angle_beta 149.696238
_cell_angle_gamma 90.000000
_cell_volume 1443.057412
_symmetry_space_group_name_H-M "P 2/M"
_symmetry_group_IT_number 10
_symmetry_cell_setting 'monoclinic'
loop_
_space_group_symop_operation_xyz
x,y,z
-x,y,-z
-x,-y,-z
x,-y,z
loop_
_atom_site_type_symbol
_atom_site_label
_atom_site_fract_x
_atom_site_fract_y
_atom_site_fract_z
Si Si1 0.742135 0.323520 0.236430
Si Si2 0.082094 0.176038 0.480003
Si Si3 0.602514 0.320152 0.404362
Si Si4 0.602507 0.178886 0.912505
Si Si5 0.787872 0.179148 0.624828
Si Si6 0.747301 0.679544 0.725487
Si Si7 0.812637 0.319872 0.142161
Si Si8 0.104087 0.319409 0.999245
O O1 0.710471 0.500000 0.232408
O O2 0.608912 0.222608 0.201726
O O3 0.711466 0.299287 0.148774
O O4 0.950161 0.278932 0.365770
O O5 0.287600 0.232134 0.585140
O O6 0.000000 0.190237 0.500000
O O7 0.068795 0.000000 0.454199
O O8 0.620161 0.500000 0.404176
O O9 0.697484 0.272059 0.520180
O O10 0.390760 0.284222 0.297856
O O11 0.626359 0.000000 0.931826
O O12 0.694165 0.263648 0.020385
O O13 0.711102 0.237798 0.915772
O O14 0.707040 0.224724 0.643968
O O15 0.999274 0.227772 0.748264
O O16 0.769136 0.000000 0.603422
O O17 0.722772 0.500000 0.698100
O O18 0.954309 0.701626 0.862919
O O19 0.852709 0.500000 0.158115
O O20 0.139178 0.500000 0.025544
O O21 0.000000 0.265668 0.000000
#
# Coordination Sequence:
#
# PCOD9153671 Si02
#       8
#     4   4   4   4   4   4   4   4
#     4  11  24  42  67  94 124 167 212 258 308 372
#     4  11  25  44  65  92 127 165 207 264 321 368
#     4  11  23  40  63  92 124 167 212 254 307 373
#     4  12  25  40  63  96 131 167 204 256 318 376
#     4  12  23  36  61  94 127 163 201 253 318 375
#     4  10  22  40  63  90 125 164 207 257 307 370
#     4  11  22  39  64  93 126 164 208 256 308 374
#     4  10  22  42  66  90 120 164 215 263 308 364
#
# _framework density 22.175141
#
# number of rings (size 3 to 8) (size 9 to 14) (size 15 to 20)
#    0.000    1.000    2.500    4.500    0.000    7.750 
#    0.000    1.250    0.000    0.000    0.000    0.000 
#    0.000    0.000    0.000    0.000    0.000    0.000 
#
# Total GULP energy -179123.623277 kJ/mol
# GULP energy per Si atom -5597.613227 kJ/mol
# Density = 2.212467 g / cm^3
# Si number density = 22.175141 Si / 1000 Ang^3
#
#
#
# Elastic Constant Matrix: (Units=GPa)
#
#
# Indices 1 2 3 4 5 6 
#
# 1 119.2445 36.4874 1.6962 0.0000 21.4376 0.0000
# 2 36.4874 49.9506 -4.3405 0.0000 6.0368 0.0000
# 3 1.6962 -4.3405 28.4277 0.0000 17.7169 0.0000
# 4 0.0000 0.0000 0.0000 62.9719 0.0000 80.0430
# 5 21.4376 6.0368 17.7169 0.0000 39.4287 0.0000
# 6 0.0000 0.0000 0.0000 80.0430 0.0000 138.1986
#
#
#
# Elastic Compliance Matrix: (Units=1/GPa)
#
#
# Indices 1 2 3 4 5 6 
#
# 1 0.011822 -0.007731 0.001920 0.000000 -0.006107 0.000000
# 2 -0.007731 0.026517 0.006140 0.000000 -0.002615 0.000000
# 3 0.001920 0.006140 0.051720 0.000000 -0.025224 0.000000
# 4 0.000000 0.000000 0.000000 0.060198 0.000000 -0.034866
# 5 -0.006107 -0.002615 -0.025224 0.000000 0.040417 0.000000
# 6 0.000000 0.000000 0.000000 -0.034866 0.000000 0.027430
#
#
# Mechanical properties :
#
#
# Convention : Reuss Voigt Hill
#
# Bulk Modulus (GPa) = 11.02320 29.47878 20.25099
# Shear Modulus (GPa) = 20.18697 59.03849 39.61273
#
# Velocity S-wave (km/s) = 3.02046 5.16542 4.23112
# Velocity P-wave (km/s) = 4.14077 6.99270 5.74647
#
# Compressibility (1/GPa) = 0.09071777
#
# Stress axis : x y z
#
# Youngs Moduli (GPa) = 84.58581 37.71219 19.33483
#
# Poissons Ratio (x) = 0.29155 -0.03713
# Poissons Ratio (y) = 0.65393 -0.11872
# Poissons Ratio (z) = -0.16243 -0.23155
#
# Static dielectric constant tensor:
#      x y z
#    x 1.849030 0.000000 0.003310 
#    y 0.000000 1.728270 0.000000 
#    z 0.003310 0.000000 1.796290 
# 
# From -- ./inp_files/66588.got.cif
#   From: 2010.05.17/outbox.cif.g08.bks.cpg/sg10_34_cif.got.tgz:66588.got - 2010.06.03 11:33:40.
