data_PCOD9153507
_publ_section_title
;
Structure prediction by ZEFSAII (Michael W. Deem and Ramdas Pophale) SiO2 
 PCOD9153507
Probable space group: P 2/M
;
_chemical_formula_sum "Si O2"
_cell_formula_units_Z 28
_cell_length_a 11.843809
_cell_length_b 7.530643
_cell_length_c 15.880223
_cell_angle_alpha 90.000000
_cell_angle_beta 113.242382
_cell_angle_gamma 90.000000
_cell_volume 1301.432618
_symmetry_space_group_name_H-M "P 2/M"
_symmetry_group_IT_number 10
_symmetry_cell_setting 'monoclinic'
loop_
_space_group_symop_operation_xyz
x,y,z
-x,y,-z
-x,-y,-z
x,-y,z
loop_
_atom_site_type_symbol
_atom_site_label
_atom_site_fract_x
_atom_site_fract_y
_atom_site_fract_z
Si Si1 0.371078 0.000000 0.065544
Si Si2 0.015097 0.714186 0.100889
Si Si3 0.310002 0.785831 0.477781
Si Si4 0.145338 0.716110 0.787455
Si Si5 0.347694 0.000000 0.858331
Si Si6 0.972476 0.707071 0.583386
Si Si7 0.539279 0.214854 0.644700
Si Si8 0.716643 0.700667 0.843193
O O1 0.307304 0.829344 0.086792
O O2 0.514096 0.000000 0.135114
O O3 0.361007 0.000000 0.963094
O O4 0.003182 0.500000 0.096096
O O5 0.156671 0.754917 0.166028
O O6 0.918823 0.772623 0.143078
O O7 0.000000 0.777243 0.000000
O O8 0.172068 0.720514 0.442336
O O9 0.376725 0.733582 0.410684
O O10 0.400847 0.729822 0.580321
O O11 0.307040 0.000000 0.478028
O O12 0.160857 0.500000 0.792440
O O13 0.052876 0.772118 0.685306
O O14 0.270431 0.824936 0.812095
O O15 0.006393 0.500000 0.588232
O O16 0.000000 0.788586 0.500000
O O17 0.603252 0.288061 0.746139
O O18 0.541304 0.000000 0.651074
O O19 0.733492 0.500000 0.878261
#
# Coordination Sequence:
#
# PCOD9153507 Si02
#       8
#     2   4   4   4   2   4   4   4
#     4  11  26  45  61  90 125 154 210 270 291 373
#     4   9  18  34  60  93 123 154 197 250 314 380
#     4   9  19  34  58  85 119 163 200 246 306 360
#     4  10  22  42  65  92 128 162 205 262 309 372
#     4  11  26  45  66  87 117 167 214 251 316 363
#     4  10  22  39  57  84 123 162 206 258 301 355
#     4   9  18  36  56  86 126 157 196 252 302 363
#     4  11  22  38  64  93 125 165 199 248 323 374
#
# _framework density 21.514754
#
# number of rings (size 3 to 8) (size 9 to 14) (size 15 to 20)
#    0.000    2.143    0.714    2.571    1.000    6.571 
#    0.000    5.714    0.000    0.000    0.000    0.000 
#    0.000    0.000    0.000    0.000    0.000    0.000 
#
# Total GULP energy -156431.097452 kJ/mol
# GULP energy per Si atom -5586.824909 kJ/mol
# Density = 2.146578 g / cm^3
# Si number density = 21.514754 Si / 1000 Ang^3
#
#
#
# Elastic Constant Matrix: (Units=GPa)
#
#
# Indices 1 2 3 4 5 6 
#
# 1 79.0484 18.8502 9.8523 0.0000 17.6799 0.0000
# 2 18.8502 75.4949 6.8218 0.0000 -1.1589 0.0000
# 3 9.8523 6.8218 86.7838 0.0000 14.9245 0.0000
# 4 0.0000 0.0000 0.0000 2.4553 0.0000 -5.1260
# 5 17.6799 -1.1589 14.9245 0.0000 32.1727 0.0000
# 6 0.0000 0.0000 0.0000 -5.1260 0.0000 38.3826
#
#
#
# Elastic Compliance Matrix: (Units=1/GPa)
#
#
# Indices 1 2 3 4 5 6 
#
# 1 0.015552 -0.004021 0.000049 0.000000 -0.008714 0.000000
# 2 -0.004021 0.014413 -0.001245 0.000000 0.003307 0.000000
# 3 0.000049 -0.001245 0.012636 0.000000 -0.005933 0.000000
# 4 0.000000 0.000000 0.000000 0.564747 0.000000 0.075422
# 5 -0.008714 0.003307 -0.005933 0.000000 0.038742 0.000000
# 6 0.000000 0.000000 0.000000 0.075422 0.000000 0.036126
#
#
# Mechanical properties :
#
#
# Convention : Reuss Voigt Hill
#
# Bulk Modulus (GPa) = 31.08844 34.70840 32.89842
# Shear Modulus (GPa) = 7.10859 28.32231 17.71545
#
# Velocity S-wave (km/s) = 1.81968 3.63218 2.87262
# Velocity P-wave (km/s) = 4.34697 5.81014 5.13098
#
# Compressibility (1/GPa) = 0.03216630
#
# Stress axis : x y z
#
# Youngs Moduli (GPa) = 64.29908 69.38029 79.14173
#
# Poissons Ratio (x) = 0.27901 -0.00389
# Poissons Ratio (y) = 0.25858 0.09854
# Poissons Ratio (z) = -0.00316 0.08639
#
# Static dielectric constant tensor:
#      x y z
#    x 1.747190 0.000000 0.011690 
#    y 0.000000 1.787810 0.000000 
#    z 0.011690 0.000000 1.788240 
# 
# From -- ./inp_files/63535.got.cif
#   From: 2010.05.17/outbox.cif.g08.bks.cpg/sg10_32_cif.got.tgz:63535.got - 2010.06.03 11:33:40.
