data_PCOD9153488
_publ_section_title
;
Structure prediction by ZEFSAII (Michael W. Deem and Ramdas Pophale) SiO2 
 PCOD9153488
Probable space group: P 2/M
;
_chemical_formula_sum "Si O2"
_cell_formula_units_Z 24
_cell_length_a 7.959398
_cell_length_b 14.506271
_cell_length_c 12.476644
_cell_angle_alpha 90.000000
_cell_angle_beta 130.276235
_cell_angle_gamma 90.000000
_cell_volume 1099.062034
_symmetry_space_group_name_H-M "P 2/M"
_symmetry_group_IT_number 10
_symmetry_cell_setting 'monoclinic'
loop_
_space_group_symop_operation_xyz
x,y,z
-x,y,-z
-x,-y,-z
x,-y,z
loop_
_atom_site_type_symbol
_atom_site_label
_atom_site_fract_x
_atom_site_fract_y
_atom_site_fract_z
Si Si1 0.612319 0.500000 0.428913
Si Si2 0.756043 0.700584 0.948676
Si Si3 0.477682 0.000000 0.172796
Si Si4 0.612604 0.808305 0.302460
Si Si5 0.264547 0.500000 0.088043
Si Si6 0.736071 0.306051 0.540946
Si Si7 0.132347 0.000000 0.846699
Si Si8 0.098636 0.798808 0.792119
O O1 0.500000 0.500000 0.500000
O O2 0.421172 0.500000 0.259064
O O3 0.750950 0.404780 0.487393
O O4 0.751354 0.770160 0.045822
O O5 0.584502 0.735602 0.790474
O O6 0.694667 0.596343 0.954066
O O7 0.000000 0.702909 0.000000
O O8 0.510839 0.090362 0.257583
O O9 0.671617 0.000000 0.162125
O O10 0.252652 0.000000 0.011876
O O11 0.746484 0.777677 0.461008
O O12 0.760441 0.800011 0.257707
O O13 0.000000 0.500000 0.000000
O O14 0.500000 0.303052 0.500000
O O15 0.920127 0.281814 0.703868
O O16 0.011657 0.902363 0.779444
#
# Coordination Sequence:
#
# PCOD9153488 Si02
#       8
#     2   4   2   4   2   4   2   4
#     4  10  22  40  63  85 122 170 204 241 304 378
#     4  11  22  38  62  90 124 157 203 251 302 356
#     4   9  18  35  64  87 119 165 196 242 301 376
#     4  11  21  41  63  91 122 159 207 248 303 362
#     4  10  22  38  63  91 122 160 208 247 296 378
#     4  11  24  42  63  87 124 161 206 251 302 366
#     4   9  18  37  60  89 121 159 206 236 299 376
#     4  11  23  39  64  92 121 164 203 251 301 361
#
# _framework density 21.836801999999999
#
# number of rings (size 3 to 8) (size 9 to 14) (size 15 to 20)
#    0.000    1.500    3.333    2.000    7.000    0.667 
#    0.000   12.500    0.000    0.000    0.000    0.000 
#    0.000    0.000    0.000    0.000    0.000    0.000 
#
# Total GULP energy -134029.367626 kJ/mol
# GULP energy per Si atom -5584.556984 kJ/mol
# Density = 2.178710 g / cm^3
# Si number density = 21.836802 Si / 1000 Ang^3
#
#
#
# Elastic Constant Matrix: (Units=GPa)
#
#
# Indices 1 2 3 4 5 6 
#
# 1 37.7560 8.9852 -1.3372 0.0000 -5.1441 0.0000
# 2 8.9852 152.8492 13.6785 0.0000 1.4182 0.0000
# 3 -1.3372 13.6785 72.2416 0.0000 3.1173 0.0000
# 4 0.0000 0.0000 0.0000 40.1518 0.0000 -4.8612
# 5 -5.1441 1.4182 3.1173 0.0000 34.6390 0.0000
# 6 0.0000 0.0000 0.0000 -4.8612 0.0000 15.7331
#
#
#
# Elastic Compliance Matrix: (Units=1/GPa)
#
#
# Indices 1 2 3 4 5 6 
#
# 1 0.027474 -0.001712 0.000656 0.000000 0.004091 0.000000
# 2 -0.001712 0.006763 -0.001294 0.000000 -0.000415 0.000000
# 3 0.000656 -0.001294 0.014148 0.000000 -0.001123 0.000000
# 4 0.000000 0.000000 0.000000 0.025873 0.000000 0.007994
# 5 0.004091 -0.000415 -0.001123 0.000000 0.029595 0.000000
# 6 0.000000 0.000000 0.000000 0.007994 0.000000 0.066030
#
#
# Mechanical properties :
#
#
# Convention : Reuss Voigt Hill
#
# Bulk Modulus (GPa) = 22.89124 33.94444 28.41784
# Shear Modulus (GPa) = 26.43481 34.20612 30.32047
#
# Velocity S-wave (km/s) = 3.48309 3.96213 3.73030
# Velocity P-wave (km/s) = 5.16541 6.04232 5.62099
#
# Compressibility (1/GPa) = 0.04368484
#
# Stress axis : x y z
#
# Youngs Moduli (GPa) = 36.39829 147.87020 70.68090
#
# Poissons Ratio (x) = 0.25311 -0.04637
# Poissons Ratio (y) = 0.06230 0.09148
# Poissons Ratio (z) = -0.02388 0.19138
#
# Static dielectric constant tensor:
#      x y z
#    x 1.799270 0.000000 0.022880 
#    y 0.000000 1.829000 0.000000 
#    z 0.022880 0.000000 1.738950 
# 
# From -- ./inp_files/62016.got.cif
#   From: 2010.05.17/outbox.cif.g08.bks.cpg/sg10_32_cif.got.tgz:62016.got - 2010.06.03 11:33:40.
