data_PCOD9153702
_publ_section_title
;
Structure prediction by ZEFSAII (Michael W. Deem and Ramdas Pophale) SiO2 
 PCOD9153702
Probable space group: P 2/M
;
_chemical_formula_sum "Si O2"
_cell_formula_units_Z 23
_cell_length_a 12.475402
_cell_length_b 16.368753
_cell_length_c 6.758953
_cell_angle_alpha 90.000000
_cell_angle_beta 69.049615
_cell_angle_gamma 90.000000
_cell_volume 1288.977936
_symmetry_space_group_name_H-M "P 2/M"
_symmetry_group_IT_number 10
_symmetry_cell_setting 'monoclinic'
loop_
_space_group_symop_operation_xyz
x,y,z
-x,y,-z
-x,-y,-z
x,-y,z
loop_
_atom_site_type_symbol
_atom_site_label
_atom_site_fract_x
_atom_site_fract_y
_atom_site_fract_z
Si Si1 0.879838 0.709721 0.974106
Si Si2 0.000000 0.000000 0.500000
Si Si3 0.262557 0.271566 0.542297
Si Si4 0.402031 0.906607 0.896995
Si Si5 0.500000 0.212857 0.500000
Si Si6 0.864182 0.403881 0.633095
Si Si7 0.173385 0.852626 0.276725
O O1 0.842612 0.633647 0.864042
O O2 0.891755 0.785959 0.816315
O O3 0.789392 0.730220 0.204000
O O4 0.000000 0.692521 0.000000
O O5 0.094206 0.928220 0.382164
O O6 0.399730 0.265342 0.464315
O O7 0.212149 0.351576 0.467926
O O8 0.216909 0.195189 0.442827
O O9 0.438044 0.845419 0.700166
O O10 0.393852 0.000000 0.828461
O O11 0.500000 0.903616 0.000000
O O12 0.283514 0.881404 0.078735
O O13 0.842086 0.500000 0.635899
O O14 0.000000 0.390021 0.500000
#
# Coordination Sequence:
#
# PCOD9153702 Si02
#       7
#     4   1   4   4   2   4   4
#     4  11  21  38  61  90 124 160 202 251 308 376
#     4  12  24  40  60  84 130 170 200 258 324 358
#     4  11  23  40  63  91 126 160 208 256 304 369
#     4  11  22  40  60  85 119 161 215 268 300 347
#     4  12  23  40  65  90 118 170 220 252 303 369
#     4  10  22  40  65  96 127 157 196 252 314 377
#     4  11  23  40  59  87 126 166 207 255 315 364
#
# _framework density 17.843595000000001
#
# number of rings (size 3 to 8) (size 9 to 14) (size 15 to 20)
#    0.000    1.043    6.087    1.304    2.435    1.043 
#    1.565    4.348    0.000    1.043    0.000    0.000 
#    0.000    0.000    0.000    0.000    0.000    0.000 
#
# Total GULP energy -128220.706971 kJ/mol
# GULP energy per Si atom -5574.813347 kJ/mol
# Density = 1.780298 g / cm^3
# Si number density = 17.843595 Si / 1000 Ang^3
#
#
#
# Elastic Constant Matrix: (Units=GPa)
#
#
# Indices 1 2 3 4 5 6 
#
# 1 92.2577 76.3861 54.5721 0.0000 -4.3771 0.0000
# 2 76.3861 148.7529 52.5050 0.0000 -0.8046 0.0000
# 3 54.5721 52.5050 104.7972 0.0000 -10.9320 0.0000
# 4 0.0000 0.0000 0.0000 -3.6153 0.0000 6.3292
# 5 -4.3771 -0.8046 -10.9320 0.0000 33.6661 0.0000
# 6 0.0000 0.0000 0.0000 6.3292 0.0000 13.5040
#
#
#
# Elastic Compliance Matrix: (Units=1/GPa)
#
#
# Indices 1 2 3 4 5 6 
#
# 1 0.022632 -0.009080 -0.007196 0.000000 0.000389 0.000000
# 2 -0.009080 0.011855 -0.001350 0.000000 -0.001336 0.000000
# 3 -0.007196 -0.001350 0.014351 0.000000 0.003692 0.000000
# 4 0.000000 0.000000 0.000000 -0.151936 0.000000 0.071211
# 5 0.000389 -0.001336 0.003692 0.000000 0.030921 0.000000
# 6 0.000000 0.000000 0.000000 0.071211 0.000000 0.040676
#
#
# Mechanical properties :
#
#
# Convention : Reuss Voigt Hill
#
# Bulk Modulus (GPa) = 73.60666 79.19271 76.39968
# Shear Modulus (GPa) = 604.01436 19.53393 311.77415
#
# Velocity S-wave (km/s) = 18.41846 3.31226 13.23274
# Velocity P-wave (km/s) = 22.21847 7.68804 16.62477
#
# Compressibility (1/GPa) = 0.01358573
#
# Stress axis : x y z
#
# Youngs Moduli (GPa) = 44.18598 84.35612 69.68136
#
# Poissons Ratio (x) = 0.76592 0.50140
# Poissons Ratio (y) = 0.40119 0.09410
# Poissons Ratio (z) = 0.31794 0.11392
#
# Static dielectric constant tensor:
#      x y z
#    x 1.608610 0.000000 0.003000 
#    y 0.000000 1.587580 0.000000 
#    z 0.003000 0.000000 1.608660 
# 
# From -- ./inp_files/7189.got.cif
#   From: 2010.05.17/outbox.cif.g08.bks.cpg/sg10_4_cif.got.tgz:7189.got - 2010.06.03 11:33:40.
