data_PCOD9153181
_publ_section_title
;
Structure prediction by ZEFSAII (Michael W. Deem and Ramdas Pophale) SiO2 
 PCOD9153181
Probable space group: P 2/M
;
_chemical_formula_sum "Si O2"
_cell_formula_units_Z 15
_cell_length_a 5.360776
_cell_length_b 21.326902
_cell_length_c 5.303074
_cell_angle_alpha 90.000000
_cell_angle_beta 82.554565
_cell_angle_gamma 90.000000
_cell_volume 601.181957
_symmetry_space_group_name_H-M "P 2/M"
_symmetry_group_IT_number 10
_symmetry_cell_setting 'monoclinic'
loop_
_space_group_symop_operation_xyz
x,y,z
-x,y,-z
-x,-y,-z
x,-y,z
loop_
_atom_site_type_symbol
_atom_site_label
_atom_site_fract_x
_atom_site_fract_y
_atom_site_fract_z
Si Si1 0.722462 0.233213 0.660252
Si Si2 0.839471 0.102380 0.779268
Si Si3 0.834161 0.364996 0.776327
Si Si4 0.500000 0.000000 0.000000
Si Si5 0.273715 0.500000 0.331692
O O1 0.500000 0.215454 0.500000
O O2 0.757505 0.174281 0.839033
O O3 0.665187 0.303333 0.762673
O O4 0.000000 0.238553 0.500000
O O5 0.000000 0.100742 0.500000
O O6 0.609299 0.055282 0.798095
O O7 0.000000 0.079681 0.000000
O O8 0.717263 0.434101 0.815043
O O9 0.000000 0.368724 0.500000
O O10 0.000000 0.353205 0.000000
O O11 0.500000 0.500000 0.500000
O O12 0.000000 0.500000 0.500000
#
# Coordination Sequence:
#
# PCOD9153181 Si02
#       5
#     4   4   4   1   2
#     4  10  23  45  72 102 143 186 241 296 360 428
#     4  11  27  48  72 109 145 190 244 303 366 445
#     4  10  21  42  67 102 140 188 238 296 356 423
#     4  12  28  46  84 100 154 186 248 292 388 426
#     4  10  21  40  66 100 144 188 240 292 358 422
#
# _framework density 24.950848000000001
#
# number of rings (size 3 to 8) (size 9 to 14) (size 15 to 20)
#    0.000    1.600    0.000    2.800    7.467    1.067 
#    0.000   21.333    0.000    0.000    0.000    0.000 
#    0.000    0.000    0.000    0.000    0.000    0.000 
#
# Total GULP energy -83626.869220 kJ/mol
# GULP energy per Si atom -5575.124615 kJ/mol
# Density = 2.489406 g / cm^3
# Si number density = 24.950848 Si / 1000 Ang^3
#
#
#
# Elastic Constant Matrix: (Units=GPa)
#
#
# Indices 1 2 3 4 5 6 
#
# 1 97.1077 -16.5365 32.7838 0.0000 -12.0837 0.0000
# 2 -16.5365 218.9483 -11.4747 0.0000 -19.3934 0.0000
# 3 32.7838 -11.4747 120.1945 0.0000 -13.7786 0.0000
# 4 0.0000 0.0000 0.0000 54.1745 0.0000 0.6227
# 5 -12.0837 -19.3934 -13.7786 0.0000 68.2372 0.0000
# 6 0.0000 0.0000 0.0000 0.6227 0.0000 -68.9508
#
#
#
# Elastic Compliance Matrix: (Units=1/GPa)
#
#
# Indices 1 2 3 4 5 6 
#
# 1 0.011639 0.000880 -0.002893 0.000000 0.001727 0.000000
# 2 0.000880 0.004797 0.000401 0.000000 0.001600 0.000000
# 3 -0.002893 0.000401 0.009317 0.000000 0.001483 0.000000
# 4 0.000000 0.000000 0.000000 0.018457 0.000000 0.000167
# 5 0.001727 0.001600 0.001483 0.000000 0.015715 0.000000
# 6 0.000000 0.000000 0.000000 0.000167 0.000000 -0.014502
#
#
# Mechanical properties :
#
#
# Convention : Reuss Voigt Hill
#
# Bulk Modulus (GPa) = 44.38316 49.53284 46.95800
# Shear Modulus (GPa) = 89.03848 39.45736 64.24792
#
# Velocity S-wave (km/s) = 5.98022 3.98100 5.07993
# Velocity P-wave (km/s) = 8.09388 6.40519 7.29854
#
# Compressibility (1/GPa) = 0.02253107
#
# Stress axis : x y z
#
# Youngs Moduli (GPa) = 85.91599 208.48336 107.32892
#
# Poissons Ratio (x) = -0.18356 0.31046
# Poissons Ratio (y) = -0.07565 -0.04306
# Poissons Ratio (z) = 0.24852 -0.08364
#
# Static dielectric constant tensor:
#      x y z
#    x 1.920250 0.000000 0.058750 
#    y 0.000000 2.031900 0.000000 
#    z 0.058750 0.000000 1.930800 
# 
# From -- ./inp_files/1298.got.cif
#   From: 2010.05.17/outbox.cif.g08.bks.cpg/sg10_1_cif.got.tgz:1298.got - 2010.06.03 11:33:40.
