data_PCOD9153418
_publ_section_title
;
Structure prediction by ZEFSAII (Michael W. Deem and Ramdas Pophale) SiO2 
 PCOD9153418
Probable space group: P 2/M
;
_chemical_formula_sum "Si O2"
_cell_formula_units_Z 32
_cell_length_a 9.931716
_cell_length_b 13.119957
_cell_length_c 14.614268
_cell_angle_alpha 90.000000
_cell_angle_beta 57.527458
_cell_angle_gamma 90.000000
_cell_volume 1606.554582
_symmetry_space_group_name_H-M "P 2/M"
_symmetry_group_IT_number 10
_symmetry_cell_setting 'monoclinic'
loop_
_space_group_symop_operation_xyz
x,y,z
-x,y,-z
-x,-y,-z
x,-y,z
loop_
_atom_site_type_symbol
_atom_site_label
_atom_site_fract_x
_atom_site_fract_y
_atom_site_fract_z
Si Si1 0.978853 0.389425 0.305271
Si Si2 0.940808 0.669242 0.922052
Si Si3 0.307134 0.611065 0.292986
Si Si4 0.600437 0.886898 0.178565
Si Si5 0.075020 0.886561 0.828096
Si Si6 0.416982 0.313257 0.933227
Si Si7 0.256259 0.832482 0.377324
Si Si8 0.062385 0.165317 0.622184
O O1 0.912869 0.500000 0.356781
O O2 0.973745 0.377467 0.197629
O O3 0.162961 0.387144 0.271956
O O4 0.910693 0.286991 0.374189
O O5 0.968712 0.791743 0.900747
O O6 0.756124 0.641358 0.987186
O O7 0.000000 0.638674 0.000000
O O8 0.302947 0.500000 0.339910
O O9 0.470774 0.626496 0.178025
O O10 0.280268 0.709552 0.365714
O O11 0.747597 0.871968 0.194976
O O12 0.605320 0.798043 0.102744
O O13 0.426881 0.878371 0.289505
O O14 0.616684 0.000000 0.132994
O O15 0.079019 0.881010 0.716444
O O16 0.018858 0.000000 0.876005
O O17 0.500000 0.305070 0.000000
O O18 0.186088 0.868542 0.499487
O O19 0.115820 0.852348 0.353771
#
# Coordination Sequence:
#
# PCOD9153418 Si02
#       8
#     4   4   4   4   4   4   4   4
#     4   9  18  33  54  81 109 139 178 218 258 312
#     4  11  21  36  55  78 108 144 178 218 266 311
#     4   9  18  33  55  81 108 140 178 217 259 313
#     4  10  22  38  55  79 107 139 181 222 261 317
#     4  10  22  38  56  78 105 141 182 219 264 320
#     4  11  21  36  55  80 110 142 178 218 265 314
#     4   9  19  36  57  82 109 137 175 221 268 314
#     4   9  19  36  57  81 110 140 171 219 272 315
#
# _framework density 19.918403000000001
#
# number of rings (size 3 to 8) (size 9 to 14) (size 15 to 20)
#    0.000    2.250    2.500    0.000    1.750    4.000 
#    0.000    5.000    0.000    0.000    0.000    3.500 
#    0.000    0.000    0.000    0.000    0.000    0.000 
#
# Total GULP energy -178547.005147 kJ/mol
# GULP energy per Si atom -5579.593911 kJ/mol
# Density = 1.987307 g / cm^3
# Si number density = 19.918403 Si / 1000 Ang^3
#
#
#
# Elastic Constant Matrix: (Units=GPa)
#
#
# Indices 1 2 3 4 5 6 
#
# 1 74.2663 2.3008 23.6962 0.0000 9.1336 0.0000
# 2 2.3008 77.8678 -16.0948 0.0000 -1.6135 0.0000
# 3 23.6962 -16.0948 60.5388 0.0000 1.8644 0.0000
# 4 0.0000 0.0000 0.0000 -8.2050 0.0000 -1.4334
# 5 9.1336 -1.6135 1.8644 0.0000 24.3087 0.0000
# 6 0.0000 0.0000 0.0000 -1.4334 0.0000 24.8926
#
#
#
# Elastic Compliance Matrix: (Units=1/GPa)
#
#
# Indices 1 2 3 4 5 6 
#
# 1 0.016399 -0.002004 -0.006774 0.000000 -0.005775 0.000000
# 2 -0.002004 0.013844 0.004424 0.000000 0.001333 0.000000
# 3 -0.006774 0.004424 0.020306 0.000000 0.001281 0.000000
# 4 0.000000 0.000000 0.000000 -0.120663 0.000000 -0.006948
# 5 -0.005775 0.001333 0.001281 0.000000 0.043298 0.000000
# 6 0.000000 0.000000 0.000000 -0.006948 0.000000 0.039772
#
#
# Mechanical properties :
#
#
# Convention : Reuss Voigt Hill
#
# Bulk Modulus (GPa) = 23.90047 25.83083 24.86565
# Shear Modulus (GPa) = 140.40651 21.71731 81.06191
#
# Velocity S-wave (km/s) = 8.40499 3.30557 6.38634
# Velocity P-wave (km/s) = 10.30617 5.25029 8.17871
#
# Compressibility (1/GPa) = 0.04184019
#
# Stress axis : x y z
#
# Youngs Moduli (GPa) = 60.98035 72.23598 49.24548
#
# Poissons Ratio (x) = 0.14478 0.33358
# Poissons Ratio (y) = 0.12222 -0.21786
# Poissons Ratio (z) = 0.41307 -0.31957
#
# Static dielectric constant tensor:
#      x y z
#    x 1.643410 0.000000 -0.007700 
#    y 0.000000 1.747510 0.000000 
#    z -0.007700 0.000000 1.661530 
# 
# From -- ./inp_files/29158.got.cif
#   From: 2010.05.17/outbox.cif.g08.bks.cpg/sg10_15_cif.got.tgz:29158.got - 2010.06.03 11:33:40.
