data_PCOD9153922
_publ_section_title
;
Structure prediction by ZEFSAII (Michael W. Deem and Ramdas Pophale) SiO2 
 PCOD9153922
Probable space group: P 2/M
;
_chemical_formula_sum "Si O2"
_cell_formula_units_Z 17
_cell_length_a 5.121846
_cell_length_b 24.329003
_cell_length_c 5.073493
_cell_angle_alpha 90.000000
_cell_angle_beta 87.368045
_cell_angle_gamma 90.000000
_cell_volume 631.538049
_symmetry_space_group_name_H-M "P 2/M"
_symmetry_group_IT_number 10
_symmetry_cell_setting 'monoclinic'
loop_
_space_group_symop_operation_xyz
x,y,z
-x,y,-z
-x,-y,-z
x,-y,z
loop_
_atom_site_type_symbol
_atom_site_label
_atom_site_fract_x
_atom_site_fract_y
_atom_site_fract_z
Si Si1 0.319155 0.585802 0.267507
Si Si2 0.000000 0.792963 0.000000
Si Si3 0.260791 0.120649 0.305508
Si Si4 0.317656 0.713989 0.269490
Si Si5 0.000000 0.500000 0.000000
Si Si6 0.741871 0.000000 0.686374
O O1 0.500000 0.567683 0.500000
O O2 0.252875 0.649812 0.307334
O O3 0.077712 0.548018 0.210888
O O4 0.500000 0.579768 0.000000
O O5 0.773701 0.835912 0.928201
O O6 0.941521 0.749070 0.772192
O O7 0.500000 0.127362 0.500000
O O8 0.000000 0.126204 0.500000
O O9 0.263076 0.059381 0.179397
O O10 0.500000 0.733157 0.500000
O O11 0.500000 0.718545 0.000000
O O12 0.500000 0.000000 0.500000
O O13 0.000000 0.000000 0.500000
#
# Coordination Sequence:
#
# PCOD9153922 Si02
#       6
#     4   2   4   4   1   2
#     4  10  23  42  62  93 129 170 218 269 328 399
#     4  12  25  35  64  91 127 166 226 278 344 394
#     4  10  23  40  63  93 131 171 224 280 345 413
#     4  10  24  44  65  90 131 176 221 273 339 405
#     4  12  22  38  68  96 130 166 220 268 344 372
#     4   8  16  37  60  85 124 172 213 272 341 413
#
# _framework density 26.918410000000002
#
# number of rings (size 3 to 8) (size 9 to 14) (size 15 to 20)
#    0.000    1.882    0.000    2.118    6.588    2.353 
#    0.000    7.059    0.000    8.471    0.000    0.000 
#    0.000    0.000    0.000    0.000    0.000    0.000 
#
# Total GULP energy -94875.717628 kJ/mol
# GULP energy per Si atom -5580.924566 kJ/mol
# Density = 2.685714 g / cm^3
# Si number density = 26.918410 Si / 1000 Ang^3
#
#
#
# Elastic Constant Matrix: (Units=GPa)
#
#
# Indices 1 2 3 4 5 6 
#
# 1 169.6668 37.2866 78.2282 0.0000 26.2795 0.0000
# 2 37.2866 197.8428 57.8631 0.0000 64.4915 0.0000
# 3 78.2282 57.8631 200.3061 0.0000 54.2541 0.0000
# 4 0.0000 0.0000 0.0000 26.5702 0.0000 42.8802
# 5 26.2795 64.4915 54.2541 0.0000 74.8652 0.0000
# 6 0.0000 0.0000 0.0000 42.8802 0.0000 20.2120
#
#
#
# Elastic Compliance Matrix: (Units=1/GPa)
#
#
# Indices 1 2 3 4 5 6 
#
# 1 0.007252 -0.000541 -0.002629 0.000000 -0.000175 0.000000
# 2 -0.000541 0.007107 -0.000292 0.000000 -0.005720 0.000000
# 3 -0.002629 -0.000292 0.007198 0.000000 -0.004042 0.000000
# 4 0.000000 0.000000 0.000000 -0.015528 0.000000 0.032942
# 5 -0.000175 -0.005720 -0.004042 0.000000 0.021275 0.000000
# 6 0.000000 0.000000 0.000000 0.032942 0.000000 -0.020412
#
#
# Mechanical properties :
#
#
# Convention : Reuss Voigt Hill
#
# Bulk Modulus (GPa) = 68.33961 101.61904 84.97932
# Shear Modulus (GPa) = 267.47611 50.62534 159.05072
#
# Velocity S-wave (km/s) = 9.97904 4.34140 7.69510
# Velocity P-wave (km/s) = 12.57846 7.93493 10.51620
#
# Compressibility (1/GPa) = 0.01463280
#
# Stress axis : x y z
#
# Youngs Moduli (GPa) = 137.89689 140.71481 138.92471
#
# Poissons Ratio (x) = 0.07613 0.36517
# Poissons Ratio (y) = 0.07461 0.04060
# Poissons Ratio (z) = 0.36247 0.04113
#
# Static dielectric constant tensor:
#      x y z
#    x 2.210390 0.000000 -0.162780 
#    y 0.000000 2.095250 0.000000 
#    z -0.162780 0.000000 2.125150 
# 
# From -- ./inp_files/1669.got.cif
#   From: 2010.05.17/outbox.cif.g08.bks.cpg/sg10_1_cif.got.tgz:1669.got - 2010.06.03 11:33:40.
