data_PCOD9153598
_publ_section_title
;
Structure prediction by ZEFSAII (Michael W. Deem and Ramdas Pophale) SiO2 
 PCOD9153598
Probable space group: P 2/M
;
_chemical_formula_sum "Si O2"
_cell_formula_units_Z 32
_cell_length_a 8.702790
_cell_length_b 21.945754
_cell_length_c 14.933244
_cell_angle_alpha 90.000000
_cell_angle_beta 150.409414
_cell_angle_gamma 90.000000
_cell_volume 1408.359007
_symmetry_space_group_name_H-M "P 2/M"
_symmetry_group_IT_number 10
_symmetry_cell_setting 'monoclinic'
loop_
_space_group_symop_operation_xyz
x,y,z
-x,y,-z
-x,-y,-z
x,-y,z
loop_
_atom_site_type_symbol
_atom_site_label
_atom_site_fract_x
_atom_site_fract_y
_atom_site_fract_z
Si Si1 0.137358 0.218514 0.812720
Si Si2 0.266935 0.342430 0.798892
Si Si3 0.797660 0.275875 0.814540
Si Si4 0.730985 0.104115 0.541413
Si Si5 0.368753 0.848297 0.190120
Si Si6 0.603722 0.065995 0.155901
Si Si7 0.631527 0.565036 0.289781
Si Si8 0.578075 0.390492 0.445161
O O1 0.156991 0.272496 0.748837
O O2 0.016352 0.245655 0.847148
O O3 0.896185 0.165977 0.663576
O O4 0.500000 0.199465 0.000000
O O5 0.431338 0.373758 0.797624
O O6 0.945756 0.378859 0.640127
O O7 0.500000 0.349835 0.000000
O O8 0.599604 0.222731 0.764516
O O9 0.592063 0.325701 0.659138
O O10 0.000000 0.301241 0.000000
O O11 0.500000 0.079615 0.500000
O O12 0.527070 0.117087 0.351656
O O13 0.024873 0.065541 0.660646
O O14 0.501659 0.877733 0.166734
O O15 0.000000 0.857766 0.000000
O O16 0.486764 0.000000 0.131160
O O17 0.500000 0.070745 0.000000
O O18 0.556076 0.500000 0.207331
O O19 0.482724 0.570462 0.311633
O O20 0.000000 0.564853 0.500000
O O21 0.500000 0.418511 0.500000
#
# Coordination Sequence:
#
# PCOD9153598 Si02
#       8
#     4   4   4   4   4   4   4   4
#     4  11  24  41  69 102 138 176 221 277 340 419
#     4  10  22  39  66  94 130 177 223 278 334 401
#     4  11  25  41  67 102 141 176 215 279 342 415
#     4  12  24  42  73 103 144 181 223 280 342 407
#     4  11  25  44  71 103 140 183 224 281 346 404
#     4  11  27  50  73 100 136 181 239 290 333 400
#     4   9  21  41  62  92 130 174 232 284 333 397
#     4  11  22  39  67  95 135 176 220 275 340 408
#
# _framework density 22.721478999999999
#
# number of rings (size 3 to 8) (size 9 to 14) (size 15 to 20)
#    0.000    1.250    2.500    2.250    8.750    2.000 
#    0.000    2.500    0.000    1.125    0.000    0.000 
#    0.000    0.000    0.000    0.000    0.000    0.000 
#
# Total GULP energy -178621.502407 kJ/mol
# GULP energy per Si atom -5581.921950 kJ/mol
# Density = 2.266976 g / cm^3
# Si number density = 22.721479 Si / 1000 Ang^3
#
#
#
# Elastic Constant Matrix: (Units=GPa)
#
#
# Indices 1 2 3 4 5 6 
#
# 1 113.0889 39.9899 3.1552 0.0000 -10.4152 0.0000
# 2 39.9899 91.6199 -5.6597 0.0000 -3.9046 0.0000
# 3 3.1552 -5.6597 80.4977 0.0000 -6.1984 0.0000
# 4 0.0000 0.0000 0.0000 14.1395 0.0000 11.0690
# 5 -10.4152 -3.9046 -6.1984 0.0000 32.1909 0.0000
# 6 0.0000 0.0000 0.0000 11.0690 0.0000 -83.8435
#
#
#
# Elastic Compliance Matrix: (Units=1/GPa)
#
#
# Indices 1 2 3 4 5 6 
#
# 1 0.010744 -0.004602 -0.000528 0.000000 0.002816 0.000000
# 2 -0.004602 0.013005 0.001118 0.000000 0.000304 0.000000
# 3 -0.000528 0.001118 0.012708 0.000000 0.002412 0.000000
# 4 0.000000 0.000000 0.000000 0.064099 0.000000 0.008462
# 5 0.002816 0.000304 0.002412 0.000000 0.032477 0.000000
# 6 0.000000 0.000000 0.000000 0.008462 0.000000 -0.010810
#
#
# Mechanical properties :
#
#
# Convention : Reuss Voigt Hill
#
# Bulk Modulus (GPa) = 35.16962 40.01971 37.59466
# Shear Modulus (GPa) = 35.78449 9.01212 22.39830
#
# Velocity S-wave (km/s) = 3.97283 1.99373 3.14311
# Velocity P-wave (km/s) = 6.04621 4.79076 5.45472
#
# Compressibility (1/GPa) = 0.02843363
#
# Stress axis : x y z
#
# Youngs Moduli (GPa) = 93.07453 76.89120 78.69233
#
# Poissons Ratio (x) = 0.35386 0.04154
# Poissons Ratio (y) = 0.42834 -0.08799
# Poissons Ratio (z) = 0.04913 -0.08598
#
# Static dielectric constant tensor:
#      x y z
#    x 1.937230 0.000000 0.073800 
#    y 0.000000 1.913920 0.000000 
#    z 0.073800 0.000000 1.996780 
# 
# From -- ./inp_files/62729.got.cif
#   From: 2010.05.17/outbox.cif.g08.bks.cpg/sg10_32_cif.got.tgz:62729.got - 2010.06.03 11:33:40.
