data_PCOD9153468
_publ_section_title
;
Structure prediction by ZEFSAII (Michael W. Deem and Ramdas Pophale) SiO2 
 PCOD9153468
Probable space group: P 2/M
;
_chemical_formula_sum "Si O2"
_cell_formula_units_Z 32
_cell_length_a 8.951713
_cell_length_b 13.367735
_cell_length_c 13.223835
_cell_angle_alpha 90.000000
_cell_angle_beta 85.755411
_cell_angle_gamma 90.000000
_cell_volume 1578.078383
_symmetry_space_group_name_H-M "P 2/M"
_symmetry_group_IT_number 10
_symmetry_cell_setting 'monoclinic'
loop_
_space_group_symop_operation_xyz
x,y,z
-x,y,-z
-x,-y,-z
x,-y,z
loop_
_atom_site_type_symbol
_atom_site_label
_atom_site_fract_x
_atom_site_fract_y
_atom_site_fract_z
Si Si1 0.227261 0.111975 0.758206
Si Si2 0.535124 0.889917 0.616465
Si Si3 0.862983 0.612217 0.722096
Si Si4 0.610181 0.235488 0.077944
Si Si5 0.654880 0.615202 0.430539
Si Si6 0.073993 0.239374 0.594821
Si Si7 0.161018 0.617770 0.045075
Si Si8 0.448529 0.688526 0.278799
O O1 0.378341 0.105210 0.683658
O O2 0.281501 0.166697 0.858037
O O3 0.117338 0.170291 0.687777
O O4 0.173124 0.000000 0.782687
O O5 0.500000 0.874959 0.500000
O O6 0.604326 0.791321 0.663158
O O7 0.609354 0.000000 0.623703
O O8 0.923457 0.500000 0.717367
O O9 0.863086 0.649667 0.837579
O O10 0.688705 0.614138 0.701864
O O11 0.958428 0.680268 0.644350
O O12 0.496149 0.286768 0.162922
O O13 0.500000 0.185499 0.000000
O O14 0.715408 0.316166 0.017437
O O15 0.500000 0.626408 0.500000
O O16 0.705403 0.500000 0.437046
O O17 0.780610 0.696790 0.447417
O O18 0.597408 0.643225 0.321557
O O19 0.000000 0.188586 0.500000
O O20 0.204684 0.500000 0.043353
O O21 0.000000 0.626374 0.000000
#
# Coordination Sequence:
#
# PCOD9153468 Si02
#       8
#     4   4   4   4   4   4   4   4
#     4  10  23  43  64  92 125 160 207 264 323 377
#     4   9  18  34  61  89 116 152 200 257 313 361
#     4  11  24  40  59  91 131 166 206 258 307 366
#     4  11  21  40  66  96 120 161 208 265 317 374
#     4  11  23  39  61  90 126 168 213 254 306 374
#     4  12  25  41  64  91 127 173 209 253 310 375
#     4  10  22  38  60  88 124 168 209 255 313 371
#     4  11  21  37  61  90 124 163 207 257 311 367
#
# _framework density 20.277826999999998
#
# number of rings (size 3 to 8) (size 9 to 14) (size 15 to 20)
#    0.000    1.375    3.750    2.625    1.750    3.750 
#    0.000    0.625    0.000    3.375    0.000    0.000 
#    0.000    0.000    0.000    0.000    0.000    0.000 
#
# Total GULP energy -178596.035138 kJ/mol
# GULP energy per Si atom -5581.126098 kJ/mol
# Density = 2.023167 g / cm^3
# Si number density = 20.277827 Si / 1000 Ang^3
#
#
#
# Elastic Constant Matrix: (Units=GPa)
#
#
# Indices 1 2 3 4 5 6 
#
# 1 62.1602 18.7705 26.5110 0.0000 13.2955 0.0000
# 2 18.7705 77.0521 28.5322 0.0000 0.5759 0.0000
# 3 26.5110 28.5322 115.0661 0.0000 12.7724 0.0000
# 4 0.0000 0.0000 0.0000 -118.9156 0.0000 -31.2018
# 5 13.2955 0.5759 12.7724 0.0000 35.6106 0.0000
# 6 0.0000 0.0000 0.0000 -31.2018 0.0000 10.4438
#
#
#
# Elastic Compliance Matrix: (Units=1/GPa)
#
#
# Indices 1 2 3 4 5 6 
#
# 1 0.019801 -0.003684 -0.002952 0.000000 -0.006274 0.000000
# 2 -0.003684 0.015016 -0.003125 0.000000 0.002253 0.000000
# 3 -0.002952 -0.003125 0.010433 0.000000 -0.002589 0.000000
# 4 0.000000 0.000000 0.000000 -0.004714 0.000000 -0.014083
# 5 -0.006274 0.002253 -0.002589 0.000000 0.031316 0.000000
# 6 0.000000 0.000000 0.000000 -0.014083 0.000000 0.053675
#
#
# Mechanical properties :
#
#
# Convention : Reuss Voigt Hill
#
# Bulk Modulus (GPa) = 38.86714 44.65617 41.76166
# Shear Modulus (GPa) = 32.54689 -2.54127 15.00281
#
# Velocity S-wave (km/s) = 4.01065 -1.12069 2.72299
# Velocity P-wave (km/s) = 6.37621 4.51612 5.52501
#
# Compressibility (1/GPa) = 0.02572868
#
# Stress axis : x y z
#
# Youngs Moduli (GPa) = 50.50263 66.59634 95.84879
#
# Poissons Ratio (x) = 0.24531 0.28297
# Poissons Ratio (y) = 0.18603 0.29951
# Poissons Ratio (z) = 0.14910 0.20810
#
# Static dielectric constant tensor:
#      x y z
#    x 1.724640 0.000000 0.050200 
#    y 0.000000 1.753460 0.000000 
#    z 0.050200 0.000000 1.766570 
# 
# From -- ./inp_files/42967.got.cif
#   From: 2010.05.17/outbox.cif.g08.bks.cpg/sg10_22_cif.got.tgz:42967.got - 2010.06.03 11:33:40.
