data_PCOD9153733
_publ_section_title
;
Structure prediction by ZEFSAII (Michael W. Deem and Ramdas Pophale) SiO2 
 PCOD9153733
Probable space group: P 2/M
;
_chemical_formula_sum "Si O2"
_cell_formula_units_Z 15
_cell_length_a 9.454926
_cell_length_b 18.659690
_cell_length_c 5.052766
_cell_angle_alpha 90.000000
_cell_angle_beta 47.700098
_cell_angle_gamma 90.000000
_cell_volume 659.337203
_symmetry_space_group_name_H-M "P 2/M"
_symmetry_group_IT_number 10
_symmetry_cell_setting 'monoclinic'
loop_
_space_group_symop_operation_xyz
x,y,z
-x,y,-z
-x,-y,-z
x,-y,z
loop_
_atom_site_type_symbol
_atom_site_label
_atom_site_fract_x
_atom_site_fract_y
_atom_site_fract_z
Si Si1 0.500000 0.500000 0.500000
Si Si2 0.128923 0.139804 0.591929
Si Si3 0.231470 0.277994 0.216300
Si Si4 0.363051 0.000000 0.423111
Si Si5 0.231307 0.635007 0.714345
O O1 0.337372 0.562946 0.658544
O O2 0.269990 0.200526 0.295465
O O3 0.000000 0.118589 0.500000
O O4 0.234598 0.070875 0.572072
O O5 0.000000 0.169037 0.000000
O O6 0.290122 0.338295 0.350836
O O7 0.000000 0.277175 0.500000
O O8 0.285474 0.303006 0.857246
O O9 0.500000 0.000000 0.500000
O O10 0.500000 0.000000 0.000000
O O11 0.000000 0.626268 0.000000
#
# Coordination Sequence:
#
# PCOD9153733 Si02
#       5
#     1   4   4   2   4
#     4  12  26  42  64  96 132 168 222 254 346 406
#     4  11  21  41  72  95 123 177 236 273 317 401
#     4   9  19  39  66  90 121 159 216 267 323 366
#     4  12  26  42  58 100 148 176 210 274 350 386
#     4  10  22  41  63  92 126 167 211 272 324 392
#
# _framework density 22.750119999999999
#
# number of rings (size 3 to 8) (size 9 to 14) (size 15 to 20)
#    0.000    1.600    0.000    6.800    0.000    3.200 
#    7.200    4.000    0.000    0.000    0.000    0.000 
#    0.000    0.000    0.000    0.000    0.000    0.000 
#
# Total GULP energy -83605.453063 kJ/mol
# GULP energy per Si atom -5573.696871 kJ/mol
# Density = 2.269834 g / cm^3
# Si number density = 22.750120 Si / 1000 Ang^3
#
#
#
# Elastic Constant Matrix: (Units=GPa)
#
#
# Indices 1 2 3 4 5 6 
#
# 1 149.2857 64.0088 65.9883 0.0000 11.1129 0.0000
# 2 64.0088 166.8160 16.3354 0.0000 -12.9259 0.0000
# 3 65.9883 16.3354 73.9597 0.0000 -4.4973 0.0000
# 4 0.0000 0.0000 0.0000 14.0844 0.0000 -75.3803
# 5 11.1129 -12.9259 -4.4973 0.0000 39.4802 0.0000
# 6 0.0000 0.0000 0.0000 -75.3803 0.0000 64.5511
#
#
#
# Elastic Compliance Matrix: (Units=1/GPa)
#
#
# Indices 1 2 3 4 5 6 
#
# 1 0.015089 -0.005109 -0.012782 0.000000 -0.007376 0.000000
# 2 -0.005109 0.007997 0.003060 0.000000 0.004405 0.000000
# 3 -0.012782 0.003060 0.024700 0.000000 0.007414 0.000000
# 4 0.000000 0.000000 0.000000 -0.013524 0.000000 -0.015793
# 5 -0.007376 0.004405 0.007414 0.000000 0.029692 0.000000
# 6 0.000000 0.000000 0.000000 -0.015793 0.000000 -0.002951
#
#
# Mechanical properties :
#
#
# Convention : Reuss Voigt Hill
#
# Bulk Modulus (GPa) = 55.17864 75.85849 65.51856
# Shear Modulus (GPa) = 51.70283 39.87173 45.78728
#
# Velocity S-wave (km/s) = 4.77239 4.19094 4.49109
# Velocity P-wave (km/s) = 7.39422 7.53892 7.46692
#
# Compressibility (1/GPa) = 0.01812296
#
# Stress axis : x y z
#
# Youngs Moduli (GPa) = 66.27559 125.04985 40.48526
#
# Poissons Ratio (x) = 0.63894 0.51749
# Poissons Ratio (y) = 0.33863 -0.12390
# Poissons Ratio (z) = 0.84715 -0.38270
#
# Static dielectric constant tensor:
#      x y z
#    x 1.860020 0.000000 -0.044310 
#    y 0.000000 1.853960 0.000000 
#    z -0.044310 0.000000 1.862190 
# 
# From -- ./inp_files/3912.got.cif
#   From: 2010.05.17/outbox.cif.g08.bks.cpg/sg10_2_cif.got.tgz:3912.got - 2010.06.03 11:33:40.
