data_PCOD9153934
_publ_section_title
;
Structure prediction by ZEFSAII (Michael W. Deem and Ramdas Pophale) SiO2 
 PCOD9153934
Probable space group: P 2/M
;
_chemical_formula_sum "Si O2"
_cell_formula_units_Z 30
_cell_length_a 13.151534
_cell_length_b 14.296955
_cell_length_c 18.955374
_cell_angle_alpha 90.000000
_cell_angle_beta 151.284685
_cell_angle_gamma 90.000000
_cell_volume 1712.409758
_symmetry_space_group_name_H-M "P 2/M"
_symmetry_group_IT_number 10
_symmetry_cell_setting 'monoclinic'
loop_
_space_group_symop_operation_xyz
x,y,z
-x,y,-z
-x,-y,-z
x,-y,z
loop_
_atom_site_type_symbol
_atom_site_label
_atom_site_fract_x
_atom_site_fract_y
_atom_site_fract_z
Si Si1 0.471908 0.193047 0.800975
Si Si2 0.295130 0.104893 0.924138
Si Si3 0.760682 0.891648 0.858993
Si Si4 0.852345 0.605606 0.201178
Si Si5 0.935639 0.220856 0.623704
Si Si6 0.448217 0.891950 0.546685
Si Si7 0.000000 0.186011 0.500000
Si Si8 0.471717 0.391975 0.864081
O O1 0.606509 0.167763 0.814437
O O2 0.238559 0.143842 0.656803
O O3 0.435669 0.304561 0.790303
O O4 0.617439 0.157391 0.953903
O O5 0.122733 0.160051 0.773499
O O6 0.219842 0.000000 0.896093
O O7 0.500000 0.098034 0.000000
O O8 0.661557 0.892114 0.721356
O O9 0.761917 0.000000 0.885722
O O10 0.000000 0.857491 0.000000
O O11 0.929452 0.500000 0.245999
O O12 0.698857 0.615821 0.176213
O O13 0.036920 0.679099 0.323300
O O14 0.698977 0.620458 0.040819
O O15 0.722500 0.169190 0.515929
O O16 0.963559 0.230252 0.556029
O O17 0.500000 0.858303 0.500000
O O18 0.371642 0.000000 0.495862
O O19 0.459096 0.500000 0.829652
#
# Coordination Sequence:
#
# PCOD9153934 Si02
#       8
#     4   4   4   4   4   4   2   4
#     4  12  21  39  56  84 119 153 187 239 292 352
#     4  11  22  34  52  79 110 148 191 224 269 342
#     4  10  23  41  59  81 111 152 200 243 285 337
#     4   9  17  31  55  83 112 149 190 232 284 348
#     4  12  21  39  56  84 119 153 187 239 292 352
#     4  10  23  41  59  81 111 152 200 243 285 337
#     4  12  24  34  58  86 126 154 184 234 306 362
#     4   9  17  31  55  83 112 149 190 232 284 348
#
# _framework density 17.519172000000001
#
# number of rings (size 3 to 8) (size 9 to 14) (size 15 to 20)
#    0.000    1.467    5.333    1.600    1.867    0.000 
#    0.000    4.000    0.000    0.800    0.000    0.000 
#    0.000    0.000    0.000    0.000    0.000    0.000 
#
# Total GULP energy -167119.727474 kJ/mol
# GULP energy per Si atom -5570.657582 kJ/mol
# Density = 1.747930 g / cm^3
# Si number density = 17.519172 Si / 1000 Ang^3
#
#
#
# Elastic Constant Matrix: (Units=GPa)
#
#
# Indices 1 2 3 4 5 6 
#
# 1 78.5573 22.5666 28.0697 0.0000 -0.1896 0.0000
# 2 22.5666 79.1395 27.1782 0.0000 -1.5099 0.0000
# 3 28.0697 27.1782 96.0193 0.0000 1.1404 0.0000
# 4 0.0000 0.0000 0.0000 23.9513 0.0000 -2.3909
# 5 -0.1896 -1.5099 1.1404 0.0000 29.1204 0.0000
# 6 0.0000 0.0000 0.0000 -2.3909 0.0000 13.8855
#
#
#
# Elastic Compliance Matrix: (Units=1/GPa)
#
#
# Indices 1 2 3 4 5 6 
#
# 1 0.014846 -0.003036 -0.003481 0.000000 0.000076 0.000000
# 2 -0.003036 0.014640 -0.003267 0.000000 0.000867 0.000000
# 3 -0.003481 -0.003267 0.012365 0.000000 -0.000676 0.000000
# 4 0.000000 0.000000 0.000000 0.042482 0.000000 0.007315
# 5 0.000076 0.000867 -0.000676 0.000000 0.034412 0.000000
# 6 0.000000 0.000000 0.000000 0.007315 0.000000 0.073277
#
#
# Mechanical properties :
#
#
# Convention : Reuss Voigt Hill
#
# Bulk Modulus (GPa) = 44.87850 45.48279 45.18065
# Shear Modulus (GPa) = 22.82924 25.11823 23.97373
#
# Velocity S-wave (km/s) = 3.61376 3.79061 3.70324
# Velocity P-wave (km/s) = 6.56390 6.72133 6.64308
#
# Compressibility (1/GPa) = 0.02228238
#
# Stress axis : x y z
#
# Youngs Moduli (GPa) = 67.35855 68.30578 80.87382
#
# Poissons Ratio (x) = 0.20739 0.28156
# Poissons Ratio (y) = 0.20452 0.26418
# Poissons Ratio (z) = 0.23451 0.22312
#
# Static dielectric constant tensor:
#      x y z
#    x 1.583340 0.000000 -0.027090 
#    y 0.000000 1.629440 0.000000 
#    z -0.027090 0.000000 1.631060 
# 
# From -- ./inp_files/76933.got.cif
#   From: 2010.05.17/outbox.cif.g08.bks.cpg/sg10_39_cif.got.tgz:76933.got - 2010.06.03 11:33:40.
