data_PCOD9153112
_publ_section_title
;
Structure prediction by ZEFSAII (Michael W. Deem and Ramdas Pophale) SiO2 
 PCOD9153112
Probable space group: P 2/M
;
_chemical_formula_sum "Si O2"
_cell_formula_units_Z 32
_cell_length_a 26.256382
_cell_length_b 7.703670
_cell_length_c 15.152199
_cell_angle_alpha 90.000000
_cell_angle_beta 153.010821
_cell_angle_gamma 90.000000
_cell_volume 1390.893793
_symmetry_space_group_name_H-M "P 2/M"
_symmetry_group_IT_number 10
_symmetry_cell_setting 'monoclinic'
loop_
_space_group_symop_operation_xyz
x,y,z
-x,y,-z
-x,-y,-z
x,-y,z
loop_
_atom_site_type_symbol
_atom_site_label
_atom_site_fract_x
_atom_site_fract_y
_atom_site_fract_z
Si Si1 0.752462 0.299269 0.927110
Si Si2 0.026200 0.703332 0.636882
Si Si3 0.080602 0.796362 0.357807
Si Si4 0.673629 0.291031 0.311526
Si Si5 0.545863 0.710009 0.934921
Si Si6 0.564106 0.797860 0.769780
Si Si7 0.683864 0.198969 0.629840
Si Si8 0.920977 0.213110 0.958014
O O1 0.772647 0.500000 0.933272
O O2 0.652609 0.292016 0.843472
O O3 0.716807 0.202066 0.783686
O O4 0.863085 0.223263 0.144693
O O5 0.051944 0.500000 0.662597
O O6 0.000000 0.778040 0.500000
O O7 0.927891 0.716559 0.557734
O O8 0.199028 0.770856 0.491847
O O9 0.981126 0.728917 0.141138
O O10 0.063700 0.000000 0.343577
O O11 0.675664 0.500000 0.317429
O O12 0.583265 0.233760 0.245504
O O13 0.618453 0.239810 0.132376
O O14 0.547187 0.500000 0.932241
O O15 0.593269 0.783004 0.917666
O O16 0.438604 0.720484 0.568734
O O17 0.561129 0.000000 0.738195
O O18 0.672726 0.000000 0.581842
O O19 0.793471 0.276040 0.752229
O O20 0.917781 0.000000 0.955025
O O21 0.000000 0.265110 0.000000
#
# Coordination Sequence:
#
# PCOD9153112 Si02
#       8
#     4   4   4   4   4   4   4   4
#     4  11  23  40  62  85 114 152 197 245 291 347
#     4  10  23  42  62  84 115 159 201 239 292 357
#     4  11  22  36  62  94 120 152 194 246 296 346
#     4   9  20  39  61  82 116 159 195 234 286 349
#     4   9  20  40  61  83 114 158 199 235 285 342
#     4  11  24  37  59  89 118 150 191 244 297 349
#     4  10  21  40  61  83 116 156 193 236 295 350
#     4   9  19  36  59  85 118 158 194 231 286 354
#
# _framework density 23.006791
#
# number of rings (size 3 to 8) (size 9 to 14) (size 15 to 20)
#    0.000    2.000    1.250    2.250    3.500    4.250 
#    0.000    1.250    0.000    1.875    0.000    0.000 
#    0.000    0.000    0.000    0.000    0.000    0.000 
#
# Total GULP energy -178855.581837 kJ/mol
# GULP energy per Si atom -5589.236932 kJ/mol
# Density = 2.295443 g / cm^3
# Si number density = 23.006791 Si / 1000 Ang^3
#
#
#
# Elastic Constant Matrix: (Units=GPa)
#
#
# Indices 1 2 3 4 5 6 
#
# 1 94.5187 -6.8412 -3.3996 0.0000 12.6337 0.0000
# 2 -6.8412 48.0337 4.3344 0.0000 -0.4848 0.0000
# 3 -3.3996 4.3344 44.1594 0.0000 17.2655 0.0000
# 4 0.0000 0.0000 0.0000 13.5557 0.0000 -0.9097
# 5 12.6337 -0.4848 17.2655 0.0000 40.2682 0.0000
# 6 0.0000 0.0000 0.0000 -0.9097 0.0000 21.4109
#
#
#
# Elastic Compliance Matrix: (Units=1/GPa)
#
#
# Indices 1 2 3 4 5 6 
#
# 1 0.011392 0.001344 0.002566 0.000000 -0.004658 0.000000
# 2 0.001344 0.021226 -0.002301 0.000000 0.000820 0.000000
# 3 0.002566 -0.002301 0.028106 0.000000 -0.012884 0.000000
# 4 0.000000 0.000000 0.000000 0.073981 0.000000 0.003143
# 5 -0.004658 0.000820 -0.012884 0.000000 0.031829 0.000000
# 6 0.000000 0.000000 0.000000 0.003143 0.000000 0.046839
#
#
# Mechanical properties :
#
#
# Convention : Reuss Voigt Hill
#
# Bulk Modulus (GPa) = 15.63881 19.43322 17.53601
# Shear Modulus (GPa) = 21.60132 27.88819 24.74475
#
# Velocity S-wave (km/s) = 3.06749 3.48540 3.28310
# Velocity P-wave (km/s) = 4.39980 4.96613 4.69152
#
# Compressibility (1/GPa) = 0.06394350
#
# Stress axis : x y z
#
# Youngs Moduli (GPa) = 87.77968 47.11204 35.57970
#
# Poissons Ratio (x) = -0.06331 -0.09131
# Poissons Ratio (y) = -0.11797 0.08186
# Poissons Ratio (z) = -0.22528 0.10839
#
# Static dielectric constant tensor:
#      x y z
#    x 1.843320 0.000000 0.003530 
#    y 0.000000 1.870790 0.000000 
#    z 0.003530 0.000000 1.869670 
# 
# From -- ./inp_files/71650.got.cif
#   From: 2010.05.17/outbox.cif.g08.bks.cpg/sg10_36_cif.got.tgz:71650.got - 2010.06.03 11:33:40.
