data_PCOD9153514
_publ_section_title
;
Structure prediction by ZEFSAII (Michael W. Deem and Ramdas Pophale) SiO2 
 PCOD9153514
Probable space group: P 2/M
;
_chemical_formula_sum "Si O2"
_cell_formula_units_Z 32
_cell_length_a 28.086672
_cell_length_b 13.936169
_cell_length_c 9.662998
_cell_angle_alpha 90.000000
_cell_angle_beta 150.172775
_cell_angle_gamma 90.000000
_cell_volume 1881.262249
_symmetry_space_group_name_H-M "P 2/M"
_symmetry_group_IT_number 10
_symmetry_cell_setting 'monoclinic'
loop_
_space_group_symop_operation_xyz
x,y,z
-x,y,-z
-x,-y,-z
x,-y,z
loop_
_atom_site_type_symbol
_atom_site_label
_atom_site_fract_x
_atom_site_fract_y
_atom_site_fract_z
Si Si1 0.785595 0.706647 0.420439
Si Si2 0.098327 0.111202 0.663185
Si Si3 0.903173 0.886973 0.669842
Si Si4 0.605023 0.387911 0.090355
Si Si5 0.807279 0.708047 0.980805
Si Si6 0.115493 0.611797 0.569019
Si Si7 0.896055 0.613657 0.942931
Si Si8 0.385284 0.611473 0.551393
O O1 0.820598 0.816196 0.515373
O O2 0.679955 0.681060 0.204872
O O3 0.806514 0.671455 0.318679
O O4 0.856681 0.642616 0.694434
O O5 0.083196 0.130148 0.461003
O O6 0.172270 0.184644 0.917995
O O7 0.000000 0.124716 0.500000
O O8 0.127017 0.000000 0.749211
O O9 0.881813 0.000000 0.634326
O O10 0.000000 0.865945 0.000000
O O11 0.625198 0.500000 0.105991
O O12 0.616335 0.380182 0.285235
O O13 0.493716 0.367964 0.778391
O O14 0.874251 0.642296 0.246885
O O15 0.840046 0.681004 0.909289
O O16 0.697482 0.677049 0.718274
O O17 0.134265 0.500000 0.599627
O O18 0.008772 0.631303 0.245004
O O19 0.877736 0.500000 0.922757
O O20 0.364030 0.500000 0.465300
#
# Coordination Sequence:
#
# PCOD9153514 Si02
#       8
#     4   4   4   4   4   4   4   4
#     4  12  21  34  55  79 107 150 182 222 275 324
#     4  10  22  39  58  81 110 146 189 234 276 323
#     4  10  22  39  58  81 110 146 189 234 276 323
#     4   9  18  34  56  80 106 141 187 232 271 319
#     4  12  21  34  55  79 107 150 182 222 275 324
#     4  11  22  32  46  76 116 145 176 214 264 329
#     4  11  22  34  50  76 112 151 186 212 252 329
#     4   9  18  34  56  80 106 141 187 232 271 319
#
# _framework density 17.009855000000002
#
# number of rings (size 3 to 8) (size 9 to 14) (size 15 to 20)
#    0.000    1.500    2.500    5.250    1.750    2.000 
#    0.000    0.625    0.000    3.000    0.000    3.500 
#    0.000    0.000    0.000    0.000    0.000    0.000 
#
# Total GULP energy -178663.963798 kJ/mol
# GULP energy per Si atom -5583.248869 kJ/mol
# Density = 1.697114 g / cm^3
# Si number density = 17.009855 Si / 1000 Ang^3
#
#
#
# Elastic Constant Matrix: (Units=GPa)
#
#
# Indices 1 2 3 4 5 6 
#
# 1 60.5163 40.0647 28.1658 0.0000 16.9964 0.0000
# 2 40.0647 108.5304 53.6739 0.0000 21.5709 0.0000
# 3 28.1658 53.6739 77.8778 0.0000 14.3636 0.0000
# 4 0.0000 0.0000 0.0000 28.5103 0.0000 1.3318
# 5 16.9964 21.5709 14.3636 0.0000 27.0688 0.0000
# 6 0.0000 0.0000 0.0000 1.3318 0.0000 25.0683
#
#
#
# Elastic Compliance Matrix: (Units=1/GPa)
#
#
# Indices 1 2 3 4 5 6 
#
# 1 0.024266 -0.005523 -0.003294 0.000000 -0.009088 0.000000
# 2 -0.005523 0.016418 -0.008363 0.000000 -0.005178 0.000000
# 3 -0.003294 -0.008363 0.020158 0.000000 -0.001964 0.000000
# 4 0.000000 0.000000 0.000000 0.035162 0.000000 -0.001868
# 5 -0.009088 -0.005178 -0.001964 0.000000 0.047817 0.000000
# 6 0.000000 0.000000 0.000000 -0.001868 0.000000 0.039990
#
#
# Mechanical properties :
#
#
# Convention : Reuss Voigt Hill
#
# Bulk Modulus (GPa) = 37.76019 54.52591 46.14305
# Shear Modulus (GPa) = 22.02659 24.46415 23.24537
#
# Velocity S-wave (km/s) = 3.60242 3.79652 3.70074
# Velocity P-wave (km/s) = 6.28891 7.16541 6.74142
#
# Compressibility (1/GPa) = 0.02648292
#
# Stress axis : x y z
#
# Youngs Moduli (GPa) = 41.20955 60.90958 49.60850
#
# Poissons Ratio (x) = 0.33639 0.16340
# Poissons Ratio (y) = 0.22759 0.41487
# Poissons Ratio (z) = 0.13574 0.50938
#
# Static dielectric constant tensor:
#      x y z
#    x 1.573640 0.000000 -0.001150 
#    y 0.000000 1.577850 0.000000 
#    z -0.001150 0.000000 1.564120 
# 
# From -- ./inp_files/37746.got.cif
#   From: 2010.05.17/outbox.cif.g08.bks.cpg/sg10_19_cif.got.tgz:37746.got - 2010.06.03 11:33:40.
