data_PCOD9153221
_publ_section_title
;
Structure prediction by ZEFSAII (Michael W. Deem and Ramdas Pophale) SiO2 
 PCOD9153221
Probable space group: P 2/M
;
_chemical_formula_sum "Si O2"
_cell_formula_units_Z 30
_cell_length_a 5.200653
_cell_length_b 22.315788
_cell_length_c 12.322341
_cell_angle_alpha 90.000000
_cell_angle_beta 83.611461
_cell_angle_gamma 90.000000
_cell_volume 1421.209284
_symmetry_space_group_name_H-M "P 2/M"
_symmetry_group_IT_number 10
_symmetry_cell_setting 'monoclinic'
loop_
_space_group_symop_operation_xyz
x,y,z
-x,y,-z
-x,-y,-z
x,-y,z
loop_
_atom_site_type_symbol
_atom_site_label
_atom_site_fract_x
_atom_site_fract_y
_atom_site_fract_z
Si Si1 0.724225 0.500000 0.079116
Si Si2 0.382102 0.825978 0.759588
Si Si3 0.910602 0.208346 0.626876
Si Si4 0.744978 0.726231 0.062495
Si Si5 0.578025 0.318384 0.613946
Si Si6 0.197406 0.378389 0.791644
Si Si7 0.848474 0.434850 0.619399
Si Si8 0.266627 0.929515 0.926414
O O1 0.701112 0.439171 0.153549
O O2 0.500000 0.500000 0.000000
O O3 0.000000 0.500000 0.000000
O O4 0.651659 0.824790 0.681058
O O5 0.384514 0.775765 0.853231
O O6 0.319418 0.888401 0.820315
O O7 0.149968 0.806858 0.691547
O O8 0.820678 0.278163 0.637343
O O9 0.000000 0.195718 0.500000
O O10 0.879172 0.667669 0.110862
O O11 0.500000 0.706562 0.000000
O O12 0.000000 0.757551 0.000000
O O13 0.500000 0.292764 0.500000
O O14 0.373369 0.329753 0.717555
O O15 0.639367 0.387539 0.595291
O O16 0.001761 0.405141 0.711824
O O17 0.752411 0.500000 0.657050
O O18 0.000000 0.440851 0.500000
O O19 0.255399 0.000000 0.898371
O O20 0.500000 0.920548 0.000000
O O21 0.000000 0.913958 0.000000
#
# Coordination Sequence:
#
# PCOD9153221 Si02
#       8
#     2   4   4   4   4   4   4   4
#     4  12  30  52  68  92 124 176 230 274 332 421
#     4  12  23  44  70 102 141 185 230 281 350 398
#     4  12  26  44  69 101 138 182 232 282 346 423
#     4  12  26  43  63  95 129 169 224 277 329 395
#     4  12  25  42  66  98 131 170 218 283 353 420
#     4  12  26  44  67  92 125 173 212 278 339 415
#     4  11  24  41  64  94 124 158 210 273 347 420
#     4  10  21  40  70 110 151 192 239 290 342 398
#
# _framework density 21.108785999999998
#
# number of rings (size 3 to 8) (size 9 to 14) (size 15 to 20)
#    0.000    0.400    3.333    5.600    4.667    0.267 
#    0.000    0.000    0.000    2.400    0.000    0.000 
#    0.000    0.000    0.000    0.000    0.000    0.000 
#
# Total GULP energy -167418.123075 kJ/mol
# GULP energy per Si atom -5580.604103 kJ/mol
# Density = 2.106074 g / cm^3
# Si number density = 21.108786 Si / 1000 Ang^3
#
#
#
# Elastic Constant Matrix: (Units=GPa)
#
#
# Indices 1 2 3 4 5 6 
#
# 1 110.2283 21.9168 54.7129 0.0000 -9.0370 0.0000
# 2 21.9168 95.9524 52.4758 0.0000 -4.5678 0.0000
# 3 54.7129 52.4758 123.2964 0.0000 -3.6797 0.0000
# 4 0.0000 0.0000 0.0000 60.4453 0.0000 -10.4771
# 5 -9.0370 -4.5678 -3.6797 0.0000 49.4045 0.0000
# 6 0.0000 0.0000 0.0000 -10.4771 0.0000 -27.6712
#
#
#
# Elastic Compliance Matrix: (Units=1/GPa)
#
#
# Indices 1 2 3 4 5 6 
#
# 1 0.011794 0.000292 -0.005304 0.000000 0.001789 0.000000
# 2 0.000292 0.013625 -0.005902 0.000000 0.000874 0.000000
# 3 -0.005304 -0.005902 0.012960 0.000000 -0.000551 0.000000
# 4 0.000000 0.000000 0.000000 0.015525 0.000000 -0.005878
# 5 0.001789 0.000874 -0.000551 0.000000 0.020608 0.000000
# 6 0.000000 0.000000 0.000000 -0.005878 0.000000 -0.033913
#
#
# Mechanical properties :
#
#
# Convention : Reuss Voigt Hill
#
# Bulk Modulus (GPa) = 60.42567 65.29868 62.86218
# Shear Modulus (GPa) = 73.59034 29.79383 51.69208
#
# Velocity S-wave (km/s) = 5.91085 3.76099 4.95395
# Velocity P-wave (km/s) = 8.67595 7.06127 7.90992
#
# Compressibility (1/GPa) = 0.01654926
#
# Stress axis : x y z
#
# Youngs Moduli (GPa) = 84.79216 73.39649 77.16021
#
# Poissons Ratio (x) = -0.02146 0.40929
# Poissons Ratio (y) = -0.02479 0.45543
# Poissons Ratio (z) = 0.44977 0.43322
#
# Static dielectric constant tensor:
#      x y z
#    x 0.000000 0.000000 0.000000 
#    y 0.000000 0.000000 0.000000 
#    z 0.000000 0.000000 0.000000 
# 
# From -- ./inp_files/39751.got.cif
#   From: 2010.05.17/outbox.cif.g08.bks.cpg/sg10_20_cif.got.tgz:39751.got - 2010.06.03 11:33:40.
