data_PCOD9153623
_publ_section_title
;
Structure prediction by ZEFSAII (Michael W. Deem and Ramdas Pophale) SiO2 
 PCOD9153623
Probable space group: P 2/M
;
_chemical_formula_sum "Si O2"
_cell_formula_units_Z 24
_cell_length_a 9.123889
_cell_length_b 16.951107
_cell_length_c 16.527826
_cell_angle_alpha 90.000000
_cell_angle_beta 30.035546
_cell_angle_gamma 90.000000
_cell_volume 1279.470079
_symmetry_space_group_name_H-M "P 2/M"
_symmetry_group_IT_number 10
_symmetry_cell_setting 'monoclinic'
loop_
_space_group_symop_operation_xyz
x,y,z
-x,y,-z
-x,-y,-z
x,-y,z
loop_
_atom_site_type_symbol
_atom_site_label
_atom_site_fract_x
_atom_site_fract_y
_atom_site_fract_z
Si Si1 0.169995 0.590586 0.623784
Si Si2 0.308037 0.775078 0.879841
Si Si3 0.187744 0.842794 0.616291
Si Si4 0.751659 0.709203 0.550852
Si Si5 0.217735 0.087968 0.318721
Si Si6 0.816432 0.277999 0.888472
O O1 0.500000 0.594473 0.500000
O O2 0.072973 0.500000 0.669065
O O3 0.186704 0.629032 0.526744
O O4 0.969338 0.645745 0.776214
O O5 0.449011 0.721703 0.742200
O O6 0.541375 0.843203 0.790647
O O7 0.240623 0.721410 0.989394
O O8 0.000000 0.811029 0.000000
O O9 0.500000 0.872345 0.500000
O O10 0.241201 0.775709 0.522178
O O11 0.976277 0.902042 0.669667
O O12 0.016573 0.797029 0.768950
O O13 0.000000 0.720496 0.500000
O O14 0.000000 0.095114 0.500000
O O15 0.346981 0.000000 0.259456
O O16 0.500000 0.267142 0.000000
#
# Coordination Sequence:
#
# PCOD9153623 Si02
#       6
#     4   4   4   4   4   4
#     4  10  22  40  59  85 121 159 199 242 291 352
#     4  12  21  36  61  90 118 153 200 247 295 349
#     4  11  20  38  62  85 115 157 205 241 287 354
#     4  11  19  38  62  85 115 156 207 243 279 352
#     4  11  23  41  61  86 120 159 199 245 299 350
#     4  11  21  36  60  88 117 153 193 247 297 348
#
# _framework density 18.757764000000002
#
# number of rings (size 3 to 8) (size 9 to 14) (size 15 to 20)
#    0.000    1.000    5.000    5.000    0.000    1.333 
#    0.000    2.500    0.000    3.000    0.000    0.000 
#    0.000    0.000    0.000    0.000    0.000    0.000 
#
# Total GULP energy -133984.758342 kJ/mol
# GULP energy per Si atom -5582.698264 kJ/mol
# Density = 1.871507 g / cm^3
# Si number density = 18.757764 Si / 1000 Ang^3
#
#
#
# Elastic Constant Matrix: (Units=GPa)
#
#
# Indices 1 2 3 4 5 6 
#
# 1 68.0403 13.7949 14.3468 0.0000 -14.7496 0.0000
# 2 13.7949 95.8758 39.1836 0.0000 2.1974 0.0000
# 3 14.3468 39.1836 107.6416 0.0000 5.2687 0.0000
# 4 0.0000 0.0000 0.0000 30.0698 0.0000 -7.2667
# 5 -14.7496 2.1974 5.2687 0.0000 45.4363 0.0000
# 6 0.0000 0.0000 0.0000 -7.2667 0.0000 11.7264
#
#
#
# Elastic Compliance Matrix: (Units=1/GPa)
#
#
# Indices 1 2 3 4 5 6 
#
# 1 0.016688 -0.001772 -0.001859 0.000000 0.005719 0.000000
# 2 -0.001772 0.012442 -0.004259 0.000000 -0.000683 0.000000
# 3 -0.001859 -0.004259 0.011171 0.000000 -0.001693 0.000000
# 4 0.000000 0.000000 0.000000 0.039113 0.000000 0.024238
# 5 0.005719 -0.000683 -0.001693 0.000000 0.024095 0.000000
# 6 0.000000 0.000000 0.000000 0.024238 0.000000 0.100297
#
#
# Mechanical properties :
#
#
# Convention : Reuss Voigt Hill
#
# Bulk Modulus (GPa) = 40.78387 45.13427 42.95907
# Shear Modulus (GPa) = 21.95287 31.06199 26.50743
#
# Velocity S-wave (km/s) = 3.42473 4.07376 3.76326
# Velocity P-wave (km/s) = 6.11784 6.80009 6.46796
#
# Compressibility (1/GPa) = 0.02451950
#
# Stress axis : x y z
#
# Youngs Moduli (GPa) = 59.92268 80.37559 89.51606
#
# Poissons Ratio (x) = 0.14246 0.16641
# Poissons Ratio (y) = 0.10621 0.38128
# Poissons Ratio (z) = 0.11139 0.34234
#
# Static dielectric constant tensor:
#      x y z
#    x 1.697310 0.000000 0.004000 
#    y 0.000000 1.641660 0.000000 
#    z 0.004000 0.000000 1.658020 
# 
# From -- ./inp_files/30034.got.cif
#   From: 2010.05.17/outbox.cif.g08.bks.cpg/sg10_16_cif.got.tgz:30034.got - 2010.06.03 11:33:40.
