data_PCOD9153158
_publ_section_title
;
Structure prediction by ZEFSAII (Michael W. Deem and Ramdas Pophale) SiO2 
 PCOD9153158
Probable space group: P 2/M
;
_chemical_formula_sum "Si O2"
_cell_formula_units_Z 28
_cell_length_a 8.624570
_cell_length_b 13.965194
_cell_length_c 14.941083
_cell_angle_alpha 90.000000
_cell_angle_beta 127.826369
_cell_angle_gamma 90.000000
_cell_volume 1421.424153
_symmetry_space_group_name_H-M "P 2/M"
_symmetry_group_IT_number 10
_symmetry_cell_setting 'monoclinic'
loop_
_space_group_symop_operation_xyz
x,y,z
-x,y,-z
-x,-y,-z
x,-y,z
loop_
_atom_site_type_symbol
_atom_site_label
_atom_site_fract_x
_atom_site_fract_y
_atom_site_fract_z
Si Si1 0.095764 0.385283 0.250109
Si Si2 0.279218 0.238532 0.444334
Si Si3 0.281359 0.103292 0.962698
Si Si4 0.962233 0.892279 0.305429
Si Si5 0.425385 0.610474 0.217768
Si Si6 0.701417 0.315404 0.013167
Si Si7 0.196383 0.734344 0.611741
O O1 0.092352 0.500000 0.262391
O O2 0.150845 0.326589 0.358974
O O3 0.267142 0.361807 0.238184
O O4 0.886379 0.350945 0.136827
O O5 0.500000 0.260050 0.500000
O O6 0.275419 0.219769 0.548564
O O7 0.182501 0.144525 0.367891
O O8 0.144749 0.109810 0.827302
O O9 0.264122 0.204888 0.005167
O O10 0.246222 0.000000 0.996306
O O11 0.500000 0.100593 0.000000
O O12 0.865715 0.814872 0.338646
O O13 0.951802 0.000000 0.337675
O O14 0.473318 0.500000 0.250534
O O15 0.628666 0.668905 0.290858
O O16 0.326202 0.623556 0.085993
O O17 0.500000 0.319644 0.000000
O O18 0.000000 0.684955 0.500000
#
# Coordination Sequence:
#
# PCOD9153158 Si02
#       7
#     4   4   4   4   4   4   4
#     4  11  24  42  62  86 121 169 209 250 309 369
#     4  11  22  40  62  88 122 162 207 256 302 359
#     4   9  17  32  60  90 119 154 193 239 303 364
#     4  10  21  40  64  92 124 160 202 251 312 373
#     4  11  24  41  61  87 123 169 211 250 308 366
#     4  11  22  39  63  93 126 155 201 263 307 362
#     4  10  22  38  61  89 124 160 202 259 305 356
#
# _framework density 19.698554000000001
#
# number of rings (size 3 to 8) (size 9 to 14) (size 15 to 20)
#    0.000    1.571    2.857    2.571    2.000    6.286 
#    0.000    0.000    0.000    3.429    0.000    0.000 
#    0.000    0.000    0.000    0.000    0.000    0.000 
#
# Total GULP energy -156078.059816 kJ/mol
# GULP energy per Si atom -5574.216422 kJ/mol
# Density = 1.965372 g / cm^3
# Si number density = 19.698554 Si / 1000 Ang^3
#
#
#
# Elastic Constant Matrix: (Units=GPa)
#
#
# Indices 1 2 3 4 5 6 
#
# 1 35.2812 31.1644 12.3923 0.0000 13.7131 0.0000
# 2 31.1644 98.2475 14.0039 0.0000 15.7339 0.0000
# 3 12.3923 14.0039 65.8211 0.0000 31.1133 0.0000
# 4 0.0000 0.0000 0.0000 22.8347 0.0000 4.5039
# 5 13.7131 15.7339 31.1133 0.0000 35.4371 0.0000
# 6 0.0000 0.0000 0.0000 4.5039 0.0000 21.7677
#
#
#
# Elastic Compliance Matrix: (Units=1/GPa)
#
#
# Indices 1 2 3 4 5 6 
#
# 1 0.043323 -0.011903 -0.000338 0.000000 -0.011183 0.000000
# 2 -0.011903 0.014228 0.000039 0.000000 -0.001745 0.000000
# 3 -0.000338 0.000039 0.025974 0.000000 -0.022692 0.000000
# 4 0.000000 0.000000 0.000000 0.045656 0.000000 -0.009447
# 5 -0.011183 -0.001745 -0.022692 0.000000 0.053244 0.000000
# 6 0.000000 0.000000 0.000000 -0.009447 0.000000 0.047894
#
#
# Mechanical properties :
#
#
# Convention : Reuss Voigt Hill
#
# Bulk Modulus (GPa) = 16.91441 34.94123 25.92782
# Shear Modulus (GPa) = 18.21946 25.46051 21.83999
#
# Velocity S-wave (km/s) = 3.04454 3.59904 3.33334
# Velocity P-wave (km/s) = 4.57867 5.92008 5.29205
#
# Compressibility (1/GPa) = 0.05912117
#
# Stress axis : x y z
#
# Youngs Moduli (GPa) = 23.08229 70.28376 38.49965
#
# Poissons Ratio (x) = 0.83660 0.01301
# Poissons Ratio (y) = 0.27475 -0.00149
# Poissons Ratio (z) = 0.00780 -0.00273
#
# Static dielectric constant tensor:
#      x y z
#    x 1.788700 0.000000 0.079590 
#    y 0.000000 1.716100 0.000000 
#    z 0.079590 0.000000 1.751650 
# 
# From -- ./inp_files/24948.got.cif
#   From: 2010.05.17/outbox.cif.g08.bks.cpg/sg10_13_cif.got.tgz:24948.got - 2010.06.03 11:33:40.
