data_PCOD9153630
_publ_section_title
;
Structure prediction by ZEFSAII (Michael W. Deem and Ramdas Pophale) SiO2 
 PCOD9153630
Probable space group: P 2/M
;
_chemical_formula_sum "Si O2"
_cell_formula_units_Z 21
_cell_length_a 9.999945
_cell_length_b 19.024173
_cell_length_c 5.332987
_cell_angle_alpha 90.000000
_cell_angle_beta 102.432965
_cell_angle_gamma 90.000000
_cell_volume 990.758418
_symmetry_space_group_name_H-M "P 2/M"
_symmetry_group_IT_number 10
_symmetry_cell_setting 'monoclinic'
loop_
_space_group_symop_operation_xyz
x,y,z
-x,y,-z
-x,-y,-z
x,-y,z
loop_
_atom_site_type_symbol
_atom_site_label
_atom_site_fract_x
_atom_site_fract_y
_atom_site_fract_z
Si Si1 0.856828 0.847213 0.591298
Si Si2 0.423312 0.369972 0.718523
Si Si3 0.000000 0.500000 0.000000
Si Si4 0.907568 0.000000 0.715135
Si Si5 0.423250 0.800030 0.720383
Si Si6 0.882789 0.615081 0.259724
Si Si7 0.000000 0.257774 0.000000
O O1 0.733150 0.823390 0.367091
O O2 0.886224 0.791028 0.822722
O O3 0.000000 0.848633 0.500000
O O4 0.829317 0.925862 0.679333
O O5 0.500000 0.394732 0.500000
O O6 0.428909 0.284767 0.722640
O O7 0.263180 0.386974 0.668494
O O8 0.500000 0.394887 0.000000
O O9 0.889986 0.561724 0.033178
O O10 0.000000 0.000000 0.500000
O O11 0.000000 0.000000 0.000000
O O12 0.500000 0.824392 0.500000
O O13 0.500000 0.825194 0.000000
O O14 0.000000 0.589961 0.500000
O O15 0.927449 0.691333 0.173807
#
# Coordination Sequence:
#
# PCOD9153630 Si02
#       7
#     4   4   1   2   4   4   2
#     4  11  23  39  64  95 129 174 229 280 335 406
#     4  10  23  40  65  97 136 169 216 280 336 388
#     4  10  26  44  72  90 144 178 220 270 336 398
#     4  10  22  40  60  92 134 176 221 283 344 394
#     4  10  23  38  60  93 134 171 212 279 344 390
#     4  11  24  43  68  99 131 176 225 272 335 404
#     4  11  22  34  72  99 128 162 236 285 338 394
#
# _framework density 21.195884
#
# number of rings (size 3 to 8) (size 9 to 14) (size 15 to 20)
#    0.000    1.524    0.952    3.143   16.000    0.000 
#    0.000    1.905    0.000    0.000    0.000    0.000 
#    0.000    0.000    0.000    0.000    0.000    0.000 
#
# Total GULP energy -117131.768033 kJ/mol
# GULP energy per Si atom -5577.703240 kJ/mol
# Density = 2.114764 g / cm^3
# Si number density = 21.195884 Si / 1000 Ang^3
#
#
#
# Elastic Constant Matrix: (Units=GPa)
#
#
# Indices 1 2 3 4 5 6 
#
# 1 161.5511 9.9065 68.0625 0.0000 2.4671 0.0000
# 2 9.9065 87.2371 17.1006 0.0000 -1.5368 0.0000
# 3 68.0625 17.1006 136.0815 0.0000 14.6739 0.0000
# 4 0.0000 0.0000 0.0000 -124.0295 0.0000 13.8856
# 5 2.4671 -1.5368 14.6739 0.0000 40.0890 0.0000
# 6 0.0000 0.0000 0.0000 13.8856 0.0000 -27.3132
#
#
#
# Elastic Compliance Matrix: (Units=1/GPa)
#
#
# Indices 1 2 3 4 5 6 
#
# 1 0.007881 -0.000086 -0.004038 0.000000 0.000990 0.000000
# 2 -0.000086 0.011795 -0.001550 0.000000 0.001025 0.000000
# 3 -0.004038 -0.001550 0.009935 0.000000 -0.003447 0.000000
# 4 0.000000 0.000000 0.000000 -0.008549 0.000000 -0.004346
# 5 0.000990 0.001025 -0.003447 0.000000 0.026185 0.000000
# 6 0.000000 0.000000 0.000000 -0.004346 0.000000 -0.038822
#
#
# Mechanical properties :
#
#
# Convention : Reuss Voigt Hill
#
# Bulk Modulus (GPa) = 54.75401 63.88988 59.32195
# Shear Modulus (GPa) = 193.35702 -2.93074 95.21314
#
# Velocity S-wave (km/s) = 9.56148 -1.17716 6.70955
# Velocity P-wave (km/s) = 12.15666 5.32545 9.38469
#
# Compressibility (1/GPa) = 0.01826350
#
# Stress axis : x y z
#
# Youngs Moduli (GPa) = 126.88247 84.78460 100.65886
#
# Poissons Ratio (x) = 0.00730 0.40644
# Poissons Ratio (y) = 0.01092 0.15598
# Poissons Ratio (z) = 0.51233 0.13138
#
# Static dielectric constant tensor:
#      x y z
#    x 1.718380 0.000000 -0.078550 
#    y 0.000000 1.789570 0.000000 
#    z -0.078550 0.000000 1.788760 
# 
# From -- ./inp_files/4860.got.cif
#   From: 2010.05.17/outbox.cif.g08.bks.cpg/sg10_3_cif.got.tgz:4860.got - 2010.06.03 11:33:40.
