data_PCOD9153414
_publ_section_title
;
Structure prediction by ZEFSAII (Michael W. Deem and Ramdas Pophale) SiO2 
 PCOD9153414
Probable space group: P 2/M
;
_chemical_formula_sum "Si O2"
_cell_formula_units_Z 32
_cell_length_a 20.758747
_cell_length_b 7.638575
_cell_length_c 11.736965
_cell_angle_alpha 90.000000
_cell_angle_beta 53.424617
_cell_angle_gamma 90.000000
_cell_volume 1494.598783
_symmetry_space_group_name_H-M "P 2/M"
_symmetry_group_IT_number 10
_symmetry_cell_setting 'monoclinic'
loop_
_space_group_symop_operation_xyz
x,y,z
-x,y,-z
-x,-y,-z
x,-y,z
loop_
_atom_site_type_symbol
_atom_site_label
_atom_site_fract_x
_atom_site_fract_y
_atom_site_fract_z
Si Si1 0.241345 0.790258 0.336146
Si Si2 0.782011 0.204224 0.386633
Si Si3 0.914688 0.787483 0.639390
Si Si4 0.331386 0.710159 0.021615
Si Si5 0.177191 0.704115 0.045062
Si Si6 0.088606 0.703723 0.920501
Si Si7 0.460604 0.286751 0.716842
Si Si8 0.378936 0.711573 0.566035
O O1 0.244191 0.724279 0.462249
O O2 0.158545 0.730157 0.364472
O O3 0.311998 0.747442 0.173302
O O4 0.238797 0.000000 0.343733
O O5 0.859976 0.288832 0.248542
O O6 0.707090 0.223783 0.381177
O O7 0.801274 0.000000 0.379120
O O8 0.892840 0.718523 0.787224
O O9 0.000000 0.731941 0.500000
O O10 0.914193 0.000000 0.645194
O O11 0.330859 0.500000 0.012295
O O12 0.256601 0.778622 0.023333
O O13 0.414175 0.772848 0.878350
O O14 0.196843 0.500000 0.001995
O O15 0.143401 0.782271 0.963810
O O16 0.076810 0.500000 0.965457
O O17 0.000000 0.781555 0.000000
O O18 0.463503 0.500000 0.714938
O O19 0.551003 0.229025 0.594740
O O20 0.407453 0.237219 0.662356
O O21 0.376273 0.500000 0.567974
#
# Coordination Sequence:
#
# PCOD9153414 Si02
#       8
#     4   4   4   4   4   4   4   4
#     4   9  20  36  49  69 101 138 176 213 258 309
#     4  11  23  37  53  74 107 143 175 212 259 314
#     4   9  18  32  52  72  93 128 173 215 255 301
#     4   9  16  30  53  78 101 129 170 216 259 304
#     4   9  18  32  50  75 103 127 159 209 260 304
#     4  10  22  38  55  77 104 136 173 214 262 316
#     4   8  15  30  56  85 108 133 171 218 263 307
#     4   9  17  33  57  82 108 140 173 210 261 313
#
# _framework density 21.410429000000001
#
# number of rings (size 3 to 8) (size 9 to 14) (size 15 to 20)
#    0.000    2.750    0.000    1.875    1.750    4.000 
#    0.000    5.625    0.000    3.750    0.000    0.000 
#    0.000    0.000    0.000    0.000    0.000    0.000 
#
# Total GULP energy -178540.046147 kJ/mol
# GULP energy per Si atom -5579.376442 kJ/mol
# Density = 2.136170 g / cm^3
# Si number density = 21.410429 Si / 1000 Ang^3
#
#
#
# Elastic Constant Matrix: (Units=GPa)
#
#
# Indices 1 2 3 4 5 6 
#
# 1 41.0435 0.1733 29.0940 0.0000 -3.1734 0.0000
# 2 0.1733 37.1485 -10.9602 0.0000 1.8240 0.0000
# 3 29.0940 -10.9602 125.8313 0.0000 -16.6517 0.0000
# 4 0.0000 0.0000 0.0000 36.1156 0.0000 -4.9104
# 5 -3.1734 1.8240 -16.6517 0.0000 26.5878 0.0000
# 6 0.0000 0.0000 0.0000 -4.9104 0.0000 20.8264
#
#
#
# Elastic Compliance Matrix: (Units=1/GPa)
#
#
# Indices 1 2 3 4 5 6 
#
# 1 0.029328 -0.002186 -0.007075 0.000000 -0.000780 0.000000
# 2 -0.002186 0.027796 0.002878 0.000000 -0.000365 0.000000
# 3 -0.007075 0.002878 0.010572 0.000000 0.005579 0.000000
# 4 0.000000 0.000000 0.000000 0.028606 0.000000 0.006745
# 5 -0.000780 -0.000365 0.005579 0.000000 0.041037 0.000000
# 6 0.000000 0.000000 0.000000 0.006745 0.000000 0.049606
#
#
# Mechanical properties :
#
#
# Convention : Reuss Voigt Hill
#
# Bulk Modulus (GPa) = 18.20443 26.73751 22.47097
# Shear Modulus (GPa) = 22.93353 29.08704 26.01028
#
# Velocity S-wave (km/s) = 3.27638 3.68984 3.48924
# Velocity P-wave (km/s) = 4.77848 5.53791 5.17215
#
# Compressibility (1/GPa) = 0.05493167
#
# Stress axis : x y z
#
# Youngs Moduli (GPa) = 34.09679 35.97608 94.58988
#
# Poissons Ratio (x) = 0.07864 0.66920
# Poissons Ratio (y) = 0.07453 -0.27225
# Poissons Ratio (z) = 0.24123 -0.10355
#
# Static dielectric constant tensor:
#      x y z
#    x 1.763820 0.000000 0.008610 
#    y 0.000000 1.815410 0.000000 
#    z 0.008610 0.000000 1.786260 
# 
# From -- ./inp_files/55265.got.cif
#   From: 2010.05.17/outbox.cif.g08.bks.cpg/sg10_28_cif.got.tgz:55265.got - 2010.06.03 11:33:40.
