data_PCOD9153963
_publ_section_title
;
Structure prediction by ZEFSAII (Michael W. Deem and Ramdas Pophale) SiO2 
 PCOD9153963
Probable space group: P 2/M
;
_chemical_formula_sum "Si O2"
_cell_formula_units_Z 16
_cell_length_a 10.619745
_cell_length_b 14.565606
_cell_length_c 5.091984
_cell_angle_alpha 90.000000
_cell_angle_beta 119.781342
_cell_angle_gamma 90.000000
_cell_volume 683.617226
_symmetry_space_group_name_H-M "P 2/M"
_symmetry_group_IT_number 10
_symmetry_cell_setting 'monoclinic'
loop_
_space_group_symop_operation_xyz
x,y,z
-x,y,-z
-x,-y,-z
x,-y,z
loop_
_atom_site_type_symbol
_atom_site_label
_atom_site_fract_x
_atom_site_fract_y
_atom_site_fract_z
Si Si1 0.610026 0.500000 0.363301
Si Si2 0.350327 0.781796 0.927918
Si Si3 0.000000 0.208465 0.000000
Si Si4 0.854246 0.644426 0.461550
Si Si5 0.284633 0.108224 0.331971
O O1 0.500000 0.500000 0.500000
O O2 0.728444 0.583834 0.467022
O O3 0.500000 0.500000 0.000000
O O4 0.232566 0.702355 0.848951
O O5 0.500000 0.734820 0.000000
O O6 0.380581 0.843815 0.209248
O O7 0.922575 0.277518 0.718134
O O8 0.872662 0.138334 0.945895
O O9 0.696285 0.847160 0.361744
O O10 0.000000 0.597436 0.500000
O O11 0.303396 0.000000 0.363087
#
# Coordination Sequence:
#
# PCOD9153963 Si02
#       5
#     2   4   2   4   4
#     4  12  31  49  76 110 144 177 222 285 353 417
#     4  11  24  41  66  97 137 183 229 282 344 402
#     4  10  23  41  70 100 136 180 234 275 351 390
#     4  11  24  47  74 102 139 183 234 282 341 417
#     4  11  23  40  64  97 138 180 233 287 336 398
#
# _framework density 23.404909
#
# number of rings (size 3 to 8) (size 9 to 14) (size 15 to 20)
#    0.000    1.000    2.500    3.000    3.500    7.500 
#    0.000    3.750    0.000    0.000    0.000    0.000 
#    0.000    0.000    0.000    0.000    0.000    0.000 
#
# Total GULP energy -89247.036051 kJ/mol
# GULP energy per Si atom -5577.939753 kJ/mol
# Density = 2.335164 g / cm^3
# Si number density = 23.404909 Si / 1000 Ang^3
#
#
#
# Elastic Constant Matrix: (Units=GPa)
#
#
# Indices 1 2 3 4 5 6 
#
# 1 199.3892 62.8429 47.5373 0.0000 1.8361 0.0000
# 2 62.8429 108.4257 39.9622 0.0000 2.6856 0.0000
# 3 47.5373 39.9622 121.5150 0.0000 -2.1396 0.0000
# 4 0.0000 0.0000 0.0000 11.0919 0.0000 2.1996
# 5 1.8361 2.6856 -2.1396 0.0000 39.5278 0.0000
# 6 0.0000 0.0000 0.0000 2.1996 0.0000 217.1734
#
#
#
# Elastic Compliance Matrix: (Units=1/GPa)
#
#
# Indices 1 2 3 4 5 6 
#
# 1 0.006354 -0.003143 -0.001455 0.000000 -0.000160 0.000000
# 2 -0.003143 0.012081 -0.002758 0.000000 -0.000824 0.000000
# 3 -0.001455 -0.002758 0.009720 0.000000 0.000781 0.000000
# 4 0.000000 0.000000 0.000000 0.090337 0.000000 -0.000915
# 5 -0.000160 -0.000824 0.000781 0.000000 0.025404 0.000000
# 6 0.000000 0.000000 0.000000 -0.000915 0.000000 0.004614
#
#
# Mechanical properties :
#
#
# Convention : Reuss Voigt Hill
#
# Bulk Modulus (GPa) = 74.38739 81.11276 77.75008
# Shear Modulus (GPa) = 29.81448 72.15776 50.98612
#
# Velocity S-wave (km/s) = 3.57298 5.55852 4.67244
# Velocity P-wave (km/s) = 6.99095 8.71365 7.89940
#
# Compressibility (1/GPa) = 0.01344314
#
# Stress axis : x y z
#
# Youngs Moduli (GPa) = 157.37672 82.77231 102.88541
#
# Poissons Ratio (x) = 0.26012 0.14971
# Poissons Ratio (y) = 0.49457 0.28379
# Poissons Ratio (z) = 0.22900 0.22831
#
# Static dielectric constant tensor:
#      x y z
#    x 2.061080 0.000000 -0.040220 
#    y 0.000000 1.861360 0.000000 
#    z -0.040220 0.000000 1.870130 
# 
# From -- ./inp_files/6313.got.cif
#   From: 2010.05.17/outbox.cif.g08.bks.cpg/sg10_4_cif.got.tgz:6313.got - 2010.06.03 11:33:40.
