data_PCOD9153801
_publ_section_title
;
Structure prediction by ZEFSAII (Michael W. Deem and Ramdas Pophale) SiO2 
 PCOD9153801
Probable space group: P 2/M
;
_chemical_formula_sum "Si O2"
_cell_formula_units_Z 26
_cell_length_a 5.742738
_cell_length_b 22.354521
_cell_length_c 10.143854
_cell_angle_alpha 90.000000
_cell_angle_beta 69.549802
_cell_angle_gamma 90.000000
_cell_volume 1220.157627
_symmetry_space_group_name_H-M "P 2/M"
_symmetry_group_IT_number 10
_symmetry_cell_setting 'monoclinic'
loop_
_space_group_symop_operation_xyz
x,y,z
-x,y,-z
-x,-y,-z
x,-y,z
loop_
_atom_site_type_symbol
_atom_site_label
_atom_site_fract_x
_atom_site_fract_y
_atom_site_fract_z
Si Si1 0.571225 0.727676 0.761400
Si Si2 0.947060 0.837648 0.661359
Si Si3 0.500000 0.663388 0.500000
Si Si4 0.197151 0.567623 0.687666
Si Si5 0.581130 0.932626 0.832066
Si Si6 0.778707 0.174007 0.146170
Si Si7 0.386807 0.404101 0.162486
O O1 0.767314 0.780791 0.706444
O O2 0.518191 0.703123 0.625828
O O3 0.349016 0.764393 0.873475
O O4 0.640060 0.668081 0.825616
O O5 0.834209 0.896554 0.754823
O O6 0.000000 0.850981 0.500000
O O7 0.167191 0.816961 0.710986
O O8 0.269179 0.618181 0.567091
O O9 0.240442 0.500000 0.632616
O O10 0.401326 0.578665 0.767612
O O11 0.899415 0.572907 0.772368
O O12 0.383009 0.885784 0.817695
O O13 0.584407 0.000000 0.777547
O O14 0.500000 0.936657 0.000000
O O15 0.000000 0.163694 0.000000
O O16 0.500000 0.422467 0.000000
#
# Coordination Sequence:
#
# PCOD9153801 Si02
#       7
#     4   4   2   4   4   4   4
#     4  10  25  38  63  92 132 165 216 275 337 406
#     4  11  24  40  66  94 133 175 217 276 346 402
#     4  10  23  46  66 100 129 178 226 278 344 418
#     4  11  25  45  70  97 132 178 227 285 342 414
#     4  10  22  42  64  96 132 171 230 280 329 406
#     4  11  23  40  67  97 129 177 223 274 343 406
#     4  11  26  42  67 100 134 176 228 281 350 417
#
# _framework density 21.308721999999999
#
# number of rings (size 3 to 8) (size 9 to 14) (size 15 to 20)
#    0.000    1.385    1.538    2.077    8.615    6.769 
#    0.000    4.615    0.000    0.000    0.000    0.000 
#    0.000    0.000    0.000    0.000    0.000    0.000 
#
# Total GULP energy -144924.481624 kJ/mol
# GULP energy per Si atom -5574.018524 kJ/mol
# Density = 2.126022 g / cm^3
# Si number density = 21.308722 Si / 1000 Ang^3
#
#
#
# Elastic Constant Matrix: (Units=GPa)
#
#
# Indices 1 2 3 4 5 6 
#
# 1 83.3902 33.8778 21.2831 0.0000 -10.7875 0.0000
# 2 33.8778 162.9921 3.8950 0.0000 -6.5641 0.0000
# 3 21.2831 3.8950 51.3891 0.0000 -5.3614 0.0000
# 4 0.0000 0.0000 0.0000 -10.2504 0.0000 -24.0769
# 5 -10.7875 -6.5641 -5.3614 0.0000 27.8149 0.0000
# 6 0.0000 0.0000 0.0000 -24.0769 0.0000 -37.1953
#
#
#
# Elastic Compliance Matrix: (Units=1/GPa)
#
#
# Indices 1 2 3 4 5 6 
#
# 1 0.015110 -0.002841 -0.005614 0.000000 0.004108 0.000000
# 2 -0.002841 0.006734 0.000732 0.000000 0.000628 0.000000
# 3 -0.005614 0.000732 0.021962 0.000000 0.002229 0.000000
# 4 0.000000 0.000000 0.000000 0.187445 0.000000 -0.121335
# 5 0.004108 0.000628 0.002229 0.000000 0.038123 0.000000
# 6 0.000000 0.000000 0.000000 -0.121335 0.000000 0.051657
#
#
# Mechanical properties :
#
#
# Convention : Reuss Voigt Hill
#
# Bulk Modulus (GPa) = 35.26258 46.20923 40.73591
# Shear Modulus (GPa) = 14.45381 11.98821 13.22101
#
# Velocity S-wave (km/s) = 2.60725 2.37448 2.49359
# Velocity P-wave (km/s) = 5.06439 5.40835 5.23919
#
# Compressibility (1/GPa) = 0.02835867
#
# Stress axis : x y z
#
# Youngs Moduli (GPa) = 66.18028 148.50911 45.53419
#
# Poissons Ratio (x) = 0.42192 0.25563
# Poissons Ratio (y) = 0.18802 -0.03332
# Poissons Ratio (z) = 0.37154 -0.10868
#
# Static dielectric constant tensor:
#      x y z
#    x 1.952900 0.000000 0.000450 
#    y 0.000000 1.746360 0.000000 
#    z 0.000450 0.000000 1.769550 
# 
# From -- ./inp_files/39680.got.cif
#   From: 2010.05.17/outbox.cif.g08.bks.cpg/sg10_20_cif.got.tgz:39680.got - 2010.06.03 11:33:40.
