data_PCOD9153163
_publ_section_title
;
Structure prediction by ZEFSAII (Michael W. Deem and Ramdas Pophale) SiO2 
 PCOD9153163
Probable space group: P 2/M
;
_chemical_formula_sum "Si O2"
_cell_formula_units_Z 22
_cell_length_a 6.868587
_cell_length_b 12.171095
_cell_length_c 9.932342
_cell_angle_alpha 90.000000
_cell_angle_beta 89.141237
_cell_angle_gamma 90.000000
_cell_volume 830.232897
_symmetry_space_group_name_H-M "P 2/M"
_symmetry_group_IT_number 10
_symmetry_cell_setting 'monoclinic'
loop_
_space_group_symop_operation_xyz
x,y,z
-x,y,-z
-x,-y,-z
x,-y,z
loop_
_atom_site_type_symbol
_atom_site_label
_atom_site_fract_x
_atom_site_fract_y
_atom_site_fract_z
Si Si1 0.820561 0.375180 0.403626
Si Si2 0.766620 0.125413 0.727245
Si Si3 0.728761 0.345602 0.123252
Si Si4 0.142412 0.883887 0.867607
Si Si5 0.284130 0.618555 0.177133
Si Si6 0.500000 0.796294 0.500000
O O1 0.756409 0.500000 0.433388
O O2 0.872802 0.371511 0.244479
O O3 0.650695 0.287008 0.425920
O O4 0.000000 0.349537 0.500000
O O5 0.740031 0.253958 0.776331
O O6 0.636125 0.131897 0.595397
O O7 0.002651 0.122783 0.738655
O O8 0.722282 0.000000 0.786719
O O9 0.712392 0.214574 0.120681
O O10 0.518498 0.389060 0.161777
O O11 0.789341 0.382252 0.975806
O O12 0.243993 0.000000 0.866397
O O13 0.000000 0.877571 0.000000
O O14 0.230653 0.500000 0.245509
#
# Coordination Sequence:
#
# PCOD9153163 Si02
#       6
#     4   4   4   4   4   2
#     4  11  24  42  66  99 139 181 229 282 339 412
#     4  11  24  44  68  95 131 172 225 278 334 404
#     4  11  21  40  65  95 132 170 220 276 335 397
#     4  10  21  40  64  95 134 173 217 276 338 408
#     4  11  23  40  66  96 133 172 216 274 338 401
#     4  12  24  44  70  92 133 184 233 280 349 396
#
# _framework density 26.498587000000001
#
# number of rings (size 3 to 8) (size 9 to 14) (size 15 to 20)
#    0.000    1.091    3.636    3.818    0.000    1.455 
#    0.000    5.455    0.000    3.818    0.000    0.000 
#    0.000    0.000    0.000    0.000    0.000    0.000 
#
# Total GULP energy -122785.915003 kJ/mol
# GULP energy per Si atom -5581.177955 kJ/mol
# Density = 2.643827 g / cm^3
# Si number density = 26.498587 Si / 1000 Ang^3
#
#
#
# Elastic Constant Matrix: (Units=GPa)
#
#
# Indices 1 2 3 4 5 6 
#
# 1 60.8585 42.2378 12.3792 0.0000 15.9383 0.0000
# 2 42.2378 291.3637 23.1909 0.0000 -1.8178 0.0000
# 3 12.3792 23.1909 162.3597 0.0000 32.7411 0.0000
# 4 0.0000 0.0000 0.0000 -31.1120 0.0000 -11.9045
# 5 15.9383 -1.8178 32.7411 0.0000 36.0137 0.0000
# 6 0.0000 0.0000 0.0000 -11.9045 0.0000 18.0780
#
#
#
# Elastic Compliance Matrix: (Units=1/GPa)
#
#
# Indices 1 2 3 4 5 6 
#
# 1 0.021192 -0.003212 0.000939 0.000000 -0.010395 0.000000
# 2 -0.003212 0.003976 -0.000796 0.000000 0.002346 0.000000
# 3 0.000939 -0.000796 0.007706 0.000000 -0.007461 0.000000
# 4 0.000000 0.000000 0.000000 -0.025673 0.000000 -0.016906
# 5 -0.010395 0.002346 -0.007461 0.000000 0.039269 0.000000
# 6 0.000000 0.000000 0.000000 -0.016906 0.000000 0.044183
#
#
# Mechanical properties :
#
#
# Convention : Reuss Voigt Hill
#
# Bulk Modulus (GPa) = 37.40249 74.46641 55.93445
# Shear Modulus (GPa) = 47.30283 33.71422 40.50853
#
# Velocity S-wave (km/s) = 4.22964 3.57080 3.91411
# Velocity P-wave (km/s) = 6.16430 6.72041 6.44835
#
# Compressibility (1/GPa) = 0.02673619
#
# Stress axis : x y z
#
# Youngs Moduli (GPa) = 47.18811 251.52707 129.77031
#
# Poissons Ratio (x) = 0.80782 -0.12187
# Poissons Ratio (y) = 0.15155 0.10330
# Poissons Ratio (z) = -0.04431 0.20023
#
# Static dielectric constant tensor:
#      x y z
#    x 2.079580 0.000000 -0.060740 
#    y 0.000000 2.053730 0.000000 
#    z -0.060740 0.000000 2.161010 
# 
# From -- ./inp_files/42082.got.cif
#   From: 2010.05.17/outbox.cif.g08.bks.cpg/sg10_22_cif.got.tgz:42082.got - 2010.06.03 11:33:40.
