data_PCOD9153424
_publ_section_title
;
Structure prediction by ZEFSAII (Michael W. Deem and Ramdas Pophale) SiO2 
 PCOD9153424
Probable space group: P 2/M
;
_chemical_formula_sum "Si O2"
_cell_formula_units_Z 18
_cell_length_a 19.367308
_cell_length_b 7.958938
_cell_length_c 5.316297
_cell_angle_alpha 90.000000
_cell_angle_beta 106.539907
_cell_angle_gamma 90.000000
_cell_volume 785.562718
_symmetry_space_group_name_H-M "P 2/M"
_symmetry_group_IT_number 10
_symmetry_cell_setting 'monoclinic'
loop_
_space_group_symop_operation_xyz
x,y,z
-x,y,-z
-x,-y,-z
x,-y,z
loop_
_atom_site_type_symbol
_atom_site_label
_atom_site_fract_x
_atom_site_fract_y
_atom_site_fract_z
Si Si1 0.792292 0.794218 0.000346
Si Si2 0.414348 0.183865 0.374406
Si Si3 0.958061 0.794514 0.206950
Si Si4 0.450998 0.500000 0.191893
Si Si5 0.710723 0.202671 0.410875
O O1 0.874968 0.741076 0.115843
O O2 0.744761 0.735196 0.187636
O O3 0.792204 0.000000 0.998407
O O4 0.758142 0.740863 0.699878
O O5 0.500000 0.167605 0.500000
O O6 0.405441 0.331384 0.167441
O O7 0.371249 0.233045 0.581030
O O8 0.387355 0.000000 0.262194
O O9 0.000000 0.739705 0.500000
O O10 0.957926 0.000000 0.208440
O O11 0.000000 0.741441 0.000000
O O12 0.500000 0.500000 0.500000
O O13 0.500000 0.500000 0.000000
O O14 0.716119 0.000000 0.402058
#
# Coordination Sequence:
#
# PCOD9153424 Si02
#       5
#     4   4   4   2   4
#     4   9  16  26  39  59  88 122 163 205 250 306
#     4   9  19  36  57  80 107 142 184 225 267 319
#     4   9  15  22  34  53  80 118 159 197 242 297
#     4  10  22  38  56  80 108 138 176 226 276 316
#     4   9  17  28  43  63  89 124 163 206 255 301
#
# _framework density 22.913511
#
# number of rings (size 3 to 8) (size 9 to 14) (size 15 to 20)
#    0.000    2.889    0.000    1.333    0.000    9.333 
#    0.000    6.667    0.000    0.000    0.000    0.000 
#    0.000    0.000    0.000   20.000    0.000   48.889 
#
# Total GULP energy -100491.382619 kJ/mol
# GULP energy per Si atom -5582.854590 kJ/mol
# Density = 2.286136 g / cm^3
# Si number density = 22.913511 Si / 1000 Ang^3
#
#
#
# Elastic Constant Matrix: (Units=GPa)
#
#
# Indices 1 2 3 4 5 6 
#
# 1 202.8152 5.8025 88.5804 0.0000 -7.6763 0.0000
# 2 5.8025 73.9236 5.4323 0.0000 -20.5508 0.0000
# 3 88.5804 5.4323 158.8440 0.0000 -18.0631 0.0000
# 4 0.0000 0.0000 0.0000 -12.0772 0.0000 12.2842
# 5 -7.6763 -20.5508 -18.0631 0.0000 49.0812 0.0000
# 6 0.0000 0.0000 0.0000 12.2842 0.0000 -23.6419
#
#
#
# Elastic Compliance Matrix: (Units=1/GPa)
#
#
# Indices 1 2 3 4 5 6 
#
# 1 0.006533 -0.000379 -0.003686 0.000000 -0.000494 0.000000
# 2 -0.000379 0.015339 0.000428 0.000000 0.006521 0.000000
# 3 -0.003686 0.000428 0.008653 0.000000 0.002788 0.000000
# 4 0.000000 0.000000 0.000000 -0.175610 0.000000 -0.091246
# 5 -0.000494 0.006521 0.002788 0.000000 0.024053 0.000000
# 6 0.000000 0.000000 0.000000 -0.091246 0.000000 -0.089708
#
#
# Mechanical properties :
#
#
# Convention : Reuss Voigt Hill
#
# Bulk Modulus (GPa) = 43.00919 70.57923 56.79421
# Shear Modulus (GPa) = -25.54724 25.05692 -0.24516
#
# Velocity S-wave (km/s) = -3.34270 3.31046 -0.32745
# Velocity P-wave (km/s) = 1.97808 6.74400 4.96963
#
# Compressibility (1/GPa) = 0.02325084
#
# Stress axis : x y z
#
# Youngs Moduli (GPa) = 153.07580 65.19529 115.56097
#
# Poissons Ratio (x) = 0.02472 0.42598
# Poissons Ratio (y) = 0.05803 -0.04950
# Poissons Ratio (z) = 0.56426 -0.02793
#
# Static dielectric constant tensor:
#      x y z
#    x 1.881080 0.000000 0.077850 
#    y 0.000000 2.224960 0.000000 
#    z 0.077850 0.000000 1.914990 
# 
# From -- ./inp_files/10372.got.cif
#   From: 2010.05.17/outbox.cif.g08.bks.cpg/sg10_6_cif.got.tgz:10372.got - 2010.06.03 11:33:40.
