data_PCOD9153042
_publ_section_title
;
Structure prediction by ZEFSAII (Michael W. Deem and Ramdas Pophale) SiO2 
 PCOD9153042
Probable space group: P 2/M
;
_chemical_formula_sum "Si O2"
_cell_formula_units_Z 28
_cell_length_a 9.018206
_cell_length_b 21.404841
_cell_length_c 15.490013
_cell_angle_alpha 90.000000
_cell_angle_beta 150.003471
_cell_angle_gamma 90.000000
_cell_volume 1494.887021
_symmetry_space_group_name_H-M "P 2/M"
_symmetry_group_IT_number 10
_symmetry_cell_setting 'monoclinic'
loop_
_space_group_symop_operation_xyz
x,y,z
-x,y,-z
-x,-y,-z
x,-y,z
loop_
_atom_site_type_symbol
_atom_site_label
_atom_site_fract_x
_atom_site_fract_y
_atom_site_fract_z
Si Si1 0.129585 0.000000 0.424810
Si Si2 0.804576 0.129782 0.981856
Si Si3 0.163582 0.870218 0.340863
Si Si4 0.484740 0.000000 0.779964
Si Si5 0.821053 0.646707 0.321053
Si Si6 0.797049 0.425713 0.980113
Si Si7 0.679632 0.782735 0.179632
Si Si8 0.846242 0.574287 0.663178
O O1 0.166787 0.061979 0.387081
O O2 0.363468 0.000000 0.621156
O O3 0.802566 0.000000 0.302566
O O4 0.006054 0.124950 0.168685
O O5 0.672330 0.061979 0.892625
O O6 0.535575 0.176116 0.868723
O O7 0.000000 0.152041 0.000000
O O8 0.500000 0.847959 0.500000
O O9 0.964980 0.823884 0.298129
O O10 0.767534 0.718198 0.267534
O O11 0.000000 0.642370 0.500000
O O12 0.003821 0.612627 0.337617
O O13 0.505213 0.612626 0.171415
O O14 0.730723 0.500000 0.942641
O O15 0.979518 0.414060 0.159839
O O16 0.000000 0.410178 0.000000
O O17 0.500000 0.770426 0.000000
O O18 0.500000 0.589821 0.500000
O O19 0.866486 0.500000 0.654563
#
# Coordination Sequence:
#
# PCOD9153042 Si02
#       8
#     2   4   4   2   4   4   4   4
#     4  11  22  37  62  92 122 154 192 245 299 355
#     4  11  23  41  64  89 118 155 198 246 300 357
#     4  11  23  41  64  89 118 155 198 246 300 357
#     4  11  22  37  62  92 122 154 192 245 299 355
#     4  12  25  39  61  90 124 165 205 249 300 361
#     4  10  21  39  64  93 125 160 201 251 303 357
#     4  10  24  44  62  82 117 162 204 251 300 354
#     4  10  21  39  64  93 125 160 201 251 303 357
#
# _framework density 18.730513999999999
#
# number of rings (size 3 to 8) (size 9 to 14) (size 15 to 20)
#    0.000    1.286    1.429    4.286    0.000    7.429 
#    0.000    2.857    0.000    0.000    0.000    0.000 
#    0.000    0.000    0.000    0.000    0.000    0.000 
#
# Total GULP energy -156641.282156 kJ/mol
# GULP energy per Si atom -5594.331506 kJ/mol
# Density = 1.868788 g / cm^3
# Si number density = 18.730514 Si / 1000 Ang^3
#
#
#
# Elastic Constant Matrix: (Units=GPa)
#
#
# Indices 1 2 3 4 5 6 
#
# 1 189.8352 102.0242 100.8995 0.0000 9.0756 0.0000
# 2 102.0242 113.6985 96.0898 0.0000 4.4295 0.0000
# 3 100.8995 96.0898 149.8616 0.0000 20.7611 0.0000
# 4 0.0000 0.0000 0.0000 21.0767 0.0000 -11.4973
# 5 9.0756 4.4295 20.7611 0.0000 29.6660 0.0000
# 6 0.0000 0.0000 0.0000 -11.4973 0.0000 5.6730
#
#
#
# Elastic Compliance Matrix: (Units=1/GPa)
#
#
# Indices 1 2 3 4 5 6 
#
# 1 0.010519 -0.007642 -0.002098 0.000000 -0.000609 0.000000
# 2 -0.007642 0.025902 -0.012458 0.000000 0.007189 0.000000
# 3 -0.002098 -0.012458 0.017415 0.000000 -0.009686 0.000000
# 4 0.000000 0.000000 0.000000 -0.449551 0.000000 -0.911090
# 5 -0.000609 0.007189 -0.009686 0.000000 0.039600 0.000000
# 6 0.000000 0.000000 0.000000 -0.911090 0.000000 -1.670201
#
#
# Mechanical properties :
#
#
# Convention : Reuss Voigt Hill
#
# Bulk Modulus (GPa) = 105.94412 116.82469 111.38441
# Shear Modulus (GPa) = -2.52682 21.57526 9.52422
#
# Velocity S-wave (km/s) = -1.16274 3.39761 2.25741
# Velocity P-wave (km/s) = 7.40827 8.82601 8.14803
#
# Compressibility (1/GPa) = 0.00943894
#
# Stress axis : x y z
#
# Youngs Moduli (GPa) = 95.06467 38.60727 57.42100
#
# Poissons Ratio (x) = 0.29506 0.12045
# Poissons Ratio (y) = 0.72653 0.71537
# Poissons Ratio (z) = 0.19942 0.48099
#
# Static dielectric constant tensor:
#      x y z
#    x 1.630550 0.000000 0.005220 
#    y 0.000000 1.610010 0.000000 
#    z 0.005220 0.000000 1.623550 
# 
# From -- ./inp_files/62641.got.cif
#   From: 2010.05.17/outbox.cif.g08.bks.cpg/sg10_32_cif.got.tgz:62641.got - 2010.06.03 11:33:40.
