data_PCOD9153885
_publ_section_title
;
Structure prediction by ZEFSAII (Michael W. Deem and Ramdas Pophale) SiO2 
 PCOD9153885
Probable space group: P 2/M
;
_chemical_formula_sum "Si O2"
_cell_formula_units_Z 24
_cell_length_a 9.506892
_cell_length_b 11.622362
_cell_length_c 24.793515
_cell_angle_alpha 90.000000
_cell_angle_beta 151.162683
_cell_angle_gamma 90.000000
_cell_volume 1321.326714
_symmetry_space_group_name_H-M "P 2/M"
_symmetry_group_IT_number 10
_symmetry_cell_setting 'monoclinic'
loop_
_space_group_symop_operation_xyz
x,y,z
-x,y,-z
-x,-y,-z
x,-y,z
loop_
_atom_site_type_symbol
_atom_site_label
_atom_site_fract_x
_atom_site_fract_y
_atom_site_fract_z
Si Si1 0.699698 0.759774 0.424448
Si Si2 0.327952 0.135754 0.207325
Si Si3 0.083792 0.000000 0.331449
Si Si4 0.769203 0.363408 0.554763
Si Si5 0.638110 0.000000 0.458168
Si Si6 0.629228 0.136825 0.983235
Si Si7 0.686459 0.785217 0.222449
O O1 0.464636 0.784147 0.299634
O O2 0.655522 0.671296 0.457511
O O3 0.000000 0.721525 0.500000
O O4 0.746744 0.885080 0.466947
O O5 0.471471 0.174639 0.198663
O O6 0.407391 0.000000 0.242162
O O7 0.979617 0.144158 0.095434
O O8 0.894072 0.887373 0.272286
O O9 0.287985 0.000000 0.347426
O O10 0.252923 0.000000 0.444631
O O11 0.500000 0.317977 0.500000
O O12 0.793854 0.500000 0.568854
O O13 0.080545 0.307417 0.676145
O O14 0.502554 0.225676 0.895930
O O15 0.561697 0.000000 0.948941
O O16 0.500000 0.158780 0.000000
#
# Coordination Sequence:
#
# PCOD9153885 Si02
#       7
#     4   4   2   4   2   4   4
#     4  12  22  36  59  91 125 156 192 243 303 367
#     4  11  22  36  56  92 133 163 193 235 296 370
#     4  11  20  30  55  89 116 159 193 234 295 371
#     4  11  26  44  63  87 118 159 207 256 304 352
#     4  11  21  30  51  90 127 153 187 236 301 363
#     4  10  23  37  57  90 127 163 197 239 293 363
#     4  12  21  39  61  84 123 163 202 241 300 356
#
# _framework density 18.163561000000001
#
# number of rings (size 3 to 8) (size 9 to 14) (size 15 to 20)
#    0.000    0.833    5.833    1.750    4.667    1.667 
#    0.000    0.000    0.000    3.500    0.000    0.000 
#    0.000    0.000    0.000    0.000    0.000    0.000 
#
# Total GULP energy -133750.117313 kJ/mol
# GULP energy per Si atom -5572.921555 kJ/mol
# Density = 1.812222 g / cm^3
# Si number density = 18.163561 Si / 1000 Ang^3
#
#
#
# Elastic Constant Matrix: (Units=GPa)
#
#
# Indices 1 2 3 4 5 6 
#
# 1 124.8658 5.8565 48.8408 0.0000 6.6559 0.0000
# 2 5.8565 26.1780 23.0242 0.0000 3.6215 0.0000
# 3 48.8408 23.0242 101.7576 0.0000 -9.1418 0.0000
# 4 0.0000 0.0000 0.0000 13.3070 0.0000 -7.5813
# 5 6.6559 3.6215 -9.1418 0.0000 30.1204 0.0000
# 6 0.0000 0.0000 0.0000 -7.5813 0.0000 28.2547
#
#
#
# Elastic Compliance Matrix: (Units=1/GPa)
#
#
# Indices 1 2 3 4 5 6 
#
# 1 0.010577 0.003908 -0.006387 0.000000 -0.004746 0.000000
# 2 0.003908 0.051788 -0.014629 0.000000 -0.011530 0.000000
# 3 -0.006387 -0.014629 0.016950 0.000000 0.008315 0.000000
# 4 0.000000 0.000000 0.000000 0.088709 0.000000 0.023802
# 5 -0.004746 -0.011530 0.008315 0.000000 0.038159 0.000000
# 6 0.000000 0.000000 0.000000 0.023802 0.000000 0.041779
#
#
# Mechanical properties :
#
#
# Convention : Reuss Voigt Hill
#
# Bulk Modulus (GPa) = 22.17426 45.36049 33.76738
# Shear Modulus (GPa) = 16.82313 26.00842 21.41578
#
# Velocity S-wave (km/s) = 3.04666 3.78815 3.43746
# Velocity P-wave (km/s) = 4.96093 6.64538 5.86395
#
# Compressibility (1/GPa) = 0.04509733
#
# Stress axis : x y z
#
# Youngs Moduli (GPa) = 94.54916 19.30961 58.99730
#
# Poissons Ratio (x) = -0.07546 0.37681
# Poissons Ratio (y) = -0.36948 0.86309
# Poissons Ratio (z) = 0.60388 0.28249
#
# Static dielectric constant tensor:
#      x y z
#    x 1.678240 0.000000 -0.024940 
#    y 0.000000 1.596720 0.000000 
#    z -0.024940 0.000000 1.766540 
# 
# From -- ./inp_files/36205.got.cif
#   From: 2010.05.17/outbox.cif.g08.bks.cpg/sg10_19_cif.got.tgz:36205.got - 2010.06.03 11:33:40.
