data_PCOD9153427
_publ_section_title
;
Structure prediction by ZEFSAII (Michael W. Deem and Ramdas Pophale) SiO2 
 PCOD9153427
Probable space group: P 2/M
;
_chemical_formula_sum "Si O2"
_cell_formula_units_Z 19
_cell_length_a 16.335008
_cell_length_b 12.347418
_cell_length_c 12.584270
_cell_angle_alpha 90.000000
_cell_angle_beta 153.729255
_cell_angle_gamma 90.000000
_cell_volume 1123.435333
_symmetry_space_group_name_H-M "P 2/M"
_symmetry_group_IT_number 10
_symmetry_cell_setting 'monoclinic'
loop_
_space_group_symop_operation_xyz
x,y,z
-x,y,-z
-x,-y,-z
x,-y,z
loop_
_atom_site_type_symbol
_atom_site_label
_atom_site_fract_x
_atom_site_fract_y
_atom_site_fract_z
Si Si1 0.500000 0.237057 0.500000
Si Si2 0.126433 0.334842 0.331194
Si Si3 0.503689 0.375684 0.887302
Si Si4 0.805017 0.877581 0.711585
Si Si5 0.000000 0.500000 0.000000
Si Si6 0.718784 0.369788 0.933558
O O1 0.354051 0.164579 0.394422
O O2 0.608961 0.312364 0.710384
O O3 0.299472 0.376090 0.599882
O O4 0.171964 0.212027 0.352339
O O5 0.093913 0.405549 0.186506
O O6 0.934645 0.345831 0.170803
O O7 0.568191 0.500000 0.976727
O O8 0.636628 0.330441 0.950036
O O9 0.500000 0.324373 0.000000
O O10 0.765738 0.000000 0.629811
O O11 0.000000 0.878159 0.000000
O O12 0.692522 0.500000 0.892919
#
# Coordination Sequence:
#
# PCOD9153427 Si02
#       6
#     2   4   4   4   1   4
#     4  12  20  36  56  88 116 149 191 232 290 346
#     4  12  21  37  57  84 120 151 189 234 286 344
#     4  10  22  38  56  82 117 156 193 230 280 342
#     4  11  23  37  55  83 120 154 189 235 288 343
#     4  12  20  32  54  90 118 152 172 232 286 348
#     4  11  22  32  55  88 117 152 183 232 287 344
#
# _framework density 16.912410000000001
#
# number of rings (size 3 to 8) (size 9 to 14) (size 15 to 20)
#    0.000    0.842    7.368    0.632    0.000    0.842 
#    0.000    3.158    0.000    0.632    0.000    1.474 
#    0.000    0.000    0.000    0.000    0.000    0.000 
#
# Total GULP energy -105767.823876 kJ/mol
# GULP energy per Si atom -5566.727572 kJ/mol
# Density = 1.687392 g / cm^3
# Si number density = 16.912410 Si / 1000 Ang^3
#
#
#
# Elastic Constant Matrix: (Units=GPa)
#
#
# Indices 1 2 3 4 5 6 
#
# 1 93.3311 40.8204 42.9507 0.0000 5.8861 0.0000
# 2 40.8204 103.6761 13.8512 0.0000 2.4686 0.0000
# 3 42.9507 13.8512 65.5238 0.0000 7.1374 0.0000
# 4 0.0000 0.0000 0.0000 10.2473 0.0000 6.2771
# 5 5.8861 2.4686 7.1374 0.0000 36.0214 0.0000
# 6 0.0000 0.0000 0.0000 6.2771 0.0000 9.6503
#
#
#
# Elastic Compliance Matrix: (Units=1/GPa)
#
#
# Indices 1 2 3 4 5 6 
#
# 1 0.018131 -0.005708 -0.010628 0.000000 -0.000466 0.000000
# 2 -0.005708 0.011725 0.001276 0.000000 -0.000124 0.000000
# 3 -0.010628 0.001276 0.022259 0.000000 -0.002761 0.000000
# 4 0.000000 0.000000 0.000000 0.162224 0.000000 -0.105520
# 5 -0.000466 -0.000124 -0.002761 0.000000 0.028393 0.000000
# 6 0.000000 0.000000 0.000000 -0.105520 0.000000 0.172260
#
#
# Mechanical properties :
#
#
# Convention : Reuss Voigt Hill
#
# Bulk Modulus (GPa) = 45.46048 50.86396 48.16222
# Shear Modulus (GPa) = 11.05114 22.17773 16.61443
#
# Velocity S-wave (km/s) = 2.55901 3.62516 3.13770
# Velocity P-wave (km/s) = 5.97241 6.90381 6.45493
#
# Compressibility (1/GPa) = 0.02199713
#
# Stress axis : x y z
#
# Youngs Moduli (GPa) = 55.15368 85.28646 44.92568
#
# Poissons Ratio (x) = 0.48680 0.47745
# Poissons Ratio (y) = 0.31481 -0.05734
# Poissons Ratio (z) = 0.58615 -0.10885
#
# Static dielectric constant tensor:
#      x y z
#    x 1.621260 0.000000 0.014650 
#    y 0.000000 1.578650 0.000000 
#    z 0.014650 0.000000 1.552750 
# 
# From -- ./inp_files/23693.got.cif
#   From: 2010.05.17/outbox.cif.g08.bks.cpg/sg10_12_cif.got.tgz:23693.got - 2010.06.03 11:33:40.
