data_PCOD9153779
_publ_section_title
;
Structure prediction by ZEFSAII (Michael W. Deem and Ramdas Pophale) SiO2 
 PCOD9153779
Probable space group: P 2/M
;
_chemical_formula_sum "Si O2"
_cell_formula_units_Z 28
_cell_length_a 8.128313
_cell_length_b 22.493551
_cell_length_c 14.196053
_cell_angle_alpha 90.000000
_cell_angle_beta 151.958395
_cell_angle_gamma 90.000000
_cell_volume 1220.191320
_symmetry_space_group_name_H-M "P 2/M"
_symmetry_group_IT_number 10
_symmetry_cell_setting 'monoclinic'
loop_
_space_group_symop_operation_xyz
x,y,z
-x,y,-z
-x,-y,-z
x,-y,z
loop_
_atom_site_type_symbol
_atom_site_label
_atom_site_fract_x
_atom_site_fract_y
_atom_site_fract_z
Si Si1 0.488453 0.182997 0.253852
Si Si2 0.949919 0.567120 0.874202
Si Si3 0.123981 0.658320 0.816873
Si Si4 0.096373 0.230368 0.900745
Si Si5 0.882437 0.566505 0.549348
Si Si6 0.132608 0.146940 0.371614
Si Si7 0.299032 0.934794 0.730965
O O1 0.797849 0.176091 0.488869
O O2 0.463403 0.119056 0.188539
O O3 0.183060 0.199708 0.171824
O O4 0.437448 0.230111 0.141736
O O5 0.084860 0.500000 0.948426
O O6 0.536460 0.565843 0.647507
O O7 0.156299 0.601708 0.900528
O O8 0.000000 0.597092 0.000000
O O9 0.926151 0.707732 0.777507
O O10 0.999238 0.627062 0.659435
O O11 0.500000 0.688446 0.000000
O O12 0.098113 0.189695 0.809567
O O13 0.000892 0.500000 0.644431
O O14 0.000000 0.568758 0.500000
O O15 0.500000 0.136968 0.500000
O O16 0.909460 0.088377 0.282670
O O17 0.000000 0.940317 0.500000
O O18 0.461979 0.000000 0.825687
#
# Coordination Sequence:
#
# PCOD9153779 Si02
#       7
#     4   4   4   4   4   4   4
#     4   9  20  40  62  82 120 168 198 262 317 374
#     4  10  22  41  67  95 128 166 209 267 330 388
#     4  12  26  40  60  95 128 170 219 273 321 389
#     4  10  23  41  58  85 122 165 215 258 310 383
#     4  10  22  44  69  95 130 171 215 269 334 397
#     4   9  19  37  60  88 121 165 205 253 324 382
#     4   9  18  35  63  95 123 159 209 262 320 391
#
# _framework density 22.947220999999999
#
# number of rings (size 3 to 8) (size 9 to 14) (size 15 to 20)
#    0.000    2.143    0.000    1.714    4.000    7.143 
#    2.571    5.000    0.000    0.000    0.000    0.000 
#    0.000    0.000    0.000    0.000    0.000    0.000 
#
# Total GULP energy -155902.289528 kJ/mol
# GULP energy per Si atom -5567.938912 kJ/mol
# Density = 2.289499 g / cm^3
# Si number density = 22.947221 Si / 1000 Ang^3
#
#
#
# Elastic Constant Matrix: (Units=GPa)
#
#
# Indices 1 2 3 4 5 6 
#
# 1 99.4134 41.1209 19.7536 0.0000 -19.4102 0.0000
# 2 41.1209 116.6585 27.5632 0.0000 -18.1592 0.0000
# 3 19.7536 27.5632 56.2986 0.0000 -16.5562 0.0000
# 4 0.0000 0.0000 0.0000 18.9958 0.0000 -3.5592
# 5 -19.4102 -18.1592 -16.5562 0.0000 43.6350 0.0000
# 6 0.0000 0.0000 0.0000 -3.5592 0.0000 17.5020
#
#
#
# Elastic Compliance Matrix: (Units=1/GPa)
#
#
# Indices 1 2 3 4 5 6 
#
# 1 0.012507 -0.003473 -0.001662 0.000000 0.003487 0.000000
# 2 -0.003473 0.010909 -0.003649 0.000000 0.001611 0.000000
# 3 -0.001662 -0.003649 0.021913 0.000000 0.006056 0.000000
# 4 0.000000 0.000000 0.000000 0.054728 0.000000 0.011130
# 5 0.003487 0.001611 0.006056 0.000000 0.027437 0.000000
# 6 0.000000 0.000000 0.000000 0.011130 0.000000 0.059400
#
#
# Mechanical properties :
#
#
# Convention : Reuss Voigt Hill
#
# Bulk Modulus (GPa) = 36.02199 49.91621 42.96910
# Shear Modulus (GPa) = 23.39557 28.28875 25.84216
#
# Velocity S-wave (km/s) = 3.19649 3.51490 3.35947
# Velocity P-wave (km/s) = 5.41804 6.18648 5.81497
#
# Compressibility (1/GPa) = 0.02776082
#
# Stress axis : x y z
#
# Youngs Moduli (GPa) = 79.95700 91.66750 45.63466
#
# Poissons Ratio (x) = 0.31835 0.07586
# Poissons Ratio (y) = 0.27768 0.16651
# Poissons Ratio (z) = 0.13292 0.33447
#
# Static dielectric constant tensor:
#      x y z
#    x 1.947560 0.000000 0.005330 
#    y 0.000000 1.878120 0.000000 
#    z 0.005330 0.000000 2.097950 
# 
# From -- ./inp_files/62610.got.cif
#   From: 2010.05.17/outbox.cif.g08.bks.cpg/sg10_32_cif.got.tgz:62610.got - 2010.06.03 11:33:40.
