data_PCOD9153926
_publ_section_title
;
Structure prediction by ZEFSAII (Michael W. Deem and Ramdas Pophale) SiO2 
 PCOD9153926
Probable space group: P 2/M
;
_chemical_formula_sum "Si O2"
_cell_formula_units_Z 24
_cell_length_a 8.843004
_cell_length_b 22.172397
_cell_length_c 7.396924
_cell_angle_alpha 90.000000
_cell_angle_beta 131.188234
_cell_angle_gamma 90.000000
_cell_volume 1091.438013
_symmetry_space_group_name_H-M "P 2/M"
_symmetry_group_IT_number 10
_symmetry_cell_setting 'monoclinic'
loop_
_space_group_symop_operation_xyz
x,y,z
-x,y,-z
-x,-y,-z
x,-y,z
loop_
_atom_site_type_symbol
_atom_site_label
_atom_site_fract_x
_atom_site_fract_y
_atom_site_fract_z
Si Si1 0.221776 0.432934 0.267312
Si Si2 0.508633 0.112623 0.726169
Si Si3 0.414355 0.360800 0.115650
Si Si4 0.032195 0.323836 0.314075
Si Si5 0.371709 0.754962 0.579552
Si Si6 0.195819 0.069471 0.756268
O O1 0.263604 0.500000 0.371068
O O2 0.385729 0.410295 0.250121
O O3 0.178383 0.378477 0.370557
O O4 0.000000 0.437393 0.000000
O O5 0.500000 0.103071 0.500000
O O6 0.421546 0.179706 0.694524
O O7 0.363382 0.070344 0.729649
O O8 0.720337 0.103516 0.998840
O O9 0.551243 0.301408 0.244230
O O10 0.500000 0.390016 0.000000
O O11 0.187774 0.333844 0.938190
O O12 0.141298 0.261071 0.354696
O O13 0.000000 0.326303 0.500000
O O14 0.500000 0.750497 0.500000
O O15 0.000000 0.095093 0.500000
O O16 0.154672 0.000000 0.776371
#
# Coordination Sequence:
#
# PCOD9153926 Si02
#       6
#     4   4   4   4   4   4
#     4   9  20  39  59  83 119 158 203 262 319 385
#     4  10  23  40  64  98 135 177 223 280 331 389
#     4  11  22  37  61  86 117 160 205 258 322 389
#     4  11  22  37  60  85 116 159 204 258 324 385
#     4  11  23  40  60  89 125 159 212 262 320 393
#     4  10  23  43  67  98 138 181 226 272 324 390
#
# _framework density 21.989341
#
# number of rings (size 3 to 8) (size 9 to 14) (size 15 to 20)
#    0.000    1.667    3.333    1.000    2.333    4.667 
#    0.000    6.667    0.000    0.000    0.000    0.000 
#    0.000    0.000    0.000    0.000    0.000    0.000 
#
# Total GULP energy -133815.655051 kJ/mol
# GULP energy per Si atom -5575.652294 kJ/mol
# Density = 2.193929 g / cm^3
# Si number density = 21.989341 Si / 1000 Ang^3
#
#
#
# Elastic Constant Matrix: (Units=GPa)
#
#
# Indices 1 2 3 4 5 6 
#
# 1 106.3608 23.2946 24.0371 0.0000 -6.2168 0.0000
# 2 23.2946 105.8901 41.9671 0.0000 -4.3011 0.0000
# 3 24.0371 41.9671 126.3586 0.0000 5.5322 0.0000
# 4 0.0000 0.0000 0.0000 19.8881 0.0000 15.8328
# 5 -6.2168 -4.3011 5.5322 0.0000 38.9805 0.0000
# 6 0.0000 0.0000 0.0000 15.8328 0.0000 16.9755
#
#
#
# Elastic Compliance Matrix: (Units=1/GPa)
#
#
# Indices 1 2 3 4 5 6 
#
# 1 0.010181 -0.001585 -0.001483 0.000000 0.001659 0.000000
# 2 -0.001585 0.011238 -0.003496 0.000000 0.001483 0.000000
# 3 -0.001483 -0.003496 0.009443 0.000000 -0.001962 0.000000
# 4 0.000000 0.000000 0.000000 0.195267 0.000000 -0.182122
# 5 0.001659 0.001483 -0.001962 0.000000 0.026361 0.000000
# 6 0.000000 0.000000 0.000000 -0.182122 0.000000 0.228770
#
#
# Mechanical properties :
#
#
# Convention : Reuss Voigt Hill
#
# Bulk Modulus (GPa) = 56.38533 57.46745 56.92639
# Shear Modulus (GPa) = 9.99402 31.78955 20.89179
#
# Velocity S-wave (km/s) = 2.13420 3.80633 3.08569
# Velocity P-wave (km/s) = 5.63656 6.74600 6.21608
#
# Compressibility (1/GPa) = 0.01773511
#
# Stress axis : x y z
#
# Youngs Moduli (GPa) = 98.22052 88.98262 105.89669
#
# Poissons Ratio (x) = 0.14100 0.15706
# Poissons Ratio (y) = 0.15563 0.37022
# Poissons Ratio (z) = 0.14568 0.31108
#
# Static dielectric constant tensor:
#      x y z
#    x 1.920570 0.000000 0.070840 
#    y 0.000000 1.854230 0.000000 
#    z 0.070840 0.000000 2.004880 
# 
# From -- ./inp_files/20278.got.cif
#   From: 2010.05.17/outbox.cif.g08.bks.cpg/sg10_11_cif.got.tgz:20278.got - 2010.06.03 11:33:40.
