data_PCOD9153079
_publ_section_title
;
Structure prediction by ZEFSAII (Michael W. Deem and Ramdas Pophale) SiO2 
 PCOD9153079
Probable space group: P 2/M
;
_chemical_formula_sum "Si O2"
_cell_formula_units_Z 17
_cell_length_a 11.969533
_cell_length_b 7.559712
_cell_length_c 10.700847
_cell_angle_alpha 90.000000
_cell_angle_beta 126.539754
_cell_angle_gamma 90.000000
_cell_volume 777.958087
_symmetry_space_group_name_H-M "P 2/M"
_symmetry_group_IT_number 10
_symmetry_cell_setting 'monoclinic'
loop_
_space_group_symop_operation_xyz
x,y,z
-x,y,-z
-x,-y,-z
x,-y,z
loop_
_atom_site_type_symbol
_atom_site_label
_atom_site_fract_x
_atom_site_fract_y
_atom_site_fract_z
Si Si1 0.559677 0.712493 0.670904
Si Si2 0.859586 0.789522 0.972953
Si Si3 0.591358 0.715641 0.179260
Si Si4 0.113414 0.703531 0.724125
Si Si5 0.000000 0.000000 0.500000
O O1 0.500000 0.779982 0.500000
O O2 0.543785 0.500000 0.659723
O O3 0.721552 0.750265 0.802126
O O4 0.474352 0.777986 0.734969
O O5 0.870061 0.000000 0.994413
O O6 0.848558 0.712094 0.104515
O O7 0.000000 0.724691 0.000000
O O8 0.589856 0.500000 0.177584
O O9 0.749881 0.767789 0.260652
O O10 0.500000 0.773889 0.000000
O O11 0.081680 0.500000 0.673973
O O12 0.998481 0.842971 0.607497
#
# Coordination Sequence:
#
# PCOD9153079 Si02
#       5
#     4   4   4   4   1
#     4  10  21  39  65  99 133 171 227 282 335 406
#     4  11  24  43  65  95 137 180 229 284 341 413
#     4   9  17  35  65  96 125 162 217 274 328 395
#     4  11  23  43  70  97 133 180 223 276 341 401
#     4  12  26  44  60 102 140 172 224 282 320 408
#
# _framework density 21.852074999999999
#
# number of rings (size 3 to 8) (size 9 to 14) (size 15 to 20)
#    0.000    1.647    3.529    1.059    0.000    4.235 
#    2.118    4.118    0.000    0.000    0.000    0.000 
#    0.000    0.000    0.000    0.000    0.000    0.000 
#
# Total GULP energy -94780.439444 kJ/mol
# GULP energy per Si atom -5575.319967 kJ/mol
# Density = 2.180234 g / cm^3
# Si number density = 21.852075 Si / 1000 Ang^3
#
#
#
# Elastic Constant Matrix: (Units=GPa)
#
#
# Indices 1 2 3 4 5 6 
#
# 1 150.3857 4.2371 72.4851 0.0000 -15.2700 0.0000
# 2 4.2371 101.8245 20.2065 0.0000 -1.7695 0.0000
# 3 72.4851 20.2065 182.0572 0.0000 -9.1754 0.0000
# 4 0.0000 0.0000 0.0000 7.9945 0.0000 1.8214
# 5 -15.2700 -1.7695 -9.1754 0.0000 23.3836 0.0000
# 6 0.0000 0.0000 0.0000 1.8214 0.0000 2.7976
#
#
#
# Elastic Compliance Matrix: (Units=1/GPa)
#
#
# Indices 1 2 3 4 5 6 
#
# 1 0.008661 0.000364 -0.003267 0.000000 0.004401 0.000000
# 2 0.000364 0.010060 -0.001236 0.000000 0.000514 0.000000
# 3 -0.003267 -0.001236 0.006956 0.000000 0.000503 0.000000
# 4 0.000000 0.000000 0.000000 0.146870 0.000000 -0.095618
# 5 0.004401 0.000514 0.000503 0.000000 0.045875 0.000000
# 6 0.000000 0.000000 0.000000 -0.095618 0.000000 0.419695
#
#
# Mechanical properties :
#
#
# Convention : Reuss Voigt Hill
#
# Bulk Modulus (GPa) = 57.47054 69.79163 63.63108
# Shear Modulus (GPa) = 7.66643 29.32440 18.49542
#
# Velocity S-wave (km/s) = 1.87509 3.66724 2.91244
# Velocity P-wave (km/s) = 5.57179 7.06676 6.36333
#
# Compressibility (1/GPa) = 0.01740022
#
# Stress axis : x y z
#
# Youngs Moduli (GPa) = 115.46228 99.40544 143.76181
#
# Poissons Ratio (x) = -0.03622 0.46965
# Poissons Ratio (y) = -0.04207 0.17765
# Poissons Ratio (z) = 0.37720 0.12283
#
# Static dielectric constant tensor:
#      x y z
#    x 1.814810 0.000000 0.018500 
#    y 0.000000 1.843870 0.000000 
#    z 0.018500 0.000000 1.826520 
# 
# From -- ./inp_files/22474.got.cif
#   From: 2010.05.17/outbox.cif.g08.bks.cpg/sg10_12_cif.got.tgz:22474.got - 2010.06.03 11:33:40.
