data_PCOD9153640
_publ_section_title
;
Structure prediction by ZEFSAII (Michael W. Deem and Ramdas Pophale) SiO2 
 PCOD9153640
Probable space group: P 2/M
;
_chemical_formula_sum "Si O2"
_cell_formula_units_Z 28
_cell_length_a 29.032214
_cell_length_b 9.230621
_cell_length_c 5.417805
_cell_angle_alpha 90.000000
_cell_angle_beta 68.669559
_cell_angle_gamma 90.000000
_cell_volume 1352.435058
_symmetry_space_group_name_H-M "P 2/M"
_symmetry_group_IT_number 10
_symmetry_cell_setting 'monoclinic'
loop_
_space_group_symop_operation_xyz
x,y,z
-x,y,-z
-x,-y,-z
x,-y,z
loop_
_atom_site_type_symbol
_atom_site_label
_atom_site_fract_x
_atom_site_fract_y
_atom_site_fract_z
Si Si1 0.595947 0.326474 0.358858
Si Si2 0.133016 0.666069 0.446906
Si Si3 0.558788 0.170661 0.930876
Si Si4 0.300316 0.656213 0.085329
Si Si5 0.792569 0.655270 0.091432
Si Si6 0.772660 0.161278 0.527942
Si Si7 0.970430 0.174148 0.307088
O O1 0.584675 0.500000 0.391163
O O2 0.582900 0.250994 0.645419
O O3 0.653960 0.310742 0.178912
O O4 0.570266 0.250782 0.169379
O O5 0.127865 0.500000 0.538492
O O6 0.179512 0.745755 0.481621
O O7 0.082750 0.750741 0.582650
O O8 0.152743 0.660922 0.126782
O O9 0.573641 0.000000 0.914121
O O10 0.500000 0.175154 0.000000
O O11 0.311396 0.500000 0.185718
O O12 0.250222 0.641328 0.027798
O O13 0.281891 0.776901 0.309070
O O14 0.787725 0.500000 0.243578
O O15 0.779494 0.810400 0.227223
O O16 0.777439 0.000000 0.606876
O O17 0.000000 0.212394 0.500000
O O18 0.964165 0.000000 0.317456
O O19 0.000000 0.213958 0.000000
#
# Coordination Sequence:
#
# PCOD9153640 Si02
#       7
#     4   4   4   4   4   4   4
#     4  11  24  42  69 101 131 172 223 276 329 389
#     4  10  22  40  61  86 116 158 207 252 303 365
#     4  11  25  45  67  95 134 177 219 272 338 397
#     4   9  21  40  59  85 122 162 204 254 314 375
#     4   9  19  37  59  83 117 159 200 247 302 366
#     4  11  22  35  58  89 121 158 201 251 305 369
#     4  10  23  42  63  91 126 161 199 252 315 371
#
# _framework density 20.703396999999999
#
# number of rings (size 3 to 8) (size 9 to 14) (size 15 to 20)
#    0.000    1.857    0.000    3.857    4.000    7.429 
#    0.000    0.000    0.000    0.000    0.000    0.000 
#    0.000    0.000    0.000    0.000    0.000    0.000 
#
# Total GULP energy -155886.865077 kJ/mol
# GULP energy per Si atom -5567.388038 kJ/mol
# Density = 2.065628 g / cm^3
# Si number density = 20.703397 Si / 1000 Ang^3
#
#
#
# Elastic Constant Matrix: (Units=GPa)
#
#
# Indices 1 2 3 4 5 6 
#
# 1 35.1583 12.2932 10.9499 0.0000 -13.8841 0.0000
# 2 12.2932 94.0103 37.8528 0.0000 -6.4472 0.0000
# 3 10.9499 37.8528 86.1225 0.0000 -11.8166 0.0000
# 4 0.0000 0.0000 0.0000 9.2493 0.0000 10.1280
# 5 -13.8841 -6.4472 -11.8166 0.0000 37.1014 0.0000
# 6 0.0000 0.0000 0.0000 10.1280 0.0000 14.2648
#
#
#
# Elastic Compliance Matrix: (Units=1/GPa)
#
#
# Indices 1 2 3 4 5 6 
#
# 1 0.034718 -0.003162 -0.001377 0.000000 0.012004 0.000000
# 2 -0.003162 0.013220 -0.005496 0.000000 -0.000636 0.000000
# 3 -0.001377 -0.005496 0.014640 0.000000 0.003192 0.000000
# 4 0.000000 0.000000 0.000000 0.485814 0.000000 -0.344929
# 5 0.012004 -0.000636 0.003192 0.000000 0.032351 0.000000
# 6 0.000000 0.000000 0.000000 -0.344929 0.000000 0.315003
#
#
# Mechanical properties :
#
#
# Convention : Reuss Voigt Hill
#
# Bulk Modulus (GPa) = 23.52532 37.49812 30.51172
# Shear Modulus (GPa) = 5.37643 22.40277 13.88960
#
# Velocity S-wave (km/s) = 1.61323 3.29307 2.59295
# Velocity P-wave (km/s) = 3.85457 5.71056 4.87176
#
# Compressibility (1/GPa) = 0.04250740
#
# Stress axis : x y z
#
# Youngs Moduli (GPa) = 28.80369 75.64416 68.30610
#
# Poissons Ratio (x) = 0.23919 0.09408
# Poissons Ratio (y) = 0.09108 0.37539
# Poissons Ratio (z) = 0.03967 0.41572
#
# Static dielectric constant tensor:
#      x y z
#    x 1.736370 0.000000 0.093580 
#    y 0.000000 1.838770 0.000000 
#    z 0.093580 0.000000 1.882860 
# 
# From -- ./inp_files/13594.got.cif
#   From: 2010.05.17/outbox.cif.g08.bks.cpg/sg10_7_cif.got.tgz:13594.got - 2010.06.03 11:33:40.
