data_PCOD9153383
_publ_section_title
;
Structure prediction by ZEFSAII (Michael W. Deem and Ramdas Pophale) SiO2 
 PCOD9153383
Probable space group: P 2/M
;
_chemical_formula_sum "Si O2"
_cell_formula_units_Z 28
_cell_length_a 20.272494
_cell_length_b 17.582451
_cell_length_c 12.234419
_cell_angle_alpha 90.000000
_cell_angle_beta 160.133342
_cell_angle_gamma 90.000000
_cell_volume 1481.953639
_symmetry_space_group_name_H-M "P 2/M"
_symmetry_group_IT_number 10
_symmetry_cell_setting 'monoclinic'
loop_
_space_group_symop_operation_xyz
x,y,z
-x,y,-z
-x,-y,-z
x,-y,z
loop_
_atom_site_type_symbol
_atom_site_label
_atom_site_fract_x
_atom_site_fract_y
_atom_site_fract_z
Si Si1 0.457861 0.878304 0.306651
Si Si2 0.435954 0.414485 0.275469
Si Si3 0.547549 0.276740 0.192543
Si Si4 0.274970 0.000000 0.626252
Si Si5 0.226354 0.410726 0.374323
Si Si6 0.229179 0.730075 0.877040
Si Si7 0.785964 0.000000 0.210429
Si Si8 0.777318 0.866235 0.631237
O O1 0.500000 0.896992 0.500000
O O2 0.662184 0.888003 0.561905
O O3 0.347775 0.796329 0.126756
O O4 0.322924 0.929423 0.016718
O O5 0.500000 0.413204 0.500000
O O6 0.368610 0.500000 0.141895
O O7 0.631226 0.399655 0.508393
O O8 0.274048 0.350599 0.004138
O O9 0.667140 0.355347 0.374682
O O10 0.683799 0.214282 0.458108
O O11 0.500000 0.248194 0.000000
O O12 0.348178 0.279265 0.949440
O O13 0.237164 0.073024 0.490103
O O14 0.197758 0.000000 0.631443
O O15 0.500000 0.000000 0.000000
O O16 0.231430 0.500000 0.412031
O O17 0.000000 0.391220 0.000000
O O18 0.000000 0.744904 0.500000
O O19 0.000000 0.000000 0.500000
O O20 0.000000 0.856738 0.000000
#
# Coordination Sequence:
#
# PCOD9153383 Si02
#       8
#     4   4   4   2   4   4   2   4
#     4  11  24  42  61  88 122 154 197 244 291 352
#     4   9  18  34  56  82 113 150 193 240 289 346
#     4  10  22  37  57  84 116 151 196 245 289 346
#     4  12  23  44  66  88 125 154 194 244 290 350
#     4   9  18  34  55  81 115 151 190 238 293 349
#     4  10  22  38  57  83 116 155 194 240 298 344
#     4  12  27  42  66  94 121 158 194 239 296 348
#     4  11  24  40  64  89 116 158 198 241 294 348
#
# _framework density 18.893978000000001
#
# number of rings (size 3 to 8) (size 9 to 14) (size 15 to 20)
#    0.000    1.714    1.429    2.143    4.000    2.857 
#    0.000    0.000    0.000    0.000    0.000    0.000 
#    0.000    0.000    0.000    0.000    0.000    0.000 
#
# Total GULP energy -155945.986717 kJ/mol
# GULP energy per Si atom -5569.499526 kJ/mol
# Density = 1.885097 g / cm^3
# Si number density = 18.893978 Si / 1000 Ang^3
#
#
#
# Elastic Constant Matrix: (Units=GPa)
#
#
# Indices 1 2 3 4 5 6 
#
# 1 111.2528 20.0101 52.5224 0.0000 -0.9632 0.0000
# 2 20.0101 60.1837 11.6794 0.0000 7.6983 0.0000
# 3 52.5224 11.6794 92.0117 0.0000 26.8719 0.0000
# 4 0.0000 0.0000 0.0000 19.8275 0.0000 -0.0557
# 5 -0.9632 7.6983 26.8719 0.0000 33.5562 0.0000
# 6 0.0000 0.0000 0.0000 -0.0557 0.0000 12.2656
#
#
#
# Elastic Compliance Matrix: (Units=1/GPa)
#
#
# Indices 1 2 3 4 5 6 
#
# 1 0.015041 -0.004166 -0.011045 0.000000 0.010233 0.000000
# 2 -0.004166 0.018400 0.001710 0.000000 -0.005710 0.000000
# 3 -0.011045 0.001710 0.022403 0.000000 -0.018649 0.000000
# 4 0.000000 0.000000 0.000000 0.050436 0.000000 0.000229
# 5 0.010233 -0.005710 -0.018649 0.000000 0.046339 0.000000
# 6 0.000000 0.000000 0.000000 0.000229 0.000000 0.081530
#
#
# Mechanical properties :
#
#
# Convention : Reuss Voigt Hill
#
# Bulk Modulus (GPa) = 34.67331 47.98576 41.32954
# Shear Modulus (GPa) = 18.46631 25.07895 21.77263
#
# Velocity S-wave (km/s) = 3.12967 3.64724 3.39832
# Velocity P-wave (km/s) = 5.60813 6.57183 6.10902
#
# Compressibility (1/GPa) = 0.02884063
#
# Stress axis : x y z
#
# Youngs Moduli (GPa) = 66.48509 54.34922 44.63780
#
# Poissons Ratio (x) = 0.22643 0.49304
# Poissons Ratio (y) = 0.27700 -0.07635
# Poissons Ratio (z) = 0.73435 -0.09296
#
# Static dielectric constant tensor:
#      x y z
#    x 1.648610 0.000000 0.020170 
#    y 0.000000 1.709480 0.000000 
#    z 0.020170 0.000000 1.560860 
# 
# From -- ./inp_files/56125.got.cif
#   From: 2010.05.17/outbox.cif.g08.bks.cpg/sg10_29_cif.got.tgz:56125.got - 2010.06.03 11:33:40.
