data_PCOD9153297
_publ_section_title
;
Structure prediction by ZEFSAII (Michael W. Deem and Ramdas Pophale) SiO2 
 PCOD9153297
Probable space group: P 2/M
;
_chemical_formula_sum "Si O2"
_cell_formula_units_Z 16
_cell_length_a 5.329193
_cell_length_b 22.930735
_cell_length_c 5.137568
_cell_angle_alpha 90.000000
_cell_angle_beta 90.856183
_cell_angle_gamma 90.000000
_cell_volume 627.752595
_symmetry_space_group_name_H-M "P 2/M"
_symmetry_group_IT_number 10
_symmetry_cell_setting 'monoclinic'
loop_
_space_group_symop_operation_xyz
x,y,z
-x,y,-z
-x,-y,-z
x,-y,z
loop_
_atom_site_type_symbol
_atom_site_label
_atom_site_fract_x
_atom_site_fract_y
_atom_site_fract_z
Si Si1 0.828839 0.931488 0.736019
Si Si2 0.751794 0.633309 0.659789
Si Si3 0.747755 0.500000 0.840789
Si Si4 0.245082 0.241419 0.313512
Si Si5 0.500000 0.850016 0.000000
O O1 0.570419 0.896873 0.776927
O O2 0.000000 0.910051 0.500000
O O3 0.777317 0.000000 0.697806
O O4 0.000000 0.925313 0.000000
O O5 0.500000 0.640713 0.500000
O O6 0.747158 0.564775 0.724636
O O7 0.757789 0.693658 0.819990
O O8 0.000000 0.638737 0.500000
O O9 0.500000 0.500000 0.000000
O O10 0.000000 0.500000 0.000000
O O11 0.500000 0.234944 0.500000
O O12 0.281205 0.195650 0.079622
O O13 0.000000 0.234344 0.500000
#
# Coordination Sequence:
#
# PCOD9153297 Si02
#       5
#     4   4   2   4   2
#     4  10  24  45  70 104 144 189 242 301 364 432
#     4  10  21  43  64  87 127 177 222 281 352 429
#     4  12  24  36  62  98 126 164 226 290 350 424
#     4  10  25  44  66  99 138 183 237 291 359 436
#     4  12  25  38  72  97 144 182 238 292 364 427
#
# _framework density 25.487748
#
# number of rings (size 3 to 8) (size 9 to 14) (size 15 to 20)
#    0.000    1.500    0.000    3.375    8.750    0.000 
#    0.000    3.750    0.000    0.000    0.000    0.000 
#    0.000    0.000    0.000    0.000    0.000    0.000 
#
# Total GULP energy -89074.364235 kJ/mol
# GULP energy per Si atom -5567.147765 kJ/mol
# Density = 2.542974 g / cm^3
# Si number density = 25.487748 Si / 1000 Ang^3
#
#
#
# Elastic Constant Matrix: (Units=GPa)
#
#
# Indices 1 2 3 4 5 6 
#
# 1 188.4542 32.9006 62.9319 0.0000 -29.6472 0.0000
# 2 32.9006 237.3854 47.7816 0.0000 -39.7872 0.0000
# 3 62.9319 47.7816 114.0436 0.0000 -39.0236 0.0000
# 4 0.0000 0.0000 0.0000 22.9847 0.0000 -44.3388
# 5 -29.6472 -39.7872 -39.0236 0.0000 61.2233 0.0000
# 6 0.0000 0.0000 0.0000 -44.3388 0.0000 27.7132
#
#
#
# Elastic Compliance Matrix: (Units=1/GPa)
#
#
# Indices 1 2 3 4 5 6 
#
# 1 0.006565 -0.000082 -0.003222 0.000000 0.001073 0.000000
# 2 -0.000082 0.004858 -0.001181 0.000000 0.002365 0.000000
# 3 -0.003222 -0.001181 0.013102 0.000000 0.006024 0.000000
# 4 0.000000 0.000000 0.000000 -0.020853 0.000000 -0.033364
# 5 0.001073 0.002365 0.006024 0.000000 0.022229 0.000000
# 6 0.000000 0.000000 0.000000 -0.033364 0.000000 -0.017295
#
#
# Mechanical properties :
#
#
# Convention : Reuss Voigt Hill
#
# Bulk Modulus (GPa) = 64.28074 91.90125 78.09100
# Shear Modulus (GPa) = 219.68087 48.80218 134.24153
#
# Velocity S-wave (km/s) = 9.29397 4.38051 7.26522
# Velocity P-wave (km/s) = 11.85097 7.85624 10.05400
#
# Compressibility (1/GPa) = 0.01555676
#
# Stress axis : x y z
#
# Youngs Moduli (GPa) = 152.32001 205.84813 76.32181
#
# Poissons Ratio (x) = 0.01681 0.24587
# Poissons Ratio (y) = 0.01244 0.09015
# Poissons Ratio (z) = 0.49070 0.24314
#
# Static dielectric constant tensor:
#      x y z
#    x 2.123040 0.000000 0.125360 
#    y 0.000000 3.163250 0.000000 
#    z 0.125360 0.000000 2.102990 
# 
# From -- ./inp_files/1479.got.cif
#   From: 2010.05.17/outbox.cif.g08.bks.cpg/sg10_1_cif.got.tgz:1479.got - 2010.06.03 11:33:40.
