data_PCOD9153523
_publ_section_title
;
Structure prediction by ZEFSAII (Michael W. Deem and Ramdas Pophale) SiO2 
 PCOD9153523
Probable space group: P 2/M
;
_chemical_formula_sum "Si O2"
_cell_formula_units_Z 26
_cell_length_a 4.975336
_cell_length_b 7.108554
_cell_length_c 30.279806
_cell_angle_alpha 90.000000
_cell_angle_beta 110.028599
_cell_angle_gamma 90.000000
_cell_volume 1006.152071
_symmetry_space_group_name_H-M "P 2/M"
_symmetry_group_IT_number 10
_symmetry_cell_setting 'monoclinic'
loop_
_space_group_symop_operation_xyz
x,y,z
-x,y,-z
-x,-y,-z
x,-y,z
loop_
_atom_site_type_symbol
_atom_site_label
_atom_site_fract_x
_atom_site_fract_y
_atom_site_fract_z
Si Si1 0.727925 0.771769 0.049053
Si Si2 0.497185 0.773963 0.449695
Si Si3 0.879011 0.225570 0.390910
Si Si4 0.679131 0.773890 0.795723
Si Si5 0.655763 0.771565 0.895020
Si Si6 0.060280 0.225851 0.737107
Si Si7 0.591011 0.500000 0.673006
O O1 0.614298 0.716748 0.091013
O O2 0.055738 0.715457 0.063147
O O3 0.727739 0.000000 0.047042
O O4 0.500000 0.708920 0.000000
O O5 0.500000 0.705958 0.500000
O O6 0.769678 0.733287 0.434942
O O7 0.209263 0.713327 0.408308
O O8 0.478626 0.000000 0.451023
O O9 0.657424 0.337050 0.348987
O O10 0.861047 0.000000 0.382363
O O11 0.672881 0.707578 0.845602
O O12 0.951522 0.730945 0.781121
O O13 0.390992 0.714489 0.754186
O O14 0.666561 0.000000 0.797285
O O15 0.651283 0.000000 0.893399
O O16 0.839389 0.336936 0.695016
O O17 0.041650 0.000000 0.728974
#
# Coordination Sequence:
#
# PCOD9153523 Si02
#       7
#     4   4   4   4   4   4   2
#     4   9  15  21  32  57  94 135 174 211 261 327
#     4   9  18  37  64  90 120 158 196 238 282 324
#     4  10  22  39  61  90 122 156 196 235 279 338
#     4   9  18  34  54  76 100 137 189 238 285 335
#     4   9  15  24  40  60  89 131 176 219 266 323
#     4  10  22  39  59  81 108 143 188 238 287 341
#     4  12  26  42  61  86 118 156 189 234 292 346
#
# _framework density 25.841023
#
# number of rings (size 3 to 8) (size 9 to 14) (size 15 to 20)
#    0.000    2.462    0.000    2.308    0.000   11.077 
#    0.000    6.923    0.000    0.000    0.000    0.000 
#    0.000    0.000    0.000   48.462    0.000  118.462 
#
# Total GULP energy -145103.802364 kJ/mol
# GULP energy per Si atom -5580.915476 kJ/mol
# Density = 2.578221 g / cm^3
# Si number density = 25.841023 Si / 1000 Ang^3
#
#
#
# Elastic Constant Matrix: (Units=GPa)
#
#
# Indices 1 2 3 4 5 6 
#
# 1 82.6213 -9.9242 -4.4741 0.0000 2.9144 0.0000
# 2 -9.9242 162.8264 -4.6057 0.0000 4.8252 0.0000
# 3 -4.4741 -4.6057 91.0602 0.0000 -4.6102 0.0000
# 4 0.0000 0.0000 0.0000 61.3054 0.0000 53.6200
# 5 2.9144 4.8252 -4.6102 0.0000 38.9618 0.0000
# 6 0.0000 0.0000 0.0000 53.6200 0.0000 -28.8245
#
#
#
# Elastic Compliance Matrix: (Units=1/GPa)
#
#
# Indices 1 2 3 4 5 6 
#
# 1 0.012264 0.000792 0.000595 0.000000 -0.000945 0.000000
# 2 0.000792 0.006222 0.000314 0.000000 -0.000793 0.000000
# 3 0.000595 0.000314 0.011089 0.000000 0.001229 0.000000
# 4 0.000000 0.000000 0.000000 0.006209 0.000000 0.011551
# 5 -0.000945 -0.000793 0.001229 0.000000 0.025980 0.000000
# 6 0.000000 0.000000 0.000000 0.011551 0.000000 -0.013206
#
#
# Mechanical properties :
#
#
# Convention : Reuss Voigt Hill
#
# Bulk Modulus (GPa) = 30.32451 33.16664 31.74558
# Shear Modulus (GPa) = 89.04742 37.98932 63.51837
#
# Velocity S-wave (km/s) = 5.87661 3.83837 4.96325
# Velocity P-wave (km/s) = 7.60306 5.70148 6.71987
#
# Compressibility (1/GPa) = 0.03297662
#
# Stress axis : x y z
#
# Youngs Moduli (GPa) = 81.53855 160.71578 90.17917
#
# Poissons Ratio (x) = -0.12734 -0.05364
# Poissons Ratio (y) = -0.06461 -0.02827
# Poissons Ratio (z) = -0.04850 -0.05039
#
# Static dielectric constant tensor:
#      x y z
#    x 1.936040 0.000000 -0.071830 
#    y 0.000000 2.024590 0.000000 
#    z -0.071830 0.000000 2.037550 
# 
# From -- ./inp_files/94291.got.cif
#   From: 2010.05.17/outbox.cif.g08.bks.cpg/sg10_48_cif.got.tgz:94291.got - 2010.06.03 11:33:40.
