data_PCOD9153739
_publ_section_title
;
Structure prediction by ZEFSAII (Michael W. Deem and Ramdas Pophale) SiO2 
 PCOD9153739
Probable space group: P 2/M
;
_chemical_formula_sum "Si O2"
_cell_formula_units_Z 20
_cell_length_a 9.090965
_cell_length_b 8.826366
_cell_length_c 26.185928
_cell_angle_alpha 90.000000
_cell_angle_beta 150.141138
_cell_angle_gamma 90.000000
_cell_volume 1046.096250
_symmetry_space_group_name_H-M "P 2/M"
_symmetry_group_IT_number 10
_symmetry_cell_setting 'monoclinic'
loop_
_space_group_symop_operation_xyz
x,y,z
-x,y,-z
-x,-y,-z
x,-y,z
loop_
_atom_site_type_symbol
_atom_site_label
_atom_site_fract_x
_atom_site_fract_y
_atom_site_fract_z
Si Si1 0.651499 0.181144 0.491656
Si Si2 0.651100 0.681344 0.896163
Si Si3 0.331933 0.680481 0.297898
Si Si4 0.350322 0.181269 0.705236
Si Si5 0.320456 0.819339 0.893880
O O1 0.500000 0.218964 0.500000
O O2 0.498292 0.268144 0.399308
O O3 0.000207 0.213164 0.598870
O O4 0.613920 0.000000 0.472009
O O5 0.616080 0.500000 0.887511
O O6 0.497423 0.745935 0.799319
O O7 0.500747 0.754843 0.900314
O O8 0.000000 0.716117 0.000000
O O9 0.331704 0.500000 0.293285
O O10 0.497520 0.752819 0.299377
O O11 0.998633 0.742133 0.199466
O O12 0.389419 0.000000 0.718444
O O13 0.283317 0.000000 0.877000
O O14 0.500000 0.790273 0.000000
#
# Coordination Sequence:
#
# PCOD9153739 Si02
#       5
#     4   4   4   4   4
#     4  10  22  41  64  90 121 159 205 254 304 362
#     4  11  24  41  63  93 128 162 199 249 307 363
#     4  12  25  40  62  91 125 162 202 254 311 364
#     4  11  23  40  64  91 123 164 208 253 300 359
#     4  11  24  42  65  91 121 161 208 253 300 361
#
# _framework density 19.118698999999999
#
# number of rings (size 3 to 8) (size 9 to 14) (size 15 to 20)
#    0.000    1.000    0.000    6.600    0.000   12.400 
#    0.000    0.000    0.000    0.000    0.000    0.000 
#    0.000    0.000    0.000    0.000    0.000    0.000 
#
# Total GULP energy -111969.154391 kJ/mol
# GULP energy per Si atom -5598.457720 kJ/mol
# Density = 1.907518 g / cm^3
# Si number density = 19.118699 Si / 1000 Ang^3
#
#
#
# Elastic Constant Matrix: (Units=GPa)
#
#
# Indices 1 2 3 4 5 6 
#
# 1 171.9281 54.1105 67.0189 0.0000 1.8265 0.0000
# 2 54.1105 68.7127 69.5710 0.0000 2.3881 0.0000
# 3 67.0189 69.5710 132.1818 0.0000 0.3793 0.0000
# 4 0.0000 0.0000 0.0000 -17.0829 0.0000 60.4354
# 5 1.8265 2.3881 0.3793 0.0000 35.4948 0.0000
# 6 0.0000 0.0000 0.0000 60.4354 0.0000 -47.9166
#
#
#
# Elastic Compliance Matrix: (Units=1/GPa)
#
#
# Indices 1 2 3 4 5 6 
#
# 1 0.007881 -0.004620 -0.001564 0.000000 -0.000078 0.000000
# 2 -0.004620 0.033997 -0.015546 0.000000 -0.001883 0.000000
# 3 -0.001564 -0.015546 0.016538 0.000000 0.000950 0.000000
# 4 0.000000 0.000000 0.000000 0.016909 0.000000 0.021326
# 5 -0.000078 -0.001883 0.000950 0.000000 0.028294 0.000000
# 6 0.000000 0.000000 0.000000 0.021326 0.000000 0.006028
#
#
# Mechanical properties :
#
#
# Convention : Reuss Voigt Hill
#
# Bulk Modulus (GPa) = 66.86150 83.80259 75.33205
# Shear Modulus (GPa) = 31.62757 6.24054 18.93406
#
# Velocity S-wave (km/s) = 4.07169 1.80864 3.15038
# Velocity P-wave (km/s) = 7.55993 6.94907 7.26093
#
# Compressibility (1/GPa) = 0.01495629
#
# Stress axis : x y z
#
# Youngs Moduli (GPa) = 126.88969 29.41463 60.46800
#
# Poissons Ratio (x) = 0.13589 0.09457
# Poissons Ratio (y) = 0.58621 0.94001
# Poissons Ratio (z) = 0.19845 0.45727
#
# Static dielectric constant tensor:
#      x y z
#    x 1.622470 0.000000 0.005690 
#    y 0.000000 1.638330 0.000000 
#    z 0.005690 0.000000 1.626430 
# 
# From -- ./inp_files/22156.got.cif
#   From: 2010.05.17/outbox.cif.g08.bks.cpg/sg10_12_cif.got.tgz:22156.got - 2010.06.03 11:33:40.
