data_PCOD9153551
_publ_section_title
;
Structure prediction by ZEFSAII (Michael W. Deem and Ramdas Pophale) SiO2 
 PCOD9153551
Probable space group: P 2/M
;
_chemical_formula_sum "Si O2"
_cell_formula_units_Z 26
_cell_length_a 13.177032
_cell_length_b 8.368447
_cell_length_c 11.894442
_cell_angle_alpha 90.000000
_cell_angle_beta 119.939900
_cell_angle_gamma 90.000000
_cell_volume 1136.579631
_symmetry_space_group_name_H-M "P 2/M"
_symmetry_group_IT_number 10
_symmetry_cell_setting 'monoclinic'
loop_
_space_group_symop_operation_xyz
x,y,z
-x,y,-z
-x,-y,-z
x,-y,z
loop_
_atom_site_type_symbol
_atom_site_label
_atom_site_fract_x
_atom_site_fract_y
_atom_site_fract_z
Si Si1 0.569534 0.669701 0.155819
Si Si2 0.886848 0.311817 0.999013
Si Si3 0.751255 0.323013 0.699942
Si Si4 0.909958 0.687913 0.573276
Si Si5 0.556979 0.000000 0.158399
Si Si6 0.771830 0.000000 0.410405
Si Si7 0.634153 0.000000 0.555682
Si Si8 0.165229 0.689019 0.784150
O O1 0.557508 0.500000 0.209546
O O2 0.522802 0.828565 0.189211
O O3 0.705345 0.695587 0.197214
O O4 0.500000 0.659196 0.000000
O O5 0.915853 0.500000 0.034746
O O6 0.788478 0.311874 0.849634
O O7 0.844965 0.242203 0.094882
O O8 0.000000 0.237006 0.000000
O O9 0.697367 0.500000 0.650566
O O10 0.862672 0.317436 0.675927
O O11 0.682599 0.164304 0.632799
O O12 0.893481 0.500000 0.523242
O O13 0.046643 0.735435 0.653081
O O14 0.840657 0.835208 0.476519
O O15 0.700315 0.000000 0.253360
O O16 0.500000 0.000000 0.000000
O O17 0.669546 0.000000 0.445543
O O18 0.500000 0.000000 0.500000
O O19 0.148443 0.500000 0.785128
#
# Coordination Sequence:
#
# PCOD9153551 Si02
#       8
#     4   4   4   4   2   2   2   4
#     4   9  19  37  58  80 111 147 186 235 284 331
#     4   9  14  25  50  84 118 150 186 226 274 330
#     4   9  17  32  53  77 112 153 185 223 272 324
#     4   9  17  32  55  83 115 149 182 221 278 341
#     4  10  22  43  63  79 102 141 186 239 289 334
#     4  10  22  39  61  81 108 146 188 231 288 347
#     4  10  22  40  53  77 115 146 185 237 273 331
#     4   9  16  29  53  84 117 153 189 231 285 337
#
# _framework density 22.875651000000001
#
# number of rings (size 3 to 8) (size 9 to 14) (size 15 to 20)
#    0.000    2.769    1.538    0.000    0.000    1.538 
#    5.538    2.692    0.000    2.769    0.000    0.000 
#    0.000    0.000    0.000    0.000    0.000    0.000 
#
# Total GULP energy -144743.401606 kJ/mol
# GULP energy per Si atom -5567.053908 kJ/mol
# Density = 2.282358 g / cm^3
# Si number density = 22.875651 Si / 1000 Ang^3
#
#
#
# Elastic Constant Matrix: (Units=GPa)
#
#
# Indices 1 2 3 4 5 6 
#
# 1 61.0380 29.2355 23.5682 0.0000 5.5417 0.0000
# 2 29.2355 167.8025 49.1376 0.0000 -1.1463 0.0000
# 3 23.5682 49.1376 104.4580 0.0000 11.5256 0.0000
# 4 0.0000 0.0000 0.0000 27.1318 0.0000 -7.3463
# 5 5.5417 -1.1463 11.5256 0.0000 33.3170 0.0000
# 6 0.0000 0.0000 0.0000 -7.3463 0.0000 -9.4440
#
#
#
# Elastic Compliance Matrix: (Units=1/GPa)
#
#
# Indices 1 2 3 4 5 6 
#
# 1 0.018869 -0.002468 -0.002849 0.000000 -0.002238 0.000000
# 2 -0.002468 0.007299 -0.003067 0.000000 0.001723 0.000000
# 3 -0.002849 -0.003067 0.012079 0.000000 -0.003810 0.000000
# 4 0.000000 0.000000 0.000000 0.030445 0.000000 -0.023682
# 5 -0.002238 0.001723 -0.003810 0.000000 0.031764 0.000000
# 6 0.000000 0.000000 0.000000 -0.023682 0.000000 -0.087465
#
#
# Mechanical properties :
#
#
# Convention : Reuss Voigt Hill
#
# Bulk Modulus (GPa) = 46.55814 59.68677 53.12246
# Shear Modulus (GPa) = 135.42921 25.62476 80.52699
#
# Velocity S-wave (km/s) = 7.70265 3.35053 5.93957
# Velocity P-wave (km/s) = 9.97520 6.41222 8.38514
#
# Compressibility (1/GPa) = 0.02147852
#
# Stress axis : x y z
#
# Youngs Moduli (GPa) = 52.99743 137.00050 82.78772
#
# Poissons Ratio (x) = 0.33817 0.23588
# Poissons Ratio (y) = 0.13082 0.25389
# Poissons Ratio (z) = 0.15100 0.42015
#
# Static dielectric constant tensor:
#      x y z
#    x 1.853120 0.000000 -0.017940 
#    y 0.000000 1.876070 0.000000 
#    z -0.017940 0.000000 1.913980 
# 
# From -- ./inp_files/66900.got.cif
#   From: 2010.05.17/outbox.cif.g08.bks.cpg/sg10_34_cif.got.tgz:66900.got - 2010.06.03 11:33:40.
