data_PCOD9153652
_publ_section_title
;
Structure prediction by ZEFSAII (Michael W. Deem and Ramdas Pophale) SiO2 
 PCOD9153652
Probable space group: P 2/M
;
_chemical_formula_sum "Si O2"
_cell_formula_units_Z 26
_cell_length_a 21.523856
_cell_length_b 11.361436
_cell_length_c 7.375851
_cell_angle_alpha 90.000000
_cell_angle_beta 49.954244
_cell_angle_gamma 90.000000
_cell_volume 1380.791641
_symmetry_space_group_name_H-M "P 2/M"
_symmetry_group_IT_number 10
_symmetry_cell_setting 'monoclinic'
loop_
_space_group_symop_operation_xyz
x,y,z
-x,y,-z
-x,-y,-z
x,-y,z
loop_
_atom_site_type_symbol
_atom_site_label
_atom_site_fract_x
_atom_site_fract_y
_atom_site_fract_z
Si Si1 0.469662 0.500000 0.823771
Si Si2 0.108296 0.137975 0.126153
Si Si3 0.274138 0.251212 0.895163
Si Si4 0.640017 0.500000 0.322864
Si Si5 0.500000 0.295514 0.000000
Si Si6 0.759948 0.142223 0.651774
Si Si7 0.935866 0.864436 0.360417
Si Si8 0.371244 0.865144 0.417828
O O1 0.568456 0.500000 0.610043
O O2 0.418096 0.500000 0.741692
O O3 0.448248 0.616657 0.973789
O O4 0.084964 0.136453 0.384556
O O5 0.027674 0.182428 0.173079
O O6 0.125935 0.000000 0.044675
O O7 0.187127 0.218818 0.969850
O O8 0.305201 0.382557 0.791347
O O9 0.337275 0.165150 0.678206
O O10 0.267222 0.215111 0.119571
O O11 0.445813 0.216659 0.229625
O O12 0.852447 0.180380 0.429590
O O13 0.698960 0.157205 0.599892
O O14 0.762519 0.000000 0.689785
O O15 0.943447 0.000000 0.289855
O O16 0.395147 0.000000 0.359212
#
# Coordination Sequence:
#
# PCOD9153652 Si02
#       8
#     2   4   4   2   2   4   4   4
#     4  10  22  40  62  74  95 133 182 225 260 298
#     4   8  13  24  48  76 103 136 170 206 257 308
#     4  11  20  35  53  78 106 139 174 219 260 301
#     4  11  22  38  56  79  98 132 185 226 253 304
#     4  11  21  40  58  78 105 135 170 220 268 311
#     4   9  18  33  54  80 111 140 171 211 258 312
#     4   7  11  23  45  74 104 137 171 204 246 302
#     4  11  22  35  54  82 110 138 168 208 268 327
#
# _framework density 18.829778000000001
#
# number of rings (size 3 to 8) (size 9 to 14) (size 15 to 20)
#    0.000    2.462    1.538    4.385    0.000    0.000 
#    0.000    0.769    0.000   14.769    0.000    1.077 
#    0.000    0.000    0.000    0.000    0.000    0.000 
#
# Total GULP energy -144882.112843 kJ/mol
# GULP energy per Si atom -5572.388955 kJ/mol
# Density = 1.878692 g / cm^3
# Si number density = 18.829778 Si / 1000 Ang^3
#
#
#
# Elastic Constant Matrix: (Units=GPa)
#
#
# Indices 1 2 3 4 5 6 
#
# 1 35.4601 22.3707 4.5060 0.0000 -6.3193 0.0000
# 2 22.3707 79.4091 26.1022 0.0000 -10.9122 0.0000
# 3 4.5060 26.1022 74.9608 0.0000 -9.8371 0.0000
# 4 0.0000 0.0000 0.0000 28.8390 0.0000 -17.5490
# 5 -6.3193 -10.9122 -9.8371 0.0000 26.5672 0.0000
# 6 0.0000 0.0000 0.0000 -17.5490 0.0000 39.3552
#
#
#
# Elastic Compliance Matrix: (Units=1/GPa)
#
#
# Indices 1 2 3 4 5 6 
#
# 1 0.035049 -0.009832 0.001977 0.000000 0.005030 0.000000
# 2 -0.009832 0.017442 -0.005097 0.000000 0.002938 0.000000
# 3 0.001977 -0.005097 0.015538 0.000000 0.004130 0.000000
# 4 0.000000 0.000000 0.000000 0.047588 0.000000 0.021220
# 5 0.005030 0.002938 0.004130 0.000000 0.041573 0.000000
# 6 0.000000 0.000000 0.000000 0.021220 0.000000 0.034872
#
#
# Mechanical properties :
#
#
# Convention : Reuss Voigt Hill
#
# Bulk Modulus (GPa) = 23.73903 32.86531 28.30217
# Shear Modulus (GPa) = 21.55090 28.07566 24.81328
#
# Velocity S-wave (km/s) = 3.38673 3.86557 3.63405
# Velocity P-wave (km/s) = 5.28468 6.11680 5.71590
#
# Compressibility (1/GPa) = 0.04212471
#
# Stress axis : x y z
#
# Youngs Moduli (GPa) = 28.53153 57.33255 64.35723
#
# Poissons Ratio (x) = 0.56372 -0.12724
# Poissons Ratio (y) = 0.28053 0.32802
# Poissons Ratio (z) = -0.05641 0.29222
#
# Static dielectric constant tensor:
#      x y z
#    x 1.689830 0.000000 -0.005320 
#    y 0.000000 1.608510 0.000000 
#    z -0.005320 0.000000 1.705680 
# 
# From -- ./inp_files/36712.got.cif
#   From: 2010.05.17/outbox.cif.g08.bks.cpg/sg10_19_cif.got.tgz:36712.got - 2010.06.03 11:33:40.
