data_PCOD9153545
_publ_section_title
;
Structure prediction by ZEFSAII (Michael W. Deem and Ramdas Pophale) SiO2 
 PCOD9153545
Probable space group: P 2/M
;
_chemical_formula_sum "Si O2"
_cell_formula_units_Z 32
_cell_length_a 9.025182
_cell_length_b 13.890518
_cell_length_c 12.009420
_cell_angle_alpha 90.000000
_cell_angle_beta 86.950775
_cell_angle_gamma 90.000000
_cell_volume 1503.422809
_symmetry_space_group_name_H-M "P 2/M"
_symmetry_group_IT_number 10
_symmetry_cell_setting 'monoclinic'
loop_
_space_group_symop_operation_xyz
x,y,z
-x,y,-z
-x,-y,-z
x,-y,z
loop_
_atom_site_type_symbol
_atom_site_label
_atom_site_fract_x
_atom_site_fract_y
_atom_site_fract_z
Si Si1 0.806105 0.389965 0.937625
Si Si2 0.178573 0.105225 0.495864
Si Si3 0.668318 0.701933 0.524777
Si Si4 0.098044 0.605485 0.595016
Si Si5 0.265984 0.893670 0.235021
Si Si6 0.413592 0.699929 0.221203
Si Si7 0.998265 0.802656 0.878895
Si Si8 0.760649 0.679854 0.188821
O O1 0.856835 0.500000 0.916031
O O2 0.660918 0.367291 0.868958
O O3 0.917906 0.302987 0.898448
O O4 0.773750 0.375946 0.070420
O O5 0.245259 0.206481 0.533451
O O6 0.248534 0.103211 0.369051
O O7 0.000000 0.110903 0.500000
O O8 0.215428 0.000000 0.546557
O O9 0.500000 0.715525 0.500000
O O10 0.740513 0.609134 0.467079
O O11 0.673223 0.689986 0.657824
O O12 0.032092 0.500000 0.611726
O O13 0.133076 0.642588 0.716494
O O14 0.000000 0.654393 0.500000
O O15 0.379798 0.811325 0.192513
O O16 0.104115 0.861615 0.199100
O O17 0.304561 0.000000 0.193635
O O18 0.588090 0.681639 0.227559
O O19 0.166356 0.783948 0.836606
O O20 0.000000 0.848945 0.000000
#
# Coordination Sequence:
#
# PCOD9153545 Si02
#       8
#     4   4   4   4   4   4   4   4
#     4  10  22  40  64  89 117 156 199 250 304 348
#     4   9  19  34  58  88 114 147 196 246 293 348
#     4  11  22  39  59  83 120 163 194 242 297 349
#     4  11  26  41  58  85 118 161 202 242 289 352
#     4   9  19  37  60  86 118 156 193 237 296 356
#     4  10  22  39  60  89 121 159 197 241 297 355
#     4   9  21  37  59  86 117 153 195 249 295 347
#     4  11  22  40  61  88 121 153 199 250 294 348
#
# _framework density 21.284763999999999
#
# number of rings (size 3 to 8) (size 9 to 14) (size 15 to 20)
#    0.000    2.000    1.250    1.125    7.000    5.500 
#    0.000    0.625    0.000    9.750    0.000    0.000 
#    0.000    0.000    0.000    0.000    0.000    0.000 
#
# Total GULP energy -178283.215484 kJ/mol
# GULP energy per Si atom -5571.350484 kJ/mol
# Density = 2.123632 g / cm^3
# Si number density = 21.284764 Si / 1000 Ang^3
#
#
#
# Elastic Constant Matrix: (Units=GPa)
#
#
# Indices 1 2 3 4 5 6 
#
# 1 60.6744 -4.9385 8.3373 0.0000 6.5461 0.0000
# 2 -4.9385 79.3932 13.5099 0.0000 3.4316 0.0000
# 3 8.3373 13.5099 94.7550 0.0000 11.5294 0.0000
# 4 0.0000 0.0000 0.0000 10.9996 0.0000 4.8080
# 5 6.5461 3.4316 11.5294 0.0000 34.2170 0.0000
# 6 0.0000 0.0000 0.0000 4.8080 0.0000 18.3839
#
#
#
# Elastic Compliance Matrix: (Units=1/GPa)
#
#
# Indices 1 2 3 4 5 6 
#
# 1 0.017102 0.001421 -0.001347 0.000000 -0.002960 0.000000
# 2 0.001421 0.013043 -0.001869 0.000000 -0.000950 0.000000
# 3 -0.001347 -0.001869 0.011350 0.000000 -0.003379 0.000000
# 4 0.000000 0.000000 0.000000 0.102647 0.000000 -0.026845
# 5 -0.002960 -0.000950 -0.003379 0.000000 0.031025 0.000000
# 6 0.000000 0.000000 0.000000 -0.026845 0.000000 0.061416
#
#
# Mechanical properties :
#
#
# Convention : Reuss Voigt Hill
#
# Bulk Modulus (GPa) = 26.38256 29.84890 28.11573
# Shear Modulus (GPa) = 19.77789 27.24771 23.51280
#
# Velocity S-wave (km/s) = 3.05159 3.58180 3.32727
# Velocity P-wave (km/s) = 4.98380 5.58209 5.29141
#
# Compressibility (1/GPa) = 0.03790382
#
# Stress axis : x y z
#
# Youngs Moduli (GPa) = 58.47420 76.66924 88.10804
#
# Poissons Ratio (x) = -0.10894 0.11869
# Poissons Ratio (y) = -0.08309 0.16468
# Poissons Ratio (z) = 0.07877 0.14330
#
# Static dielectric constant tensor:
#      x y z
#    x 1.790810 0.000000 0.021020 
#    y 0.000000 1.847440 0.000000 
#    z 0.021020 0.000000 1.819440 
# 
# From -- ./inp_files/42966.got.cif
#   From: 2010.05.17/outbox.cif.g08.bks.cpg/sg10_22_cif.got.tgz:42966.got - 2010.06.03 11:33:40.
