data_PCOD9153855
_publ_section_title
;
Structure prediction by ZEFSAII (Michael W. Deem and Ramdas Pophale) SiO2 
 PCOD9153855
Probable space group: P 2/M
;
_chemical_formula_sum "Si O2"
_cell_formula_units_Z 32
_cell_length_a 9.614822
_cell_length_b 8.865773
_cell_length_c 19.992404
_cell_angle_alpha 90.000000
_cell_angle_beta 126.889073
_cell_angle_gamma 90.000000
_cell_volume 1363.024977
_symmetry_space_group_name_H-M "P 2/M"
_symmetry_group_IT_number 10
_symmetry_cell_setting 'monoclinic'
loop_
_space_group_symop_operation_xyz
x,y,z
-x,y,-z
-x,-y,-z
x,-y,z
loop_
_atom_site_type_symbol
_atom_site_label
_atom_site_fract_x
_atom_site_fract_y
_atom_site_fract_z
Si Si1 0.736259 0.752279 0.288316
Si Si2 0.366342 0.834609 0.147044
Si Si3 0.278978 0.673736 0.986591
Si Si4 0.095208 0.677783 0.421250
Si Si5 0.100516 0.672484 0.164276
Si Si6 0.166675 0.820050 0.824857
Si Si7 0.396243 0.335351 0.612660
Si Si8 0.651065 0.169735 0.600731
O O1 0.566333 0.850206 0.225615
O O2 0.927447 0.785809 0.372855
O O3 0.791060 0.718064 0.227575
O O4 0.656475 0.655768 0.325658
O O5 0.358937 0.751289 0.073948
O O6 0.260464 0.738637 0.170356
O O7 0.285193 0.000000 0.117748
O O8 0.334141 0.500000 0.995240
O O9 0.068098 0.670750 0.933509
O O10 0.293781 0.768108 0.921982
O O11 0.042259 0.500000 0.406509
O O12 0.207728 0.717017 0.388401
O O13 0.222728 0.703818 0.520586
O O14 0.131365 0.500000 0.194994
O O15 0.024193 0.776082 0.201705
O O16 0.178569 0.000000 0.814892
O O17 0.451951 0.500000 0.603791
O O18 0.549994 0.222451 0.637675
O O19 0.500000 0.168124 0.500000
O O20 0.720004 0.000000 0.626578
#
# Coordination Sequence:
#
# PCOD9153855 Si02
#       8
#     4   4   4   4   4   4   4   4
#     4  12  27  41  60  95 137 172 215 271 327 382
#     4  12  25  41  66  98 133 174 219 267 325 396
#     4   9  21  42  70  99 129 165 217 276 330 384
#     4  10  22  43  71  98 128 171 222 272 327 393
#     4   9  21  42  69  99 128 165 219 277 329 383
#     4  10  22  43  67  91 127 173 218 262 321 395
#     4  10  22  43  71 100 128 168 223 276 326 388
#     4   9  19  38  67  99 128 163 209 264 326 389
#
# _framework density 23.477191000000001
#
# number of rings (size 3 to 8) (size 9 to 14) (size 15 to 20)
#    0.750    1.125    0.000    3.000    0.000   11.500 
#    0.000    1.875    0.000    6.000    0.000    0.000 
#    0.000    0.000    0.000    0.000    0.000    0.000 
#
# Total GULP energy -178408.869883 kJ/mol
# GULP energy per Si atom -5575.277184 kJ/mol
# Density = 2.342376 g / cm^3
# Si number density = 23.477191 Si / 1000 Ang^3
#
#
#
# Elastic Constant Matrix: (Units=GPa)
#
#
# Indices 1 2 3 4 5 6 
#
# 1 124.4739 37.5048 36.9514 0.0000 -15.9942 0.0000
# 2 37.5048 82.0865 46.3070 0.0000 -1.1775 0.0000
# 3 36.9514 46.3070 126.6153 0.0000 -15.8978 0.0000
# 4 0.0000 0.0000 0.0000 -7.7329 0.0000 -2.3868
# 5 -15.9942 -1.1775 -15.8978 0.0000 44.6939 0.0000
# 6 0.0000 0.0000 0.0000 -2.3868 0.0000 5.3126
#
#
#
# Elastic Compliance Matrix: (Units=1/GPa)
#
#
# Indices 1 2 3 4 5 6 
#
# 1 0.009918 -0.003870 -0.001095 0.000000 0.003058 0.000000
# 2 -0.003870 0.016978 -0.005441 0.000000 -0.002873 0.000000
# 3 -0.001095 -0.005441 0.010614 0.000000 0.003240 0.000000
# 4 0.000000 0.000000 0.000000 -0.113568 0.000000 -0.051024
# 5 0.003058 -0.002873 0.003240 0.000000 0.024546 0.000000
# 6 0.000000 0.000000 0.000000 -0.051024 0.000000 0.165308
#
#
# Mechanical properties :
#
#
# Convention : Reuss Voigt Hill
#
# Bulk Modulus (GPa) = 59.88410 63.85581 61.86995
# Shear Modulus (GPa) = 35.66992 22.61554 29.14273
#
# Velocity S-wave (km/s) = 3.90210 3.10707 3.52706
# Velocity P-wave (km/s) = 6.77234 6.33482 6.55723
#
# Compressibility (1/GPa) = 0.01669892
#
# Stress axis : x y z
#
# Youngs Moduli (GPa) = 100.82887 58.89821 94.21230
#
# Poissons Ratio (x) = 0.22792 0.10318
# Poissons Ratio (y) = 0.39017 0.51260
# Poissons Ratio (z) = 0.11043 0.32046
#
# Static dielectric constant tensor:
#      x y z
#    x 1.881100 0.000000 0.042360 
#    y 0.000000 1.794640 0.000000 
#    z 0.042360 0.000000 1.907890 
# 
# From -- ./inp_files/66603.got.cif
#   From: 2010.05.17/outbox.cif.g08.bks.cpg/sg10_34_cif.got.tgz:66603.got - 2010.06.03 11:33:40.
