data_PCOD9153395
_publ_section_title
;
Structure prediction by ZEFSAII (Michael W. Deem and Ramdas Pophale) SiO2 
 PCOD9153395
Probable space group: P 2/M
;
_chemical_formula_sum "Si O2"
_cell_formula_units_Z 26
_cell_length_a 9.091529
_cell_length_b 22.238936
_cell_length_c 8.383248
_cell_angle_alpha 90.000000
_cell_angle_beta 128.907113
_cell_angle_gamma 90.000000
_cell_volume 1318.970382
_symmetry_space_group_name_H-M "P 2/M"
_symmetry_group_IT_number 10
_symmetry_cell_setting 'monoclinic'
loop_
_space_group_symop_operation_xyz
x,y,z
-x,y,-z
-x,-y,-z
x,-y,z
loop_
_atom_site_type_symbol
_atom_site_label
_atom_site_fract_x
_atom_site_fract_y
_atom_site_fract_z
Si Si1 0.712449 0.500000 0.101927
Si Si2 0.446388 0.164309 0.635828
Si Si3 0.788935 0.241934 0.280162
Si Si4 0.289145 0.500000 0.275498
Si Si5 0.000000 0.398013 0.000000
Si Si6 0.105853 0.069621 0.402237
Si Si7 0.852605 0.152250 0.030870
Si Si8 0.864615 0.631540 0.252291
O O1 0.798220 0.562635 0.216001
O O2 0.500000 0.500000 0.000000
O O3 0.698204 0.500000 0.903925
O O4 0.500000 0.191411 0.500000
O O5 0.359302 0.212589 0.698649
O O6 0.287531 0.112725 0.516671
O O7 0.645271 0.137209 0.826987
O O8 0.813998 0.200443 0.142750
O O9 0.736180 0.310020 0.197525
O O10 0.000000 0.241037 0.500000
O O11 0.500000 0.500000 0.500000
O O12 0.154957 0.440857 0.199396
O O13 0.924412 0.362183 0.104176
O O14 0.000000 0.076558 0.500000
O O15 0.957502 0.094446 0.173271
O O16 0.154148 0.000000 0.412634
O O17 0.000000 0.177109 0.000000
O O18 0.000000 0.635068 0.500000
#
# Coordination Sequence:
#
# PCOD9153395 Si02
#       8
#     2   4   4   2   2   4   4   4
#     4  10  22  37  60  94 131 164 221 271 328 405
#     4  12  23  43  69  97 133 176 219 275 333 390
#     4  11  22  43  68  95 130 170 229 275 333 397
#     4   9  19  35  64  92 127 169 209 267 319 397
#     4   9  20  40  60  96 128 166 217 260 334 396
#     4  11  24  44  67  97 137 171 220 272 322 397
#     4  12  23  41  69  95 131 177 218 274 329 390
#     4  10  23  40  68  92 128 176 216 278 339 398
#
# _framework density 19.712343000000001
#
# number of rings (size 3 to 8) (size 9 to 14) (size 15 to 20)
#    0.000    1.231    4.615    1.154    3.231    2.462 
#    0.000    1.538    0.000    0.000    0.000    0.000 
#    0.000    0.000    0.000    0.000    0.000    0.000 
#
# Total GULP energy -144742.218223 kJ/mol
# GULP energy per Si atom -5567.008393 kJ/mol
# Density = 1.966748 g / cm^3
# Si number density = 19.712343 Si / 1000 Ang^3
#
#
#
# Elastic Constant Matrix: (Units=GPa)
#
#
# Indices 1 2 3 4 5 6 
#
# 1 147.1483 71.7689 42.4355 0.0000 -7.1535 0.0000
# 2 71.7689 125.0388 28.7487 0.0000 -13.3402 0.0000
# 3 42.4355 28.7487 101.5903 0.0000 11.5030 0.0000
# 4 0.0000 0.0000 0.0000 -39.8086 0.0000 -15.1632
# 5 -7.1535 -13.3402 11.5030 0.0000 39.2268 0.0000
# 6 0.0000 0.0000 0.0000 -15.1632 0.0000 1.8995
#
#
#
# Elastic Compliance Matrix: (Units=1/GPa)
#
#
# Indices 1 2 3 4 5 6 
#
# 1 0.010149 -0.005047 -0.002923 0.000000 0.000992 0.000000
# 2 -0.005047 0.011631 -0.001579 0.000000 0.003498 0.000000
# 3 -0.002923 -0.001579 0.012032 0.000000 -0.004598 0.000000
# 4 0.000000 0.000000 0.000000 -0.006217 0.000000 -0.049628
# 5 0.000992 0.003498 -0.004598 0.000000 0.028212 0.000000
# 6 0.000000 0.000000 0.000000 -0.049628 0.000000 0.130289
#
#
# Mechanical properties :
#
#
# Convention : Reuss Voigt Hill
#
# Bulk Modulus (GPa) = 67.96982 73.29817 70.63399
# Shear Modulus (GPa) = 23.79834 15.65184 19.72509
#
# Velocity S-wave (km/s) = 3.47836 2.82088 3.16673
# Velocity P-wave (km/s) = 7.11953 6.91914 7.02005
#
# Compressibility (1/GPa) = 0.01471241
#
# Stress axis : x y z
#
# Youngs Moduli (GPa) = 98.53388 85.97883 83.11112
#
# Poissons Ratio (x) = 0.43396 0.24295
# Poissons Ratio (y) = 0.49732 0.13124
# Poissons Ratio (z) = 0.28804 0.13577
#
# Static dielectric constant tensor:
#      x y z
#    x 1.691780 0.000000 -0.018430 
#    y 0.000000 1.746560 0.000000 
#    z -0.018430 0.000000 1.688670 
# 
# From -- ./inp_files/20507.got.cif
#   From: 2010.05.17/outbox.cif.g08.bks.cpg/sg10_11_cif.got.tgz:20507.got - 2010.06.03 11:33:40.
