data_PCOD9153262
_publ_section_title
;
Structure prediction by ZEFSAII (Michael W. Deem and Ramdas Pophale) SiO2 
 PCOD9153262
Probable space group: P 2/M
;
_chemical_formula_sum "Si O2"
_cell_formula_units_Z 28
_cell_length_a 27.691271
_cell_length_b 9.014003
_cell_length_c 9.385389
_cell_angle_alpha 90.000000
_cell_angle_beta 37.630469
_cell_angle_gamma 90.000000
_cell_volume 1430.361363
_symmetry_space_group_name_H-M "P 2/M"
_symmetry_group_IT_number 10
_symmetry_cell_setting 'monoclinic'
loop_
_space_group_symop_operation_xyz
x,y,z
-x,y,-z
-x,-y,-z
x,-y,z
loop_
_atom_site_type_symbol
_atom_site_label
_atom_site_fract_x
_atom_site_fract_y
_atom_site_fract_z
Si Si1 0.425440 0.671289 0.781172
Si Si2 0.525166 0.830719 0.777689
Si Si3 0.874399 0.824283 0.444259
Si Si4 0.695784 0.677843 0.360861
Si Si5 0.988163 0.321612 0.691528
Si Si6 0.726474 0.175425 0.998801
Si Si7 0.836250 0.322255 0.231293
O O1 0.500000 0.674892 0.500000
O O2 0.401451 0.500000 0.856108
O O3 0.458820 0.742399 0.846432
O O4 0.353772 0.763995 0.884110
O O5 0.609613 0.751143 0.566507
O O6 0.531064 0.000000 0.709719
O O7 0.500000 0.834187 0.000000
O O8 0.948033 0.749970 0.352202
O O9 0.798119 0.799599 0.722628
O O10 0.858158 0.756232 0.327116
O O11 0.887639 0.000000 0.400060
O O12 0.688342 0.500000 0.371693
O O13 0.750557 0.717864 0.367604
O O14 0.737279 0.736682 0.120637
O O15 0.998086 0.500000 0.670759
O O16 0.000000 0.272091 0.500000
O O17 0.901937 0.287774 0.957547
O O18 0.720283 0.000000 0.041884
O O19 0.837575 0.500000 0.250582
#
# Coordination Sequence:
#
# PCOD9153262 Si02
#       7
#     4   4   4   4   4   4   4
#     4  11  23  40  64  93 120 157 209 260 306 359
#     4  11  25  42  62  89 125 165 203 250 311 372
#     4  11  25  41  61  93 128 162 203 249 302 363
#     4  11  23  41  64  92 121 158 209 258 305 361
#     4  10  21  41  68  94 123 161 204 248 301 362
#     4  11  24  41  62  89 123 163 205 252 310 371
#     4  10  23  41  63  92 125 162 203 250 304 361
#
# _framework density 19.575471
#
# number of rings (size 3 to 8) (size 9 to 14) (size 15 to 20)
#    0.000    1.286    1.429    3.429    2.000    8.857 
#    0.000    0.000    0.000    0.000    0.000    0.000 
#    0.000    0.000    0.000    0.000    0.000    0.000 
#
# Total GULP energy -156592.414074 kJ/mol
# GULP energy per Si atom -5592.586217 kJ/mol
# Density = 1.953092 g / cm^3
# Si number density = 19.575471 Si / 1000 Ang^3
#
#
#
# Elastic Constant Matrix: (Units=GPa)
#
#
# Indices 1 2 3 4 5 6 
#
# 1 100.9657 8.5713 8.5921 0.0000 5.7212 0.0000
# 2 8.5713 38.1515 19.4186 0.0000 0.2557 0.0000
# 3 8.5921 19.4186 41.8138 0.0000 6.6553 0.0000
# 4 0.0000 0.0000 0.0000 25.7220 0.0000 9.2001
# 5 5.7212 0.2557 6.6553 0.0000 36.6856 0.0000
# 6 0.0000 0.0000 0.0000 9.2001 0.0000 5.8520
#
#
#
# Elastic Compliance Matrix: (Units=1/GPa)
#
#
# Indices 1 2 3 4 5 6 
#
# 1 0.010222 -0.001742 -0.001070 0.000000 -0.001388 0.000000
# 2 -0.001742 0.034890 -0.016321 0.000000 0.002989 0.000000
# 3 -0.001070 -0.016321 0.032612 0.000000 -0.005636 0.000000
# 4 0.000000 0.000000 0.000000 0.088822 0.000000 -0.139639
# 5 -0.001388 0.002989 -0.005636 0.000000 0.028477 0.000000
# 6 0.000000 0.000000 0.000000 -0.139639 0.000000 0.390409
#
#
# Mechanical properties :
#
#
# Convention : Reuss Voigt Hill
#
# Bulk Modulus (GPa) = 25.34433 28.23277 26.78855
# Shear Modulus (GPa) = 7.85112 23.27519 15.56316
#
# Velocity S-wave (km/s) = 2.00484 3.45193 2.82269
# Velocity P-wave (km/s) = 4.28186 5.50832 4.93335
#
# Compressibility (1/GPa) = 0.03945656
#
# Stress axis : x y z
#
# Youngs Moduli (GPa) = 97.82818 28.66166 30.66353
#
# Poissons Ratio (x) = 0.04994 0.03282
# Poissons Ratio (y) = 0.17046 0.50046
# Poissons Ratio (z) = 0.10471 0.46778
#
# Static dielectric constant tensor:
#      x y z
#    x 1.664600 0.000000 0.008660 
#    y 0.000000 1.660650 0.000000 
#    z 0.008660 0.000000 1.679970 
# 
# From -- ./inp_files/37107.got.cif
#   From: 2010.05.17/outbox.cif.g08.bks.cpg/sg10_19_cif.got.tgz:37107.got - 2010.06.03 11:33:40.
