data_PCOD9153032
_publ_section_title
;
Structure prediction by ZEFSAII (Michael W. Deem and Ramdas Pophale) SiO2 
 PCOD9153032
Probable space group: P 2/M
;
_chemical_formula_sum "Si O2"
_cell_formula_units_Z 28
_cell_length_a 27.395604
_cell_length_b 7.922795
_cell_length_c 9.438346
_cell_angle_alpha 90.000000
_cell_angle_beta 35.304478
_cell_angle_gamma 90.000000
_cell_volume 1183.924412
_symmetry_space_group_name_H-M "P 2/M"
_symmetry_group_IT_number 10
_symmetry_cell_setting 'monoclinic'
loop_
_space_group_symop_operation_xyz
x,y,z
-x,y,-z
-x,-y,-z
x,-y,z
loop_
_atom_site_type_symbol
_atom_site_label
_atom_site_fract_x
_atom_site_fract_y
_atom_site_fract_z
Si Si1 0.600777 0.795303 0.499615
Si Si2 0.121978 0.205399 0.566197
Si Si3 0.630755 0.806684 0.738398
Si Si4 0.579224 0.689239 0.159671
Si Si5 0.727681 0.191157 0.987407
Si Si6 0.968041 0.796242 0.730513
Si Si7 0.183683 0.693945 0.725917
O O1 0.592642 0.743830 0.681399
O O2 0.518887 0.737050 0.608261
O O3 0.603619 0.000000 0.490247
O O4 0.688387 0.731945 0.222993
O O5 0.197914 0.266442 0.283187
O O6 0.134586 0.272892 0.694206
O O7 0.036028 0.251551 0.689976
O O8 0.126127 0.000000 0.566032
O O9 0.731649 0.803465 0.479034
O O10 0.602637 0.000000 0.830818
O O11 0.606568 0.700666 0.931355
O O12 0.592321 0.500000 0.182180
O O13 0.644365 0.809322 0.086098
O O14 0.755662 0.000000 0.954605
O O15 0.000000 0.738776 0.500000
O O16 0.964757 0.000000 0.733857
O O17 0.877724 0.733290 0.997793
O O18 0.210118 0.500000 0.667642
#
# Coordination Sequence:
#
# PCOD9153032 Si02
#       7
#     4   4   4   4   4   4   4
#     4  10  23  40  63  91 121 161 210 260 312 363
#     4  10  21  40  67  94 122 163 210 254 301 358
#     4  11  23  41  66  91 120 161 212 262 307 362
#     4  12  24  39  60  90 127 165 206 252 310 372
#     4  10  21  39  64  91 121 161 209 258 304 361
#     4  10  23  42  69  99 127 160 204 253 303 362
#     4  12  25  41  63  93 129 167 205 249 308 368
#
# _framework density 23.650157
#
# number of rings (size 3 to 8) (size 9 to 14) (size 15 to 20)
#    0.000    1.286    1.429    4.286    2.000    7.714 
#    0.000    0.000    0.000    0.000    0.000    0.000 
#    0.000    0.000    0.000    0.000    0.000    0.000 
#
# Total GULP energy -156677.477418 kJ/mol
# GULP energy per Si atom -5595.624193 kJ/mol
# Density = 2.359633 g / cm^3
# Si number density = 23.650157 Si / 1000 Ang^3
#
#
#
# Elastic Constant Matrix: (Units=GPa)
#
#
# Indices 1 2 3 4 5 6 
#
# 1 48.2579 -7.4046 -13.1472 0.0000 -2.8600 0.0000
# 2 -7.4046 49.3709 -1.0906 0.0000 0.3920 0.0000
# 3 -13.1472 -1.0906 129.0755 0.0000 -1.5064 0.0000
# 4 0.0000 0.0000 0.0000 -1.4124 0.0000 0.9660
# 5 -2.8600 0.3920 -1.5064 0.0000 37.8950 0.0000
# 6 0.0000 0.0000 0.0000 0.9660 0.0000 -30.3427
#
#
#
# Elastic Compliance Matrix: (Units=1/GPa)
#
#
# Indices 1 2 3 4 5 6 
#
# 1 0.021957 0.003330 0.002285 0.000000 0.001713 0.000000
# 2 0.003330 0.020765 0.000515 0.000000 0.000057 0.000000
# 3 0.002285 0.000515 0.007990 0.000000 0.000485 0.000000
# 4 0.000000 0.000000 0.000000 -0.723798 0.000000 -0.023043
# 5 0.001713 0.000057 0.000485 0.000000 0.026537 0.000000
# 6 0.000000 0.000000 0.000000 -0.023043 0.000000 -0.033690
#
#
# Mechanical properties :
#
#
# Convention : Reuss Voigt Hill
#
# Bulk Modulus (GPa) = 15.88013 20.37995 18.13004
# Shear Modulus (GPa) = -7.44592 17.78442 5.16925
#
# Velocity S-wave (km/s) = -1.77629 2.74520 1.48002
# Velocity P-wave (km/s) = 1.58816 4.32251 3.25625
#
# Compressibility (1/GPa) = 0.06297179
#
# Stress axis : x y z
#
# Youngs Moduli (GPa) = 45.54380 48.15753 125.15466
#
# Poissons Ratio (x) = -0.16036 -0.28593
# Poissons Ratio (y) = -0.15166 -0.06449
# Poissons Ratio (z) = -0.10405 -0.02482
#
# Static dielectric constant tensor:
#      x y z
#    x 1.871990 0.000000 0.023070 
#    y 0.000000 1.864520 0.000000 
#    z 0.023070 0.000000 1.913170 
# 
# From -- ./inp_files/37056.got.cif
#   From: 2010.05.17/outbox.cif.g08.bks.cpg/sg10_19_cif.got.tgz:37056.got - 2010.06.03 11:33:40.
