data_PCOD9153391
_publ_section_title
;
Structure prediction by ZEFSAII (Michael W. Deem and Ramdas Pophale) SiO2 
 PCOD9153391
Probable space group: P 2/M
;
_chemical_formula_sum "Si O2"
_cell_formula_units_Z 28
_cell_length_a 12.855527
_cell_length_b 21.495165
_cell_length_c 5.186602
_cell_angle_alpha 90.000000
_cell_angle_beta 74.678911
_cell_angle_gamma 90.000000
_cell_volume 1382.286016
_symmetry_space_group_name_H-M "P 2/M"
_symmetry_group_IT_number 10
_symmetry_cell_setting 'monoclinic'
loop_
_space_group_symop_operation_xyz
x,y,z
-x,y,-z
-x,-y,-z
x,-y,z
loop_
_atom_site_type_symbol
_atom_site_label
_atom_site_fract_x
_atom_site_fract_y
_atom_site_fract_z
Si Si1 0.768931 0.817966 0.367583
Si Si2 0.309724 0.724073 0.175881
Si Si3 0.384791 0.593416 0.202444
Si Si4 0.570409 0.185185 0.198935
Si Si5 0.871708 0.693093 0.076410
Si Si6 0.252599 0.567654 0.775038
Si Si7 0.074044 0.930352 0.702368
O O1 0.703716 0.785019 0.641519
O O2 0.686117 0.843022 0.204093
O O3 0.839620 0.758675 0.229335
O O4 0.841394 0.875660 0.394176
O O5 0.370379 0.667001 0.261581
O O6 0.387159 0.745020 0.891225
O O7 0.192370 0.702253 0.152962
O O8 0.347694 0.566479 0.499649
O O9 0.500000 0.579144 0.000000
O O10 0.301664 0.574923 0.029295
O O11 0.500000 0.181887 0.500000
O O12 0.500000 0.163431 0.000000
O O13 0.819547 0.629499 0.224040
O O14 0.000000 0.687267 0.000000
O O15 0.196490 0.500000 0.794817
O O16 0.000000 0.931990 0.500000
O O17 0.120860 0.000000 0.708498
O O18 0.000000 0.916668 0.000000
#
# Coordination Sequence:
#
# PCOD9153391 Si02
#       7
#     4   4   4   4   4   4   4
#     4  11  22  38  66  95 130 167 210 267 312 373
#     4  10  22  37  59  93 127 161 207 263 316 372
#     4  11  23  39  63  87 121 157 204 261 320 379
#     4  11  22  36  58  92 130 167 207 253 318 378
#     4  10  23  39  60  93 123 164 211 263 319 380
#     4  11  24  43  60  86 122 158 209 261 315 386
#     4  10  24  43  66  98 135 174 214 259 319 380
#
# _framework density 20.256298999999999
#
# number of rings (size 3 to 8) (size 9 to 14) (size 15 to 20)
#    0.000    1.429    2.857    1.714    6.000    2.000 
#    0.000    0.000    0.000    3.429    0.000    0.000 
#    0.000    0.000    0.000    0.000    0.000    0.000 
#
# Total GULP energy -156012.991899 kJ/mol
# GULP energy per Si atom -5571.892568 kJ/mol
# Density = 2.021019 g / cm^3
# Si number density = 20.256299 Si / 1000 Ang^3
#
#
#
# Elastic Constant Matrix: (Units=GPa)
#
#
# Indices 1 2 3 4 5 6 
#
# 1 77.5052 24.8071 11.5423 0.0000 3.7945 0.0000
# 2 24.8071 118.9313 15.6799 0.0000 -3.3966 0.0000
# 3 11.5423 15.6799 90.7421 0.0000 11.5775 0.0000
# 4 0.0000 0.0000 0.0000 47.0304 0.0000 3.7185
# 5 3.7945 -3.3966 11.5775 0.0000 23.9117 0.0000
# 6 0.0000 0.0000 0.0000 3.7185 0.0000 7.7738
#
#
#
# Elastic Compliance Matrix: (Units=1/GPa)
#
#
# Indices 1 2 3 4 5 6 
#
# 1 0.014076 -0.002862 -0.001022 0.000000 -0.002145 0.000000
# 2 -0.002862 0.009284 -0.001563 0.000000 0.002530 0.000000
# 3 -0.001022 -0.001563 0.012180 0.000000 -0.005957 0.000000
# 4 0.000000 0.000000 0.000000 0.022099 0.000000 -0.010571
# 5 -0.002145 0.002530 -0.005957 0.000000 0.045405 0.000000
# 6 0.000000 0.000000 0.000000 -0.010571 0.000000 0.133694
#
#
# Mechanical properties :
#
#
# Convention : Reuss Voigt Hill
#
# Bulk Modulus (GPa) = 40.57623 43.47080 42.02352
# Shear Modulus (GPa) = 19.54294 31.41979 25.48136
#
# Velocity S-wave (km/s) = 3.10947 3.94269 3.55060
# Velocity P-wave (km/s) = 5.74166 6.49872 6.13188
#
# Compressibility (1/GPa) = 0.02464497
#
# Stress axis : x y z
#
# Youngs Moduli (GPa) = 71.04389 107.71713 82.09936
#
# Poissons Ratio (x) = 0.30834 0.08391
# Poissons Ratio (y) = 0.20336 0.12831
# Poissons Ratio (z) = 0.07261 0.16834
#
# Static dielectric constant tensor:
#      x y z
#    x 1.737090 0.000000 0.016290 
#    y 0.000000 1.748200 0.000000 
#    z 0.016290 0.000000 1.804630 
# 
# From -- ./inp_files/7696.got.cif
#   From: 2010.05.17/outbox.cif.g08.bks.cpg/sg10_4_cif.got.tgz:7696.got - 2010.06.03 11:33:40.
