data_PCOD9153289
_publ_section_title
;
Structure prediction by ZEFSAII (Michael W. Deem and Ramdas Pophale) SiO2 
 PCOD9153289
Probable space group: P 2/M
;
_chemical_formula_sum "Si O2"
_cell_formula_units_Z 32
_cell_length_a 19.707210
_cell_length_b 13.957063
_cell_length_c 12.332812
_cell_angle_alpha 90.000000
_cell_angle_beta 154.826330
_cell_angle_gamma 90.000000
_cell_volume 1442.917337
_symmetry_space_group_name_H-M "P 2/M"
_symmetry_group_IT_number 10
_symmetry_cell_setting 'monoclinic'
loop_
_space_group_symop_operation_xyz
x,y,z
-x,y,-z
-x,-y,-z
x,-y,z
loop_
_atom_site_type_symbol
_atom_site_label
_atom_site_fract_x
_atom_site_fract_y
_atom_site_fract_z
Si Si1 0.274338 0.700797 0.886357
Si Si2 0.403688 0.609772 0.722498
Si Si3 0.160719 0.612913 0.174835
Si Si4 0.677178 0.889234 0.760600
Si Si5 0.991711 0.885581 0.117622
Si Si6 0.188130 0.894259 0.801681
Si Si7 0.832880 0.388307 0.042103
Si Si8 0.852853 0.714171 0.523907
O O1 0.309063 0.814051 0.935333
O O2 0.215449 0.670341 0.920760
O O3 0.145203 0.702487 0.603523
O O4 0.420423 0.636797 0.060734
O O5 0.395336 0.500000 0.748461
O O6 0.292194 0.620408 0.457183
O O7 0.319757 0.679918 0.686636
O O8 0.123924 0.500000 0.103967
O O9 0.251206 0.638756 0.192367
O O10 0.000000 0.656213 0.000000
O O11 0.500000 0.846347 0.500000
O O12 0.655863 0.000000 0.694262
O O13 0.811936 0.848829 0.878498
O O14 0.769786 0.892350 0.009723
O O15 0.099131 0.814399 0.348187
O O16 0.011052 0.000000 0.175848
O O17 0.000000 0.881073 0.000000
O O18 0.000000 0.876118 0.500000
O O19 0.221896 0.000000 0.808060
O O20 0.817334 0.500000 0.047454
O O21 0.009981 0.363126 0.252194
#
# Coordination Sequence:
#
# PCOD9153289 Si02
#       8
#     4   4   4   4   4   4   4   4
#     4  12  26  42  61 102 137 170 225 285 342 402
#     4  11  25  45  68  94 135 185 228 278 350 425
#     4   9  18  39  68  95 123 171 231 278 334 413
#     4   9  18  36  62  93 128 164 207 265 335 404
#     4  10  23  42  67 102 138 176 229 292 349 403
#     4  10  21  42  68  91 127 180 227 270 331 412
#     4  11  23  40  67 100 134 171 225 291 341 397
#     4  12  25  42  68  94 132 184 236 270 330 424
#
# _framework density 22.177292999999999
#
# number of rings (size 3 to 8) (size 9 to 14) (size 15 to 20)
#    0.000    1.500    1.250    3.750    1.750    6.000 
#    2.250    3.750    0.000    1.500    0.000    0.000 
#    0.000    0.000    0.000    0.000    0.000    0.000 
#
# Total GULP energy -178158.211902 kJ/mol
# GULP energy per Si atom -5567.444122 kJ/mol
# Density = 2.212682 g / cm^3
# Si number density = 22.177293 Si / 1000 Ang^3
#
#
#
# Elastic Constant Matrix: (Units=GPa)
#
#
# Indices 1 2 3 4 5 6 
#
# 1 108.2322 18.3731 45.8603 0.0000 -12.4724 0.0000
# 2 18.3731 125.2287 25.8867 0.0000 3.1064 0.0000
# 3 45.8603 25.8867 90.7492 0.0000 -3.9035 0.0000
# 4 0.0000 0.0000 0.0000 25.5827 0.0000 9.8508
# 5 -12.4724 3.1064 -3.9035 0.0000 36.4556 0.0000
# 6 0.0000 0.0000 0.0000 9.8508 0.0000 15.3740
#
#
#
# Elastic Compliance Matrix: (Units=1/GPa)
#
#
# Indices 1 2 3 4 5 6 
#
# 1 0.012246 -0.000680 -0.005839 0.000000 0.003622 0.000000
# 2 -0.000680 0.008559 -0.002149 0.000000 -0.001192 0.000000
# 3 -0.005839 -0.002149 0.014572 0.000000 -0.000254 0.000000
# 4 0.000000 0.000000 0.000000 0.051892 0.000000 -0.033250
# 5 0.003622 -0.001192 -0.000254 0.000000 0.028744 0.000000
# 6 0.000000 0.000000 0.000000 -0.033250 0.000000 0.086349
#
#
# Mechanical properties :
#
#
# Convention : Reuss Voigt Hill
#
# Bulk Modulus (GPa) = 55.42708 56.05001 55.73855
# Shear Modulus (GPa) = 22.15200 31.08846 26.62023
#
# Velocity S-wave (km/s) = 3.16390 3.74814 3.46835
# Velocity P-wave (km/s) = 6.19629 6.63776 6.42082
#
# Compressibility (1/GPa) = 0.01804172
#
# Stress axis : x y z
#
# Youngs Moduli (GPa) = 81.65724 116.83658 68.62331
#
# Poissons Ratio (x) = 0.07940 0.40069
# Poissons Ratio (y) = 0.05549 0.14749
# Poissons Ratio (z) = 0.47680 0.25112
#
# Static dielectric constant tensor:
#      x y z
#    x 1.962610 0.000000 -0.136510 
#    y 0.000000 1.903560 0.000000 
#    z -0.136510 0.000000 1.920170 
# 
# From -- ./inp_files/54058.got.cif
#   From: 2010.05.17/outbox.cif.g08.bks.cpg/sg10_28_cif.got.tgz:54058.got - 2010.06.03 11:33:40.
