data_PCOD9153152
_publ_section_title
;
Structure prediction by ZEFSAII (Michael W. Deem and Ramdas Pophale) SiO2 
 PCOD9153152
Probable space group: P 2/M
;
_chemical_formula_sum "Si O2"
_cell_formula_units_Z 18
_cell_length_a 4.997925
_cell_length_b 8.047534
_cell_length_c 21.840996
_cell_angle_alpha 90.000000
_cell_angle_beta 110.143155
_cell_angle_gamma 90.000000
_cell_volume 824.734822
_symmetry_space_group_name_H-M "P 2/M"
_symmetry_group_IT_number 10
_symmetry_cell_setting 'monoclinic'
loop_
_space_group_symop_operation_xyz
x,y,z
-x,y,-z
-x,-y,-z
x,-y,z
loop_
_atom_site_type_symbol
_atom_site_label
_atom_site_fract_x
_atom_site_fract_y
_atom_site_fract_z
Si Si1 0.178589 0.500000 0.452332
Si Si2 0.665264 0.806625 0.733935
Si Si3 0.747283 0.191614 0.063453
Si Si4 0.370197 0.314214 0.133460
Si Si5 0.027891 0.804000 0.646615
O O1 0.500000 0.500000 0.500000
O O2 0.000000 0.500000 0.500000
O O3 0.106218 0.666369 0.408091
O O4 0.650312 0.707432 0.795390
O O5 0.368690 0.787515 0.674180
O O6 0.915467 0.767050 0.706362
O O7 0.693167 0.000000 0.754082
O O8 0.607220 0.200910 0.119880
O O9 0.052364 0.277243 0.084389
O O10 0.793795 0.000000 0.050031
O O11 0.500000 0.261566 0.000000
O O12 0.456997 0.500000 0.124643
O O13 0.957173 0.000000 0.628018
#
# Coordination Sequence:
#
# PCOD9153152 Si02
#       5
#     2   4   4   4   4
#     4  12  26  42  66  96 128 170 205 250 303 362
#     4  10  21  40  64  90 122 161 204 255 311 369
#     4  11  24  43  63  84 121 172 217 260 316 388
#     4  12  25  38  63  97 125 161 207 270 329 380
#     4  10  23  41  65  93 126 167 207 257 309 365
#
# _framework density 21.825198
#
# number of rings (size 3 to 8) (size 9 to 14) (size 15 to 20)
#    0.000    1.111    0.000    6.000    3.111    7.111 
#    0.000    0.000    0.000    0.000    0.000    0.000 
#    0.000    0.000    0.000    0.000    0.000    0.000 
#
# Total GULP energy -100712.056301 kJ/mol
# GULP energy per Si atom -5595.114239 kJ/mol
# Density = 2.177552 g / cm^3
# Si number density = 21.825198 Si / 1000 Ang^3
#
#
#
# Elastic Constant Matrix: (Units=GPa)
#
#
# Indices 1 2 3 4 5 6 
#
# 1 75.7018 -4.9490 -9.4526 0.0000 -5.6605 0.0000
# 2 -4.9490 74.9255 34.3569 0.0000 1.8653 0.0000
# 3 -9.4526 34.3569 64.5909 0.0000 -3.4952 0.0000
# 4 0.0000 0.0000 0.0000 39.1726 0.0000 -8.9498
# 5 -5.6605 1.8653 -3.4952 0.0000 34.2528 0.0000
# 6 0.0000 0.0000 0.0000 -8.9498 0.0000 108.8346
#
#
#
# Elastic Compliance Matrix: (Units=1/GPa)
#
#
# Indices 1 2 3 4 5 6 
#
# 1 0.013663 -0.000183 0.002232 0.000000 0.002496 0.000000
# 2 -0.000183 0.017782 -0.009593 0.000000 -0.001977 0.000000
# 3 0.002232 -0.009593 0.021076 0.000000 0.003042 0.000000
# 4 0.000000 0.000000 0.000000 0.026017 0.000000 0.002139
# 5 0.002496 -0.001977 0.003042 0.000000 0.030025 0.000000
# 6 0.000000 0.000000 0.000000 0.002139 0.000000 0.009364
#
#
# Mechanical properties :
#
#
# Convention : Reuss Voigt Hill
#
# Bulk Modulus (GPa) = 26.71382 28.34765 27.53074
# Shear Modulus (GPa) = 34.36601 49.46952 41.91777
#
# Velocity S-wave (km/s) = 3.97243 4.76607 4.38723
# Velocity P-wave (km/s) = 5.77120 6.58057 6.18913
#
# Compressibility (1/GPa) = 0.03743380
#
# Stress axis : x y z
#
# Youngs Moduli (GPa) = 73.19005 56.23557 47.44802
#
# Poissons Ratio (x) = 0.01030 -0.10590
# Poissons Ratio (y) = 0.01340 0.45515
# Poissons Ratio (z) = -0.16336 0.53944
#
# Static dielectric constant tensor:
#      x y z
#    x 1.736740 0.000000 -0.004010 
#    y 0.000000 1.780750 0.000000 
#    z -0.004010 0.000000 1.795620 
# 
# From -- ./inp_files/11887.got.cif
#   From: 2010.05.17/outbox.cif.g08.bks.cpg/sg10_6_cif.got.tgz:11887.got - 2010.06.03 11:33:40.
