data_PCOD9153645
_publ_section_title
;
Structure prediction by ZEFSAII (Michael W. Deem and Ramdas Pophale) SiO2 
 PCOD9153645
Probable space group: P 2/M
;
_chemical_formula_sum "Si O2"
_cell_formula_units_Z 24
_cell_length_a 22.609731
_cell_length_b 9.412119
_cell_length_c 5.638587
_cell_angle_alpha 90.000000
_cell_angle_beta 83.001071
_cell_angle_gamma 90.000000
_cell_volume 1190.980901
_symmetry_space_group_name_H-M "P 2/M"
_symmetry_group_IT_number 10
_symmetry_cell_setting 'monoclinic'
loop_
_space_group_symop_operation_xyz
x,y,z
-x,y,-z
-x,-y,-z
x,-y,z
loop_
_atom_site_type_symbol
_atom_site_label
_atom_site_fract_x
_atom_site_fract_y
_atom_site_fract_z
Si Si1 0.464867 0.666685 0.269737
Si Si2 0.843078 0.836459 0.787726
Si Si3 0.643995 0.157691 0.848516
Si Si4 0.034122 0.669806 0.232910
Si Si5 0.732498 0.336990 0.063103
Si Si6 0.755035 0.847711 0.442702
O O1 0.500000 0.696298 0.500000
O O2 0.447323 0.500000 0.289925
O O3 0.408681 0.769774 0.270454
O O4 0.500000 0.684034 0.000000
O O5 0.904663 0.756841 0.792016
O O6 0.789322 0.748138 0.932294
O O7 0.819924 0.843428 0.528069
O O8 0.846270 0.000000 0.868781
O O9 0.669357 0.263837 0.034318
O O10 0.702555 0.142072 0.659015
O O11 0.627205 0.000000 0.943753
O O12 0.045753 0.500000 0.225933
O O13 0.000000 0.700321 0.500000
O O14 0.000000 0.701560 0.000000
O O15 0.733042 0.500000 0.995367
O O16 0.742660 0.302840 0.331247
O O17 0.749986 0.000000 0.307284
#
# Coordination Sequence:
#
# PCOD9153645 Si02
#       6
#     4   4   4   4   4   4
#     4  10  23  42  63  91 127 167 211 258 310 371
#     4  10  22  40  61  88 122 159 206 258 310 372
#     4  10  22  40  61  88 122 159 206 258 310 372
#     4  10  23  42  63  91 127 167 211 258 310 371
#     4  11  22  36  61  91 121 159 201 252 315 374
#     4   9  20  38  59  87 121 157 197 252 313 368
#
# _framework density 20.151458000000002
#
# number of rings (size 3 to 8) (size 9 to 14) (size 15 to 20)
#    0.000    2.000    0.000    3.500    4.667    5.333 
#    0.000    0.000    0.000    0.000    0.000    0.000 
#    0.000    0.000    0.000    0.000    0.000    0.000 
#
# Total GULP energy -133601.983404 kJ/mol
# GULP energy per Si atom -5566.749309 kJ/mol
# Density = 2.010559 g / cm^3
# Si number density = 20.151458 Si / 1000 Ang^3
#
#
#
# Elastic Constant Matrix: (Units=GPa)
#
#
# Indices 1 2 3 4 5 6 
#
# 1 116.2868 70.8978 32.2002 0.0000 34.1755 0.0000
# 2 70.8978 116.3282 30.8652 0.0000 23.2535 0.0000
# 3 32.2002 30.8652 68.3947 0.0000 17.4980 0.0000
# 4 0.0000 0.0000 0.0000 21.0804 0.0000 -0.4675
# 5 34.1755 23.2535 17.4980 0.0000 24.2248 0.0000
# 6 0.0000 0.0000 0.0000 -0.4675 0.0000 -6.8533
#
#
#
# Elastic Compliance Matrix: (Units=1/GPa)
#
#
# Indices 1 2 3 4 5 6 
#
# 1 0.019020 -0.007611 -0.000643 0.000000 -0.019063 0.000000
# 2 -0.007611 0.014100 -0.002532 0.000000 -0.000969 0.000000
# 3 -0.000643 -0.002532 0.018661 0.000000 -0.010141 0.000000
# 4 0.000000 0.000000 0.000000 0.047366 0.000000 -0.003231
# 5 -0.019063 -0.000969 -0.010141 0.000000 0.076428 0.000000
# 6 0.000000 0.000000 0.000000 -0.003231 0.000000 -0.145694
#
#
# Mechanical properties :
#
#
# Convention : Reuss Voigt Hill
#
# Bulk Modulus (GPa) = 33.10240 63.21512 48.15876
# Shear Modulus (GPa) = 81.26966 18.82680 50.04823
#
# Velocity S-wave (km/s) = 6.35743 3.05989 4.98898
# Velocity P-wave (km/s) = 8.38760 6.62737 7.55889
#
# Compressibility (1/GPa) = 0.03020929
#
# Stress axis : x y z
#
# Youngs Moduli (GPa) = 52.57637 70.91968 53.58760
#
# Poissons Ratio (x) = 0.53976 0.03446
# Poissons Ratio (y) = 0.40015 0.13569
# Poissons Ratio (z) = 0.03381 0.17958
#
# Static dielectric constant tensor:
#      x y z
#    x 1.674000 0.000000 0.010970 
#    y 0.000000 1.752640 0.000000 
#    z 0.010970 0.000000 1.857610 
# 
# From -- ./inp_files/13006.got.cif
#   From: 2010.05.17/outbox.cif.g08.bks.cpg/sg10_7_cif.got.tgz:13006.got - 2010.06.03 11:33:40.
