data_PCOD9153497
_publ_section_title
;
Structure prediction by ZEFSAII (Michael W. Deem and Ramdas Pophale) SiO2 
 PCOD9153497
Probable space group: P 2/M
;
_chemical_formula_sum "Si O2"
_cell_formula_units_Z 32
_cell_length_a 12.311096
_cell_length_b 7.854971
_cell_length_c 31.968504
_cell_angle_alpha 90.000000
_cell_angle_beta 149.662242
_cell_angle_gamma 90.000000
_cell_volume 1561.485553
_symmetry_space_group_name_H-M "P 2/M"
_symmetry_group_IT_number 10
_symmetry_cell_setting 'monoclinic'
loop_
_space_group_symop_operation_xyz
x,y,z
-x,y,-z
-x,-y,-z
x,-y,z
loop_
_atom_site_type_symbol
_atom_site_label
_atom_site_fract_x
_atom_site_fract_y
_atom_site_fract_z
Si Si1 0.087938 0.198230 0.984556
Si Si2 0.710352 0.197827 0.091770
Si Si3 0.320928 0.300804 0.201203
Si Si4 0.294840 0.291863 0.729511
Si Si5 0.187727 0.201955 0.243505
Si Si6 0.563208 0.697096 0.130899
Si Si7 0.817484 0.292297 0.579535
Si Si8 0.365643 0.705681 0.392837
O O1 0.894880 0.213989 0.887699
O O2 0.144668 0.000000 0.008964
O O3 0.305219 0.289113 0.042777
O O4 0.000000 0.264099 0.000000
O O5 0.670298 0.206915 0.127979
O O6 0.943611 0.272333 0.159146
O O7 0.718422 0.000000 0.080962
O O8 0.500000 0.276695 0.000000
O O9 0.298884 0.500000 0.183731
O O10 0.529268 0.234716 0.245691
O O11 0.330197 0.278597 0.253890
O O12 0.294861 0.500000 0.728792
O O13 0.368324 0.240601 0.800489
O O14 0.050162 0.235115 0.641351
O O15 0.276158 0.233978 0.319119
O O16 0.180843 0.000000 0.234598
O O17 0.629212 0.500000 0.149310
O O18 0.816981 0.500000 0.579052
O O19 0.775266 0.241007 0.613721
O O20 0.610184 0.238301 0.483952
O O21 0.364045 0.500000 0.391808
#
# Coordination Sequence:
#
# PCOD9153497 Si02
#       8
#     4   4   4   4   4   4   4   4
#     4  11  22  36  54  77 111 152 187 221 267 327
#     4  10  22  39  55  74 106 145 183 224 274 332
#     4  11  22  37  57  79 108 145 190 237 275 322
#     4   9  18  32  52  82 113 137 171 229 286 322
#     4  11  23  38  56  79 113 151 185 225 278 338
#     4  11  21  34  57  85 111 138 180 234 279 324
#     4   8  15  31  57  87 114 139 175 228 282 331
#     4   9  17  33  60  87 110 142 184 225 271 333
#
# _framework density 20.493304999999999
#
# number of rings (size 3 to 8) (size 9 to 14) (size 15 to 20)
#    0.000    2.000    1.250    3.750    0.000    3.750 
#    0.000    1.875    0.000    7.500    0.000    0.000 
#    0.000    0.000    0.000    0.000    0.000    0.000 
#
# Total GULP energy -178768.128624 kJ/mol
# GULP energy per Si atom -5586.504019 kJ/mol
# Density = 2.044666 g / cm^3
# Si number density = 20.493305 Si / 1000 Ang^3
#
#
#
# Elastic Constant Matrix: (Units=GPa)
#
#
# Indices 1 2 3 4 5 6 
#
# 1 104.6989 -5.9965 55.9285 0.0000 6.8218 0.0000
# 2 -5.9965 27.4675 -0.4237 0.0000 1.3310 0.0000
# 3 55.9285 -0.4237 102.8902 0.0000 8.9368 0.0000
# 4 0.0000 0.0000 0.0000 5.1050 0.0000 -4.9558
# 5 6.8218 1.3310 8.9368 0.0000 33.0663 0.0000
# 6 0.0000 0.0000 0.0000 -4.9558 0.0000 12.3731
#
#
#
# Elastic Compliance Matrix: (Units=1/GPa)
#
#
# Indices 1 2 3 4 5 6 
#
# 1 0.013712 0.002926 -0.007358 0.000000 -0.000958 0.000000
# 2 0.002926 0.037111 -0.001286 0.000000 -0.001750 0.000000
# 3 -0.007358 -0.001286 0.013904 0.000000 -0.002188 0.000000
# 4 0.000000 0.000000 0.000000 0.320503 0.000000 0.128371
# 5 -0.000958 -0.001750 -0.002188 0.000000 0.031102 0.000000
# 6 0.000000 0.000000 0.000000 0.128371 0.000000 0.132236
#
#
# Mechanical properties :
#
#
# Convention : Reuss Voigt Hill
#
# Bulk Modulus (GPa) = 18.76502 37.11923 27.94213
# Shear Modulus (GPa) = 8.65402 22.47878 15.56640
#
# Velocity S-wave (km/s) = 2.05719 3.31552 2.75905
# Velocity P-wave (km/s) = 3.84958 5.72792 4.87997
#
# Compressibility (1/GPa) = 0.05329064
#
# Stress axis : x y z
#
# Youngs Moduli (GPa) = 72.92975 26.94652 71.92409
#
# Poissons Ratio (x) = -0.07886 0.52923
# Poissons Ratio (y) = -0.21342 0.09249
# Poissons Ratio (z) = 0.53663 0.03465
#
# Static dielectric constant tensor:
#      x y z
#    x 1.719930 0.000000 0.012460 
#    y 0.000000 1.766720 0.000000 
#    z 0.012460 0.000000 1.721870 
# 
# From -- ./inp_files/83601.got.cif
#   From: 2010.05.17/outbox.cif.g08.bks.cpg/sg10_42_cif.got.tgz:83601.got - 2010.06.03 11:33:40.
