data_PCOD9153666
_publ_section_title
;
Structure prediction by ZEFSAII (Michael W. Deem and Ramdas Pophale) SiO2 
 PCOD9153666
Probable space group: P 2/M
;
_chemical_formula_sum "Si O2"
_cell_formula_units_Z 25
_cell_length_a 24.808133
_cell_length_b 8.656073
_cell_length_c 12.449172
_cell_angle_alpha 90.000000
_cell_angle_beta 152.247568
_cell_angle_gamma 90.000000
_cell_volume 1244.849962
_symmetry_space_group_name_H-M "P 2/M"
_symmetry_group_IT_number 10
_symmetry_cell_setting 'monoclinic'
loop_
_space_group_symop_operation_xyz
x,y,z
-x,y,-z
-x,-y,-z
x,-y,z
loop_
_atom_site_type_symbol
_atom_site_label
_atom_site_fract_x
_atom_site_fract_y
_atom_site_fract_z
Si Si1 0.301859 0.679630 0.651108
Si Si2 0.152277 0.320360 0.020708
Si Si3 0.618063 0.186157 0.985015
Si Si4 0.946230 0.820831 0.786028
Si Si5 0.500000 0.000000 0.500000
Si Si6 0.730823 0.828716 0.971072
Si Si7 0.353823 0.818931 0.516831
O O1 0.324061 0.500000 0.668360
O O2 0.359880 0.731402 0.864178
O O3 0.165511 0.713951 0.420912
O O4 0.345300 0.781087 0.627719
O O5 0.124122 0.500000 0.978067
O O6 0.194752 0.272713 0.977701
O O7 0.259599 0.280327 0.288440
O O8 0.044089 0.222730 0.873139
O O9 0.630224 0.000000 0.019085
O O10 0.705053 0.235147 0.044179
O O11 0.485617 0.210305 0.715108
O O12 0.910848 0.000000 0.711863
O O13 0.000000 0.802426 0.000000
O O14 0.396469 0.131376 0.302386
O O15 0.786173 0.000000 0.079056
O O16 0.328592 0.000000 0.452243
#
# Coordination Sequence:
#
# PCOD9153666 Si02
#       7
#     4   4   4   4   1   4   4
#     4  12  25  40  60  90 130 163 198 259 321 371
#     4  12  24  37  61  96 130 157 196 261 323 363
#     4  10  22  40  63  88 121 168 213 251 291 367
#     4  11  23  42  67  90 113 160 214 257 302 367
#     4   8  16  36  66  88 114 168 212 256 282 334
#     4   9  19  37  63  87 119 162 211 251 292 354
#     4  11  22  38  63  90 121 167 214 252 297 367
#
# _framework density 20.082740999999999
#
# number of rings (size 3 to 8) (size 9 to 14) (size 15 to 20)
#    0.480    0.800    1.600    5.280    2.240    4.480 
#    0.000    3.600    0.000    4.800    0.000    0.000 
#    0.000    0.000    0.000    0.000    0.000    0.000 
#
# Total GULP energy -139448.002897 kJ/mol
# GULP energy per Si atom -5577.920116 kJ/mol
# Density = 2.003703 g / cm^3
# Si number density = 20.082741 Si / 1000 Ang^3
#
#
#
# Elastic Constant Matrix: (Units=GPa)
#
#
# Indices 1 2 3 4 5 6 
#
# 1 97.3951 4.1282 -4.3860 0.0000 3.3859 0.0000
# 2 4.1282 21.7104 5.1037 0.0000 3.0540 0.0000
# 3 -4.3860 5.1037 15.0701 0.0000 4.2944 0.0000
# 4 0.0000 0.0000 0.0000 46.3004 0.0000 35.7598
# 5 3.3859 3.0540 4.2944 0.0000 22.2549 0.0000
# 6 0.0000 0.0000 0.0000 35.7598 0.0000 82.2727
#
#
#
# Elastic Compliance Matrix: (Units=1/GPa)
#
#
# Indices 1 2 3 4 5 6 
#
# 1 0.010672 -0.002827 0.004672 0.000000 -0.002137 0.000000
# 2 -0.002827 0.051101 -0.017199 0.000000 -0.003264 0.000000
# 3 0.004672 -0.017199 0.077323 0.000000 -0.013271 0.000000
# 4 0.000000 0.000000 0.000000 0.032512 0.000000 -0.014132
# 5 -0.002137 -0.003264 -0.013271 0.000000 0.048268 0.000000
# 6 0.000000 0.000000 0.000000 -0.014132 0.000000 0.018297
#
#
# Mechanical properties :
#
#
# Convention : Reuss Voigt Hill
#
# Bulk Modulus (GPa) = 9.22607 15.98529 12.60568
# Shear Modulus (GPa) = 16.39299 38.78758 27.59029
#
# Velocity S-wave (km/s) = 2.86015 4.39952 3.71054
# Velocity P-wave (km/s) = 3.93843 5.81247 4.96468
#
# Compressibility (1/GPa) = 0.10838852
#
# Stress axis : x y z
#
# Youngs Moduli (GPa) = 93.70321 19.56926 12.93284
#
# Poissons Ratio (x) = 0.05532 -0.06043
# Poissons Ratio (y) = 0.26490 0.22243
# Poissons Ratio (z) = -0.43782 0.33657
#
# Static dielectric constant tensor:
#      x y z
#    x 1.734430 0.000000 -0.019160 
#    y 0.000000 1.670520 0.000000 
#    z -0.019160 0.000000 1.702750 
# 
# From -- ./inp_files/56731.got.cif
#   From: 2010.05.17/outbox.cif.g08.bks.cpg/sg10_29_cif.got.tgz:56731.got - 2010.06.03 11:33:40.
