data_PCOD9153829
_publ_section_title
;
Structure prediction by ZEFSAII (Michael W. Deem and Ramdas Pophale) SiO2 
 PCOD9153829
Probable space group: P 2/M
;
_chemical_formula_sum "Si O2"
_cell_formula_units_Z 16
_cell_length_a 5.256601
_cell_length_b 14.451689
_cell_length_c 10.095601
_cell_angle_alpha 90.000000
_cell_angle_beta 67.530463
_cell_angle_gamma 90.000000
_cell_volume 708.706990
_symmetry_space_group_name_H-M "P 2/M"
_symmetry_group_IT_number 10
_symmetry_cell_setting 'monoclinic'
loop_
_space_group_symop_operation_xyz
x,y,z
-x,y,-z
-x,-y,-z
x,-y,z
loop_
_atom_site_type_symbol
_atom_site_label
_atom_site_fract_x
_atom_site_fract_y
_atom_site_fract_z
Si Si1 0.622322 0.098858 0.622495
Si Si2 0.716026 0.893969 0.054630
Si Si3 0.306305 0.695081 0.407288
Si Si4 0.319400 0.609390 0.903530
O O1 0.500000 0.097119 0.500000
O O2 0.381986 0.099743 0.777443
O O3 0.759205 0.197574 0.617490
O O4 0.767811 0.000000 0.621149
O O5 0.757343 0.000000 0.993540
O O6 0.500000 0.849431 0.000000
O O7 0.000000 0.843120 0.000000
O O8 0.500000 0.692842 0.500000
O O9 0.502173 0.656092 0.250903
O O10 0.000000 0.653120 0.500000
O O11 0.307124 0.500000 0.872548
O O12 0.500000 0.620808 0.000000
O O13 0.000000 0.636244 0.000000
#
# Coordination Sequence:
#
# PCOD9153829 Si02
#       4
#     4   4   4   4
#     4   9  20  38  58  82 118 163 208 253 302 358
#     4   9  18  32  50  73 100 135 185 241 292 341
#     4  11  24  40  61  92 127 164 207 256 310 365
#     4  10  22  42  68  96 126 162 203 250 310 378
#
# _framework density 22.576325000000001
#
# number of rings (size 3 to 8) (size 9 to 14) (size 15 to 20)
#    0.000    2.250    0.000    1.500    0.000    7.500 
#    0.000    7.500    0.000    0.000    0.000    0.000 
#    0.000    0.000    0.000    0.000    0.000    0.000 
#
# Total GULP energy -89107.262130 kJ/mol
# GULP energy per Si atom -5569.203883 kJ/mol
# Density = 2.252494 g / cm^3
# Si number density = 22.576325 Si / 1000 Ang^3
#
#
#
# Elastic Constant Matrix: (Units=GPa)
#
#
# Indices 1 2 3 4 5 6 
#
# 1 171.0356 26.0118 75.7828 0.0000 -37.9081 0.0000
# 2 26.0118 128.9224 50.8995 0.0000 -22.4428 0.0000
# 3 75.7828 50.8995 188.4010 0.0000 -31.7651 0.0000
# 4 0.0000 0.0000 0.0000 35.9885 0.0000 -23.0858
# 5 -37.9081 -22.4428 -31.7651 0.0000 47.1668 0.0000
# 6 0.0000 0.0000 0.0000 -23.0858 0.0000 36.9177
#
#
#
# Elastic Compliance Matrix: (Units=1/GPa)
#
#
# Indices 1 2 3 4 5 6 
#
# 1 0.007976 0.000201 -0.002443 0.000000 0.004861 0.000000
# 2 0.000201 0.009049 -0.001999 0.000000 0.003121 0.000000
# 3 -0.002443 -0.001999 0.007151 0.000000 0.001901 0.000000
# 4 0.000000 0.000000 0.000000 0.046399 0.000000 0.029015
# 5 0.004861 0.003121 0.001901 0.000000 0.027873 0.000000
# 6 0.000000 0.000000 0.000000 0.029015 0.000000 0.045231
#
#
# Mechanical properties :
#
#
# Convention : Reuss Voigt Hill
#
# Bulk Modulus (GPa) = 63.72027 88.19414 75.95720
# Shear Modulus (GPa) = 31.76760 46.39226 39.07993
#
# Velocity S-wave (km/s) = 3.75523 4.53803 4.16506
# Velocity P-wave (km/s) = 6.86207 8.16137 7.53976
#
# Compressibility (1/GPa) = 0.01569359
#
# Stress axis : x y z
#
# Youngs Moduli (GPa) = 125.37702 110.51375 139.83458
#
# Poissons Ratio (x) = -0.02227 0.34164
# Poissons Ratio (y) = -0.02526 0.27960
# Poissons Ratio (z) = 0.30631 0.22097
#
# Static dielectric constant tensor:
#      x y z
#    x 1.887420 0.000000 -0.036190 
#    y 0.000000 1.906910 0.000000 
#    z -0.036190 0.000000 1.754920 
# 
# From -- ./inp_files/6676.got.cif
#   From: 2010.05.17/outbox.cif.g08.bks.cpg/sg10_4_cif.got.tgz:6676.got - 2010.06.03 11:33:40.
