data_PCOD9153520
_publ_section_title
;
Structure prediction by ZEFSAII (Michael W. Deem and Ramdas Pophale) SiO2 
 PCOD9153520
Probable space group: P 2/M
;
_chemical_formula_sum "Si O2"
_cell_formula_units_Z 24
_cell_length_a 16.961215
_cell_length_b 8.777718
_cell_length_c 8.042212
_cell_angle_alpha 90.000000
_cell_angle_beta 89.531848
_cell_angle_gamma 90.000000
_cell_volume 1197.290685
_symmetry_space_group_name_H-M "P 2/M"
_symmetry_group_IT_number 10
_symmetry_cell_setting 'monoclinic'
loop_
_space_group_symop_operation_xyz
x,y,z
-x,y,-z
-x,-y,-z
x,-y,z
loop_
_atom_site_type_symbol
_atom_site_label
_atom_site_fract_x
_atom_site_fract_y
_atom_site_fract_z
Si Si1 0.092109 0.317371 0.519899
Si Si2 0.336903 0.817576 0.335065
Si Si3 0.510003 0.823655 0.197886
Si Si4 0.670892 0.679212 0.303332
Si Si5 0.824609 0.180410 0.158571
Si Si6 0.187354 0.317650 0.184085
O O1 0.100986 0.500000 0.541211
O O2 0.127708 0.237811 0.681471
O O3 0.137942 0.275266 0.349785
O O4 0.000000 0.282850 0.500000
O O5 0.426474 0.782596 0.280819
O O6 0.318624 0.734926 0.508128
O O7 0.273264 0.757561 0.204976
O O8 0.329966 0.000000 0.352487
O O9 0.582299 0.720694 0.252692
O O10 0.528065 0.000000 0.243925
O O11 0.500000 0.816703 0.000000
O O12 0.685792 0.500000 0.289548
O O13 0.734434 0.768754 0.192973
O O14 0.829914 0.000000 0.144124
O O15 0.850342 0.258065 0.985755
O O16 0.194435 0.500000 0.178115
#
# Coordination Sequence:
#
# PCOD9153520 Si02
#       6
#     4   4   4   4   4   4
#     4  10  23  45  71  99 132 169 211 263 324 390
#     4  11  22  38  62  91 127 169 215 265 321 381
#     4  10  22  39  58  85 122 165 213 265 323 381
#     4  12  24  39  61  89 124 167 218 269 322 380
#     4  12  25  42  67  96 132 173 218 269 323 385
#     4  11  23  41  68  98 132 172 217 266 320 384
#
# _framework density 20.045256999999999
#
# number of rings (size 3 to 8) (size 9 to 14) (size 15 to 20)
#    0.000    1.000    1.667    5.500    0.000    6.667 
#    0.000    3.333    0.000    0.000    0.000    0.000 
#    0.000    0.000    0.000    0.000    0.000    0.000 
#
# Total GULP energy -134304.088273 kJ/mol
# GULP energy per Si atom -5596.003678 kJ/mol
# Density = 1.999963 g / cm^3
# Si number density = 20.045257 Si / 1000 Ang^3
#
#
#
# Elastic Constant Matrix: (Units=GPa)
#
#
# Indices 1 2 3 4 5 6 
#
# 1 87.0432 31.3508 26.6524 0.0000 9.6095 0.0000
# 2 31.3508 56.0474 26.0852 0.0000 13.6783 0.0000
# 3 26.6524 26.0852 113.0344 0.0000 16.8286 0.0000
# 4 0.0000 0.0000 0.0000 44.6442 0.0000 3.0484
# 5 9.6095 13.6783 16.8286 0.0000 11.1111 0.0000
# 6 0.0000 0.0000 0.0000 3.0484 0.0000 21.1461
#
#
#
# Elastic Compliance Matrix: (Units=1/GPa)
#
#
# Indices 1 2 3 4 5 6 
#
# 1 0.014708 -0.007104 -0.001597 0.000000 -0.001556 0.000000
# 2 -0.007104 0.029152 -0.000806 0.000000 -0.028523 0.000000
# 3 -0.001597 -0.000806 0.011693 0.000000 -0.015336 0.000000
# 4 0.000000 0.000000 0.000000 0.022622 0.000000 -0.003261
# 5 -0.001556 -0.028523 -0.015336 0.000000 0.149687 0.000000
# 6 0.000000 0.000000 0.000000 -0.003261 0.000000 0.047760
#
#
# Mechanical properties :
#
#
# Convention : Reuss Voigt Hill
#
# Bulk Modulus (GPa) = 27.36826 47.14463 37.25645
# Shear Modulus (GPa) = 16.29647 26.84936 21.57292
#
# Velocity S-wave (km/s) = 2.85438 3.66380 3.28412
# Velocity P-wave (km/s) = 4.95441 6.43957 5.74518
#
# Compressibility (1/GPa) = 0.03653868
#
# Stress axis : x y z
#
# Youngs Moduli (GPa) = 67.98999 34.30318 85.52391
#
# Poissons Ratio (x) = 0.24369 0.13657
# Poissons Ratio (y) = 0.48301 0.06892
# Poissons Ratio (z) = 0.10857 0.02764
#
# Static dielectric constant tensor:
#      x y z
#    x 1.696100 0.000000 -0.002890 
#    y 0.000000 1.670160 0.000000 
#    z -0.002890 0.000000 1.715820 
# 
# From -- ./inp_files/31217.got.cif
#   From: 2010.05.17/outbox.cif.g08.bks.cpg/sg10_16_cif.got.tgz:31217.got - 2010.06.03 11:33:40.
