data_PCOD9153085
_publ_section_title
;
Structure prediction by ZEFSAII (Michael W. Deem and Ramdas Pophale) SiO2 
 PCOD9153085
Probable space group: P 2/M
;
_chemical_formula_sum "Si O2"
_cell_formula_units_Z 26
_cell_length_a 8.637290
_cell_length_b 20.755318
_cell_length_c 9.087913
_cell_angle_alpha 90.000000
_cell_angle_beta 125.259362
_cell_angle_gamma 90.000000
_cell_volume 1330.308510
_symmetry_space_group_name_H-M "P 2/M"
_symmetry_group_IT_number 10
_symmetry_cell_setting 'monoclinic'
loop_
_space_group_symop_operation_xyz
x,y,z
-x,y,-z
-x,-y,-z
x,-y,z
loop_
_atom_site_type_symbol
_atom_site_label
_atom_site_fract_x
_atom_site_fract_y
_atom_site_fract_z
Si Si1 0.199782 0.073911 0.027117
Si Si2 0.428530 0.306585 0.292347
Si Si3 0.974224 0.572934 0.249190
Si Si4 0.511505 0.165322 0.328770
Si Si5 0.331670 0.426392 0.660128
Si Si6 0.207547 0.072050 0.681133
Si Si7 0.000000 0.330263 0.000000
O O1 0.194224 0.084404 0.848339
O O2 0.267876 0.000000 0.087688
O O3 0.329922 0.128111 0.168097
O O4 0.000000 0.077652 0.000000
O O5 0.500000 0.312867 0.500000
O O6 0.518635 0.239893 0.285573
O O7 0.509727 0.371292 0.261064
O O8 0.201199 0.297339 0.150894
O O9 0.971524 0.500000 0.189500
O O10 0.801458 0.578785 0.269326
O O11 0.175777 0.581307 0.443910
O O12 0.955741 0.624944 0.114301
O O13 0.500000 0.163110 0.500000
O O14 0.679983 0.125132 0.348148
O O15 0.407601 0.500000 0.694154
O O16 0.000000 0.070037 0.500000
O O17 0.292173 0.000000 0.709733
#
# Coordination Sequence:
#
# PCOD9153085 Si02
#       7
#     4   4   4   4   4   4   2
#     4  10  21  39  66  96 126 160 205 258 308 367
#     4  11  25  44  61  92 127 171 212 264 317 376
#     4   9  19  37  66  96 119 155 206 263 324 384
#     4  11  24  41  60  88 130 170 212 255 314 373
#     4   9  19  41  65  89 126 164 205 263 324 379
#     4  10  21  41  67  98 128 162 209 257 311 377
#     4  12  23  40  64  90 125 162 210 264 308 384
#
# _framework density 19.544339000000001
#
# number of rings (size 3 to 8) (size 9 to 14) (size 15 to 20)
#    0.000    1.846    1.538    3.000    1.077    5.846 
#    8.308    1.538    0.000    0.000    0.000    0.000 
#    0.000    0.000    0.000    0.000    0.000    0.000 
#
# Total GULP energy -145083.644848 kJ/mol
# GULP energy per Si atom -5580.140186 kJ/mol
# Density = 1.949986 g / cm^3
# Si number density = 19.544339 Si / 1000 Ang^3
#
#
#
# Elastic Constant Matrix: (Units=GPa)
#
#
# Indices 1 2 3 4 5 6 
#
# 1 89.1501 62.6999 29.5750 0.0000 15.6905 0.0000
# 2 62.6999 136.9961 40.2007 0.0000 2.0134 0.0000
# 3 29.5750 40.2007 71.8677 0.0000 0.3727 0.0000
# 4 0.0000 0.0000 0.0000 26.6720 0.0000 8.5438
# 5 15.6905 2.0134 0.3727 0.0000 31.2920 0.0000
# 6 0.0000 0.0000 0.0000 8.5438 0.0000 45.1097
#
#
#
# Elastic Compliance Matrix: (Units=1/GPa)
#
#
# Indices 1 2 3 4 5 6 
#
# 1 0.019471 -0.007703 -0.003656 0.000000 -0.009224 0.000000
# 2 -0.007703 0.011788 -0.003440 0.000000 0.003145 0.000000
# 3 -0.003656 -0.003440 0.017334 0.000000 0.001848 0.000000
# 4 0.000000 0.000000 0.000000 0.039914 0.000000 -0.007560
# 5 -0.009224 0.003145 0.001848 0.000000 0.036358 0.000000
# 6 0.000000 0.000000 0.000000 -0.007560 0.000000 0.023600
#
#
# Mechanical properties :
#
#
# Convention : Reuss Voigt Hill
#
# Bulk Modulus (GPa) = 52.64749 62.55168 57.59958
# Shear Modulus (GPa) = 27.11570 31.65063 29.38316
#
# Velocity S-wave (km/s) = 3.72881 4.02858 3.88159
# Velocity P-wave (km/s) = 6.74794 7.32896 7.04445
#
# Compressibility (1/GPa) = 0.01899426
#
# Stress axis : x y z
#
# Youngs Moduli (GPa) = 51.35881 84.82992 57.69061
#
# Poissons Ratio (x) = 0.65344 0.21092
# Poissons Ratio (y) = 0.39562 0.19848
# Poissons Ratio (z) = 0.18777 0.29185
#
# Static dielectric constant tensor:
#      x y z
#    x 1.628210 0.000000 0.017380 
#    y 0.000000 1.673200 0.000000 
#    z 0.017380 0.000000 1.709910 
# 
# From -- ./inp_files/20431.got.cif
#   From: 2010.05.17/outbox.cif.g08.bks.cpg/sg10_11_cif.got.tgz:20431.got - 2010.06.03 11:33:40.
