data_PCOD9153856
_publ_section_title
;
Structure prediction by ZEFSAII (Michael W. Deem and Ramdas Pophale) SiO2 
 PCOD9153856
Probable space group: P 2/M
;
_chemical_formula_sum "Si O2"
_cell_formula_units_Z 28
_cell_length_a 9.507739
_cell_length_b 8.491975
_cell_length_c 22.039292
_cell_angle_alpha 90.000000
_cell_angle_beta 47.006106
_cell_angle_gamma 90.000000
_cell_volume 1301.530098
_symmetry_space_group_name_H-M "P 2/M"
_symmetry_group_IT_number 10
_symmetry_cell_setting 'monoclinic'
loop_
_space_group_symop_operation_xyz
x,y,z
-x,y,-z
-x,-y,-z
x,-y,z
loop_
_atom_site_type_symbol
_atom_site_label
_atom_site_fract_x
_atom_site_fract_y
_atom_site_fract_z
Si Si1 0.055063 0.682659 0.073725
Si Si2 0.359729 0.184839 0.785789
Si Si3 0.232665 0.815649 0.138339
Si Si4 0.883919 0.687804 0.474978
Si Si5 0.925478 0.188873 0.334100
Si Si6 0.541182 0.809698 0.379703
Si Si7 0.418105 0.685089 0.894637
O O1 0.994846 0.500000 0.085627
O O2 0.185533 0.708424 0.094848
O O3 0.867981 0.786991 0.139641
O O4 0.196865 0.722403 0.976645
O O5 0.419640 0.240531 0.701313
O O6 0.455274 0.274300 0.813774
O O7 0.403598 0.000000 0.777899
O O8 0.441440 0.783108 0.104056
O O9 0.080578 0.777896 0.236360
O O10 0.211018 0.000000 0.128437
O O11 0.876884 0.500000 0.480222
O O12 0.974961 0.738407 0.384332
O O13 0.667230 0.752918 0.539268
O O14 0.000000 0.746581 0.500000
O O15 0.716905 0.243651 0.370756
O O16 0.917476 0.000000 0.343796
O O17 0.544746 0.000000 0.379558
O O18 0.446023 0.500000 0.897631
#
# Coordination Sequence:
#
# PCOD9153856 Si02
#       7
#     4   4   4   4   4   4   4
#     4  11  23  41  63  90 127 170 211 259 320 377
#     4  11  23  41  65  94 125 164 215 264 311 370
#     4  11  23  41  65  94 125 164 215 264 311 370
#     4  11  26  43  62  96 132 161 200 249 302 368
#     4  10  22  43  67  92 123 161 206 255 308 367
#     4  10  22  43  67  92 123 161 206 255 308 367
#     4  11  25  41  59  90 131 170 211 261 320 377
#
# _framework density 21.513141000000001
#
# number of rings (size 3 to 8) (size 9 to 14) (size 15 to 20)
#    0.000    1.286    1.429    3.429    2.000   11.429 
#    0.000    0.000    0.000    0.000    0.000    0.000 
#    0.000    0.000    0.000    0.000    0.000    0.000 
#
# Total GULP energy -156673.972573 kJ/mol
# GULP energy per Si atom -5595.499020 kJ/mol
# Density = 2.146418 g / cm^3
# Si number density = 21.513141 Si / 1000 Ang^3
#
#
#
# Elastic Constant Matrix: (Units=GPa)
#
#
# Indices 1 2 3 4 5 6 
#
# 1 33.9157 -7.5366 -0.0082 0.0000 10.3216 0.0000
# 2 -7.5366 13.3324 14.9468 0.0000 2.7203 0.0000
# 3 -0.0082 14.9468 62.2952 0.0000 13.3337 0.0000
# 4 0.0000 0.0000 0.0000 31.5420 0.0000 -8.8293
# 5 10.3216 2.7203 13.3337 0.0000 41.1703 0.0000
# 6 0.0000 0.0000 0.0000 -8.8293 0.0000 54.7658
#
#
#
# Elastic Compliance Matrix: (Units=1/GPa)
#
#
# Indices 1 2 3 4 5 6 
#
# 1 0.039210 0.029812 -0.004966 0.000000 -0.010191 0.000000
# 2 0.029812 0.125335 -0.028684 0.000000 -0.006465 0.000000
# 3 -0.004966 -0.028684 0.023920 0.000000 -0.004607 0.000000
# 4 0.000000 0.000000 0.000000 0.033202 0.000000 0.005353
# 5 -0.010191 -0.006465 -0.004607 0.000000 0.028764 0.000000
# 6 0.000000 0.000000 0.000000 0.005353 0.000000 0.019123
#
#
# Mechanical properties :
#
#
# Convention : Reuss Voigt Hill
#
# Bulk Modulus (GPa) = 5.53135 13.81636 9.67386
# Shear Modulus (GPa) = 14.81509 32.30503 23.56006
#
# Velocity S-wave (km/s) = 2.62707 3.87931 3.31289
# Velocity P-wave (km/s) = 3.43201 5.14797 4.37495
#
# Compressibility (1/GPa) = 0.18078754
#
# Stress axis : x y z
#
# Youngs Moduli (GPa) = 25.50372 7.97862 41.80538
#
# Poissons Ratio (x) = -0.23786 0.20762
# Poissons Ratio (y) = -0.76032 1.19917
# Poissons Ratio (z) = 0.12666 0.22886
#
# Static dielectric constant tensor:
#      x y z
#    x 1.780100 0.000000 0.006520 
#    y 0.000000 1.720010 0.000000 
#    z 0.006520 0.000000 1.763810 
# 
# From -- ./inp_files/82174.got.cif
#   From: 2010.05.17/outbox.cif.g08.bks.cpg/sg10_42_cif.got.tgz:82174.got - 2010.06.03 11:33:40.
