data_PCOD9153015
_publ_section_title
;
Structure prediction by ZEFSAII (Michael W. Deem and Ramdas Pophale) SiO2 
 PCOD9153015
Probable space group: P 2/M
;
_chemical_formula_sum "Si O2"
_cell_formula_units_Z 32
_cell_length_a 14.315054
_cell_length_b 17.537864
_cell_length_c 11.247060
_cell_angle_alpha 90.000000
_cell_angle_beta 148.114399
_cell_angle_gamma 90.000000
_cell_volume 1491.514988
_symmetry_space_group_name_H-M "P 2/M"
_symmetry_group_IT_number 10
_symmetry_cell_setting 'monoclinic'
loop_
_space_group_symop_operation_xyz
x,y,z
-x,y,-z
-x,-y,-z
x,-y,z
loop_
_atom_site_type_symbol
_atom_site_label
_atom_site_fract_x
_atom_site_fract_y
_atom_site_fract_z
Si Si1 0.751180 0.141596 0.928327
Si Si2 0.935058 0.149170 0.559491
Si Si3 0.207633 0.706370 0.192275
Si Si4 0.407351 0.839911 0.691363
Si Si5 0.963766 0.334083 0.595664
Si Si6 0.718304 0.589902 0.919278
Si Si7 0.374978 0.671200 0.627225
Si Si8 0.198523 0.914574 0.254312
O O1 0.751881 0.224458 0.858609
O O2 0.602220 0.133637 0.867877
O O3 0.707436 0.086874 0.771670
O O4 0.935699 0.123647 0.193815
O O5 0.729719 0.128786 0.359124
O O6 0.953727 0.241693 0.588042
O O7 0.000000 0.124971 0.500000
O O8 0.266594 0.628524 0.192889
O O9 0.306629 0.700920 0.425082
O O10 0.000000 0.709083 0.000000
O O11 0.434842 0.750803 0.750356
O O12 0.293702 0.859166 0.448879
O O13 0.784319 0.360772 0.465584
O O14 0.000000 0.357032 0.500000
O O15 0.126067 0.367183 0.843535
O O16 0.742117 0.500000 0.942870
O O17 0.533468 0.613606 0.778537
O O18 0.191658 0.000000 0.295798
O O19 0.000000 0.890399 0.000000
#
# Coordination Sequence:
#
# PCOD9153015 Si02
#       8
#     4   4   4   4   4   4   4   4
#     4  12  21  37  64  93 127 162 204 252 304 363
#     4  10  21  39  63  93 121 158 217 263 298 351
#     4  12  21  39  64  89 122 162 203 248 309 371
#     4  11  21  36  64  92 123 166 202 249 306 363
#     4  10  22  43  65  85 116 160 213 265 304 356
#     4  12  26  41  59  90 124 160 205 254 316 378
#     4  11  22  39  63  92 120 159 204 250 308 365
#     4  11  23  38  61  97 136 166 197 247 310 369
#
# _framework density 21.454695000000001
#
# number of rings (size 3 to 8) (size 9 to 14) (size 15 to 20)
#    0.000    0.875    6.250    1.875    0.000    4.000 
#    0.000    4.375    0.000    1.500    0.000    1.750 
#    0.000    0.000    0.000    0.000    0.000    0.000 
#
# Total GULP energy -178596.006274 kJ/mol
# GULP energy per Si atom -5581.125196 kJ/mol
# Density = 2.140586 g / cm^3
# Si number density = 21.454695 Si / 1000 Ang^3
#
#
#
# Elastic Constant Matrix: (Units=GPa)
#
#
# Indices 1 2 3 4 5 6 
#
# 1 138.6300 5.1961 19.0376 0.0000 18.2901 0.0000
# 2 5.1961 49.8384 8.4827 0.0000 0.8544 0.0000
# 3 19.0376 8.4827 8.2974 0.0000 43.5266 0.0000
# 4 0.0000 0.0000 0.0000 12.1488 0.0000 2.6309
# 5 18.2901 0.8544 43.5266 0.0000 23.6664 0.0000
# 6 0.0000 0.0000 0.0000 2.6309 0.0000 12.4039
#
#
#
# Elastic Compliance Matrix: (Units=1/GPa)
#
#
# Indices 1 2 3 4 5 6 
#
# 1 0.007857 -0.000487 -0.001646 0.000000 -0.003028 0.000000
# 2 -0.000487 0.019843 0.002010 0.000000 -0.004037 0.000000
# 3 -0.001646 0.002010 -0.013408 0.000000 0.025858 0.000000
# 4 0.000000 0.000000 0.000000 0.086275 0.000000 -0.018299
# 5 -0.003028 -0.004037 0.025858 0.000000 -0.002818 0.000000
# 6 0.000000 0.000000 0.000000 -0.018299 0.000000 0.084501
#
#
# Mechanical properties :
#
#
# Convention : Reuss Voigt Hill
#
# Bulk Modulus (GPa) = 71.18933 29.13319 50.16126
# Shear Modulus (GPa) = 26.71252 20.58045 23.64649
#
# Velocity S-wave (km/s) = 3.53238 3.10054 3.32348
# Velocity P-wave (km/s) = 7.06330 5.14064 6.17723
#
# Compressibility (1/GPa) = 0.01404705
#
# Stress axis : x y z
#
# Youngs Moduli (GPa) = 127.27190 50.39639 -74.58416
#
# Poissons Ratio (x) = 0.02455 -0.12275
# Poissons Ratio (y) = 0.06200 0.14994
# Poissons Ratio (z) = 0.20945 -0.10131
#
# Static dielectric constant tensor:
#      x y z
#    x 19.099830 0.000000 -12.577040 
#    y 0.000000 1.759160 0.000000 
#    z -12.577040 0.000000 10.977010 
# 
# From -- ./inp_files/51976.got.cif
#   From: 2010.05.17/outbox.cif.g08.bks.cpg/sg10_26_cif.got.tgz:51976.got - 2010.06.03 11:33:40.
