data_PCOD9153026
_publ_section_title
;
Structure prediction by ZEFSAII (Michael W. Deem and Ramdas Pophale) SiO2 
 PCOD9153026
Probable space group: P 2/M
;
_chemical_formula_sum "Si O2"
_cell_formula_units_Z 18
_cell_length_a 9.049775
_cell_length_b 20.480805
_cell_length_c 7.993844
_cell_angle_alpha 90.000000
_cell_angle_beta 146.106020
_cell_angle_gamma 90.000000
_cell_volume 826.244022
_symmetry_space_group_name_H-M "P 2/M"
_symmetry_group_IT_number 10
_symmetry_cell_setting 'monoclinic'
loop_
_space_group_symop_operation_xyz
x,y,z
-x,y,-z
-x,-y,-z
x,-y,z
loop_
_atom_site_type_symbol
_atom_site_label
_atom_site_fract_x
_atom_site_fract_y
_atom_site_fract_z
Si Si1 0.877914 0.645748 0.700336
Si Si2 0.546033 0.868031 0.843835
Si Si3 0.387325 0.574778 0.081309
Si Si4 0.043170 0.790929 0.339260
Si Si5 0.729510 0.000000 0.850231
O O1 0.599148 0.611580 0.398305
O O2 0.861924 0.721667 0.637949
O O3 0.000000 0.639045 0.000000
O O4 0.107304 0.610940 0.809338
O O5 0.261873 0.846427 0.505316
O O6 0.676252 0.935324 0.908314
O O7 0.500000 0.871136 0.000000
O O8 0.758849 0.811974 0.002171
O O9 0.352084 0.500000 0.105240
O O10 0.500000 0.574508 0.000000
O O11 0.000000 0.786927 0.500000
O O12 0.500000 0.000000 0.500000
O O13 0.000000 0.000000 0.000000
#
# Coordination Sequence:
#
# PCOD9153026 Si02
#       5
#     4   4   4   4   2
#     4  12  25  40  63  96 130 163 202 260 323 374
#     4  10  22  41  64  88 118 161 209 252 297 360
#     4  11  24  43  66  90 122 168 216 258 305 371
#     4  10  21  39  64  90 119 161 209 254 301 363
#     4  12  25  40  61  92 126 160 196 248 313 366
#
# _framework density 21.785332
#
# number of rings (size 3 to 8) (size 9 to 14) (size 15 to 20)
#    0.000    1.111    0.000    6.333    0.000    8.889 
#    0.000    4.444    0.000    0.000    0.000    0.000 
#    0.000    0.000    0.000    0.000    0.000    0.000 
#
# Total GULP energy -100681.473166 kJ/mol
# GULP energy per Si atom -5593.415176 kJ/mol
# Density = 2.173575 g / cm^3
# Si number density = 21.785332 Si / 1000 Ang^3
#
#
#
# Elastic Constant Matrix: (Units=GPa)
#
#
# Indices 1 2 3 4 5 6 
#
# 1 48.9342 26.9721 18.5686 0.0000 19.7925 0.0000
# 2 26.9721 125.9024 17.2047 0.0000 13.0067 0.0000
# 3 18.5686 17.2047 107.7832 0.0000 20.4212 0.0000
# 4 0.0000 0.0000 0.0000 39.7110 0.0000 7.7788
# 5 19.7925 13.0067 20.4212 0.0000 33.5128 0.0000
# 6 0.0000 0.0000 0.0000 7.7788 0.0000 -9.7062
#
#
#
# Elastic Compliance Matrix: (Units=1/GPa)
#
#
# Indices 1 2 3 4 5 6 
#
# 1 0.029500 -0.004588 -0.001567 0.000000 -0.014687 0.000000
# 2 -0.004588 0.009050 -0.000568 0.000000 -0.000457 0.000000
# 3 -0.001567 -0.000568 0.010651 0.000000 -0.005344 0.000000
# 4 0.000000 0.000000 0.000000 0.021765 0.000000 0.017443
# 5 -0.014687 -0.000457 -0.005344 0.000000 0.041947 0.000000
# 6 0.000000 0.000000 0.000000 0.017443 0.000000 -0.089047
#
#
# Mechanical properties :
#
#
# Convention : Reuss Voigt Hill
#
# Bulk Modulus (GPa) = 27.96811 45.34562 36.65686
# Shear Modulus (GPa) = 101.56310 27.36182 64.46246
#
# Velocity S-wave (km/s) = 6.83529 3.54782 5.44556
# Velocity P-wave (km/s) = 8.66953 6.13536 7.51011
#
# Compressibility (1/GPa) = 0.03575500
#
# Stress axis : x y z
#
# Youngs Moduli (GPa) = 33.89869 110.49265 93.88745
#
# Poissons Ratio (x) = 0.50697 0.14713
# Poissons Ratio (y) = 0.15554 0.05329
# Poissons Ratio (z) = 0.05312 0.06272
#
# Static dielectric constant tensor:
#      x y z
#    x 1.821730 0.000000 -0.012030 
#    y 0.000000 1.503890 0.000000 
#    z -0.012030 0.000000 1.741810 
# 
# From -- ./inp_files/14852.got.cif
#   From: 2010.05.17/outbox.cif.g08.bks.cpg/sg10_8_cif.got.tgz:14852.got - 2010.06.03 11:33:40.
