data_PCOD9153767
_publ_section_title
;
Structure prediction by ZEFSAII (Michael W. Deem and Ramdas Pophale) SiO2 
 PCOD9153767
Probable space group: P 2/M
;
_chemical_formula_sum "Si O2"
_cell_formula_units_Z 26
_cell_length_a 8.370382
_cell_length_b 22.397226
_cell_length_c 8.590760
_cell_angle_alpha 90.000000
_cell_angle_beta 51.997466
_cell_angle_gamma 90.000000
_cell_volume 1269.077762
_symmetry_space_group_name_H-M "P 2/M"
_symmetry_group_IT_number 10
_symmetry_cell_setting 'monoclinic'
loop_
_space_group_symop_operation_xyz
x,y,z
-x,y,-z
-x,-y,-z
x,-y,z
loop_
_atom_site_type_symbol
_atom_site_label
_atom_site_fract_x
_atom_site_fract_y
_atom_site_fract_z
Si Si1 0.817124 0.834436 0.496486
Si Si2 0.228946 0.670463 0.840966
Si Si3 0.000000 0.625816 0.500000
Si Si4 0.336149 0.295076 0.434929
Si Si5 0.559382 0.934621 0.784714
Si Si6 0.183812 0.067387 0.771616
Si Si7 0.730378 0.570137 0.927498
O O1 0.720464 0.773088 0.497104
O O2 0.684624 0.875354 0.688112
O O3 0.843856 0.880292 0.336814
O O4 0.000000 0.817104 0.500000
O O5 0.434273 0.705025 0.767249
O O6 0.282706 0.667937 0.625446
O O7 0.234551 0.610495 0.940402
O O8 0.000000 0.695705 0.000000
O O9 0.187551 0.671163 0.409074
O O10 0.091384 0.586099 0.304022
O O11 0.384164 0.929367 0.758787
O O12 0.658242 0.000000 0.700762
O O13 0.500000 0.935615 0.000000
O O14 0.179086 0.000000 0.707144
O O15 0.000000 0.071725 0.000000
O O16 0.740156 0.500000 0.957756
O O17 0.500000 0.581496 0.000000
#
# Coordination Sequence:
#
# PCOD9153767 Si02
#       7
#     4   4   2   4   4   4   4
#     4  12  25  42  63  95 129 172 226 278 342 408
#     4  11  24  46  70  97 137 181 221 279 341 393
#     4  12  21  48  68  98 145 180 224 282 332 402
#     4  11  26  44  66  99 136 183 230 275 337 412
#     4  10  22  42  64  92 129 169 218 276 337 401
#     4  10  22  41  66  95 129 170 222 283 342 404
#     4  11  24  44  72 105 138 181 229 275 335 403
#
# _framework density 20.487317999999998
#
# number of rings (size 3 to 8) (size 9 to 14) (size 15 to 20)
#    0.000    1.077    3.846    2.077    4.308    4.615 
#    5.538    1.538    0.000    0.000    0.000    0.000 
#    0.000    0.000    0.000    0.000    0.000    0.000 
#
# Total GULP energy -144756.785568 kJ/mol
# GULP energy per Si atom -5567.568676 kJ/mol
# Density = 2.044069 g / cm^3
# Si number density = 20.487318 Si / 1000 Ang^3
#
#
#
# Elastic Constant Matrix: (Units=GPa)
#
#
# Indices 1 2 3 4 5 6 
#
# 1 72.0933 35.7353 28.4220 0.0000 -15.5966 0.0000
# 2 35.7353 129.9959 61.9113 0.0000 9.4779 0.0000
# 3 28.4220 61.9113 126.2730 0.0000 -3.0353 0.0000
# 4 0.0000 0.0000 0.0000 10.9579 0.0000 -45.3232
# 5 -15.5966 9.4779 -3.0353 0.0000 42.0163 0.0000
# 6 0.0000 0.0000 0.0000 -45.3232 0.0000 -110.0377
#
#
#
# Elastic Compliance Matrix: (Units=1/GPa)
#
#
# Indices 1 2 3 4 5 6 
#
# 1 0.018668 -0.004957 -0.001581 0.000000 0.007934 0.000000
# 2 -0.004957 0.011650 -0.004712 0.000000 -0.004808 0.000000
# 3 -0.001581 -0.004712 0.010615 0.000000 0.001243 0.000000
# 4 0.000000 0.000000 0.000000 0.033754 0.000000 -0.013903
# 5 0.007934 -0.004808 0.001243 0.000000 0.027920 0.000000
# 6 0.000000 0.000000 0.000000 -0.013903 0.000000 -0.003361
#
#
# Mechanical properties :
#
#
# Convention : Reuss Voigt Hill
#
# Bulk Modulus (GPa) = 54.24895 64.49995 59.37445
# Shear Modulus (GPa) = 39.09649 2.07351 20.58500
#
# Velocity S-wave (km/s) = 4.37318 1.00712 3.17325
# Velocity P-wave (km/s) = 7.21362 5.73617 6.51690
#
# Compressibility (1/GPa) = 0.01843354
#
# Stress axis : x y z
#
# Youngs Moduli (GPa) = 53.56866 85.83806 94.20560
#
# Poissons Ratio (x) = 0.42553 0.14889
# Poissons Ratio (y) = 0.26556 0.44386
# Poissons Ratio (z) = 0.08467 0.40444
#
# Static dielectric constant tensor:
#      x y z
#    x 1.791000 0.000000 -0.050710 
#    y 0.000000 1.686550 0.000000 
#    z -0.050710 0.000000 1.734100 
# 
# From -- ./inp_files/20449.got.cif
#   From: 2010.05.17/outbox.cif.g08.bks.cpg/sg10_11_cif.got.tgz:20449.got - 2010.06.03 11:33:40.
