data_PCOD9153404
_publ_section_title
;
Structure prediction by ZEFSAII (Michael W. Deem and Ramdas Pophale) SiO2 
 PCOD9153404
Probable space group: P 2/M
;
_chemical_formula_sum "Si O2"
_cell_formula_units_Z 16
_cell_length_a 9.453691
_cell_length_b 13.857629
_cell_length_c 7.189473
_cell_angle_alpha 90.000000
_cell_angle_beta 50.638129
_cell_angle_gamma 90.000000
_cell_volume 728.206261
_symmetry_space_group_name_H-M "P 2/M"
_symmetry_group_IT_number 10
_symmetry_cell_setting 'monoclinic'
loop_
_space_group_symop_operation_xyz
x,y,z
-x,y,-z
-x,-y,-z
x,-y,z
loop_
_atom_site_type_symbol
_atom_site_label
_atom_site_fract_x
_atom_site_fract_y
_atom_site_fract_z
Si Si1 0.554908 0.236644 0.672202
Si Si2 0.904830 0.107736 0.379476
Si Si3 0.168254 0.613712 0.639865
Si Si4 0.839856 0.277760 0.951919
O O1 0.500000 0.225282 0.500000
O O2 0.703529 0.152772 0.577282
O O3 0.667730 0.335600 0.605830
O O4 0.361950 0.244590 0.938525
O O5 0.000000 0.102708 0.500000
O O6 0.894525 0.000000 0.307979
O O7 0.033299 0.182323 0.160935
O O8 0.183589 0.500000 0.642189
O O9 0.184181 0.665438 0.831006
O O10 0.968252 0.646695 0.735434
#
# Coordination Sequence:
#
# PCOD9153404 Si02
#       4
#     4   4   4   4
#     4   9  19  34  53  82 108 131 171 220 262 305
#     4  10  22  38  53  72 103 143 181 215 258 312
#     4   9  17  31  54  83 111 137 168 209 261 316
#     4   9  17  31  51  77 105 133 170 216 257 299
#
# _framework density 21.971798
#
# number of rings (size 3 to 8) (size 9 to 14) (size 15 to 20)
#    0.000    2.750    0.000    3.000    0.000    8.000 
#    0.000   23.750    0.000   18.750    0.000   35.000 
#    0.000    0.000    0.000    0.000    0.000    0.000 
#
# Total GULP energy -89118.707583 kJ/mol
# GULP energy per Si atom -5569.919224 kJ/mol
# Density = 2.192179 g / cm^3
# Si number density = 21.971798 Si / 1000 Ang^3
#
#
#
# Elastic Constant Matrix: (Units=GPa)
#
#
# Indices 1 2 3 4 5 6 
#
# 1 72.2165 25.3710 36.0011 0.0000 -24.2736 0.0000
# 2 25.3710 220.6781 60.2469 0.0000 -21.1229 0.0000
# 3 36.0011 60.2469 113.7507 0.0000 -32.1562 0.0000
# 4 0.0000 0.0000 0.0000 13.9053 0.0000 38.5820
# 5 -24.2736 -21.1229 -32.1562 0.0000 46.9998 0.0000
# 6 0.0000 0.0000 0.0000 38.5820 0.0000 122.2264
#
#
#
# Elastic Compliance Matrix: (Units=1/GPa)
#
#
# Indices 1 2 3 4 5 6 
#
# 1 0.018031 -0.000458 -0.003583 0.000000 0.006655 0.000000
# 2 -0.000458 0.005322 -0.002559 0.000000 0.000404 0.000000
# 3 -0.003583 -0.002559 0.012934 0.000000 0.005848 0.000000
# 4 0.000000 0.000000 0.000000 0.579213 0.000000 -0.182834
# 5 0.006655 0.000404 0.005848 0.000000 0.028897 0.000000
# 6 0.000000 0.000000 0.000000 -0.182834 0.000000 0.065895
#
#
# Mechanical properties :
#
#
# Convention : Reuss Voigt Hill
#
# Bulk Modulus (GPa) = 43.31507 72.20927 57.76217
# Shear Modulus (GPa) = 6.83819 55.62804 31.23312
#
# Velocity S-wave (km/s) = 1.76607 5.03715 3.77438
# Velocity P-wave (km/s) = 4.89034 8.17107 6.73357
#
# Compressibility (1/GPa) = 0.02308666
#
# Stress axis : x y z
#
# Youngs Moduli (GPa) = 55.45931 187.91593 77.31606
#
# Poissons Ratio (x) = 0.08604 0.27701
# Poissons Ratio (y) = 0.02539 0.19788
# Poissons Ratio (z) = 0.19870 0.48094
#
# Static dielectric constant tensor:
#      x y z
#    x 1.935390 0.000000 0.034600 
#    y 0.000000 1.764610 0.000000 
#    z 0.034600 0.000000 1.909750 
# 
# From -- ./inp_files/45597.got.cif
#   From: 2010.05.17/outbox.cif.g08.bks.cpg/sg10_23_cif.got.tgz:45597.got - 2010.06.03 11:33:40.
