data_PCOD9153236
_publ_section_title
;
Structure prediction by ZEFSAII (Michael W. Deem and Ramdas Pophale) SiO2 
 PCOD9153236
Probable space group: P 2/M
;
_chemical_formula_sum "Si O2"
_cell_formula_units_Z 32
_cell_length_a 9.044463
_cell_length_b 11.855417
_cell_length_c 14.499081
_cell_angle_alpha 90.000000
_cell_angle_beta 99.942986
_cell_angle_gamma 90.000000
_cell_volume 1531.325574
_symmetry_space_group_name_H-M "P 2/M"
_symmetry_group_IT_number 10
_symmetry_cell_setting 'monoclinic'
loop_
_space_group_symop_operation_xyz
x,y,z
-x,y,-z
-x,-y,-z
x,-y,z
loop_
_atom_site_type_symbol
_atom_site_label
_atom_site_fract_x
_atom_site_fract_y
_atom_site_fract_z
Si Si1 0.156219 0.623845 0.901365
Si Si2 0.537952 0.872980 0.200496
Si Si3 0.619056 0.305777 0.944160
Si Si4 0.180128 0.375847 0.189556
Si Si5 0.920009 0.788982 0.581363
Si Si6 0.223083 0.704206 0.707551
Si Si7 0.239013 0.123802 0.272054
Si Si8 0.659686 0.632430 0.473826
O O1 0.199812 0.500000 0.941507
O O2 0.237531 0.714541 0.974573
O O3 0.207018 0.634763 0.800366
O O4 0.977275 0.628549 0.881211
O O5 0.461582 0.801638 0.110189
O O6 0.688812 0.815611 0.251791
O O7 0.416132 0.872360 0.270547
O O8 0.563667 0.000000 0.173563
O O9 0.500000 0.360744 0.000000
O O10 0.679704 0.374999 0.864432
O O11 0.180364 0.500000 0.239417
O O12 0.188309 0.250413 0.234895
O O13 0.826098 0.874792 0.632641
O O14 0.798814 0.696754 0.535189
O O15 0.000000 0.839337 0.500000
O O16 0.057133 0.731820 0.652271
O O17 0.318949 0.651289 0.633931
O O18 0.191623 0.000000 0.225130
O O19 0.500000 0.670884 0.500000
O O20 0.671755 0.500000 0.494038
#
# Coordination Sequence:
#
# PCOD9153236 Si02
#       8
#     4   4   4   4   4   4   4   4
#     4  11  22  38  59  88 128 168 210 265 325 387
#     4  10  23  43  65  88 126 174 220 272 328 389
#     4  11  22  40  60  93 125 163 216 268 321 381
#     4  10  22  40  63  89 127 172 214 263 329 397
#     4  10  22  38  64  95 128 164 212 268 324 390
#     4  11  21  40  61  92 124 166 217 266 322 390
#     4  10  21  41  64  92 129 168 217 273 326 390
#     4  10  22  40  64  94 132 172 213 265 327 396
#
# _framework density 20.896927000000002
#
# number of rings (size 3 to 8) (size 9 to 14) (size 15 to 20)
#    0.000    1.625    2.500    1.875    0.000    6.250 
#    0.000    4.375    0.000    9.750    0.000    0.000 
#    0.000    0.000    0.000    0.000    0.000    0.000 
#
# Total GULP energy -178235.171770 kJ/mol
# GULP energy per Si atom -5569.849118 kJ/mol
# Density = 2.084936 g / cm^3
# Si number density = 20.896927 Si / 1000 Ang^3
#
#
#
# Elastic Constant Matrix: (Units=GPa)
#
#
# Indices 1 2 3 4 5 6 
#
# 1 105.0498 46.5703 32.8520 0.0000 -11.3638 0.0000
# 2 46.5703 137.3968 37.1418 0.0000 10.5162 0.0000
# 3 32.8520 37.1418 74.9202 0.0000 -8.8447 0.0000
# 4 0.0000 0.0000 0.0000 5.6208 0.0000 4.1876
# 5 -11.3638 10.5162 -8.8447 0.0000 41.3174 0.0000
# 6 0.0000 0.0000 0.0000 4.1876 0.0000 3.3435
#
#
#
# Elastic Compliance Matrix: (Units=1/GPa)
#
#
# Indices 1 2 3 4 5 6 
#
# 1 0.012559 -0.003658 -0.003258 0.000000 0.003688 0.000000
# 2 -0.003658 0.009879 -0.003805 0.000000 -0.004335 0.000000
# 3 -0.003258 -0.003805 0.017103 0.000000 0.003734 0.000000
# 4 0.000000 0.000000 0.000000 2.658619 0.000000 -3.329764
# 5 0.003688 -0.004335 0.003734 0.000000 0.027120 0.000000
# 6 0.000000 0.000000 0.000000 -3.329764 0.000000 4.469421
#
#
# Mechanical properties :
#
#
# Convention : Reuss Voigt Hill
#
# Bulk Modulus (GPa) = 55.25429 61.16612 58.21021
# Shear Modulus (GPa) = 0.69231 23.44318 12.06775
#
# Velocity S-wave (km/s) = 0.57621 3.35303 2.40571
# Velocity P-wave (km/s) = 5.19051 6.65766 5.96933
#
# Compressibility (1/GPa) = 0.01809814
#
# Stress axis : x y z
#
# Youngs Moduli (GPa) = 79.62472 101.22956 58.46855
#
# Poissons Ratio (x) = 0.37033 0.19049
# Poissons Ratio (y) = 0.29130 0.22247
# Poissons Ratio (z) = 0.25942 0.38517
#
# Static dielectric constant tensor:
#      x y z
#    x 1.760680 0.000000 -0.028330 
#    y 0.000000 1.765830 0.000000 
#    z -0.028330 0.000000 1.808550 
# 
# From -- ./inp_files/61234.got.cif
#   From: 2010.05.17/outbox.cif.g08.bks.cpg/sg10_31_cif.got.tgz:61234.got - 2010.06.03 11:33:40.
