data_PCOD9153790
_publ_section_title
;
Structure prediction by ZEFSAII (Michael W. Deem and Ramdas Pophale) SiO2 
 PCOD9153790
Probable space group: P 2/M
;
_chemical_formula_sum "Si O2"
_cell_formula_units_Z 26
_cell_length_a 13.420537
_cell_length_b 7.953713
_cell_length_c 14.703757
_cell_angle_alpha 90.000000
_cell_angle_beta 45.614490
_cell_angle_gamma 90.000000
_cell_volume 1121.660127
_symmetry_space_group_name_H-M "P 2/M"
_symmetry_group_IT_number 10
_symmetry_cell_setting 'monoclinic'
loop_
_space_group_symop_operation_xyz
x,y,z
-x,y,-z
-x,-y,-z
x,-y,z
loop_
_atom_site_type_symbol
_atom_site_label
_atom_site_fract_x
_atom_site_fract_y
_atom_site_fract_z
Si Si1 0.983867 0.698554 0.363677
Si Si2 0.669994 0.681886 0.379773
Si Si3 0.568837 0.000000 0.741996
Si Si4 0.770188 0.701447 0.645987
Si Si5 0.165006 0.202773 0.903175
Si Si6 0.630024 0.000000 0.982680
Si Si7 0.187730 0.303543 0.094115
Si Si8 0.624597 0.000000 0.496540
O O1 0.958415 0.500000 0.379156
O O2 0.118857 0.721892 0.343370
O O3 0.854313 0.765536 0.502911
O O4 0.034489 0.745333 0.230910
O O5 0.500000 0.671692 0.500000
O O6 0.724486 0.500000 0.373017
O O7 0.733020 0.723545 0.240237
O O8 0.709977 0.833678 0.419472
O O9 0.643402 0.169202 0.731087
O O10 0.566581 0.000000 0.634652
O O11 0.418732 0.000000 0.881793
O O12 0.735165 0.500000 0.663186
O O13 0.202706 0.274644 0.977798
O O14 0.174712 0.000000 0.892965
O O15 0.000000 0.246288 0.000000
O O16 0.713293 0.828099 0.918928
O O17 0.500000 0.000000 0.000000
O O18 0.212794 0.500000 0.099805
O O19 0.500000 0.000000 0.500000
#
# Coordination Sequence:
#
# PCOD9153790 Si02
#       8
#     4   4   2   4   4   2   4   2
#     4   8  17  37  65  94 127 165 204 260 328 392
#     4  10  22  41  69  94 124 175 225 271 334 397
#     4  12  26  38  62  94 124 172 217 263 326 383
#     4   9  19  39  64  93 129 162 205 264 326 392
#     4  11  24  44  70 102 139 181 227 283 342 409
#     4  12  28  45  65  98 137 179 233 283 326 398
#     4  11  24  42  69  97 132 179 225 275 341 403
#     4  10  24  42  61  83 125 161 211 275 320 380
#
# _framework density 23.179928
#
# number of rings (size 3 to 8) (size 9 to 14) (size 15 to 20)
#    0.000    1.846    1.538    2.308    4.308    5.846 
#    0.000    1.538    0.000    0.000    0.000    0.000 
#    0.000    0.000    0.000    0.000    0.000    0.000 
#
# Total GULP energy -145154.382908 kJ/mol
# GULP energy per Si atom -5582.860881 kJ/mol
# Density = 2.312717 g / cm^3
# Si number density = 23.179928 Si / 1000 Ang^3
#
#
#
# Elastic Constant Matrix: (Units=GPa)
#
#
# Indices 1 2 3 4 5 6 
#
# 1 75.6393 24.3608 16.2904 0.0000 0.5499 0.0000
# 2 24.3608 151.3380 33.0214 0.0000 -7.1170 0.0000
# 3 16.2904 33.0214 169.2257 0.0000 14.2084 0.0000
# 4 0.0000 0.0000 0.0000 9.5351 0.0000 -1.4155
# 5 0.5499 -7.1170 14.2084 0.0000 39.1586 0.0000
# 6 0.0000 0.0000 0.0000 -1.4155 0.0000 35.3618
#
#
#
# Elastic Compliance Matrix: (Units=1/GPa)
#
#
# Indices 1 2 3 4 5 6 
#
# 1 0.014092 -0.002076 -0.000931 0.000000 -0.000237 0.000000
# 2 -0.002076 0.007332 -0.001388 0.000000 0.001865 0.000000
# 3 -0.000931 -0.001388 0.006487 0.000000 -0.002593 0.000000
# 4 0.000000 0.000000 0.000000 0.105503 0.000000 0.004223
# 5 -0.000237 0.001865 -0.002593 0.000000 0.026820 0.000000
# 6 0.000000 0.000000 0.000000 0.004223 0.000000 0.028448
#
#
# Mechanical properties :
#
#
# Convention : Reuss Voigt Hill
#
# Bulk Modulus (GPa) = 52.29850 60.39423 56.34637
# Shear Modulus (GPa) = 24.52817 38.31311 31.42064
#
# Velocity S-wave (km/s) = 3.25647 4.06995 3.68572
# Velocity P-wave (km/s) = 6.06221 6.94241 6.51719
#
# Compressibility (1/GPa) = 0.01912101
#
# Stress axis : x y z
#
# Youngs Moduli (GPa) = 70.96392 136.38079 154.14495
#
# Poissons Ratio (x) = 0.28316 0.14358
# Poissons Ratio (y) = 0.14734 0.21388
# Poissons Ratio (z) = 0.06610 0.18923
#
# Static dielectric constant tensor:
#      x y z
#    x 1.914180 0.000000 -0.028380 
#    y 0.000000 1.887130 0.000000 
#    z -0.028380 0.000000 1.939460 
# 
# From -- ./inp_files/66809.got.cif
#   From: 2010.05.17/outbox.cif.g08.bks.cpg/sg10_34_cif.got.tgz:66809.got - 2010.06.03 11:33:40.
