data_PCOD9153233
_publ_section_title
;
Structure prediction by ZEFSAII (Michael W. Deem and Ramdas Pophale) SiO2 
 PCOD9153233
Probable space group: P 2/M
;
_chemical_formula_sum "Si O2"
_cell_formula_units_Z 24
_cell_length_a 10.012296
_cell_length_b 16.175521
_cell_length_c 12.132883
_cell_angle_alpha 90.000000
_cell_angle_beta 142.663615
_cell_angle_gamma 90.000000
_cell_volume 1191.741523
_symmetry_space_group_name_H-M "P 2/M"
_symmetry_group_IT_number 10
_symmetry_cell_setting 'monoclinic'
loop_
_space_group_symop_operation_xyz
x,y,z
-x,y,-z
-x,-y,-z
x,-y,z
loop_
_atom_site_type_symbol
_atom_site_label
_atom_site_fract_x
_atom_site_fract_y
_atom_site_fract_z
Si Si1 0.450467 0.826017 0.285504
Si Si2 0.774366 0.323856 0.783010
Si Si3 0.314744 0.598039 0.514670
Si Si4 0.175128 0.000000 0.763723
Si Si5 0.086261 0.739062 0.440386
Si Si6 0.348155 0.000000 0.625571
Si Si7 0.288326 0.821018 0.932945
O O1 0.296539 0.773519 0.267124
O O2 0.687768 0.783403 0.440779
O O3 0.515619 0.921931 0.330805
O O4 0.338776 0.812980 0.093643
O O5 0.765173 0.364839 0.656029
O O6 0.564153 0.370369 0.700738
O O7 0.000000 0.333686 0.000000
O O8 0.308463 0.500000 0.508713
O O9 0.149812 0.643206 0.489661
O O10 0.309574 0.000000 0.734588
O O11 0.234328 0.915753 0.865362
O O12 0.909484 0.000000 0.577528
O O13 0.000000 0.772669 0.500000
O O14 0.907831 0.762337 0.233202
O O15 0.500000 0.797305 0.000000
#
# Coordination Sequence:
#
# PCOD9153233 Si02
#       7
#     4   4   4   2   4   2   4
#     4  11  22  35  58  85 120 160 199 243 284 339
#     4  10  21  41  64  86 111 149 201 248 288 338
#     4  10  23  41  66  91 113 147 193 242 299 360
#     4  11  20  31  54  82 129 164 197 242 273 339
#     4  11  21  37  58  89 125 155 187 234 294 361
#     4  11  19  34  52  85 122 163 200 238 286 332
#     4  12  20  32  54  85 121 162 200 230 281 334
#
# _framework density 20.138594999999999
#
# number of rings (size 3 to 8) (size 9 to 14) (size 15 to 20)
#    0.000    1.167    5.000    2.750    0.000    1.667 
#    0.000    0.417    0.000    9.500    0.000    0.000 
#    0.000    0.000    0.000    0.000    0.000    0.000 
#
# Total GULP energy -133962.431719 kJ/mol
# GULP energy per Si atom -5581.767988 kJ/mol
# Density = 2.009276 g / cm^3
# Si number density = 20.138595 Si / 1000 Ang^3
#
#
#
# Elastic Constant Matrix: (Units=GPa)
#
#
# Indices 1 2 3 4 5 6 
#
# 1 28.9761 22.7603 22.4408 0.0000 6.0260 0.0000
# 2 22.7603 146.9806 48.0115 0.0000 14.5163 0.0000
# 3 22.4408 48.0115 161.1511 0.0000 19.1053 0.0000
# 4 0.0000 0.0000 0.0000 23.0313 0.0000 6.0736
# 5 6.0260 14.5163 19.1053 0.0000 19.1756 0.0000
# 6 0.0000 0.0000 0.0000 6.0736 0.0000 24.7054
#
#
#
# Elastic Compliance Matrix: (Units=1/GPa)
#
#
# Indices 1 2 3 4 5 6 
#
# 1 0.042408 -0.004741 -0.003786 0.000000 -0.005966 0.000000
# 2 -0.004741 0.008338 -0.001420 0.000000 -0.003407 0.000000
# 3 -0.003786 -0.001420 0.007810 0.000000 -0.005516 0.000000
# 4 0.000000 0.000000 0.000000 0.046429 0.000000 -0.011414
# 5 -0.005966 -0.003407 -0.005516 0.000000 0.062100 0.000000
# 6 0.000000 0.000000 0.000000 -0.011414 0.000000 0.043283
#
#
# Mechanical properties :
#
#
# Convention : Reuss Voigt Hill
#
# Bulk Modulus (GPa) = 25.86522 58.17034 42.01778
# Shear Modulus (GPa) = 20.56356 29.64214 25.10285
#
# Velocity S-wave (km/s) = 3.19894 3.84071 3.53442
# Velocity P-wave (km/s) = 5.14934 6.97250 6.12909
#
# Compressibility (1/GPa) = 0.03866196
#
# Stress axis : x y z
#
# Youngs Moduli (GPa) = 23.58057 119.93031 128.04822
#
# Poissons Ratio (x) = 0.56861 0.48474
# Poissons Ratio (y) = 0.11180 0.18183
# Poissons Ratio (z) = 0.08927 0.17030
#
# Static dielectric constant tensor:
#      x y z
#    x 1.753650 0.000000 -0.003540 
#    y 0.000000 1.745340 0.000000 
#    z -0.003540 0.000000 1.701870 
# 
# From -- ./inp_files/65193.got.cif
#   From: 2010.05.17/outbox.cif.g08.bks.cpg/sg10_33_cif.got.tgz:65193.got - 2010.06.03 11:33:40.
