data_PCOD9153720
_publ_section_title
;
Structure prediction by ZEFSAII (Michael W. Deem and Ramdas Pophale) SiO2 
 PCOD9153720
Probable space group: P 2/M
;
_chemical_formula_sum "Si O2"
_cell_formula_units_Z 14
_cell_length_a 10.792495
_cell_length_b 13.226282
_cell_length_c 10.606447
_cell_angle_alpha 90.000000
_cell_angle_beta 151.932851
_cell_angle_gamma 90.000000
_cell_volume 712.352173
_symmetry_space_group_name_H-M "P 2/M"
_symmetry_group_IT_number 10
_symmetry_cell_setting 'monoclinic'
loop_
_space_group_symop_operation_xyz
x,y,z
-x,y,-z
-x,-y,-z
x,-y,z
loop_
_atom_site_type_symbol
_atom_site_label
_atom_site_fract_x
_atom_site_fract_y
_atom_site_fract_z
Si Si1 0.475932 0.221559 0.836001
Si Si2 0.309934 0.112897 0.448741
Si Si3 0.790829 0.500000 0.700437
Si Si4 0.969681 0.301247 0.716183
O O1 0.467531 0.135444 0.720619
O O2 0.202158 0.278934 0.563072
O O3 0.500000 0.183836 0.000000
O O4 0.720676 0.296145 0.029460
O O5 0.500000 0.121337 0.500000
O O6 0.100891 0.203765 0.260283
O O7 0.196380 0.000000 0.349348
O O8 0.500000 0.500000 0.500000
O O9 0.853466 0.400665 0.675194
O O10 0.000000 0.500000 0.000000
#
# Coordination Sequence:
#
# PCOD9153720 Si02
#       4
#     4   4   2   4
#     4  10  22  41  62  88 128 166 205 250 305 369
#     4   9  21  39  64  92 125 161 203 260 312 359
#     4  12  24  40  67  96 127 164 203 253 315 367
#     4  10  23  39  63  92 123 159 208 258 296 371
#
# _framework density 19.653199999999998
#
# number of rings (size 3 to 8) (size 9 to 14) (size 15 to 20)
#    1.714    0.286    0.000    3.429    4.000    1.714 
#    0.000    8.571    0.000    0.000    0.000    0.000 
#    0.000    0.000    0.000    0.000    0.000    0.000 
#
# Total GULP energy -77955.071920 kJ/mol
# GULP energy per Si atom -5568.219423 kJ/mol
# Density = 1.960847 g / cm^3
# Si number density = 19.653200 Si / 1000 Ang^3
#
#
#
# Elastic Constant Matrix: (Units=GPa)
#
#
# Indices 1 2 3 4 5 6 
#
# 1 96.7354 36.3686 16.0223 0.0000 -14.4163 0.0000
# 2 36.3686 111.5286 7.6188 0.0000 1.8004 0.0000
# 3 16.0223 7.6188 67.1723 0.0000 4.3495 0.0000
# 4 0.0000 0.0000 0.0000 -189.5478 0.0000 -165.6830
# 5 -14.4163 1.8004 4.3495 0.0000 46.7785 0.0000
# 6 0.0000 0.0000 0.0000 -165.6830 0.0000 -131.2752
#
#
#
# Elastic Compliance Matrix: (Units=1/GPa)
#
#
# Indices 1 2 3 4 5 6 
#
# 1 0.013036 -0.004122 -0.002930 0.000000 0.004448 0.000000
# 2 -0.004122 0.010343 -0.000082 0.000000 -0.001661 0.000000
# 3 -0.002930 -0.000082 0.015748 0.000000 -0.002364 0.000000
# 4 0.000000 0.000000 0.000000 0.051121 0.000000 -0.064520
# 5 0.004448 -0.001661 -0.002364 0.000000 0.023032 0.000000
# 6 0.000000 0.000000 0.000000 -0.064520 0.000000 0.073814
#
#
# Mechanical properties :
#
#
# Convention : Reuss Voigt Hill
#
# Bulk Modulus (GPa) = 40.22865 43.93953 42.08409
# Shear Modulus (GPa) = 23.84943 -40.44714 -8.29886
#
# Velocity S-wave (km/s) = 3.48733 -4.54149 -2.05714
# Velocity P-wave (km/s) = 6.06045 2.25703 3.97711
#
# Compressibility (1/GPa) = 0.02485791
#
# Stress axis : x y z
#
# Youngs Moduli (GPa) = 76.71326 96.68326 63.49882
#
# Poissons Ratio (x) = 0.39857 0.18604
# Poissons Ratio (y) = 0.31625 0.00522
# Poissons Ratio (z) = 0.22475 0.00795
#
# Static dielectric constant tensor:
#      x y z
#    x 1.673580 0.000000 -0.015560 
#    y 0.000000 1.802890 0.000000 
#    z -0.015560 0.000000 1.706820 
# 
# From -- ./inp_files/2811.got.cif
#   From: 2010.05.17/outbox.cif.g08.bks.cpg/sg10_2_cif.got.tgz:2811.got - 2010.06.03 11:33:40.
