data_PCOD9153795
_publ_section_title
;
Structure prediction by ZEFSAII (Michael W. Deem and Ramdas Pophale) SiO2 
 PCOD9153795
Probable space group: P 2/M
;
_chemical_formula_sum "Si O2"
_cell_formula_units_Z 20
_cell_length_a 5.133199
_cell_length_b 19.537103
_cell_length_c 9.973632
_cell_angle_alpha 90.000000
_cell_angle_beta 67.469550
_cell_angle_gamma 90.000000
_cell_volume 923.892151
_symmetry_space_group_name_H-M "P 2/M"
_symmetry_group_IT_number 10
_symmetry_cell_setting 'monoclinic'
loop_
_space_group_symop_operation_xyz
x,y,z
-x,y,-z
-x,-y,-z
x,-y,z
loop_
_atom_site_type_symbol
_atom_site_label
_atom_site_fract_x
_atom_site_fract_y
_atom_site_fract_z
Si Si1 0.822477 0.000000 0.396520
Si Si2 0.500000 0.211820 0.500000
Si Si3 0.180810 0.579043 0.099237
Si Si4 0.985663 0.311176 0.656763
Si Si5 0.425550 0.189250 0.236401
Si Si6 0.016788 0.886055 0.851647
O O1 0.500000 0.000000 0.500000
O O2 0.881749 0.935739 0.286498
O O3 0.000000 0.000000 0.500000
O O4 0.367420 0.169394 0.404263
O O5 0.744762 0.260348 0.391335
O O6 0.195572 0.500000 0.143500
O O7 0.031897 0.627332 0.236735
O O8 0.500000 0.600895 0.000000
O O9 0.000000 0.581203 0.000000
O O10 0.708775 0.264728 0.739673
O O11 0.000000 0.335767 0.500000
O O12 0.755017 0.173468 0.160397
O O13 0.262329 0.146514 0.156953
O O14 0.000000 0.921559 0.000000
#
# Coordination Sequence:
#
# PCOD9153795 Si02
#       6
#     2   2   4   4   4   4
#     4  12  29  46  75 102 130 183 231 275 332 399
#     4  10  22  42  63 103 136 174 216 296 330 396
#     4  10  24  44  65  93 135 181 224 277 337 402
#     4  10  23  41  68 100 132 175 226 279 337 391
#     4  11  24  41  70  97 137 174 221 275 342 392
#     4  12  27  47  69 101 141 176 223 276 338 401
#
# _framework density 21.647548
#
# number of rings (size 3 to 8) (size 9 to 14) (size 15 to 20)
#    0.000    1.200    2.000    2.100    9.800    2.800 
#    0.000    3.500    0.000    0.000    0.000    0.000 
#    0.000    0.000    0.000    0.000    0.000    0.000 
#
# Total GULP energy -111637.663183 kJ/mol
# GULP energy per Si atom -5581.883159 kJ/mol
# Density = 2.159828 g / cm^3
# Si number density = 21.647548 Si / 1000 Ang^3
#
#
#
# Elastic Constant Matrix: (Units=GPa)
#
#
# Indices 1 2 3 4 5 6 
#
# 1 143.6051 18.9903 53.3503 0.0000 11.2455 0.0000
# 2 18.9903 51.1176 62.3552 0.0000 6.9392 0.0000
# 3 53.3503 62.3552 164.2906 0.0000 25.5010 0.0000
# 4 0.0000 0.0000 0.0000 -690.0677 0.0000 187.8943
# 5 11.2455 6.9392 25.5010 0.0000 42.2110 0.0000
# 6 0.0000 0.0000 0.0000 187.8943 0.0000 58.3148
#
#
#
# Elastic Compliance Matrix: (Units=1/GPa)
#
#
# Indices 1 2 3 4 5 6 
#
# 1 0.007936 0.000305 -0.002601 0.000000 -0.000593 0.000000
# 2 0.000305 0.036702 -0.014433 0.000000 0.002605 0.000000
# 3 -0.002601 -0.014433 0.013168 0.000000 -0.004890 0.000000
# 4 0.000000 0.000000 0.000000 -0.000772 0.000000 0.002487
# 5 -0.000593 0.002605 -0.004890 0.000000 0.026374 0.000000
# 6 0.000000 0.000000 0.000000 0.002487 0.000000 0.009134
#
#
# Mechanical properties :
#
#
# Convention : Reuss Voigt Hill
#
# Bulk Modulus (GPa) = 41.07135 69.82279 55.44707
# Shear Modulus (GPa) = 37.28066 -102.95388 -32.83661
#
# Velocity S-wave (km/s) = 4.15440 -6.90380 -3.89893
# Velocity P-wave (km/s) = 6.48275 5.58798 2.32385
#
# Compressibility (1/GPa) = 0.02434787
#
# Stress axis : x y z
#
# Youngs Moduli (GPa) = 126.01066 27.24630 75.93995
#
# Poissons Ratio (x) = -0.00830 0.19749
# Poissons Ratio (y) = -0.03838 1.09606
# Poissons Ratio (z) = 0.32770 0.39325
#
# Static dielectric constant tensor:
#      x y z
#    x 1.838460 0.000000 0.009630 
#    y 0.000000 1.789870 0.000000 
#    z 0.009630 0.000000 1.864120 
# 
# From -- ./inp_files/15174.got.cif
#   From: 2010.05.17/outbox.cif.g08.bks.cpg/sg10_8_cif.got.tgz:15174.got - 2010.06.03 11:33:40.
