data_PCOD9153799
_publ_section_title
;
Structure prediction by ZEFSAII (Michael W. Deem and Ramdas Pophale) SiO2 
 PCOD9153799
Probable space group: P 2/M
;
_chemical_formula_sum "Si O2"
_cell_formula_units_Z 16
_cell_length_a 7.242777
_cell_length_b 8.077156
_cell_length_c 20.414112
_cell_angle_alpha 90.000000
_cell_angle_beta 137.552824
_cell_angle_gamma 90.000000
_cell_volume 806.009314
_symmetry_space_group_name_H-M "P 2/M"
_symmetry_group_IT_number 10
_symmetry_cell_setting 'monoclinic'
loop_
_space_group_symop_operation_xyz
x,y,z
-x,y,-z
-x,-y,-z
x,-y,z
loop_
_atom_site_type_symbol
_atom_site_label
_atom_site_fract_x
_atom_site_fract_y
_atom_site_fract_z
Si Si1 0.685361 0.000000 0.401354
Si Si2 0.253453 0.319788 0.796448
Si Si3 0.921429 0.000000 0.055192
Si Si4 0.600594 0.307972 0.601921
Si Si5 0.500000 0.742662 0.000000
Si Si6 0.478537 0.000000 0.783848
O O1 0.540151 0.164576 0.392122
O O2 0.000000 0.000000 0.500000
O O3 0.697560 0.000000 0.326551
O O4 0.325565 0.500000 0.785657
O O5 0.929656 0.292974 0.698545
O O6 0.413667 0.164143 0.808268
O O7 0.339215 0.330619 0.895400
O O8 0.738198 0.152878 0.027814
O O9 0.215535 0.000000 0.164895
O O10 0.000000 0.000000 0.000000
O O11 0.500000 0.285793 0.500000
O O12 0.530655 0.500000 0.601590
#
# Coordination Sequence:
#
# PCOD9153799 Si02
#       6
#     2   4   2   4   2   2
#     4  12  24  37  62  94 123 158 206 255 314 370
#     4  11  23  40  64  91 121 164 209 255 313 371
#     4  11  20  38  63  91 121 166 206 251 319 364
#     4  10  22  42  64  87 120 162 206 254 312 372
#     4  11  21  40  64  89 129 164 213 259 306 379
#     4  12  23  40  61  91 128 160 203 260 311 373
#
# _framework density 19.850885999999999
#
# number of rings (size 3 to 8) (size 9 to 14) (size 15 to 20)
#    0.000    1.000    2.500    5.250    0.000    1.500 
#    0.000    3.750    0.000    0.000    0.000    0.000 
#    0.000    0.000    0.000    0.000    0.000    0.000 
#
# Total GULP energy -89180.666281 kJ/mol
# GULP energy per Si atom -5573.791643 kJ/mol
# Density = 1.980570 g / cm^3
# Si number density = 19.850886 Si / 1000 Ang^3
#
#
#
# Elastic Constant Matrix: (Units=GPa)
#
#
# Indices 1 2 3 4 5 6 
#
# 1 89.4043 75.2260 31.2514 0.0000 3.3759 0.0000
# 2 75.2260 165.7329 32.6402 0.0000 0.7191 0.0000
# 3 31.2514 32.6402 164.2577 0.0000 2.9686 0.0000
# 4 0.0000 0.0000 0.0000 40.7529 0.0000 -5.8236
# 5 3.3759 0.7191 2.9686 0.0000 45.5147 0.0000
# 6 0.0000 0.0000 0.0000 -5.8236 0.0000 -8.2347
#
#
#
# Elastic Compliance Matrix: (Units=1/GPa)
#
#
# Indices 1 2 3 4 5 6 
#
# 1 0.018733 -0.008118 -0.001931 0.000000 -0.001135 0.000000
# 2 -0.008118 0.009797 -0.000411 0.000000 0.000474 0.000000
# 3 -0.001931 -0.000411 0.006542 0.000000 -0.000277 0.000000
# 4 0.000000 0.000000 0.000000 0.022286 0.000000 -0.015761
# 5 -0.001135 0.000474 -0.000277 0.000000 0.022066 0.000000
# 6 0.000000 0.000000 0.000000 -0.015761 0.000000 -0.110291
#
#
# Mechanical properties :
#
#
# Convention : Reuss Voigt Hill
#
# Bulk Modulus (GPa) = 70.65165 77.51445 74.08305
# Shear Modulus (GPa) = -955.94886 34.29173 -460.82857
#
# Velocity S-wave (km/s) = -21.96839 4.16079 -15.25284
# Velocity P-wave (km/s) = 24.65384 7.88771 16.51660
#
# Compressibility (1/GPa) = 0.01415395
#
# Stress axis : x y z
#
# Youngs Moduli (GPa) = 53.38072 102.06793 152.85942
#
# Poissons Ratio (x) = 0.82858 0.29510
# Poissons Ratio (y) = 0.43334 0.06282
# Poissons Ratio (z) = 0.10305 0.04194
#
# Static dielectric constant tensor:
#      x y z
#    x 1.647460 0.000000 0.017330 
#    y 0.000000 1.725540 0.000000 
#    z 0.017330 0.000000 1.873590 
# 
# From -- ./inp_files/8516.got.cif
#   From: 2010.05.17/outbox.cif.g08.bks.cpg/sg10_5_cif.got.tgz:8516.got - 2010.06.03 11:33:40.
