data_PCOD9153151
_publ_section_title
;
Structure prediction by ZEFSAII (Michael W. Deem and Ramdas Pophale) SiO2 
 PCOD9153151
Probable space group: P 2/M
;
_chemical_formula_sum "Si O2"
_cell_formula_units_Z 24
_cell_length_a 20.457244
_cell_length_b 11.554032
_cell_length_c 20.428133
_cell_angle_alpha 90.000000
_cell_angle_beta 14.290770
_cell_angle_gamma 90.000000
_cell_volume 1191.873106
_symmetry_space_group_name_H-M "P 2/M"
_symmetry_group_IT_number 10
_symmetry_cell_setting 'monoclinic'
loop_
_space_group_symop_operation_xyz
x,y,z
-x,y,-z
-x,-y,-z
x,-y,z
loop_
_atom_site_type_symbol
_atom_site_label
_atom_site_fract_x
_atom_site_fract_y
_atom_site_fract_z
Si Si1 0.880938 0.301449 0.773033
Si Si2 0.228653 0.500000 0.224593
Si Si3 0.771616 0.500000 0.275491
Si Si4 0.307140 0.734811 0.568961
Si Si5 0.769854 0.138660 0.771666
Si Si6 0.576506 0.639222 0.687016
Si Si7 0.152611 0.137200 0.920596
O O1 0.796628 0.391818 0.799055
O O2 0.822992 0.181145 0.793406
O O3 0.183884 0.323606 0.497945
O O4 0.698667 0.323884 0.012830
O O5 0.000000 0.500000 0.500000
O O6 0.500000 0.500000 0.000000
O O7 0.500000 0.500000 0.500000
O O8 0.774900 0.615757 0.315492
O O9 0.000000 0.500000 0.000000
O O10 0.375023 0.701553 0.428891
O O11 0.572749 0.792336 0.341616
O O12 0.057354 0.819731 0.821259
O O13 0.000000 0.180155 0.500000
O O14 0.766724 0.000000 0.774434
O O15 0.500000 0.180452 0.000000
O O16 0.580548 0.500000 0.674964
O O17 0.206088 0.000000 0.874068
O O18 0.000000 0.158251 0.000000
#
# Coordination Sequence:
#
# PCOD9153151 Si02
#       7
#     4   2   2   4   4   4   4
#     4  12  23  40  63  89 126 163 214 250 314 379
#     4  12  22  34  58  90 122 154 201 266 315 372
#     4  12  24  38  64  98 130 160 210 276 324 378
#     4  12  24  43  67  96 132 173 222 261 326 389
#     4  10  21  40  64  90 122 159 201 258 321 370
#     4  12  24  44  61  89 127 179 205 255 314 379
#     4  11  24  44  70  98 132 171 213 272 334 386
#
# _framework density 20.136372000000001
#
# number of rings (size 3 to 8) (size 9 to 14) (size 15 to 20)
#    0.000    0.500    2.500    7.500    0.000    1.333 
#    0.000    5.000    0.000    0.000    0.000    0.000 
#    0.000    0.000    0.000    0.000    0.000    0.000 
#
# Total GULP energy -134319.539543 kJ/mol
# GULP energy per Si atom -5596.647481 kJ/mol
# Density = 2.009054 g / cm^3
# Si number density = 20.136372 Si / 1000 Ang^3
#
#
#
# Elastic Constant Matrix: (Units=GPa)
#
#
# Indices 1 2 3 4 5 6 
#
# 1 65.6436 27.6167 4.5193 0.0000 14.2736 0.0000
# 2 27.6167 83.7603 26.4428 0.0000 0.8169 0.0000
# 3 4.5193 26.4428 116.0539 0.0000 7.7173 0.0000
# 4 0.0000 0.0000 0.0000 4.6318 0.0000 5.7788
# 5 14.2736 0.8169 7.7173 0.0000 44.9275 0.0000
# 6 0.0000 0.0000 0.0000 5.7788 0.0000 26.3371
#
#
#
# Elastic Compliance Matrix: (Units=1/GPa)
#
#
# Indices 1 2 3 4 5 6 
#
# 1 0.019315 -0.006682 0.001184 0.000000 -0.006218 0.000000
# 2 -0.006682 0.015179 -0.003359 0.000000 0.002424 0.000000
# 3 0.001184 -0.003359 0.009465 0.000000 -0.001941 0.000000
# 4 0.000000 0.000000 0.000000 0.297275 0.000000 -0.065227
# 5 -0.006218 0.002424 -0.001941 0.000000 0.024523 0.000000
# 6 0.000000 0.000000 0.000000 -0.065227 0.000000 0.052281
#
#
# Mechanical properties :
#
#
# Convention : Reuss Voigt Hill
#
# Bulk Modulus (GPa) = 38.10299 42.51283 40.30791
# Shear Modulus (GPa) = 11.24857 28.97121 20.10989
#
# Velocity S-wave (km/s) = 2.36608 3.79720 3.16363
# Velocity P-wave (km/s) = 5.14082 6.35478 5.77976
#
# Compressibility (1/GPa) = 0.02624466
#
# Stress axis : x y z
#
# Youngs Moduli (GPa) = 51.77219 65.88160 105.65130
#
# Poissons Ratio (x) = 0.44019 -0.12506
# Poissons Ratio (y) = 0.34592 0.35493
# Poissons Ratio (z) = -0.06128 0.22133
#
# Static dielectric constant tensor:
#      x y z
#    x 1.681750 0.000000 0.008740 
#    y 0.000000 1.823180 0.000000 
#    z 0.008740 0.000000 1.677940 
# 
# From -- ./inp_files/90802.got.cif
#   From: 2010.05.17/outbox.cif.g08.bks.cpg/sg10_46_cif.got.tgz:90802.got - 2010.06.03 11:33:40.
