data_PCOD9153412
_publ_section_title
;
Structure prediction by ZEFSAII (Michael W. Deem and Ramdas Pophale) SiO2 
 PCOD9153412
Probable space group: P 2/M
;
_chemical_formula_sum "Si O2"
_cell_formula_units_Z 26
_cell_length_a 11.992505
_cell_length_b 14.425246
_cell_length_c 8.999338
_cell_angle_alpha 90.000000
_cell_angle_beta 50.639702
_cell_angle_gamma 90.000000
_cell_volume 1203.706203
_symmetry_space_group_name_H-M "P 2/M"
_symmetry_group_IT_number 10
_symmetry_cell_setting 'monoclinic'
loop_
_space_group_symop_operation_xyz
x,y,z
-x,y,-z
-x,-y,-z
x,-y,z
loop_
_atom_site_type_symbol
_atom_site_label
_atom_site_fract_x
_atom_site_fract_y
_atom_site_fract_z
Si Si1 0.898054 0.896678 0.927948
Si Si2 0.576856 0.763121 0.777449
Si Si3 0.165616 0.892258 0.349671
Si Si4 0.217172 0.609819 0.387544
Si Si5 0.594052 0.101504 0.273368
Si Si6 0.917158 0.389187 0.813048
Si Si7 0.000000 0.734554 0.000000
O O1 0.764923 0.890258 0.155007
O O2 0.962571 0.000000 0.875217
O O3 0.813896 0.888210 0.844321
O O4 0.009344 0.814122 0.861471
O O5 0.714669 0.831693 0.673307
O O6 0.645484 0.665894 0.673171
O O7 0.463254 0.811481 0.767719
O O8 0.500000 0.753293 0.000000
O O9 0.000000 0.859742 0.500000
O O10 0.171432 0.000000 0.392921
O O11 0.239576 0.500000 0.364945
O O12 0.180928 0.639251 0.246533
O O13 0.078993 0.626393 0.610401
O O14 0.500000 0.099240 0.500000
O O15 0.572156 0.000000 0.216284
O O16 0.899383 0.500000 0.849254
O O17 0.902281 0.335812 0.982880
#
# Coordination Sequence:
#
# PCOD9153412 Si02
#       7
#     4   4   4   4   4   4   2
#     4  10  22  38  54  86 128 162 195 244 298 345
#     4  12  23  36  65  90 115 157 203 242 297 358
#     4  10  22  38  59  89 124 158 203 255 293 338
#     4   9  21  41  62  86 117 150 191 250 304 356
#     4  10  23  41  58  81 122 166 202 236 285 354
#     4   9  20  39  62  87 117 151 192 245 304 356
#     4  12  22  32  60  90 116 154 196 246 288 354
#
# _framework density 21.599955000000001
#
# number of rings (size 3 to 8) (size 9 to 14) (size 15 to 20)
#    0.000    1.846    1.538    2.769    6.462    0.923 
#    0.000    4.615    0.000    0.462    0.000    0.000 
#    0.000    0.000    0.000    0.000    0.000    0.000 
#
# Total GULP energy -144833.011252 kJ/mol
# GULP energy per Si atom -5570.500433 kJ/mol
# Density = 2.155079 g / cm^3
# Si number density = 21.599955 Si / 1000 Ang^3
#
#
#
# Elastic Constant Matrix: (Units=GPa)
#
#
# Indices 1 2 3 4 5 6 
#
# 1 47.1687 36.6758 1.1502 0.0000 -3.2840 0.0000
# 2 36.6758 105.9744 10.8089 0.0000 0.1310 0.0000
# 3 1.1502 10.8089 52.1804 0.0000 -11.7396 0.0000
# 4 0.0000 0.0000 0.0000 14.4267 0.0000 -2.5512
# 5 -3.2840 0.1310 -11.7396 0.0000 28.9415 0.0000
# 6 0.0000 0.0000 0.0000 -2.5512 0.0000 8.2583
#
#
#
# Elastic Compliance Matrix: (Units=1/GPa)
#
#
# Indices 1 2 3 4 5 6 
#
# 1 0.029623 -0.010515 0.002522 0.000000 0.004432 0.000000
# 2 -0.010515 0.013395 -0.003109 0.000000 -0.002515 0.000000
# 3 0.002522 -0.003109 0.021811 0.000000 0.009147 0.000000
# 4 0.000000 0.000000 0.000000 0.073321 0.000000 0.022650
# 5 0.004432 -0.002515 0.009147 0.000000 0.038777 0.000000
# 6 0.000000 0.000000 0.000000 0.022650 0.000000 0.128087
#
#
# Mechanical properties :
#
#
# Convention : Reuss Voigt Hill
#
# Bulk Modulus (GPa) = 23.45950 33.62147 28.54048
# Shear Modulus (GPa) = 14.64445 20.77122 17.70784
#
# Velocity S-wave (km/s) = 2.60664 3.10438 2.86634
# Velocity P-wave (km/s) = 4.46586 5.33375 4.91898
#
# Compressibility (1/GPa) = 0.04262666
#
# Stress axis : x y z
#
# Youngs Moduli (GPa) = 33.75718 74.65234 45.84916
#
# Poissons Ratio (x) = 0.78496 -0.11564
# Poissons Ratio (y) = 0.35495 0.14254
# Poissons Ratio (z) = -0.08514 0.23208
#
# Static dielectric constant tensor:
#      x y z
#    x 1.796830 0.000000 0.026020 
#    y 0.000000 1.811810 0.000000 
#    z 0.026020 0.000000 1.896220 
# 
# From -- ./inp_files/24828.got.cif
#   From: 2010.05.17/outbox.cif.g08.bks.cpg/sg10_13_cif.got.tgz:24828.got - 2010.06.03 11:33:40.
