data_PCOD9153929
_publ_section_title
;
Structure prediction by ZEFSAII (Michael W. Deem and Ramdas Pophale) SiO2 
 PCOD9153929
Probable space group: P 2/M
;
_chemical_formula_sum "Si O2"
_cell_formula_units_Z 30
_cell_length_a 5.427784
_cell_length_b 14.790973
_cell_length_c 18.687461
_cell_angle_alpha 90.000000
_cell_angle_beta 73.013535
_cell_angle_gamma 90.000000
_cell_volume 1434.819494
_symmetry_space_group_name_H-M "P 2/M"
_symmetry_group_IT_number 10
_symmetry_cell_setting 'monoclinic'
loop_
_space_group_symop_operation_xyz
x,y,z
-x,y,-z
-x,-y,-z
x,-y,z
loop_
_atom_site_type_symbol
_atom_site_label
_atom_site_fract_x
_atom_site_fract_y
_atom_site_fract_z
Si Si1 0.328460 0.732308 0.133519
Si Si2 0.660053 0.251711 0.337495
Si Si3 0.211230 0.000000 0.316804
Si Si4 0.078207 0.816135 0.410748
Si Si5 0.123406 0.604058 0.781178
Si Si6 0.394664 0.137096 0.787195
Si Si7 0.255341 0.602888 0.938465
Si Si8 0.921819 0.901338 0.924278
O O1 0.503360 0.777122 0.179049
O O2 0.498664 0.664501 0.073433
O O3 0.227076 0.815518 0.094555
O O4 0.116830 0.671870 0.190898
O O5 0.361637 0.230334 0.380548
O O6 0.695659 0.346047 0.292030
O O7 0.733273 0.171495 0.275113
O O8 0.860232 0.239088 0.385151
O O9 0.096054 0.917676 0.376746
O O10 0.364937 0.923419 0.254602
O O11 0.000000 0.820540 0.500000
O O12 0.063197 0.500000 0.766203
O O13 0.218140 0.600370 0.855542
O O14 0.179946 0.094352 0.855168
O O15 0.291548 0.500000 0.959873
O O16 0.000000 0.638337 0.000000
O O17 0.788449 0.000000 0.928986
O O18 0.000000 0.887932 0.000000
#
# Coordination Sequence:
#
# PCOD9153929 Si02
#       8
#     4   4   2   4   4   4   4   4
#     4  12  23  42  66  92 135 182 242 301 365 414
#     4  11  23  44  69 105 142 180 229 288 357 431
#     4  10  23  40  67  99 139 177 230 294 350 423
#     4  11  25  45  73 104 143 185 230 285 361 444
#     4  11  23  40  66 101 137 179 235 290 358 434
#     4  11  23  39  63  97 133 182 233 293 358 416
#     4  10  23  42  65  98 136 177 235 303 373 430
#     4  11  26  43  63  92 135 189 250 300 348 412
#
# _framework density 20.908555
#
# number of rings (size 3 to 8) (size 9 to 14) (size 15 to 20)
#    0.000    1.067    3.333    2.600    0.933    6.400 
#    0.000    6.667    0.000    4.000    0.000    0.000 
#    0.000    0.000    0.000    0.000    0.000    0.000 
#
# Total GULP energy -167157.951173 kJ/mol
# GULP energy per Si atom -5571.931706 kJ/mol
# Density = 2.086097 g / cm^3
# Si number density = 20.908555 Si / 1000 Ang^3
#
#
#
# Elastic Constant Matrix: (Units=GPa)
#
#
# Indices 1 2 3 4 5 6 
#
# 1 84.2173 30.2172 22.2724 0.0000 -10.6212 0.0000
# 2 30.2172 121.4609 8.2010 0.0000 -23.3489 0.0000
# 3 22.2724 8.2010 102.4064 0.0000 -12.1717 0.0000
# 4 0.0000 0.0000 0.0000 29.1127 0.0000 4.2159
# 5 -10.6212 -23.3489 -12.1717 0.0000 31.4630 0.0000
# 6 0.0000 0.0000 0.0000 4.2159 0.0000 -12.8473
#
#
#
# Elastic Compliance Matrix: (Units=1/GPa)
#
#
# Indices 1 2 3 4 5 6 
#
# 1 0.013813 -0.002983 -0.002593 0.000000 0.001446 0.000000
# 2 -0.002983 0.010248 0.000642 0.000000 0.006846 0.000000
# 3 -0.002593 0.000642 0.010723 0.000000 0.003749 0.000000
# 4 0.000000 0.000000 0.000000 0.032791 0.000000 0.010761
# 5 0.001446 0.006846 0.003749 0.000000 0.038803 0.000000
# 6 0.000000 0.000000 0.000000 0.010761 0.000000 -0.074306
#
#
# Mechanical properties :
#
#
# Convention : Reuss Voigt Hill
#
# Bulk Modulus (GPa) = 40.13749 47.71841 43.92795
# Shear Modulus (GPa) = 99.51096 26.03859 62.77478
#
# Velocity S-wave (km/s) = 6.90628 3.53279 5.48531
# Velocity P-wave (km/s) = 9.10132 6.28592 7.82134
#
# Compressibility (1/GPa) = 0.02491436
#
# Stress axis : x y z
#
# Youngs Moduli (GPa) = 72.39752 97.57941 93.25510
#
# Poissons Ratio (x) = 0.29111 0.24184
# Poissons Ratio (y) = 0.21598 -0.05986
# Poissons Ratio (z) = 0.18775 -0.06263
#
# Static dielectric constant tensor:
#      x y z
#    x 1.825500 0.000000 0.027870 
#    y 0.000000 1.779380 0.000000 
#    z 0.027870 0.000000 1.754110 
# 
# From -- ./inp_files/73520.got.cif
#   From: 2010.05.17/outbox.cif.g08.bks.cpg/sg10_37_cif.got.tgz:73520.got - 2010.06.03 11:33:40.
