data_PCOD9153831
_publ_section_title
;
Structure prediction by ZEFSAII (Michael W. Deem and Ramdas Pophale) SiO2 
 PCOD9153831
Probable space group: P 2/M
;
_chemical_formula_sum "Si O2"
_cell_formula_units_Z 12
_cell_length_a 5.250617
_cell_length_b 19.866317
_cell_length_c 5.194847
_cell_angle_alpha 90.000000
_cell_angle_beta 82.469589
_cell_angle_gamma 90.000000
_cell_volume 537.203235
_symmetry_space_group_name_H-M "P 2/M"
_symmetry_group_IT_number 10
_symmetry_cell_setting 'monoclinic'
loop_
_space_group_symop_operation_xyz
x,y,z
-x,y,-z
-x,-y,-z
x,-y,z
loop_
_atom_site_type_symbol
_atom_site_label
_atom_site_fract_x
_atom_site_fract_y
_atom_site_fract_z
Si Si1 0.326550 0.427911 0.272886
Si Si2 0.000000 0.696313 0.500000
Si Si3 0.000000 0.210845 0.000000
Si Si4 0.184714 0.000000 0.234474
Si Si5 0.500000 0.881983 0.000000
O O1 0.500000 0.434515 0.500000
O O2 0.180156 0.500000 0.260683
O O3 0.186246 0.358309 0.341395
O O4 0.500000 0.421510 0.000000
O O5 0.049331 0.744568 0.737128
O O6 0.743639 0.165199 0.025169
O O7 0.000000 0.000000 0.500000
O O8 0.370724 0.935115 0.214122
O O9 0.000000 0.000000 0.000000
#
# Coordination Sequence:
#
# PCOD9153831 Si02
#       5
#     4   2   2   2   2
#     4  10  22  42  68  97 133 181 242 304 357 415
#     4  12  27  44  68 103 140 196 234 296 358 437
#     4  12  30  45  77 102 158 190 236 290 368 430
#     4  11  26  50  83 109 143 188 244 294 351 415
#     4  11  28  54  72 116 145 192 238 298 349 432
#
# _framework density 22.337917000000001
#
# number of rings (size 3 to 8) (size 9 to 14) (size 15 to 20)
#    0.000    1.000    1.667    2.500    9.333    5.333 
#    0.000    6.667    0.000    0.000    0.000    0.000 
#    0.000    0.000    0.000    0.000    0.000    0.000 
#
# Total GULP energy -66870.904677 kJ/mol
# GULP energy per Si atom -5572.575390 kJ/mol
# Density = 2.228708 g / cm^3
# Si number density = 22.337917 Si / 1000 Ang^3
#
#
#
# Elastic Constant Matrix: (Units=GPa)
#
#
# Indices 1 2 3 4 5 6 
#
# 1 130.7579 102.8730 59.8466 0.0000 -25.9554 0.0000
# 2 102.8730 251.4483 87.5821 0.0000 -10.3137 0.0000
# 3 59.8466 87.5821 215.7669 0.0000 -32.2116 0.0000
# 4 0.0000 0.0000 0.0000 -64.7671 0.0000 -14.5399
# 5 -25.9554 -10.3137 -32.2116 0.0000 43.8186 0.0000
# 6 0.0000 0.0000 0.0000 -14.5399 0.0000 17.8835
#
#
#
# Elastic Compliance Matrix: (Units=1/GPa)
#
#
# Indices 1 2 3 4 5 6 
#
# 1 0.012950 -0.004790 -0.000753 0.000000 0.005989 0.000000
# 2 -0.004790 0.006408 -0.001652 0.000000 -0.002544 0.000000
# 3 -0.000753 -0.001652 0.006054 0.000000 0.003615 0.000000
# 4 0.000000 0.000000 0.000000 -0.013057 0.000000 -0.010616
# 5 0.005989 -0.002544 0.003615 0.000000 0.028428 0.000000
# 6 0.000000 0.000000 0.000000 -0.010616 0.000000 0.047287
#
#
# Mechanical properties :
#
#
# Convention : Reuss Voigt Hill
#
# Bulk Modulus (GPa) = 90.73945 122.06404 106.40174
# Shear Modulus (GPa) = 47.11022 22.56511 34.83767
#
# Velocity S-wave (km/s) = 4.59735 3.18177 3.95343
# Velocity P-wave (km/s) = 8.30001 8.26203 8.28104
#
# Compressibility (1/GPa) = 0.01102057
#
# Stress axis : x y z
#
# Youngs Moduli (GPa) = 77.22021 156.06019 165.18220
#
# Poissons Ratio (x) = 0.74753 0.12445
# Poissons Ratio (y) = 0.36989 0.27290
# Poissons Ratio (z) = 0.05818 0.25783
#
# Static dielectric constant tensor:
#      x y z
#    x 1.919440 0.000000 0.074540 
#    y 0.000000 1.951240 0.000000 
#    z 0.074540 0.000000 1.722860 
# 
# From -- ./inp_files/786.got.cif
#   From: 2010.05.17/outbox.cif.g08.bks.cpg/sg10_1_cif.got.tgz:786.got - 2010.06.03 11:33:40.
