data_PCOD9153039
_publ_section_title
;
Structure prediction by ZEFSAII (Michael W. Deem and Ramdas Pophale) SiO2 
 PCOD9153039
Probable space group: P 2/M
;
_chemical_formula_sum "Si O2"
_cell_formula_units_Z 28
_cell_length_a 19.837822
_cell_length_b 8.364390
_cell_length_c 23.169966
_cell_angle_alpha 90.000000
_cell_angle_beta 159.606935
_cell_angle_gamma 90.000000
_cell_volume 1339.691630
_symmetry_space_group_name_H-M "P 2/M"
_symmetry_group_IT_number 10
_symmetry_cell_setting 'monoclinic'
loop_
_space_group_symop_operation_xyz
x,y,z
-x,y,-z
-x,-y,-z
x,-y,z
loop_
_atom_site_type_symbol
_atom_site_label
_atom_site_fract_x
_atom_site_fract_y
_atom_site_fract_z
Si Si1 0.558037 0.181790 0.411295
Si Si2 0.073604 0.690808 0.231611
Si Si3 0.210868 0.000000 0.750952
Si Si4 0.989214 0.324267 0.560562
Si Si5 0.542416 0.000000 0.936348
Si Si6 0.369331 0.676505 0.645160
Si Si7 0.126212 0.307627 0.046774
Si Si8 0.301482 0.685184 0.002541
O O1 0.714498 0.247840 0.581993
O O2 0.653426 0.199407 0.424128
O O3 0.350166 0.265274 0.237357
O O4 0.519924 0.000000 0.394934
O O5 0.086018 0.500000 0.236285
O O6 0.920907 0.721162 0.160968
O O7 0.974411 0.753878 0.093072
O O8 0.097261 0.165118 0.665469
O O9 0.351233 0.000000 0.917584
O O10 0.317246 0.000000 0.773876
O O11 0.066648 0.500000 0.642003
O O12 0.777823 0.310925 0.419502
O O13 0.000000 0.326605 0.500000
O O14 0.605337 0.834551 0.956369
O O15 0.339425 0.500000 0.594808
O O16 0.581165 0.682376 0.842987
O O17 0.117088 0.500000 0.036710
O O18 0.000000 0.252789 0.000000
O O19 0.319541 0.500000 0.993934
#
# Coordination Sequence:
#
# PCOD9153039 Si02
#       8
#     4   4   2   4   2   4   4   4
#     4  12  26  39  64 101 135 174 216 268 331 398
#     4  10  22  41  66  96 132 170 218 278 326 389
#     4  11  25  42  56  86 127 165 213 273 328 398
#     4  10  22  39  62  88 119 162 214 273 332 399
#     4  11  26  40  60  86 125 171 214 271 327 405
#     4  10  21  39  64  92 124 161 215 274 325 390
#     4  10  22  45  73  97 129 174 221 269 322 389
#     4  10  22  40  65  92 125 171 216 272 334 388
#
# _framework density 20.900333
#
# number of rings (size 3 to 8) (size 9 to 14) (size 15 to 20)
#    0.000    1.571    1.429    2.357    5.000    3.714 
#    0.000    4.286    0.000    0.000    0.000    0.000 
#    0.000    0.000    0.000    0.000    0.000    0.000 
#
# Total GULP energy -156188.143413 kJ/mol
# GULP energy per Si atom -5578.147979 kJ/mol
# Density = 2.085276 g / cm^3
# Si number density = 20.900333 Si / 1000 Ang^3
#
#
#
# Elastic Constant Matrix: (Units=GPa)
#
#
# Indices 1 2 3 4 5 6 
#
# 1 70.1926 22.5503 36.6040 0.0000 10.9173 0.0000
# 2 22.5503 86.1351 28.9044 0.0000 1.9736 0.0000
# 3 36.6040 28.9044 114.1620 0.0000 2.1764 0.0000
# 4 0.0000 0.0000 0.0000 19.4134 0.0000 5.8518
# 5 10.9173 1.9736 2.1764 0.0000 20.6478 0.0000
# 6 0.0000 0.0000 0.0000 5.8518 0.0000 52.8918
#
#
#
# Elastic Compliance Matrix: (Units=1/GPa)
#
#
# Indices 1 2 3 4 5 6 
#
# 1 0.019463 -0.003110 -0.005273 0.000000 -0.009438 0.000000
# 2 -0.003110 0.013200 -0.002357 0.000000 0.000631 0.000000
# 3 -0.005273 -0.002357 0.011012 0.000000 0.001853 0.000000
# 4 0.000000 0.000000 0.000000 0.053288 0.000000 -0.005896
# 5 -0.009438 0.000631 0.001853 0.000000 0.053166 0.000000
# 6 0.000000 0.000000 0.000000 -0.005896 0.000000 0.019559
#
#
# Mechanical properties :
#
#
# Convention : Reuss Voigt Hill
#
# Bulk Modulus (GPa) = 45.05487 49.62300 47.33893
# Shear Modulus (GPa) = 25.18043 30.75266 27.96654
#
# Velocity S-wave (km/s) = 3.47477 3.84004 3.66196
# Velocity P-wave (km/s) = 6.14024 6.59207 6.37016
#
# Compressibility (1/GPa) = 0.02219516
#
# Stress axis : x y z
#
# Youngs Moduli (GPa) = 51.37850 75.75570 90.81210
#
# Poissons Ratio (x) = 0.23558 0.47888
# Poissons Ratio (y) = 0.15977 0.21405
# Poissons Ratio (z) = 0.27094 0.17856
#
# Static dielectric constant tensor:
#      x y z
#    x 1.787980 0.000000 0.030620 
#    y 0.000000 1.711600 0.000000 
#    z 0.030620 0.000000 1.786580 
# 
# From -- ./inp_files/90432.got.cif
#   From: 2010.05.17/outbox.cif.g08.bks.cpg/sg10_46_cif.got.tgz:90432.got - 2010.06.03 11:33:40.
