data_PCOD9153452
_publ_section_title
;
Structure prediction by ZEFSAII (Michael W. Deem and Ramdas Pophale) SiO2 
 PCOD9153452
Probable space group: P 2/M
;
_chemical_formula_sum "Si O2"
_cell_formula_units_Z 16
_cell_length_a 13.420878
_cell_length_b 7.555340
_cell_length_c 10.566548
_cell_angle_alpha 90.000000
_cell_angle_beta 130.734680
_cell_angle_gamma 90.000000
_cell_volume 811.872808
_symmetry_space_group_name_H-M "P 2/M"
_symmetry_group_IT_number 10
_symmetry_cell_setting 'monoclinic'
loop_
_space_group_symop_operation_xyz
x,y,z
-x,y,-z
-x,-y,-z
x,-y,z
loop_
_atom_site_type_symbol
_atom_site_label
_atom_site_fract_x
_atom_site_fract_y
_atom_site_fract_z
Si Si1 0.212956 0.500000 0.114337
Si Si2 0.879902 0.209584 0.497203
Si Si3 0.530726 0.298493 0.663726
Si Si4 0.401591 0.203250 0.815951
Si Si5 0.943693 0.500000 0.753122
O O1 0.313775 0.334344 0.189615
O O2 0.141667 0.500000 0.190163
O O3 0.097764 0.500000 0.916781
O O4 0.744627 0.276236 0.321356
O O5 0.908627 0.327577 0.642710
O O6 0.000000 0.228310 0.500000
O O7 0.865172 0.000000 0.515787
O O8 0.500000 0.221020 0.500000
O O9 0.472459 0.500000 0.613203
O O10 0.468986 0.207831 0.734023
O O11 0.381589 0.000000 0.840446
O O12 0.500000 0.286989 0.000000
#
# Coordination Sequence:
#
# PCOD9153452 Si02
#       5
#     2   4   4   4   2
#     4   9  21  36  58  91 114 151 200 248 284 361
#     4  10  23  40  60  87 121 158 198 242 295 356
#     4   9  19  36  58  83 116 150 189 242 295 339
#     4  10  22  38  59  88 119 152 195 248 298 350
#     4  11  21  40  62  84 122 158 198 242 297 352
#
# _framework density 19.707519000000001
#
# number of rings (size 3 to 8) (size 9 to 14) (size 15 to 20)
#    0.750    1.500    0.000    1.875    5.250    1.000 
#    0.000    3.750    0.000    0.000    0.000    0.000 
#    0.000    0.000    0.000    0.000    0.000    0.000 
#
# Total GULP energy -89200.034923 kJ/mol
# GULP energy per Si atom -5575.002183 kJ/mol
# Density = 1.966266 g / cm^3
# Si number density = 19.707519 Si / 1000 Ang^3
#
#
#
# Elastic Constant Matrix: (Units=GPa)
#
#
# Indices 1 2 3 4 5 6 
#
# 1 97.9695 11.8026 69.8489 0.0000 25.4230 0.0000
# 2 11.8026 60.6855 29.3956 0.0000 2.6386 0.0000
# 3 69.8489 29.3956 184.5852 0.0000 27.7788 0.0000
# 4 0.0000 0.0000 0.0000 4.0026 0.0000 -12.4093
# 5 25.4230 2.6386 27.7788 0.0000 40.6088 0.0000
# 6 0.0000 0.0000 0.0000 -12.4093 0.0000 21.2216
#
#
#
# Elastic Compliance Matrix: (Units=1/GPa)
#
#
# Indices 1 2 3 4 5 6 
#
# 1 0.015291 -0.000386 -0.004780 0.000000 -0.006278 0.000000
# 2 -0.000386 0.017893 -0.002859 0.000000 0.001035 0.000000
# 3 -0.004780 -0.002859 0.008030 0.000000 -0.002315 0.000000
# 4 0.000000 0.000000 0.000000 -0.307343 0.000000 -0.179718
# 5 -0.006278 0.001035 -0.002315 0.000000 0.030072 0.000000
# 6 0.000000 0.000000 0.000000 -0.179718 0.000000 -0.057968
#
#
# Mechanical properties :
#
#
# Convention : Reuss Voigt Hill
#
# Bulk Modulus (GPa) = 39.73857 62.81493 51.27675
# Shear Modulus (GPa) = -18.54687 28.64615 5.04964
#
# Velocity S-wave (km/s) = -3.07107 3.81670 1.60245
# Velocity P-wave (km/s) = 2.76272 7.16699 5.43131
#
# Compressibility (1/GPa) = 0.02516447
#
# Stress axis : x y z
#
# Youngs Moduli (GPa) = 65.39872 55.88633 124.53169
#
# Poissons Ratio (x) = 0.02154 0.59526
# Poissons Ratio (y) = 0.02521 0.35609
# Poissons Ratio (z) = 0.31261 0.15980
#
# Static dielectric constant tensor:
#      x y z
#    x 1.661720 0.000000 0.022640 
#    y 0.000000 1.711500 0.000000 
#    z 0.022640 0.000000 1.710980 
# 
# From -- ./inp_files/22565.got.cif
#   From: 2010.05.17/outbox.cif.g08.bks.cpg/sg10_12_cif.got.tgz:22565.got - 2010.06.03 11:33:40.
