data_PCOD9153243
_publ_section_title
;
Structure prediction by ZEFSAII (Michael W. Deem and Ramdas Pophale) SiO2 
 PCOD9153243
Probable space group: P 2/M
;
_chemical_formula_sum "Si O2"
_cell_formula_units_Z 28
_cell_length_a 10.056172
_cell_length_b 20.433589
_cell_length_c 5.033854
_cell_angle_alpha 90.000000
_cell_angle_beta 88.964637
_cell_angle_gamma 90.000000
_cell_volume 1034.205993
_symmetry_space_group_name_H-M "P 2/M"
_symmetry_group_IT_number 10
_symmetry_cell_setting 'monoclinic'
loop_
_space_group_symop_operation_xyz
x,y,z
-x,y,-z
-x,-y,-z
x,-y,z
loop_
_atom_site_type_symbol
_atom_site_label
_atom_site_fract_x
_atom_site_fract_y
_atom_site_fract_z
Si Si1 0.624236 0.214812 0.195483
Si Si2 0.885213 0.910932 0.805256
Si Si3 0.887331 0.761541 0.823388
Si Si4 0.591162 0.424125 0.232602
Si Si5 0.097636 0.425418 0.244810
Si Si6 0.710950 0.071965 0.307827
Si Si7 0.745770 0.325068 0.487484
O O1 0.641174 0.143446 0.337514
O O2 0.631390 0.272960 0.412679
O O3 0.500000 0.214293 0.000000
O O4 0.751812 0.232208 0.002321
O O5 0.923613 0.835856 0.768130
O O6 0.834676 0.930441 0.513698
O O7 0.758851 0.922663 0.000703
O O8 0.000000 0.936393 0.000000
O O9 0.859980 0.726699 0.547529
O O10 0.000000 0.729603 0.000000
O O11 0.500000 0.419605 0.500000
O O12 0.623481 0.500000 0.186217
O O13 0.720363 0.381074 0.274789
O O14 0.500000 0.398906 0.000000
O O15 0.150226 0.500000 0.257453
O O16 0.217489 0.373743 0.268698
O O17 0.000000 0.414975 0.500000
O O18 0.000000 0.420303 0.000000
O O19 0.644083 0.000000 0.340287
#
# Coordination Sequence:
#
# PCOD9153243 Si02
#       7
#     4   4   4   4   4   4   4
#     4  11  27  46  68 103 144 187 239 297 357 425
#     4  10  21  41  66 100 141 183 230 290 354 419
#     4  10  24  43  68 102 143 181 230 291 356 421
#     4  10  24  44  66  96 136 182 234 286 346 418
#     4  10  24  44  67 100 141 184 234 288 351 425
#     4  11  23  43  67  99 138 187 237 291 354 425
#     4  12  24  39  71  98 139 184 231 299 347 428
#
# _framework density 27.073913000000001
#
# number of rings (size 3 to 8) (size 9 to 14) (size 15 to 20)
#    0.000    1.429    1.429    2.143    8.000    2.000 
#    0.000    4.286    0.000    2.571    0.000    0.000 
#    0.000    0.000    0.000    0.000    0.000    0.000 
#
# Total GULP energy -156320.616561 kJ/mol
# GULP energy per Si atom -5582.879163 kJ/mol
# Density = 2.701229 g / cm^3
# Si number density = 27.073913 Si / 1000 Ang^3
#
#
#
# Elastic Constant Matrix: (Units=GPa)
#
#
# Indices 1 2 3 4 5 6 
#
# 1 121.5494 28.4507 60.1403 0.0000 21.6423 0.0000
# 2 28.4507 216.8722 36.0393 0.0000 44.3901 0.0000
# 3 60.1403 36.0393 200.5891 0.0000 31.8437 0.0000
# 4 0.0000 0.0000 0.0000 -548.4747 0.0000 -409.4939
# 5 21.6423 44.3901 31.8437 0.0000 68.3803 0.0000
# 6 0.0000 0.0000 0.0000 -409.4939 0.0000 -319.3450
#
#
#
# Elastic Compliance Matrix: (Units=1/GPa)
#
#
# Indices 1 2 3 4 5 6 
#
# 1 0.009936 -0.000546 -0.002633 0.000000 -0.001564 0.000000
# 2 -0.000546 0.005384 -0.000298 0.000000 -0.003183 0.000000
# 3 -0.002633 -0.000298 0.006117 0.000000 -0.001822 0.000000
# 4 0.000000 0.000000 0.000000 -0.042765 0.000000 0.054837
# 5 -0.001564 -0.003183 -0.001822 0.000000 0.018034 0.000000
# 6 0.000000 0.000000 0.000000 0.054837 0.000000 -0.073449
#
#
# Mechanical properties :
#
#
# Convention : Reuss Voigt Hill
#
# Bulk Modulus (GPa) = 69.04230 87.58570 78.31400
# Shear Modulus (GPa) = -76.96902 -132.26253 -104.61577
#
# Velocity S-wave (km/s) = -5.33769 -6.99703 -6.22292
# Velocity P-wave (km/s) = 3.52578 5.73211 4.75858
#
# Compressibility (1/GPa) = 0.01448387
#
# Stress axis : x y z
#
# Youngs Moduli (GPa) = 100.64457 185.74430 163.46711
#
# Poissons Ratio (x) = 0.10137 0.43034
# Poissons Ratio (y) = 0.05493 0.04876
# Poissons Ratio (z) = 0.26495 0.05541
#
# Static dielectric constant tensor:
#      x y z
#    x 1.973780 0.000000 -0.277650 
#    y 0.000000 2.117750 0.000000 
#    z -0.277650 0.000000 1.995350 
# 
# From -- ./inp_files/7756.got.cif
#   From: 2010.05.17/outbox.cif.g08.bks.cpg/sg10_4_cif.got.tgz:7756.got - 2010.06.03 11:33:40.
