data_PCOD9153709
_publ_section_title
;
Structure prediction by ZEFSAII (Michael W. Deem and Ramdas Pophale) SiO2 
 PCOD9153709
Probable space group: P 2/M
;
_chemical_formula_sum "Si O2"
_cell_formula_units_Z 32
_cell_length_a 8.692969
_cell_length_b 13.933496
_cell_length_c 13.258926
_cell_angle_alpha 90.000000
_cell_angle_beta 117.210052
_cell_angle_gamma 90.000000
_cell_volume 1428.244396
_symmetry_space_group_name_H-M "P 2/M"
_symmetry_group_IT_number 10
_symmetry_cell_setting 'monoclinic'
loop_
_space_group_symop_operation_xyz
x,y,z
-x,y,-z
-x,-y,-z
x,-y,z
loop_
_atom_site_type_symbol
_atom_site_label
_atom_site_fract_x
_atom_site_fract_y
_atom_site_fract_z
Si Si1 0.457857 0.753895 0.671016
Si Si2 0.733997 0.611068 0.659196
Si Si3 0.723997 0.113241 0.858772
Si Si4 0.804347 0.388954 0.441271
Si Si5 0.064800 0.610722 0.903971
Si Si6 0.997826 0.114059 0.769309
Si Si7 0.824274 0.113036 0.511869
Si Si8 0.294820 0.790050 0.940529
O O1 0.596075 0.689102 0.652958
O O2 0.565306 0.819148 0.779230
O O3 0.319529 0.674341 0.665474
O O4 0.337677 0.825350 0.571583
O O5 0.679659 0.500000 0.666131
O O6 0.752732 0.615968 0.544036
O O7 0.910534 0.627448 0.776246
O O8 0.886176 0.136497 0.835474
O O9 0.686462 0.000000 0.836060
O O10 0.760100 0.139975 0.984206
O O11 0.802601 0.500000 0.409050
O O12 0.000000 0.353220 0.500000
O O13 0.117927 0.500000 0.908706
O O14 0.219134 0.684752 0.934721
O O15 0.000000 0.623656 0.000000
O O16 0.875320 0.140547 0.640100
O O17 0.181835 0.166013 0.816152
O O18 0.026518 0.000000 0.773627
O O19 0.000000 0.126004 0.500000
O O20 0.780885 0.000000 0.494590
O O21 0.500000 0.791516 0.000000
#
# Coordination Sequence:
#
# PCOD9153709 Si02
#       8
#     4   4   4   4   4   4   4   4
#     4  12  23  37  66  97 130 172 216 267 328 389
#     4  10  22  40  66  98 134 172 216 273 327 389
#     4  11  26  45  66  98 134 172 224 280 329 390
#     4  10  23  41  61  91 132 176 220 265 322 389
#     4  10  22  44  71  98 132 173 217 268 329 397
#     4  10  23  44  68  91 127 177 225 273 332 395
#     4  10  24  43  64  95 135 179 222 273 333 396
#     4  12  26  42  70 102 131 171 222 275 340 392
#
# _framework density 22.405128999999999
#
# number of rings (size 3 to 8) (size 9 to 14) (size 15 to 20)
#    0.000    1.375    0.000    4.500    7.000    4.250 
#    0.000    2.500    0.000    0.000    0.000    0.000 
#    0.000    0.000    0.000    0.000    0.000    0.000 
#
# Total GULP energy -179071.402519 kJ/mol
# GULP energy per Si atom -5595.981329 kJ/mol
# Density = 2.235413 g / cm^3
# Si number density = 22.405129 Si / 1000 Ang^3
#
#
#
# Elastic Constant Matrix: (Units=GPa)
#
#
# Indices 1 2 3 4 5 6 
#
# 1 58.9805 23.0089 16.5963 0.0000 18.3288 0.0000
# 2 23.0089 91.6177 30.2522 0.0000 20.2485 0.0000
# 3 16.5963 30.2522 61.2329 0.0000 21.5940 0.0000
# 4 0.0000 0.0000 0.0000 -8.5546 0.0000 6.2441
# 5 18.3288 20.2485 21.5940 0.0000 33.3155 0.0000
# 6 0.0000 0.0000 0.0000 6.2441 0.0000 19.1833
#
#
#
# Elastic Compliance Matrix: (Units=1/GPa)
#
#
# Indices 1 2 3 4 5 6 
#
# 1 0.021270 -0.002956 -0.001052 0.000000 -0.009224 0.000000
# 2 -0.002956 0.014091 -0.004814 0.000000 -0.003817 0.000000
# 3 -0.001052 -0.004814 0.023021 0.000000 -0.011417 0.000000
# 4 0.000000 0.000000 0.000000 -0.094455 0.000000 0.030745
# 5 -0.009224 -0.003817 -0.011417 0.000000 0.044811 0.000000
# 6 0.000000 0.000000 0.000000 0.030745 0.000000 0.042122
#
#
# Mechanical properties :
#
#
# Convention : Reuss Voigt Hill
#
# Bulk Modulus (GPa) = 24.54726 39.06067 31.80397
# Shear Modulus (GPa) = 60.91489 18.25373 39.58431
#
# Velocity S-wave (km/s) = 5.21986 2.85741 4.20784
# Velocity P-wave (km/s) = 6.87816 5.32523 6.15090
#
# Compressibility (1/GPa) = 0.04073774
#
# Stress axis : x y z
#
# Youngs Moduli (GPa) = 47.01402 70.96937 43.43911
#
# Poissons Ratio (x) = 0.20978 0.04569
# Poissons Ratio (y) = 0.13897 0.20912
# Poissons Ratio (z) = 0.04945 0.34165
#
# Static dielectric constant tensor:
#      x y z
#    x 1.821870 0.000000 -0.020590 
#    y 0.000000 1.827160 0.000000 
#    z -0.020590 0.000000 1.820950 
# 
# From -- ./inp_files/61885.got.cif
#   From: 2010.05.17/outbox.cif.g08.bks.cpg/sg10_31_cif.got.tgz:61885.got - 2010.06.03 11:33:40.
