data_PCOD9153012
_publ_section_title
;
Structure prediction by ZEFSAII (Michael W. Deem and Ramdas Pophale) SiO2 
 PCOD9153012
Probable space group: P 2/M
;
_chemical_formula_sum "Si O2"
_cell_formula_units_Z 18
_cell_length_a 5.134478
_cell_length_b 25.281311
_cell_length_c 7.511023
_cell_angle_alpha 90.000000
_cell_angle_beta 114.540073
_cell_angle_gamma 90.000000
_cell_volume 886.909557
_symmetry_space_group_name_H-M "P 2/M"
_symmetry_group_IT_number 10
_symmetry_cell_setting 'monoclinic'
loop_
_space_group_symop_operation_xyz
x,y,z
-x,y,-z
-x,-y,-z
x,-y,z
loop_
_atom_site_type_symbol
_atom_site_label
_atom_site_fract_x
_atom_site_fract_y
_atom_site_fract_z
Si Si1 0.672864 0.559759 0.864629
Si Si2 0.500000 0.270673 0.000000
Si Si3 0.164251 0.883543 0.358439
Si Si4 0.662277 0.342683 0.377180
Si Si5 0.000000 0.803554 0.000000
Si Si6 0.835287 0.000000 0.639468
O O1 0.679869 0.500000 0.790738
O O2 0.509979 0.602807 0.702518
O O3 0.500000 0.557776 0.000000
O O4 0.000000 0.575640 0.000000
O O5 0.625021 0.307585 0.190739
O O6 0.739667 0.233699 0.982456
O O7 0.500000 0.880289 0.500000
O O8 0.078575 0.840206 0.190253
O O9 0.100198 0.942534 0.261402
O O10 0.000000 0.877463 0.500000
O O11 0.500000 0.316764 0.500000
O O12 0.000000 0.351529 0.500000
O O13 0.500000 0.000000 0.500000
O O14 0.000000 0.000000 0.500000
#
# Coordination Sequence:
#
# PCOD9153012 Si02
#       6
#     4   2   4   4   2   2
#     4  10  21  40  68  98 133 167 199 256 323 380
#     4  12  28  46  61  91 130 160 222 274 310 368
#     4  10  21  39  63  92 127 161 205 257 313 381
#     4  12  26  43  70  95 124 172 215 261 322 379
#     4  12  26  41  66  90 119 172 212 264 320 366
#     4   8  16  33  58  89 124 160 194 249 314 373
#
# _framework density 20.295190000000002
#
# number of rings (size 3 to 8) (size 9 to 14) (size 15 to 20)
#    0.000    1.333    1.111    4.000    1.556    6.667 
#    0.000    0.000    0.000    9.333    0.000    0.000 
#    0.000    0.000    0.000    0.000    0.000    0.000 
#
# Total GULP energy -100584.032738 kJ/mol
# GULP energy per Si atom -5588.001819 kJ/mol
# Density = 2.024900 g / cm^3
# Si number density = 20.295190 Si / 1000 Ang^3
#
#
#
# Elastic Constant Matrix: (Units=GPa)
#
#
# Indices 1 2 3 4 5 6 
#
# 1 171.2998 49.8840 64.5558 0.0000 22.8400 0.0000
# 2 49.8840 146.0936 90.3749 0.0000 12.4453 0.0000
# 3 64.5558 90.3749 126.8996 0.0000 8.0564 0.0000
# 4 0.0000 0.0000 0.0000 -9.7466 0.0000 3.1055
# 5 22.8400 12.4453 8.0564 0.0000 38.6111 0.0000
# 6 0.0000 0.0000 0.0000 3.1055 0.0000 32.9353
#
#
#
# Elastic Compliance Matrix: (Units=1/GPa)
#
#
# Indices 1 2 3 4 5 6 
#
# 1 0.007738 -0.000059 -0.003654 0.000000 -0.003796 0.000000
# 2 -0.000059 0.012415 -0.008675 0.000000 -0.002157 0.000000
# 3 -0.003654 -0.008675 0.015812 0.000000 0.001658 0.000000
# 4 0.000000 0.000000 0.000000 -0.099607 0.000000 0.009392
# 5 -0.003796 -0.002157 0.001658 0.000000 0.028494 0.000000
# 6 0.000000 0.000000 0.000000 0.009392 0.000000 0.029477
#
#
# Mechanical properties :
#
#
# Convention : Reuss Voigt Hill
#
# Bulk Modulus (GPa) = 89.36341 94.88025 92.12183
# Shear Modulus (GPa) = 218.97970 28.32517 123.65244
#
# Velocity S-wave (km/s) = 10.39863 3.73991 7.81404
# Velocity P-wave (km/s) = 13.72235 8.09326 11.26507
#
# Compressibility (1/GPa) = 0.01119026
#
# Stress axis : x y z
#
# Youngs Moduli (GPa) = 129.23552 80.54699 63.24394
#
# Poissons Ratio (x) = 0.00471 0.23107
# Poissons Ratio (y) = 0.00756 0.54864
# Poissons Ratio (z) = 0.47218 0.69875
#
# Static dielectric constant tensor:
#      x y z
#    x 1.695980 0.000000 -0.026390 
#    y 0.000000 1.758600 0.000000 
#    z -0.026390 0.000000 1.700320 
# 
# From -- ./inp_files/15626.got.cif
#   From: 2010.05.17/outbox.cif.g08.bks.cpg/sg10_8_cif.got.tgz:15626.got - 2010.06.03 11:33:40.
