data_PCOD9153113
_publ_section_title
;
Structure prediction by ZEFSAII (Michael W. Deem and Ramdas Pophale) SiO2 
 PCOD9153113
Probable space group: P 2/M
;
_chemical_formula_sum "Si O2"
_cell_formula_units_Z 22
_cell_length_a 9.767667
_cell_length_b 26.429344
_cell_length_c 8.417276
_cell_angle_alpha 90.000000
_cell_angle_beta 148.230218
_cell_angle_gamma 90.000000
_cell_volume 1144.071974
_symmetry_space_group_name_H-M "P 2/M"
_symmetry_group_IT_number 10
_symmetry_cell_setting 'monoclinic'
loop_
_space_group_symop_operation_xyz
x,y,z
-x,y,-z
-x,-y,-z
x,-y,z
loop_
_atom_site_type_symbol
_atom_site_label
_atom_site_fract_x
_atom_site_fract_y
_atom_site_fract_z
Si Si1 0.752840 0.500000 0.639594
Si Si2 0.242017 0.221072 0.351845
Si Si3 0.107147 0.107872 0.283872
Si Si4 0.253978 0.700277 0.645952
Si Si5 0.605012 0.940880 0.924787
Si Si6 0.252491 0.580946 0.643016
O O1 0.500000 0.500000 0.500000
O O2 0.749365 0.547801 0.517103
O O3 0.000000 0.500000 0.000000
O O4 0.500000 0.215413 0.500000
O O5 0.176328 0.167044 0.366461
O O6 0.271469 0.264361 0.510947
O O7 0.000000 0.233634 0.000000
O O8 0.370239 0.077540 0.580633
O O9 0.000000 0.099599 0.000000
O O10 0.868702 0.090341 0.158596
O O11 0.250019 0.640647 0.600151
O O12 0.000000 0.711383 0.500000
O O13 0.500000 0.709260 0.000000
O O14 0.662015 0.000000 0.952744
O O15 0.500000 0.934995 0.000000
O O16 0.000000 0.569590 0.500000
O O17 0.500000 0.570557 0.000000
#
# Coordination Sequence:
#
# PCOD9153113 Si02
#       6
#     2   4   4   4   4   4
#     4  12  24  36  58  92 122 154 204 252 292 346
#     4  11  23  40  60  85 120 154 187 238 296 344
#     4  11  23  40  60  86 117 152 193 231 283 352
#     4  10  22  39  62  90 116 152 203 244 285 350
#     4  11  24  41  61  87 117 149 189 239 291 339
#     4  10  21  40  61  83 119 162 198 240 296 352
#
# _framework density 19.229558000000001
#
# number of rings (size 3 to 8) (size 9 to 14) (size 15 to 20)
#    0.000    1.273    0.000    6.545    0.000    7.273 
#    0.000    0.000    0.000    0.000    0.000    0.000 
#    0.000    0.000    0.000    0.000    0.000    0.000 
#
# Total GULP energy -123051.217249 kJ/mol
# GULP energy per Si atom -5593.237148 kJ/mol
# Density = 1.918579 g / cm^3
# Si number density = 19.229558 Si / 1000 Ang^3
#
#
#
# Elastic Constant Matrix: (Units=GPa)
#
#
# Indices 1 2 3 4 5 6 
#
# 1 119.7326 103.0075 78.9452 0.0000 14.8699 0.0000
# 2 103.0075 128.5391 72.6029 0.0000 0.6765 0.0000
# 3 78.9452 72.6029 140.3582 0.0000 32.3030 0.0000
# 4 0.0000 0.0000 0.0000 2.1517 0.0000 -13.0347
# 5 14.8699 0.6765 32.3030 0.0000 34.5603 0.0000
# 6 0.0000 0.0000 0.0000 -13.0347 0.0000 23.4712
#
#
#
# Elastic Compliance Matrix: (Units=1/GPa)
#
#
# Indices 1 2 3 4 5 6 
#
# 1 0.032859 -0.024277 -0.003541 0.000000 -0.010353 0.000000
# 2 -0.024277 0.030206 -0.005399 0.000000 0.014901 0.000000
# 3 -0.003541 -0.005399 0.014695 0.000000 -0.012106 0.000000
# 4 0.000000 0.000000 0.000000 -0.196574 0.000000 -0.109167
# 5 -0.010353 0.014901 -0.012106 0.000000 0.044413 0.000000
# 6 0.000000 0.000000 0.000000 -0.109167 0.000000 -0.018021
#
#
# Mechanical properties :
#
#
# Convention : Reuss Voigt Hill
#
# Bulk Modulus (GPa) = 88.29878 99.74901 94.02389
# Shear Modulus (GPa) = -225.10413 20.97492 -102.06460
#
# Velocity S-wave (km/s) = -10.83123 3.30626 -7.29330
# Velocity P-wave (km/s) = 10.50728 8.15846 4.68201
#
# Compressibility (1/GPa) = 0.01132518
#
# Stress axis : x y z
#
# Youngs Moduli (GPa) = 30.43352 33.10588 68.04968
#
# Poissons Ratio (x) = 0.80373 0.24095
# Poissons Ratio (y) = 0.73885 0.36741
# Poissons Ratio (z) = 0.10776 0.17874
#
# Static dielectric constant tensor:
#      x y z
#    x 1.622510 0.000000 0.005500 
#    y 0.000000 1.665730 0.000000 
#    z 0.005500 0.000000 1.650530 
# 
# From -- ./inp_files/20805.got.cif
#   From: 2010.05.17/outbox.cif.g08.bks.cpg/sg10_11_cif.got.tgz:20805.got - 2010.06.03 11:33:40.
