data_PCOD9153907
_publ_section_title
;
Structure prediction by ZEFSAII (Michael W. Deem and Ramdas Pophale) SiO2 
 PCOD9153907
Probable space group: P 2/M
;
_chemical_formula_sum "Si O2"
_cell_formula_units_Z 28
_cell_length_a 10.475511
_cell_length_b 8.136727
_cell_length_c 31.572192
_cell_angle_alpha 90.000000
_cell_angle_beta 32.681283
_cell_angle_gamma 90.000000
_cell_volume 1453.100403
_symmetry_space_group_name_H-M "P 2/M"
_symmetry_group_IT_number 10
_symmetry_cell_setting 'monoclinic'
loop_
_space_group_symop_operation_xyz
x,y,z
-x,y,-z
-x,-y,-z
x,-y,z
loop_
_atom_site_type_symbol
_atom_site_label
_atom_site_fract_x
_atom_site_fract_y
_atom_site_fract_z
Si Si1 0.376964 0.302649 0.742343
Si Si2 0.293944 0.693487 0.669979
Si Si3 0.633583 0.806461 0.505240
Si Si4 0.443673 0.799492 0.083244
Si Si5 0.844240 0.693592 0.658945
Si Si6 0.124889 0.198238 0.092789
Si Si7 0.186468 0.806502 0.237719
O O1 0.394351 0.500000 0.735735
O O2 0.340194 0.243208 0.704465
O O3 0.617538 0.241826 0.696573
O O4 0.141676 0.258765 0.833928
O O5 0.235858 0.500000 0.688341
O O6 0.521704 0.718235 0.576887
O O7 0.074015 0.782872 0.709329
O O8 0.500000 0.746899 0.500000
O O9 0.911132 0.778801 0.421969
O O10 0.583641 0.000000 0.523444
O O11 0.250229 0.748689 0.101922
O O12 0.366588 0.744720 0.151231
O O13 0.439983 0.000000 0.084730
O O14 0.698506 0.748398 0.994046
O O15 0.872552 0.500000 0.642434
O O16 0.801013 0.718288 0.720920
O O17 0.123022 0.000000 0.093407
O O18 0.226840 0.000000 0.233634
#
# Coordination Sequence:
#
# PCOD9153907 Si02
#       7
#     4   4   4   4   4   4   4
#     4  10  23  40  56  83 119 152 188 230 278 336
#     4  11  22  37  60  85 113 149 187 228 281 337
#     4  11  23  39  60  87 115 142 185 238 280 327
#     4   8  16  30  54  86 115 143 185 237 282 326
#     4  11  24  41  59  80 115 156 188 226 282 341
#     4   9  16  32  57  83 112 150 188 230 283 332
#     4  11  20  35  58  87 115 144 189 240 279 326
#
# _framework density 19.269143
#
# number of rings (size 3 to 8) (size 9 to 14) (size 15 to 20)
#    0.000    1.857    2.857    2.571    0.000    2.857 
#    0.000    6.429    0.000    4.286    0.000    0.000 
#    0.000    0.000    0.000    0.000    0.000    0.000 
#
# Total GULP energy -156357.373524 kJ/mol
# GULP energy per Si atom -5584.191912 kJ/mol
# Density = 1.922529 g / cm^3
# Si number density = 19.269143 Si / 1000 Ang^3
#
#
#
# Elastic Constant Matrix: (Units=GPa)
#
#
# Indices 1 2 3 4 5 6 
#
# 1 87.2807 -2.8249 36.2973 0.0000 -14.2550 0.0000
# 2 -2.8249 14.8690 -10.1757 0.0000 -0.2702 0.0000
# 3 36.2973 -10.1757 114.7864 0.0000 -4.9665 0.0000
# 4 0.0000 0.0000 0.0000 35.0459 0.0000 -4.5536
# 5 -14.2550 -0.2702 -4.9665 0.0000 31.0465 0.0000
# 6 0.0000 0.0000 0.0000 -4.5536 0.0000 6.1315
#
#
#
# Elastic Compliance Matrix: (Units=1/GPa)
#
#
# Indices 1 2 3 4 5 6 
#
# 1 0.014168 -0.000102 -0.004237 0.000000 0.005826 0.000000
# 2 -0.000102 0.071683 0.006457 0.000000 0.001610 0.000000
# 3 -0.004237 0.006457 0.010616 0.000000 -0.000191 0.000000
# 4 0.000000 0.000000 0.000000 0.031581 0.000000 0.023454
# 5 0.005826 0.001610 -0.000191 0.000000 0.034868 0.000000
# 6 0.000000 0.000000 0.000000 0.023454 0.000000 0.180512
#
#
# Mechanical properties :
#
#
# Convention : Reuss Voigt Hill
#
# Bulk Modulus (GPa) = 9.93040 29.28105 19.60573
# Shear Modulus (GPa) = 13.41347 27.35408 20.38378
#
# Velocity S-wave (km/s) = 2.64125 3.77182 3.25598
# Velocity P-wave (km/s) = 3.80347 5.84787 4.93275
#
# Compressibility (1/GPa) = 0.10070083
#
# Stress axis : x y z
#
# Youngs Moduli (GPa) = 70.58366 13.95039 94.19976
#
# Poissons Ratio (x) = 0.00142 0.39912
# Poissons Ratio (y) = 0.00721 -0.60821
# Poissons Ratio (z) = 0.29906 -0.09007
#
# Static dielectric constant tensor:
#      x y z
#    x 1.654530 0.000000 0.007740 
#    y 0.000000 1.671900 0.000000 
#    z 0.007740 0.000000 1.672200 
# 
# From -- ./inp_files/91939.got.cif
#   From: 2010.05.17/outbox.cif.g08.bks.cpg/sg10_46_cif.got.tgz:91939.got - 2010.06.03 11:33:40.
