data_PCOD9153305
_publ_section_title
;
Structure prediction by ZEFSAII (Michael W. Deem and Ramdas Pophale) SiO2 
 PCOD9153305
Probable space group: P 2/M
;
_chemical_formula_sum "Si O2"
_cell_formula_units_Z 14
_cell_length_a 5.341689
_cell_length_b 19.478352
_cell_length_c 5.326641
_cell_angle_alpha 90.000000
_cell_angle_beta 89.837264
_cell_angle_gamma 90.000000
_cell_volume 554.220371
_symmetry_space_group_name_H-M "P 2/M"
_symmetry_group_IT_number 10
_symmetry_cell_setting 'monoclinic'
loop_
_space_group_symop_operation_xyz
x,y,z
-x,y,-z
-x,-y,-z
x,-y,z
loop_
_atom_site_type_symbol
_atom_site_label
_atom_site_fract_x
_atom_site_fract_y
_atom_site_fract_z
Si Si1 0.751073 0.425749 0.331057
Si Si2 0.245603 0.274145 0.855125
Si Si3 0.500000 0.182093 0.500000
Si Si4 0.167103 0.078559 0.245543
O O1 0.500000 0.422001 0.500000
O O2 0.745301 0.500000 0.195765
O O3 0.762642 0.356274 0.175908
O O4 0.000000 0.425274 0.500000
O O5 0.283986 0.232960 0.598258
O O6 0.500000 0.259740 0.000000
O O7 0.000000 0.251946 0.000000
O O8 0.390326 0.131535 0.289783
O O9 0.000000 0.082873 0.500000
O O10 0.260636 0.000000 0.226581
O O11 0.000000 0.091839 0.000000
#
# Coordination Sequence:
#
# PCOD9153305 Si02
#       4
#     4   4   2   4
#     4  10  21  43  72 101 144 200 257 324 392 462
#     4  12  29  46  73 112 151 204 263 319 401 479
#     4  12  29  46  75 110 164 204 252 336 397 488
#     4  10  25  49  80 115 155 208 269 329 399 482
#
# _framework density 25.260714
#
# number of rings (size 3 to 8) (size 9 to 14) (size 15 to 20)
#    0.000    1.143    1.429    2.143    8.000    1.143 
#    0.000    4.286    0.000    2.571    0.000    0.000 
#    0.000    0.000    0.000    0.000    0.000    0.000 
#
# Total GULP energy -78520.236951 kJ/mol
# GULP energy per Si atom -5608.588354 kJ/mol
# Density = 2.520322 g / cm^3
# Si number density = 25.260714 Si / 1000 Ang^3
#
#
#
# Elastic Constant Matrix: (Units=GPa)
#
#
# Indices 1 2 3 4 5 6 
#
# 1 175.6484 48.4768 54.6354 0.0000 -11.9261 0.0000
# 2 48.4768 217.4259 48.5181 0.0000 -3.2048 0.0000
# 3 54.6354 48.5181 110.4586 0.0000 -1.5413 0.0000
# 4 0.0000 0.0000 0.0000 74.2050 0.0000 143.7919
# 5 -11.9261 -3.2048 -1.5413 0.0000 54.2456 0.0000
# 6 0.0000 0.0000 0.0000 143.7919 0.0000 184.3560
#
#
#
# Elastic Compliance Matrix: (Units=1/GPa)
#
#
# Indices 1 2 3 4 5 6 
#
# 1 0.006974 -0.000852 -0.003055 0.000000 0.001396 0.000000
# 2 -0.000852 0.005206 -0.001864 0.000000 0.000067 0.000000
# 3 -0.003055 -0.001864 0.011377 0.000000 -0.000459 0.000000
# 4 0.000000 0.000000 0.000000 -0.026352 0.000000 0.020554
# 5 0.001396 0.000067 -0.000459 0.000000 0.018733 0.000000
# 6 0.000000 0.000000 0.000000 0.020554 0.000000 -0.010607
#
#
# Mechanical properties :
#
#
# Convention : Reuss Voigt Hill
#
# Bulk Modulus (GPa) = 83.24571 89.64370 86.44471
# Shear Modulus (GPa) = 239.47234 86.02148 162.74691
#
# Velocity S-wave (km/s) = 9.74711 5.84187 8.03534
# Velocity P-wave (km/s) = 12.63728 9.00376 10.97198
#
# Compressibility (1/GPa) = 0.01201263
#
# Stress axis : x y z
#
# Youngs Moduli (GPa) = 143.39749 192.07417 87.89735
#
# Poissons Ratio (x) = 0.16373 0.26856
# Poissons Ratio (y) = 0.12224 0.16386
# Poissons Ratio (z) = 0.43814 0.35808
#
# Static dielectric constant tensor:
#      x y z
#    x 2.182320 0.000000 0.100120 
#    y 0.000000 1.964540 0.000000 
#    z 0.100120 0.000000 2.132190 
# 
# From -- ./inp_files/1270.got.cif
#   From: 2010.05.17/outbox.cif.g08.bks.cpg/sg10_1_cif.got.tgz:1270.got - 2010.06.03 11:33:40.
