data_PCOD9153690
_publ_section_title
;
Structure prediction by ZEFSAII (Michael W. Deem and Ramdas Pophale) SiO2 
 PCOD9153690
Probable space group: P 2/M
;
_chemical_formula_sum "Si O2"
_cell_formula_units_Z 28
_cell_length_a 19.921452
_cell_length_b 8.482163
_cell_length_c 16.772086
_cell_angle_alpha 90.000000
_cell_angle_beta 149.291296
_cell_angle_gamma 90.000000
_cell_volume 1447.298246
_symmetry_space_group_name_H-M "P 2/M"
_symmetry_group_IT_number 10
_symmetry_cell_setting 'monoclinic'
loop_
_space_group_symop_operation_xyz
x,y,z
-x,y,-z
-x,-y,-z
x,-y,z
loop_
_atom_site_type_symbol
_atom_site_label
_atom_site_fract_x
_atom_site_fract_y
_atom_site_fract_z
Si Si1 0.268428 0.811980 0.574736
Si Si2 0.529213 0.315477 0.770321
Si Si3 0.905805 0.190273 0.975684
Si Si4 0.759888 0.186745 0.110658
Si Si5 0.603806 0.190049 0.673892
Si Si6 0.651119 0.191978 0.165796
Si Si7 0.010178 0.314055 0.765325
O O1 0.379321 0.729602 0.634785
O O2 0.293032 0.760895 0.691472
O O3 0.123506 0.770303 0.397744
O O4 0.288279 0.000000 0.590686
O O5 0.551443 0.500000 0.806961
O O6 0.568421 0.270420 0.720924
O O7 0.622854 0.218102 0.925344
O O8 0.947434 0.259198 0.103268
O O9 0.915357 0.000000 0.991056
O O10 0.753530 0.229702 0.803992
O O11 0.000000 0.242752 0.000000
O O12 0.738381 0.242027 0.179462
O O13 0.873939 0.270801 0.177840
O O14 0.787259 0.000000 0.138427
O O15 0.500000 0.234454 0.500000
O O16 0.596679 0.000000 0.677431
O O17 0.649061 0.000000 0.161825
O O18 0.500000 0.244663 0.000000
O O19 0.988950 0.500000 0.743758
#
# Coordination Sequence:
#
# PCOD9153690 Si02
#       7
#     4   4   4   4   4   4   4
#     4  11  23  42  67  92 123 166 215 261 307 369
#     4  12  24  39  61  95 132 166 204 254 315 371
#     4  10  22  41  65  92 122 162 211 256 305 367
#     4  11  21  40  68  92 121 167 216 257 305 369
#     4  10  22  40  64  94 124 160 209 258 304 364
#     4   9  18  36  64  96 121 154 212 269 307 354
#     4  12  26  43  61  92 133 167 205 255 317 376
#
# _framework density 19.346392999999999
#
# number of rings (size 3 to 8) (size 9 to 14) (size 15 to 20)
#    0.000    1.286    2.857    3.429    2.000    1.143 
#    0.000    6.429    0.000    0.000    0.000    0.000 
#    0.000    0.000    0.000    0.000    0.000    0.000 
#
# Total GULP energy -156550.669603 kJ/mol
# GULP energy per Si atom -5591.095343 kJ/mol
# Density = 1.930236 g / cm^3
# Si number density = 19.346393 Si / 1000 Ang^3
#
#
#
# Elastic Constant Matrix: (Units=GPa)
#
#
# Indices 1 2 3 4 5 6 
#
# 1 147.9139 23.2102 36.7940 0.0000 7.4780 0.0000
# 2 23.2102 27.9550 4.5738 0.0000 -7.9898 0.0000
# 3 36.7940 4.5738 95.9047 0.0000 3.0712 0.0000
# 4 0.0000 0.0000 0.0000 4.4941 0.0000 37.5329
# 5 7.4780 -7.9898 3.0712 0.0000 25.8432 0.0000
# 6 0.0000 0.0000 0.0000 37.5329 0.0000 -93.0074
#
#
#
# Elastic Compliance Matrix: (Units=1/GPa)
#
#
# Indices 1 2 3 4 5 6 
#
# 1 0.009057 -0.008438 -0.002916 0.000000 -0.004883 0.000000
# 2 -0.008438 0.047599 0.000419 0.000000 0.017108 0.000000
# 3 -0.002916 0.000419 0.011538 0.000000 -0.000398 0.000000
# 4 0.000000 0.000000 0.000000 0.050915 0.000000 0.020547
# 5 -0.004883 0.017108 -0.000398 0.000000 0.045444 0.000000
# 6 0.000000 0.000000 0.000000 0.020547 0.000000 -0.002460
#
#
# Mechanical properties :
#
#
# Convention : Reuss Voigt Hill
#
# Bulk Modulus (GPa) = 21.58669 44.54773 33.06721
# Shear Modulus (GPa) = 25.07459 1.27902 13.17680
#
# Velocity S-wave (km/s) = 3.60402 0.81397 2.61262
# Velocity P-wave (km/s) = 5.33862 4.89487 5.12155
#
# Compressibility (1/GPa) = 0.04632484
#
# Stress axis : x y z
#
# Youngs Moduli (GPa) = 110.41150 21.00887 86.66673
#
# Poissons Ratio (x) = 0.17728 0.25271
# Poissons Ratio (y) = 0.93169 -0.03636
# Poissons Ratio (z) = 0.32195 -0.00881
#
# Static dielectric constant tensor:
#      x y z
#    x 1.657960 0.000000 0.001840 
#    y 0.000000 1.649780 0.000000 
#    z 0.001840 0.000000 1.641660 
# 
# From -- ./inp_files/79297.got.cif
#   From: 2010.05.17/outbox.cif.g08.bks.cpg/sg10_40_cif.got.tgz:79297.got - 2010.06.03 11:33:40.
