data_PCOD9153016
_publ_section_title
;
Structure prediction by ZEFSAII (Michael W. Deem and Ramdas Pophale) SiO2 
 PCOD9153016
Probable space group: P 2/M
;
_chemical_formula_sum "Si O2"
_cell_formula_units_Z 20
_cell_length_a 9.353131
_cell_length_b 16.223480
_cell_length_c 9.626394
_cell_angle_alpha 90.000000
_cell_angle_beta 44.614656
_cell_angle_gamma 90.000000
_cell_volume 1025.909568
_symmetry_space_group_name_H-M "P 2/M"
_symmetry_group_IT_number 10
_symmetry_cell_setting 'monoclinic'
loop_
_space_group_symop_operation_xyz
x,y,z
-x,y,-z
-x,-y,-z
x,-y,z
loop_
_atom_site_type_symbol
_atom_site_label
_atom_site_fract_x
_atom_site_fract_y
_atom_site_fract_z
Si Si1 0.914342 0.000000 0.404473
Si Si2 0.446027 0.128612 0.374810
Si Si3 0.473826 0.286242 0.862329
Si Si4 0.648742 0.000000 0.034484
Si Si5 0.805708 0.409376 0.535425
Si Si6 0.916613 0.597115 0.902299
O O1 0.770317 0.080459 0.486332
O O2 0.000000 0.000000 0.500000
O O3 0.115403 0.000000 0.170945
O O4 0.500000 0.127101 0.500000
O O5 0.471717 0.218793 0.291636
O O6 0.593883 0.076142 0.171992
O O7 0.644360 0.354809 0.723856
O O8 0.262381 0.336071 0.991966
O O9 0.500000 0.250472 0.000000
O O10 0.500000 0.000000 0.000000
O O11 0.717430 0.500000 0.572409
O O12 0.000000 0.414721 0.500000
O O13 0.897017 0.378894 0.327385
O O14 0.860184 0.500000 0.907321
O O15 0.000000 0.597676 0.000000
#
# Coordination Sequence:
#
# PCOD9153016 Si02
#       6
#     2   4   4   2   4   4
#     4  11  23  45  78  95 124 171 209 256 315 383
#     4  11  27  44  64 103 137 163 214 264 320 390
#     4  12  25  41  65  94 131 175 216 269 323 383
#     4  11  21  47  76 101 126 165 211 258 315 387
#     4  10  21  39  63  93 125 168 226 275 320 378
#     4  10  23  42  64  93 130 173 222 273 329 384
#
# _framework density 19.494895
#
# number of rings (size 3 to 8) (size 9 to 14) (size 15 to 20)
#    0.000    1.200    4.000    2.400    2.800    4.800 
#    0.000    3.000    0.000    0.000    0.000    0.000 
#    0.000    0.000    0.000    0.000    0.000    0.000 
#
# Total GULP energy -111569.673220 kJ/mol
# GULP energy per Si atom -5578.483661 kJ/mol
# Density = 1.945052 g / cm^3
# Si number density = 19.494895 Si / 1000 Ang^3
#
#
#
# Elastic Constant Matrix: (Units=GPa)
#
#
# Indices 1 2 3 4 5 6 
#
# 1 96.3270 31.4813 46.2849 0.0000 21.6143 0.0000
# 2 31.4813 62.7578 21.1795 0.0000 -8.7950 0.0000
# 3 46.2849 21.1795 136.6399 0.0000 9.3468 0.0000
# 4 0.0000 0.0000 0.0000 32.5870 0.0000 10.9319
# 5 21.6143 -8.7950 9.3468 0.0000 43.9578 0.0000
# 6 0.0000 0.0000 0.0000 10.9319 0.0000 18.6211
#
#
#
# Elastic Compliance Matrix: (Units=1/GPa)
#
#
# Indices 1 2 3 4 5 6 
#
# 1 0.017128 -0.008607 -0.003829 0.000000 -0.009330 0.000000
# 2 -0.008607 0.021853 -0.001076 0.000000 0.008833 0.000000
# 3 -0.003829 -0.001076 0.008796 0.000000 -0.000203 0.000000
# 4 0.000000 0.000000 0.000000 0.038213 0.000000 -0.022434
# 5 -0.009330 0.008833 -0.000203 0.000000 0.029147 0.000000
# 6 0.000000 0.000000 0.000000 -0.022434 0.000000 0.066873
#
#
# Mechanical properties :
#
#
# Convention : Reuss Voigt Hill
#
# Bulk Modulus (GPa) = 48.18796 54.84621 51.51708
# Shear Modulus (GPa) = 23.15338 32.15176 27.65257
#
# Velocity S-wave (km/s) = 3.44999 4.06549 3.77032
# Velocity P-wave (km/s) = 6.37509 7.08748 6.74070
#
# Compressibility (1/GPa) = 0.02075207
#
# Stress axis : x y z
#
# Youngs Moduli (GPa) = 58.38521 45.76079 113.68366
#
# Poissons Ratio (x) = 0.39386 0.43535
# Poissons Ratio (y) = 0.50251 0.12232
# Poissons Ratio (z) = 0.22359 0.04924
#
# Static dielectric constant tensor:
#      x y z
#    x 1.719980 0.000000 0.073510 
#    y 0.000000 1.771090 0.000000 
#    z 0.073510 0.000000 1.769510 
# 
# From -- ./inp_files/19565.got.cif
#   From: 2010.05.17/outbox.cif.g08.bks.cpg/sg10_10_cif.got.tgz:19565.got - 2010.06.03 11:33:40.
