data_PCOD9153081
_publ_section_title
;
Structure prediction by ZEFSAII (Michael W. Deem and Ramdas Pophale) SiO2 
 PCOD9153081
Probable space group: P 2/M
;
_chemical_formula_sum "Si O2"
_cell_formula_units_Z 24
_cell_length_a 6.425043
_cell_length_b 18.926515
_cell_length_c 9.667056
_cell_angle_alpha 90.000000
_cell_angle_beta 107.533871
_cell_angle_gamma 90.000000
_cell_volume 1120.932330
_symmetry_space_group_name_H-M "P 2/M"
_symmetry_group_IT_number 10
_symmetry_cell_setting 'monoclinic'
loop_
_space_group_symop_operation_xyz
x,y,z
-x,y,-z
-x,-y,-z
x,-y,z
loop_
_atom_site_type_symbol
_atom_site_label
_atom_site_fract_x
_atom_site_fract_y
_atom_site_fract_z
Si Si1 0.776757 0.000000 0.567160
Si Si2 0.299830 0.500000 0.553644
Si Si3 0.036395 0.649217 0.810678
Si Si4 0.071397 0.151952 0.354198
Si Si5 0.731531 0.500000 0.125290
Si Si6 0.000000 0.626256 0.500000
Si Si7 0.680531 0.775760 0.141504
Si Si8 0.388457 0.279982 0.333449
O O1 0.500000 0.000000 0.500000
O O2 0.000000 0.000000 0.500000
O O3 0.824558 0.924852 0.646335
O O4 0.500000 0.500000 0.500000
O O5 0.323311 0.500000 0.722311
O O6 0.177828 0.570657 0.487260
O O7 0.126350 0.571829 0.867998
O O8 0.070312 0.663836 0.651953
O O9 0.186612 0.710663 0.903268
O O10 0.778131 0.663527 0.769649
O O11 0.856811 0.166557 0.221164
O O12 0.000000 0.159808 0.500000
O O13 0.242214 0.213087 0.350153
O O14 0.500000 0.500000 0.000000
O O15 0.554819 0.746974 0.251610
O O16 0.500000 0.802744 0.000000
O O17 0.500000 0.304942 0.500000
#
# Coordination Sequence:
#
# PCOD9153081 Si02
#       8
#     2   2   4   4   2   2   4   4
#     4  10  22  38  69 111 151 183 232 293 340 397
#     4   9  19  34  54  78 104 140 187 243 318 388
#     4  10  22  37  60  87 119 158 215 271 340 403
#     4  10  21  39  66 101 135 175 224 275 327 396
#     4  10  21  42  62  79 120 162 205 272 336 422
#     4   9  18  34  52  80 112 137 190 262 308 387
#     4  11  24  41  62  93 132 172 220 277 340 399
#     4  11  21  38  68  90 123 166 223 270 335 398
#
# _framework density 21.410748999999999
#
# number of rings (size 3 to 8) (size 9 to 14) (size 15 to 20)
#    0.000    1.833    1.667    2.500    4.667    6.000 
#    0.000    3.333    0.000   10.000    0.000    0.000 
#    0.000    0.000    0.000    0.000    0.000    0.000 
#
# Total GULP energy -133817.613851 kJ/mol
# GULP energy per Si atom -5575.733910 kJ/mol
# Density = 2.136202 g / cm^3
# Si number density = 21.410749 Si / 1000 Ang^3
#
#
#
# Elastic Constant Matrix: (Units=GPa)
#
#
# Indices 1 2 3 4 5 6 
#
# 1 126.3644 53.6417 44.3161 0.0000 29.5700 0.0000
# 2 53.6417 136.8395 58.0270 0.0000 37.3311 0.0000
# 3 44.3161 58.0270 124.9228 0.0000 38.7345 0.0000
# 4 0.0000 0.0000 0.0000 20.6181 0.0000 14.6189
# 5 29.5700 37.3311 38.7345 0.0000 43.1633 0.0000
# 6 0.0000 0.0000 0.0000 14.6189 0.0000 30.7144
#
#
#
# Elastic Compliance Matrix: (Units=1/GPa)
#
#
# Indices 1 2 3 4 5 6 
#
# 1 0.010300 -0.002445 -0.001366 0.000000 -0.003716 0.000000
# 2 -0.002445 0.010797 -0.002455 0.000000 -0.005460 0.000000
# 3 -0.001366 -0.002455 0.012028 0.000000 -0.007735 0.000000
# 4 0.000000 0.000000 0.000000 0.073206 0.000000 -0.034843
# 5 -0.003716 -0.005460 -0.007735 0.000000 0.037377 0.000000
# 6 0.000000 0.000000 0.000000 -0.034843 0.000000 0.049142
#
#
# Mechanical properties :
#
#
# Convention : Reuss Voigt Hill
#
# Bulk Modulus (GPa) = 48.55854 77.78847 63.17351
# Shear Modulus (GPa) = 23.55755 34.37528 28.96641
#
# Velocity S-wave (km/s) = 3.32063 4.01123 3.68216
# Velocity P-wave (km/s) = 6.11807 7.60682 6.90270
#
# Compressibility (1/GPa) = 0.02059370
#
# Stress axis : x y z
#
# Youngs Moduli (GPa) = 97.08705 92.62103 83.13758
#
# Poissons Ratio (x) = 0.22642 0.11358
# Poissons Ratio (y) = 0.23734 0.20409
# Poissons Ratio (z) = 0.13264 0.22737
#
# Static dielectric constant tensor:
#      x y z
#    x 1.861870 0.000000 0.010840 
#    y 0.000000 1.748430 0.000000 
#    z 0.010840 0.000000 1.859480 
# 
# From -- ./inp_files/39665.got.cif
#   From: 2010.05.17/outbox.cif.g08.bks.cpg/sg10_20_cif.got.tgz:39665.got - 2010.06.03 11:33:40.
