data_PCOD9153461
_publ_section_title
;
Structure prediction by ZEFSAII (Michael W. Deem and Ramdas Pophale) SiO2 
 PCOD9153461
Probable space group: P 2/M
;
_chemical_formula_sum "Si O2"
_cell_formula_units_Z 28
_cell_length_a 14.766938
_cell_length_b 11.579651
_cell_length_c 9.610045
_cell_angle_alpha 90.000000
_cell_angle_beta 70.962272
_cell_angle_gamma 90.000000
_cell_volume 1553.398333
_symmetry_space_group_name_H-M "P 2/M"
_symmetry_group_IT_number 10
_symmetry_cell_setting 'monoclinic'
loop_
_space_group_symop_operation_xyz
x,y,z
-x,y,-z
-x,-y,-z
x,-y,z
loop_
_atom_site_type_symbol
_atom_site_label
_atom_site_fract_x
_atom_site_fract_y
_atom_site_fract_z
Si Si1 0.696233 0.635727 0.117476
Si Si2 0.092904 0.640720 0.366320
Si Si3 0.601846 0.000000 0.527163
Si Si4 0.600509 0.000000 0.865468
Si Si5 0.911360 0.639705 0.952463
Si Si6 0.386628 0.246325 0.588417
Si Si7 0.389462 0.746820 0.099080
Si Si8 0.703663 0.635463 0.608649
O O1 0.678733 0.500000 0.156434
O O2 0.634018 0.722519 0.242019
O O3 0.808843 0.662244 0.074162
O O4 0.668643 0.662434 0.972259
O O5 0.092620 0.500000 0.365149
O O6 0.088570 0.679985 0.208027
O O7 0.191685 0.675019 0.392414
O O8 0.000000 0.677786 0.500000
O O9 0.500000 0.000000 0.500000
O O10 0.590401 0.000000 0.701169
O O11 0.645666 0.119885 0.449535
O O12 0.647122 0.121159 0.885863
O O13 0.500000 0.000000 0.000000
O O14 0.919173 0.500000 0.941502
O O15 0.000000 0.682651 0.000000
O O16 0.500000 0.259092 0.500000
O O17 0.321978 0.336946 0.536232
O O18 0.375245 0.701812 0.261433
O O19 0.500000 0.744359 0.000000
O O20 0.696518 0.500000 0.638386
#
# Coordination Sequence:
#
# PCOD9153461 Si02
#       8
#     4   4   2   2   4   4   4   4
#     4  11  23  37  54  85 120 150 186 224 280 350
#     4   9  18  32  52  78 108 144 185 227 275 329
#     4  10  22  40  58  78 107 144 199 249 272 310
#     4  10  22  38  60  82 101 142 204 246 275 315
#     4   9  18  33  52  76 109 145 183 229 275 327
#     4  11  24  38  56  79 115 154 192 232 274 327
#     4  11  22  36  57  80 112 148 190 236 273 323
#     4  11  21  35  54  82 117 150 183 226 282 345
#
# _framework density 18.024996999999999
#
# number of rings (size 3 to 8) (size 9 to 14) (size 15 to 20)
#    0.000    1.714    2.857    1.714    8.000    3.429 
#    0.000    0.000    0.000    0.000    0.000    6.000 
#    0.000    0.000    0.000    0.000    0.000    0.000 
#
# Total GULP energy -156090.874287 kJ/mol
# GULP energy per Si atom -5574.674082 kJ/mol
# Density = 1.798397 g / cm^3
# Si number density = 18.024997 Si / 1000 Ang^3
#
#
#
# Elastic Constant Matrix: (Units=GPa)
#
#
# Indices 1 2 3 4 5 6 
#
# 1 78.8859 10.5394 4.1662 0.0000 1.6630 0.0000
# 2 10.5394 66.1599 8.8630 0.0000 -9.4875 0.0000
# 3 4.1662 8.8630 59.7937 0.0000 -4.4824 0.0000
# 4 0.0000 0.0000 0.0000 17.4495 0.0000 12.5832
# 5 1.6630 -9.4875 -4.4824 0.0000 25.1626 0.0000
# 6 0.0000 0.0000 0.0000 12.5832 0.0000 1.9183
#
#
#
# Elastic Compliance Matrix: (Units=1/GPa)
#
#
# Indices 1 2 3 4 5 6 
#
# 1 0.013053 -0.002247 -0.000714 0.000000 -0.001837 0.000000
# 2 -0.002247 0.016592 -0.001847 0.000000 0.006075 0.000000
# 3 -0.000714 -0.001847 0.017229 0.000000 0.002420 0.000000
# 4 0.000000 0.000000 0.000000 -0.015363 0.000000 0.100775
# 5 -0.001837 0.006075 0.002420 0.000000 0.042585 0.000000
# 6 0.000000 0.000000 0.000000 0.100775 0.000000 -0.139747
#
#
# Mechanical properties :
#
#
# Convention : Reuss Voigt Hill
#
# Bulk Modulus (GPa) = 26.84083 27.99740 27.41912
# Shear Modulus (GPa) = -114.63772 20.99082 -46.82345
#
# Velocity S-wave (km/s) = -7.98357 3.41624 -5.10229
# Velocity P-wave (km/s) = 8.37018 5.57917 4.41207
#
# Compressibility (1/GPa) = 0.03725667
#
# Stress axis : x y z
#
# Youngs Moduli (GPa) = 76.60947 60.27168 58.04114
#
# Poissons Ratio (x) = 0.13544 0.04145
# Poissons Ratio (y) = 0.17216 0.10722
# Poissons Ratio (z) = 0.05471 0.11134
#
# Static dielectric constant tensor:
#      x y z
#    x 1.616040 0.000000 -0.008780 
#    y 0.000000 1.625610 0.000000 
#    z -0.008780 0.000000 1.615240 
# 
# From -- ./inp_files/28280.got.cif
#   From: 2010.05.17/outbox.cif.g08.bks.cpg/sg10_15_cif.got.tgz:28280.got - 2010.06.03 11:33:40.
