data_PCOD9153477
_publ_section_title
;
Structure prediction by ZEFSAII (Michael W. Deem and Ramdas Pophale) SiO2 
 PCOD9153477
Probable space group: P 2/M
;
_chemical_formula_sum "Si O2"
_cell_formula_units_Z 26
_cell_length_a 9.325604
_cell_length_b 16.830912
_cell_length_c 13.400849
_cell_angle_alpha 90.000000
_cell_angle_beta 40.322560
_cell_angle_gamma 90.000000
_cell_volume 1361.073691
_symmetry_space_group_name_H-M "P 2/M"
_symmetry_group_IT_number 10
_symmetry_cell_setting 'monoclinic'
loop_
_space_group_symop_operation_xyz
x,y,z
-x,y,-z
-x,-y,-z
x,-y,z
loop_
_atom_site_type_symbol
_atom_site_label
_atom_site_fract_x
_atom_site_fract_y
_atom_site_fract_z
Si Si1 0.693093 0.089124 0.059935
Si Si2 0.379777 0.500000 0.348928
Si Si3 0.089349 0.500000 0.300987
Si Si4 0.710238 0.262590 0.329626
Si Si5 0.500000 0.207877 0.000000
Si Si6 0.741777 0.635163 0.124962
Si Si7 0.830142 0.664229 0.851964
Si Si8 0.226405 0.911072 0.753822
O O1 0.579958 0.153360 0.049144
O O2 0.665140 0.097613 0.193801
O O3 0.619046 0.000000 0.071145
O O4 0.959261 0.092390 0.905467
O O5 0.237189 0.500000 0.322543
O O6 0.550693 0.574024 0.259234
O O7 0.177323 0.500000 0.536182
O O8 0.155744 0.579093 0.206475
O O9 0.500000 0.294493 0.500000
O O10 0.716812 0.288776 0.210182
O O11 0.716034 0.167728 0.336357
O O12 0.926121 0.302230 0.260935
O O13 0.304353 0.268039 0.133996
O O14 0.721615 0.654769 0.019174
O O15 0.000000 0.606114 0.000000
O O16 0.280123 0.000000 0.687701
#
# Coordination Sequence:
#
# PCOD9153477 Si02
#       8
#     4   2   2   4   2   4   4   4
#     4   9  18  32  56  87 117 149 191 241 289 335
#     4  11  22  42  60  82 112 157 188 234 294 346
#     4  11  25  40  57  80 121 153 191 229 290 361
#     4  11  22  37  58  86 117 149 192 240 291 348
#     4  12  19  31  58  88 120 146 190 243 289 336
#     4  10  22  38  61  84 112 144 195 246 287 333
#     4  11  23  38  58  86 115 152 193 241 289 341
#     4   9  18  35  56  81 116 155 192 234 286 344
#
# _framework density 19.102565999999999
#
# number of rings (size 3 to 8) (size 9 to 14) (size 15 to 20)
#    0.000    1.692    1.538    4.615    4.308    3.077 
#    0.000    3.846    0.000    0.000    0.000    2.154 
#    0.000    0.000    0.000    0.000    0.000    0.000 
#
# Total GULP energy -145035.242215 kJ/mol
# GULP energy per Si atom -5578.278547 kJ/mol
# Density = 1.905909 g / cm^3
# Si number density = 19.102566 Si / 1000 Ang^3
#
#
#
# Elastic Constant Matrix: (Units=GPa)
#
#
# Indices 1 2 3 4 5 6 
#
# 1 74.4784 50.3138 10.7996 0.0000 -3.9412 0.0000
# 2 50.3138 144.9235 17.6582 0.0000 -8.3199 0.0000
# 3 10.7996 17.6582 58.3195 0.0000 -7.8472 0.0000
# 4 0.0000 0.0000 0.0000 98.4426 0.0000 -50.3001
# 5 -3.9412 -8.3199 -7.8472 0.0000 17.4013 0.0000
# 6 0.0000 0.0000 0.0000 -50.3001 0.0000 55.5766
#
#
#
# Elastic Compliance Matrix: (Units=1/GPa)
#
#
# Indices 1 2 3 4 5 6 
#
# 1 0.017665 -0.005931 -0.001404 0.000000 0.000532 0.000000
# 2 -0.005931 0.009269 -0.001376 0.000000 0.002468 0.000000
# 3 -0.001404 -0.001376 0.018835 0.000000 0.007518 0.000000
# 4 0.000000 0.000000 0.000000 0.018897 0.000000 0.017103
# 5 0.000532 0.002468 0.007518 0.000000 0.062157 0.000000
# 6 0.000000 0.000000 0.000000 0.017103 0.000000 0.033472
#
#
# Mechanical properties :
#
#
# Convention : Reuss Voigt Hill
#
# Bulk Modulus (GPa) = 35.27727 48.36274 41.82000
# Shear Modulus (GPa) = 26.71405 47.54742 37.13074
#
# Velocity S-wave (km/s) = 3.74365 4.99446 4.41359
# Velocity P-wave (km/s) = 6.09868 7.65715 6.92191
#
# Compressibility (1/GPa) = 0.02834687
#
# Stress axis : x y z
#
# Youngs Moduli (GPa) = 56.60793 107.88941 53.09246
#
# Poissons Ratio (x) = 0.63993 0.07453
# Poissons Ratio (y) = 0.33576 0.07306
# Poissons Ratio (z) = 0.07946 0.14846
#
# Static dielectric constant tensor:
#      x y z
#    x 1.675820 0.000000 -0.003540 
#    y 0.000000 1.680930 0.000000 
#    z -0.003540 0.000000 1.657740 
# 
# From -- ./inp_files/62043.got.cif
#   From: 2010.05.17/outbox.cif.g08.bks.cpg/sg10_32_cif.got.tgz:62043.got - 2010.06.03 11:33:40.
