data_PCOD9153037
_publ_section_title
;
Structure prediction by ZEFSAII (Michael W. Deem and Ramdas Pophale) SiO2 
 PCOD9153037
Probable space group: P 2/M
;
_chemical_formula_sum "Si O2"
_cell_formula_units_Z 28
_cell_length_a 15.509680
_cell_length_b 8.737486
_cell_length_c 12.096430
_cell_angle_alpha 90.000000
_cell_angle_beta 116.607337
_cell_angle_gamma 90.000000
_cell_volume 1465.652901
_symmetry_space_group_name_H-M "P 2/M"
_symmetry_group_IT_number 10
_symmetry_cell_setting 'monoclinic'
loop_
_space_group_symop_operation_xyz
x,y,z
-x,y,-z
-x,-y,-z
x,-y,z
loop_
_atom_site_type_symbol
_atom_site_label
_atom_site_fract_x
_atom_site_fract_y
_atom_site_fract_z
Si Si1 0.632415 0.818240 0.995588
Si Si2 0.181614 0.818257 0.289453
Si Si3 0.799544 0.317517 0.940749
Si Si4 0.101811 0.178696 0.622884
Si Si5 0.263741 0.317165 0.555604
Si Si6 0.568586 0.317616 0.186244
Si Si7 0.971333 0.681159 0.197332
O O1 0.721497 0.761740 0.974479
O O2 0.532870 0.768950 0.878768
O O3 0.634826 0.000000 0.012725
O O4 0.627857 0.735959 0.112051
O O5 0.207168 0.744452 0.186760
O O6 0.246536 0.753782 0.425878
O O7 0.071268 0.771515 0.252650
O O8 0.189623 0.000000 0.288641
O O9 0.784724 0.500000 0.934323
O O10 0.905262 0.287340 0.052845
O O11 0.183465 0.248555 0.591798
O O12 0.088732 0.269210 0.729358
O O13 0.000000 0.188077 0.500000
O O14 0.122278 0.000000 0.657048
O O15 0.251290 0.500000 0.543266
O O16 0.367364 0.284581 0.669684
O O17 0.551982 0.500000 0.169507
O O18 0.992142 0.500000 0.213498
#
# Coordination Sequence:
#
# PCOD9153037 Si02
#       7
#     4   4   4   4   4   4   4
#     4  11  22  38  63  94 123 152 190 242 298 347
#     4  12  25  40  59  85 119 157 197 245 295 347
#     4  11  24  42  62  85 116 156 201 245 290 346
#     4  11  22  35  55  86 120 154 191 239 294 342
#     4  11  23  39  61  87 118 159 200 240 291 350
#     4  10  21  39  64  92 121 155 194 238 292 352
#     4  11  23  39  61  86 115 157 202 243 291 348
#
# _framework density 19.104113999999999
#
# number of rings (size 3 to 8) (size 9 to 14) (size 15 to 20)
#    0.000    1.000    1.429    6.857    0.000   10.286 
#    0.000    0.714    0.000    4.286    0.000    0.000 
#    0.000    0.000    0.000    0.000    0.000    0.000 
#
# Total GULP energy -156680.068914 kJ/mol
# GULP energy per Si atom -5595.716747 kJ/mol
# Density = 1.906063 g / cm^3
# Si number density = 19.104114 Si / 1000 Ang^3
#
#
#
# Elastic Constant Matrix: (Units=GPa)
#
#
# Indices 1 2 3 4 5 6 
#
# 1 23.7263 4.2652 18.4460 0.0000 -2.5904 0.0000
# 2 4.2652 62.8791 26.2679 0.0000 14.5489 0.0000
# 3 18.4460 26.2679 106.8611 0.0000 8.6357 0.0000
# 4 0.0000 0.0000 0.0000 -165.4248 0.0000 -57.5065
# 5 -2.5904 14.5489 8.6357 0.0000 14.8620 0.0000
# 6 0.0000 0.0000 0.0000 -57.5065 0.0000 20.2719
#
#
#
# Elastic Compliance Matrix: (Units=1/GPa)
#
#
# Indices 1 2 3 4 5 6 
#
# 1 0.052286 -0.003803 -0.009578 0.000000 0.018402 0.000000
# 2 -0.003803 0.022245 -0.003146 0.000000 -0.020611 0.000000
# 3 -0.009578 -0.003146 0.012246 0.000000 -0.005705 0.000000
# 4 0.000000 0.000000 0.000000 -0.003044 0.000000 -0.008634
# 5 0.018402 -0.020611 -0.005705 0.000000 0.093985 0.000000
# 6 0.000000 0.000000 0.000000 -0.008634 0.000000 0.024837
#
#
# Mechanical properties :
#
#
# Convention : Reuss Voigt Hill
#
# Bulk Modulus (GPa) = 18.61416 32.38051 25.49733
# Shear Modulus (GPa) = 19.72261 -16.42570 1.64845
#
# Velocity S-wave (km/s) = 3.21654 -2.93541 0.92992
# Velocity P-wave (km/s) = 4.85382 2.34466 3.81163
#
# Compressibility (1/GPa) = 0.05372255
#
# Stress axis : x y z
#
# Youngs Moduli (GPa) = 19.12550 44.95455 81.66237
#
# Poissons Ratio (x) = 0.17098 0.78213
# Poissons Ratio (y) = 0.07274 0.25690
# Poissons Ratio (z) = 0.18318 0.14142
#
# Static dielectric constant tensor:
#      x y z
#    x 1.634550 0.000000 0.014350 
#    y 0.000000 1.635010 0.000000 
#    z 0.014350 0.000000 1.666860 
# 
# From -- ./inp_files/50113.got.cif
#   From: 2010.05.17/outbox.cif.g08.bks.cpg/sg10_26_cif.got.tgz:50113.got - 2010.06.03 11:33:40.
