data_PCOD9153457
_publ_section_title
;
Structure prediction by ZEFSAII (Michael W. Deem and Ramdas Pophale) SiO2 
 PCOD9153457
Probable space group: P 2/M
;
_chemical_formula_sum "Si O2"
_cell_formula_units_Z 24
_cell_length_a 13.075434
_cell_length_b 13.804168
_cell_length_c 9.044423
_cell_angle_alpha 90.000000
_cell_angle_beta 38.972566
_cell_angle_gamma 90.000000
_cell_volume 1026.743828
_symmetry_space_group_name_H-M "P 2/M"
_symmetry_group_IT_number 10
_symmetry_cell_setting 'monoclinic'
loop_
_space_group_symop_operation_xyz
x,y,z
-x,y,-z
-x,-y,-z
x,-y,z
loop_
_atom_site_type_symbol
_atom_site_label
_atom_site_fract_x
_atom_site_fract_y
_atom_site_fract_z
Si Si1 0.376523 0.109572 0.444347
Si Si2 0.154564 0.202645 0.911699
Si Si3 0.486118 0.692230 0.841958
Si Si4 0.848078 0.718727 0.768732
Si Si5 0.817786 0.101866 0.632481
Si Si6 0.673810 0.391572 0.386917
O O1 0.304154 0.136584 0.687182
O O2 0.484346 0.200673 0.265944
O O3 0.228348 0.107171 0.488661
O O4 0.444443 0.000000 0.367187
O O5 0.201821 0.308806 0.798352
O O6 0.107865 0.220838 0.133878
O O7 0.000000 0.163383 0.000000
O O8 0.624479 0.627088 0.611676
O O9 0.500000 0.686082 0.000000
O O10 0.303247 0.653649 0.011735
O O11 0.759678 0.798203 0.764432
O O12 0.000000 0.682224 0.500000
O O13 0.000000 0.098641 0.500000
O O14 0.740363 0.000000 0.769820
O O15 0.500000 0.376802 0.500000
O O16 0.731538 0.500000 0.295453
#
# Coordination Sequence:
#
# PCOD9153457 Si02
#       6
#     4   4   4   4   4   4
#     4  10  22  38  59  91 125 165 211 257 300 352
#     4  11  23  39  65  92 123 164 205 253 304 361
#     4  11  22  39  65  92 120 161 205 251 304 364
#     4  11  22  37  58  87 120 160 201 250 305 365
#     4   9  17  31  51  78 115 158 201 241 291 347
#     4  10  22  43  68  92 121 158 201 252 310 372
#
# _framework density 23.374866999999998
#
# number of rings (size 3 to 8) (size 9 to 14) (size 15 to 20)
#    0.000    1.667    3.333    2.000    2.333    2.667 
#    0.000    0.833    0.000    1.000    0.000    0.000 
#    0.000    0.000    0.000    0.000    0.000    0.000 
#
# Total GULP energy -133653.013931 kJ/mol
# GULP energy per Si atom -5568.875580 kJ/mol
# Density = 2.332166 g / cm^3
# Si number density = 23.374867 Si / 1000 Ang^3
#
#
#
# Elastic Constant Matrix: (Units=GPa)
#
#
# Indices 1 2 3 4 5 6 
#
# 1 58.4373 -27.7875 17.2658 0.0000 13.8294 0.0000
# 2 -27.7875 65.7038 4.8116 0.0000 -5.7632 0.0000
# 3 17.2658 4.8116 128.9020 0.0000 11.6128 0.0000
# 4 0.0000 0.0000 0.0000 -8.4073 0.0000 0.9614
# 5 13.8294 -5.7632 11.6128 0.0000 41.4058 0.0000
# 6 0.0000 0.0000 0.0000 0.9614 0.0000 10.3265
#
#
#
# Elastic Compliance Matrix: (Units=1/GPa)
#
#
# Indices 1 2 3 4 5 6 
#
# 1 0.024109 0.009912 -0.003076 0.000000 -0.005810 0.000000
# 2 0.009912 0.019561 -0.002057 0.000000 -0.000011 0.000000
# 3 -0.003076 -0.002057 0.008392 0.000000 -0.001613 0.000000
# 4 0.000000 0.000000 0.000000 -0.117692 0.000000 0.010957
# 5 -0.005810 -0.000011 -0.001613 0.000000 0.026543 0.000000
# 6 0.000000 0.000000 0.000000 0.010957 0.000000 0.095818
#
#
# Mechanical properties :
#
#
# Convention : Reuss Voigt Hill
#
# Bulk Modulus (GPa) = 16.22815 26.84698 21.53756
# Shear Modulus (GPa) = 73.84060 25.91522 49.87791
#
# Velocity S-wave (km/s) = 5.62657 3.33330 4.62435
# Velocity P-wave (km/s) = 7.01204 5.13077 6.14384
#
# Compressibility (1/GPa) = 0.06162132
#
# Stress axis : x y z
#
# Youngs Moduli (GPa) = 41.47753 51.12084 119.16269
#
# Poissons Ratio (x) = -0.50671 0.36653
# Poissons Ratio (y) = -0.41113 0.24510
# Poissons Ratio (z) = 0.12758 0.10515
#
# Static dielectric constant tensor:
#      x y z
#    x 1.960140 0.000000 0.017980 
#    y 0.000000 1.900950 0.000000 
#    z 0.017980 0.000000 1.942570 
# 
# From -- ./inp_files/29313.got.cif
#   From: 2010.05.17/outbox.cif.g08.bks.cpg/sg10_15_cif.got.tgz:29313.got - 2010.06.03 11:33:40.
