data_PCOD9153472
_publ_section_title
;
Structure prediction by ZEFSAII (Michael W. Deem and Ramdas Pophale) SiO2 
 PCOD9153472
Probable space group: P 2/M
;
_chemical_formula_sum "Si O2"
_cell_formula_units_Z 18
_cell_length_a 5.197474
_cell_length_b 8.446881
_cell_length_c 18.453015
_cell_angle_alpha 90.000000
_cell_angle_beta 89.484037
_cell_angle_gamma 90.000000
_cell_volume 810.099616
_symmetry_space_group_name_H-M "P 2/M"
_symmetry_group_IT_number 10
_symmetry_cell_setting 'monoclinic'
loop_
_space_group_symop_operation_xyz
x,y,z
-x,y,-z
-x,-y,-z
x,-y,z
loop_
_atom_site_type_symbol
_atom_site_label
_atom_site_fract_x
_atom_site_fract_y
_atom_site_fract_z
Si Si1 0.248572 0.806581 0.044112
Si Si2 0.279417 0.813024 0.210216
Si Si3 0.751928 0.000000 0.550718
Si Si4 0.431640 0.324811 0.415176
Si Si5 0.221419 0.682724 0.718013
O O1 0.249782 0.755504 0.127540
O O2 0.249700 0.000000 0.045355
O O3 0.500000 0.755188 0.000000
O O4 0.000000 0.755633 0.000000
O O5 0.064099 0.732555 0.260477
O O6 0.566018 0.779995 0.237645
O O7 0.231562 0.000000 0.211754
O O8 0.500000 0.000000 0.500000
O O9 0.733307 0.164952 0.593953
O O10 0.000000 0.000000 0.500000
O O11 0.500000 0.331884 0.500000
O O12 0.319929 0.500000 0.396487
O O13 0.685873 0.302930 0.365570
O O14 0.254969 0.500000 0.737723
#
# Coordination Sequence:
#
# PCOD9153472 Si02
#       5
#     4   4   2   4   4
#     4   9  17  32  57  89 122 156 202 256 307 364
#     4  11  23  39  65  96 125 163 211 264 314 374
#     4  10  22  38  60  90 118 152 200 262 316 364
#     4   9  21  42  65  90 124 169 217 264 320 381
#     4  11  24  42  63  89 128 172 207 259 324 384
#
# _framework density 22.219488999999999
#
# number of rings (size 3 to 8) (size 9 to 14) (size 15 to 20)
#    0.000    2.000    0.000    2.667    3.111    7.556 
#    0.000    6.667    0.000   13.333    0.000    0.000 
#    0.000    0.000    0.000    0.000    0.000    0.000 
#
# Total GULP energy -100620.488984 kJ/mol
# GULP energy per Si atom -5590.027166 kJ/mol
# Density = 2.216892 g / cm^3
# Si number density = 22.219489 Si / 1000 Ang^3
#
#
#
# Elastic Constant Matrix: (Units=GPa)
#
#
# Indices 1 2 3 4 5 6 
#
# 1 92.7791 11.8300 29.5378 0.0000 -13.1284 0.0000
# 2 11.8300 121.5511 21.1587 0.0000 -25.5624 0.0000
# 3 29.5378 21.1587 140.8792 0.0000 -3.7209 0.0000
# 4 0.0000 0.0000 0.0000 -43.5012 0.0000 7.6813
# 5 -13.1284 -25.5624 -3.7209 0.0000 38.9578 0.0000
# 6 0.0000 0.0000 0.0000 7.6813 0.0000 20.1722
#
#
#
# Elastic Compliance Matrix: (Units=1/GPa)
#
#
# Indices 1 2 3 4 5 6 
#
# 1 0.012098 0.000065 -0.002444 0.000000 0.003886 0.000000
# 2 0.000065 0.009777 -0.001315 0.000000 0.006312 0.000000
# 3 -0.002444 -0.001315 0.007783 0.000000 -0.000943 0.000000
# 4 0.000000 0.000000 0.000000 -0.021540 0.000000 0.008202
# 5 0.003886 0.006312 -0.000943 0.000000 0.031030 0.000000
# 6 0.000000 0.000000 0.000000 0.008202 0.000000 0.046450
#
#
# Mechanical properties :
#
#
# Convention : Reuss Voigt Hill
#
# Bulk Modulus (GPa) = 44.90256 53.36248 49.13252
# Shear Modulus (GPa) = 49.79620 22.63796 36.21708
#
# Velocity S-wave (km/s) = 4.73917 3.19538 4.04167
# Velocity P-wave (km/s) = 7.08511 6.13858 6.62876
#
# Compressibility (1/GPa) = 0.02227044
#
# Stress axis : x y z
#
# Youngs Moduli (GPa) = 82.65918 102.28150 128.48041
#
# Poissons Ratio (x) = -0.00667 0.31397
# Poissons Ratio (y) = -0.00539 0.16900
# Poissons Ratio (z) = 0.20199 0.13454
#
# Static dielectric constant tensor:
#      x y z
#    x 1.752040 0.000000 0.017380 
#    y 0.000000 1.835060 0.000000 
#    z 0.017380 0.000000 1.810930 
# 
# From -- ./inp_files/10400.got.cif
#   From: 2010.05.17/outbox.cif.g08.bks.cpg/sg10_6_cif.got.tgz:10400.got - 2010.06.03 11:33:40.
