data_PCOD9153844
_publ_section_title
;
Structure prediction by ZEFSAII (Michael W. Deem and Ramdas Pophale) SiO2 
 PCOD9153844
Probable space group: P 2/M
;
_chemical_formula_sum "Si O2"
_cell_formula_units_Z 15
_cell_length_a 5.103709
_cell_length_b 23.606879
_cell_length_c 5.106423
_cell_angle_alpha 90.000000
_cell_angle_beta 90.414859
_cell_angle_gamma 90.000000
_cell_volume 615.219201
_symmetry_space_group_name_H-M "P 2/M"
_symmetry_group_IT_number 10
_symmetry_cell_setting 'monoclinic'
loop_
_space_group_symop_operation_xyz
x,y,z
-x,y,-z
-x,-y,-z
x,-y,z
loop_
_atom_site_type_symbol
_atom_site_label
_atom_site_fract_x
_atom_site_fract_y
_atom_site_fract_z
Si Si1 0.500000 0.000000 0.500000
Si Si2 0.000000 0.338827 0.500000
Si Si3 0.828504 0.095480 0.236315
Si Si4 0.500000 0.196057 0.000000
Si Si5 0.500000 0.267575 0.500000
Si Si6 0.749675 0.561195 0.816779
O O1 0.612334 0.049887 0.307553
O O2 0.761751 0.299893 0.392766
O O3 0.816454 0.383254 0.656299
O O4 0.000000 0.103153 0.500000
O O5 0.710610 0.154155 0.132879
O O6 0.000000 0.072070 0.000000
O O7 0.598842 0.232891 0.754868
O O8 0.726391 0.500000 0.674063
O O9 0.500000 0.568323 0.000000
O O10 0.000000 0.556365 0.000000
#
# Coordination Sequence:
#
# PCOD9153844 Si02
#       6
#     1   2   4   2   2   4
#     4  12  26  50  76 134 152 196 256 318 398 490
#     4  12  27  46  74 112 148 209 260 348 384 492
#     4  12  27  49  83 112 159 205 253 320 401 471
#     4  12  30  55  72 116 149 214 268 336 378 492
#     4  12  31  48  83 107 160 211 282 330 410 448
#     4  10  22  42  72 109 151 197 250 324 410 487
#
# _framework density 24.381556
#
# number of rings (size 3 to 8) (size 9 to 14) (size 15 to 20)
#    0.000    0.533    0.000    6.800   11.200    3.733 
#    0.000    5.333    0.000    0.000    0.000    0.000 
#    0.000    0.000    0.000    0.000    0.000    0.000 
#
# Total GULP energy -83578.898461 kJ/mol
# GULP energy per Si atom -5571.926564 kJ/mol
# Density = 2.432606 g / cm^3
# Si number density = 24.381556 Si / 1000 Ang^3
#
#
#
# Elastic Constant Matrix: (Units=GPa)
#
#
# Indices 1 2 3 4 5 6 
#
# 1 138.2837 39.1096 49.2344 0.0000 -17.4348 0.0000
# 2 39.1096 124.6908 54.1320 0.0000 -5.2765 0.0000
# 3 49.2344 54.1320 149.0830 0.0000 -11.4230 0.0000
# 4 0.0000 0.0000 0.0000 34.7559 0.0000 1.3337
# 5 -17.4348 -5.2765 -11.4230 0.0000 68.6535 0.0000
# 6 0.0000 0.0000 0.0000 1.3337 0.0000 66.2730
#
#
#
# Elastic Compliance Matrix: (Units=1/GPa)
#
#
# Indices 1 2 3 4 5 6 
#
# 1 0.008690 -0.001738 -0.002107 0.000000 0.001723 0.000000
# 2 -0.001738 0.009870 -0.003024 0.000000 -0.000186 0.000000
# 3 -0.002107 -0.003024 0.008552 0.000000 0.000655 0.000000
# 4 0.000000 0.000000 0.000000 0.028794 0.000000 -0.000579
# 5 0.001723 -0.000186 0.000655 0.000000 0.015098 0.000000
# 6 0.000000 0.000000 0.000000 -0.000579 0.000000 0.015101
#
#
# Mechanical properties :
#
#
# Convention : Reuss Voigt Hill
#
# Bulk Modulus (GPa) = 74.77211 77.44549 76.10880
# Shear Modulus (GPa) = 47.93795 51.90858 49.92327
#
# Velocity S-wave (km/s) = 4.43895 4.61913 4.52993
# Velocity P-wave (km/s) = 7.55026 7.76411 7.65793
#
# Compressibility (1/GPa) = 0.01337397
#
# Stress axis : x y z
#
# Youngs Moduli (GPa) = 115.06883 101.31741 116.93599
#
# Poissons Ratio (x) = 0.17611 0.24637
# Poissons Ratio (y) = 0.20002 0.35361
# Poissons Ratio (z) = 0.24243 0.30638
#
# Static dielectric constant tensor:
#      x y z
#    x 1.942810 0.000000 0.040050 
#    y 0.000000 2.015460 0.000000 
#    z 0.040050 0.000000 1.933430 
# 
# From -- ./inp_files/1263.got.cif
#   From: 2010.05.17/outbox.cif.g08.bks.cpg/sg10_1_cif.got.tgz:1263.got - 2010.06.03 11:33:40.
