data_PCOD9153083
_publ_section_title
;
Structure prediction by ZEFSAII (Michael W. Deem and Ramdas Pophale) SiO2 
 PCOD9153083
Probable space group: P 2/M
;
_chemical_formula_sum "Si O2"
_cell_formula_units_Z 21
_cell_length_a 28.346352
_cell_length_b 7.550828
_cell_length_c 9.539157
_cell_angle_alpha 90.000000
_cell_angle_beta 153.025859
_cell_angle_gamma 90.000000
_cell_volume 926.112217
_symmetry_space_group_name_H-M "P 2/M"
_symmetry_group_IT_number 10
_symmetry_cell_setting 'monoclinic'
loop_
_space_group_symop_operation_xyz
x,y,z
-x,y,-z
-x,-y,-z
x,-y,z
loop_
_atom_site_type_symbol
_atom_site_label
_atom_site_fract_x
_atom_site_fract_y
_atom_site_fract_z
Si Si1 0.588420 0.706407 0.133616
Si Si2 0.790387 0.209300 0.842568
Si Si3 0.604270 0.717007 0.859019
Si Si4 0.028559 0.294438 0.874047
Si Si5 0.202656 0.288251 0.813790
Si Si6 0.000000 0.000000 0.000000
O O1 0.559504 0.500000 0.036312
O O2 0.696788 0.715826 0.502011
O O3 0.500000 0.786299 0.000000
O O4 0.598533 0.780015 0.003956
O O5 0.791861 0.000000 0.829104
O O6 0.898416 0.282493 0.068297
O O7 0.774936 0.249858 0.964855
O O8 0.500000 0.766551 0.500000
O O9 0.608869 0.500000 0.871598
O O10 0.706480 0.778778 0.046585
O O11 0.026890 0.500000 0.913463
O O12 0.912700 0.224477 0.530992
O O13 0.065317 0.158221 0.089349
O O14 0.198265 0.500000 0.787145
#
# Coordination Sequence:
#
# PCOD9153083 Si02
#       6
#     4   4   4   4   4   1
#     4  10  21  39  66  95 126 169 220 275 338 405
#     4  12  25  41  64  94 132 174 223 279 337 401
#     4   9  18  35  62  94 124 158 210 272 331 397
#     4  11  25  44  69  98 136 180 225 274 335 402
#     4  10  22  40  65  94 127 173 224 274 335 401
#     4  12  26  44  66 102 140 176 220 284 332 400
#
# _framework density 22.675436999999999
#
# number of rings (size 3 to 8) (size 9 to 14) (size 15 to 20)
#    0.000    1.524    0.952    3.714    4.000    5.714 
#    0.000    0.952    0.000    2.286    0.000    0.000 
#    0.000    0.000    0.000    0.000    0.000    0.000 
#
# Total GULP energy -117207.923888 kJ/mol
# GULP energy per Si atom -5581.329709 kJ/mol
# Density = 2.262383 g / cm^3
# Si number density = 22.675437 Si / 1000 Ang^3
#
#
#
# Elastic Constant Matrix: (Units=GPa)
#
#
# Indices 1 2 3 4 5 6 
#
# 1 240.6570 12.0812 98.0980 0.0000 10.4473 0.0000
# 2 12.0812 93.7340 -24.2372 0.0000 1.4199 0.0000
# 3 98.0980 -24.2372 106.0284 0.0000 5.0220 0.0000
# 4 0.0000 0.0000 0.0000 59.8998 0.0000 -28.4507
# 5 10.4473 1.4199 5.0220 0.0000 41.0776 0.0000
# 6 0.0000 0.0000 0.0000 -28.4507 0.0000 76.2690
#
#
#
# Elastic Compliance Matrix: (Units=1/GPa)
#
#
# Indices 1 2 3 4 5 6 
#
# 1 0.007362 -0.002855 -0.007423 0.000000 -0.000866 0.000000
# 2 -0.002855 0.012467 0.005509 0.000000 -0.000378 0.000000
# 3 -0.007423 0.005509 0.017580 0.000000 -0.000452 0.000000
# 4 0.000000 0.000000 0.000000 0.020289 0.000000 0.007569
# 5 -0.000866 -0.000378 -0.000452 0.000000 0.024633 0.000000
# 6 0.000000 0.000000 0.000000 0.007569 0.000000 0.015935
#
#
# Mechanical properties :
#
#
# Convention : Reuss Voigt Hill
#
# Bulk Modulus (GPa) = 35.87942 68.03372 51.95657
# Shear Modulus (GPa) = 42.70072 59.08111 50.89091
#
# Velocity S-wave (km/s) = 4.34421 5.10996 4.74256
# Velocity P-wave (km/s) = 6.40471 8.05506 7.27682
#
# Compressibility (1/GPa) = 0.02787113
#
# Stress axis : x y z
#
# Youngs Moduli (GPa) = 135.83169 80.21315 56.88263
#
# Poissons Ratio (x) = 0.22902 0.42224
# Poissons Ratio (y) = 0.38782 -0.31339
# Poissons Ratio (z) = 1.00828 -0.44192
#
# Static dielectric constant tensor:
#      x y z
#    x 1.862080 0.000000 -0.015000 
#    y 0.000000 1.815510 0.000000 
#    z -0.015000 0.000000 1.851430 
# 
# From -- ./inp_files/36864.got.cif
#   From: 2010.05.17/outbox.cif.g08.bks.cpg/sg10_19_cif.got.tgz:36864.got - 2010.06.03 11:33:40.
