data_PCOD9153188
_publ_section_title
;
Structure prediction by ZEFSAII (Michael W. Deem and Ramdas Pophale) SiO2 
 PCOD9153188
Probable space group: P 2/M
;
_chemical_formula_sum "Si O2"
_cell_formula_units_Z 20
_cell_length_a 5.215411
_cell_length_b 8.170203
_cell_length_c 21.591064
_cell_angle_alpha 90.000000
_cell_angle_beta 58.682221
_cell_angle_gamma 90.000000
_cell_volume 785.967535
_symmetry_space_group_name_H-M "P 2/M"
_symmetry_group_IT_number 10
_symmetry_cell_setting 'monoclinic'
loop_
_space_group_symop_operation_xyz
x,y,z
-x,y,-z
-x,-y,-z
x,-y,z
loop_
_atom_site_type_symbol
_atom_site_label
_atom_site_fract_x
_atom_site_fract_y
_atom_site_fract_z
Si Si1 0.771133 0.676058 0.154100
Si Si2 0.638861 0.195471 0.047171
Si Si3 0.117654 0.000000 0.812712
Si Si4 0.844320 0.000000 0.711701
Si Si5 0.685227 0.682760 0.674379
Si Si6 0.344548 0.697699 0.458027
O O1 0.920779 0.500000 0.127812
O O2 0.563634 0.711996 0.120539
O O3 0.972811 0.836015 0.140008
O O4 0.566901 0.668625 0.241291
O O5 0.585976 0.000000 0.060952
O O6 0.500000 0.253067 0.000000
O O7 0.000000 0.219259 0.000000
O O8 0.481581 0.000000 0.768005
O O9 0.002834 0.000000 0.757705
O O10 0.897257 0.168342 0.668177
O O11 0.828636 0.500000 0.651040
O O12 0.544301 0.728628 0.625768
O O13 0.500000 0.764419 0.500000
O O14 0.347258 0.500000 0.463136
O O15 0.000000 0.752464 0.500000
#
# Coordination Sequence:
#
# PCOD9153188 Si02
#       6
#     4   4   2   2   4   4
#     4  10  21  40  66  94 125 163 207 257 309 365
#     4  10  22  41  64  90 124 163 203 250 306 366
#     4  10  22  40  58  88 124 156 199 250 303 364
#     4  10  22  38  60  86 122 160 197 250 311 354
#     4   9  20  39  63  93 124 161 210 256 305 366
#     4   9  18  34  57  84 119 161 201 247 303 360
#
# _framework density 25.446345000000001
#
# number of rings (size 3 to 8) (size 9 to 14) (size 15 to 20)
#    0.000    2.400    1.000    0.000    0.000    8.000 
#    0.000   11.000    0.000    0.000    0.000    0.000 
#    0.000    0.000    0.000    0.000    0.000    0.000 
#
# Total GULP energy -111848.714617 kJ/mol
# GULP energy per Si atom -5592.435731 kJ/mol
# Density = 2.538843 g / cm^3
# Si number density = 25.446345 Si / 1000 Ang^3
#
#
#
# Elastic Constant Matrix: (Units=GPa)
#
#
# Indices 1 2 3 4 5 6 
#
# 1 154.5590 39.7860 77.6331 0.0000 54.4282 0.0000
# 2 39.7860 184.3505 22.8616 0.0000 34.7042 0.0000
# 3 77.6331 22.8616 190.4512 0.0000 54.8232 0.0000
# 4 0.0000 0.0000 0.0000 23.0610 0.0000 15.4649
# 5 54.4282 34.7042 54.8232 0.0000 56.8569 0.0000
# 6 0.0000 0.0000 0.0000 15.4649 0.0000 19.6039
#
#
#
# Elastic Compliance Matrix: (Units=1/GPa)
#
#
# Indices 1 2 3 4 5 6 
#
# 1 0.010266 -0.000538 -0.001918 0.000000 -0.007650 0.000000
# 2 -0.000538 0.006188 0.000575 0.000000 -0.003817 0.000000
# 3 -0.001918 0.000575 0.007663 0.000000 -0.005904 0.000000
# 4 0.000000 0.000000 0.000000 0.092070 0.000000 -0.072631
# 5 -0.007650 -0.003817 -0.005904 0.000000 0.032933 0.000000
# 6 0.000000 0.000000 0.000000 -0.072631 0.000000 0.108307
#
#
# Mechanical properties :
#
#
# Convention : Reuss Voigt Hill
#
# Bulk Modulus (GPa) = 49.12788 89.99135 69.55962
# Shear Modulus (GPa) = 18.65864 45.84303 32.25084
#
# Velocity S-wave (km/s) = 2.71080 4.24908 3.56393
# Velocity P-wave (km/s) = 5.39873 7.71458 6.65812
#
# Compressibility (1/GPa) = 0.02035504
#
# Stress axis : x y z
#
# Youngs Moduli (GPa) = 97.41272 161.61236 130.49804
#
# Poissons Ratio (x) = 0.08688 0.25030
# Poissons Ratio (y) = 0.05237 -0.07504
# Poissons Ratio (z) = 0.18684 -0.09293
#
# Static dielectric constant tensor:
#      x y z
#    x 2.078220 0.000000 -0.102630 
#    y 0.000000 2.101580 0.000000 
#    z -0.102630 0.000000 2.083150 
# 
# From -- ./inp_files/72895.got.cif
#   From: 2010.05.17/outbox.cif.g08.bks.cpg/sg10_37_cif.got.tgz:72895.got - 2010.06.03 11:33:40.
