data_PCOD9153556
_publ_section_title
;
Structure prediction by ZEFSAII (Michael W. Deem and Ramdas Pophale) SiO2 
 PCOD9153556
Probable space group: P 2/M
;
_chemical_formula_sum "Si O2"
_cell_formula_units_Z 21
_cell_length_a 26.215018
_cell_length_b 7.205720
_cell_length_c 9.651698
_cell_angle_alpha 90.000000
_cell_angle_beta 150.498538
_cell_angle_gamma 90.000000
_cell_volume 897.820830
_symmetry_space_group_name_H-M "P 2/M"
_symmetry_group_IT_number 10
_symmetry_cell_setting 'monoclinic'
loop_
_space_group_symop_operation_xyz
x,y,z
-x,y,-z
-x,-y,-z
x,-y,z
loop_
_atom_site_type_symbol
_atom_site_label
_atom_site_fract_x
_atom_site_fract_y
_atom_site_fract_z
Si Si1 0.599682 0.726127 0.145841
Si Si2 0.794185 0.274420 0.787042
Si Si3 0.598344 0.726070 0.823953
Si Si4 0.970534 0.278431 0.716003
Si Si5 0.209724 0.275470 0.907918
Si Si6 0.000000 0.000000 0.000000
O O1 0.600070 0.500000 0.146178
O O2 0.704856 0.784925 0.471209
O O3 0.500000 0.782367 0.000000
O O4 0.593282 0.785630 0.971321
O O5 0.795127 0.500000 0.788681
O O6 0.910346 0.217658 0.021884
O O7 0.773285 0.213665 0.895052
O O8 0.500000 0.782279 0.500000
O O9 0.598649 0.500000 0.827070
O O10 0.701763 0.785030 0.988702
O O11 0.964605 0.500000 0.723175
O O12 0.901952 0.231024 0.420195
O O13 0.934546 0.163104 0.762266
O O14 0.214342 0.500000 0.923437
#
# Coordination Sequence:
#
# PCOD9153556 Si02
#       6
#     4   4   4   4   4   1
#     4   9  16  25  41  71 113 155 196 246 297 348
#     4   9  17  31  53  80 114 156 198 245 300 354
#     4   9  16  25  41  71 113 155 196 246 297 348
#     4  10  22  39  61  87 122 159 200 246 298 358
#     4   9  17  31  53  80 114 156 198 245 300 354
#     4  12  26  40  58  90 124 160 200 248 300 356
#
# _framework density 23.389970000000002
#
# number of rings (size 3 to 8) (size 9 to 14) (size 15 to 20)
#    0.000    2.667    0.000    2.000    2.667    6.857 
#    0.000    1.905    0.000    0.000    0.000    1.333 
#    0.000    0.000    0.000    0.000    0.000    0.000 
#
# Total GULP energy -117179.514986 kJ/mol
# GULP energy per Si atom -5579.976904 kJ/mol
# Density = 2.333673 g / cm^3
# Si number density = 23.389970 Si / 1000 Ang^3
#
#
#
# Elastic Constant Matrix: (Units=GPa)
#
#
# Indices 1 2 3 4 5 6 
#
# 1 159.0947 5.5406 110.0127 0.0000 -12.1584 0.0000
# 2 5.5406 125.4985 15.9969 0.0000 -6.4991 0.0000
# 3 110.0127 15.9969 236.9776 0.0000 -15.5989 0.0000
# 4 0.0000 0.0000 0.0000 -41.6064 0.0000 29.8529
# 5 -12.1584 -6.4991 -15.5989 0.0000 49.3493 0.0000
# 6 0.0000 0.0000 0.0000 29.8529 0.0000 -93.2004
#
#
#
# Elastic Compliance Matrix: (Units=1/GPa)
#
#
# Indices 1 2 3 4 5 6 
#
# 1 0.009305 0.000183 -0.004268 0.000000 0.000967 0.000000
# 2 0.000183 0.008081 -0.000569 0.000000 0.000929 0.000000
# 3 -0.004268 -0.000569 0.006297 0.000000 0.000864 0.000000
# 4 0.000000 0.000000 0.000000 -0.031207 0.000000 -0.009996
# 5 0.000967 0.000929 0.000864 0.000000 0.020897 0.000000
# 6 0.000000 0.000000 0.000000 -0.009996 0.000000 -0.013931
#
#
# Mechanical properties :
#
#
# Convention : Reuss Voigt Hill
#
# Bulk Modulus (GPa) = 69.57286 87.18568 78.37927
# Shear Modulus (GPa) = 369.25445 8.90986 189.08215
#
# Velocity S-wave (km/s) = 12.57821 1.95385 9.00080
# Velocity P-wave (km/s) = 15.51638 6.51504 11.89966
#
# Compressibility (1/GPa) = 0.01437342
#
# Stress axis : x y z
#
# Youngs Moduli (GPa) = 107.47485 123.74947 158.81803
#
# Poissons Ratio (x) = -0.02269 0.67786
# Poissons Ratio (y) = -0.01971 0.09044
# Poissons Ratio (z) = 0.45872 0.07047
#
# Static dielectric constant tensor:
#      x y z
#    x 1.914120 0.000000 -0.009980 
#    y 0.000000 1.859850 0.000000 
#    z -0.009980 0.000000 1.827400 
# 
# From -- ./inp_files/36862.got.cif
#   From: 2010.05.17/outbox.cif.g08.bks.cpg/sg10_19_cif.got.tgz:36862.got - 2010.06.03 11:33:40.
