data_PCOD9153406
_publ_section_title
;
Structure prediction by ZEFSAII (Michael W. Deem and Ramdas Pophale) SiO2 
 PCOD9153406
Probable space group: P 2/M
;
_chemical_formula_sum "Si O2"
_cell_formula_units_Z 26
_cell_length_a 7.232810
_cell_length_b 10.109230
_cell_length_c 19.132215
_cell_angle_alpha 90.000000
_cell_angle_beta 121.574617
_cell_angle_gamma 90.000000
_cell_volume 1191.815624
_symmetry_space_group_name_H-M "P 2/M"
_symmetry_group_IT_number 10
_symmetry_cell_setting 'monoclinic'
loop_
_space_group_symop_operation_xyz
x,y,z
-x,y,-z
-x,-y,-z
x,-y,z
loop_
_atom_site_type_symbol
_atom_site_label
_atom_site_fract_x
_atom_site_fract_y
_atom_site_fract_z
Si Si1 0.119443 0.849525 0.354671
Si Si2 0.009382 0.649225 0.787467
Si Si3 0.385342 0.149464 0.701152
Si Si4 0.758282 0.839451 0.472465
Si Si5 0.739165 0.144637 0.079778
Si Si6 0.000000 0.225731 0.000000
Si Si7 0.656836 0.645733 0.840739
O O1 0.105370 0.739719 0.292949
O O2 0.870818 0.857980 0.333209
O O3 0.263683 0.808837 0.450078
O O4 0.179992 0.000000 0.344696
O O5 0.062141 0.500000 0.774720
O O6 0.207330 0.735494 0.857862
O O7 0.841975 0.638048 0.818066
O O8 0.397961 0.198497 0.622707
O O9 0.494434 0.245776 0.778186
O O10 0.474476 0.000000 0.724376
O O11 0.000000 0.791115 0.500000
O O12 0.761148 0.000000 0.470328
O O13 0.913430 0.148671 0.050746
O O14 0.757243 0.000000 0.118969
O O15 0.500000 0.154770 0.000000
O O16 0.208486 0.310507 0.064788
O O17 0.560258 0.500000 0.830319
#
# Coordination Sequence:
#
# PCOD9153406 Si02
#       7
#     4   4   4   4   4   2   4
#     4   9  17  32  56  82 109 141 178 225 274 323
#     4  10  22  38  53  76 110 148 183 220 272 330
#     4   9  18  32  55  84 108 136 180 228 275 329
#     4   7  12  27  50  77 108 139 173 218 272 325
#     4  10  22  39  60  85 112 143 187 238 284 337
#     4  10  22  40  60  82 112 152 188 234 286 336
#     4  10  22  39  56  75 107 147 186 225 271 330
#
# _framework density 21.815453999999999
#
# number of rings (size 3 to 8) (size 9 to 14) (size 15 to 20)
#    0.000    2.769    0.000    2.769    2.154    5.231 
#    0.000    1.538    0.000    7.385    0.000    0.000 
#    0.000    0.000    0.000    0.000    0.000    0.000 
#
# Total GULP energy -145091.177001 kJ/mol
# GULP energy per Si atom -5580.429885 kJ/mol
# Density = 2.176580 g / cm^3
# Si number density = 21.815454 Si / 1000 Ang^3
#
#
#
# Elastic Constant Matrix: (Units=GPa)
#
#
# Indices 1 2 3 4 5 6 
#
# 1 38.6166 17.1410 12.6836 0.0000 11.0905 0.0000
# 2 17.1410 149.9762 81.3654 0.0000 2.4271 0.0000
# 3 12.6836 81.3654 136.0392 0.0000 6.8224 0.0000
# 4 0.0000 0.0000 0.0000 -3.8330 0.0000 -3.5123
# 5 11.0905 2.4271 6.8224 0.0000 36.9093 0.0000
# 6 0.0000 0.0000 0.0000 -3.5123 0.0000 4.4741
#
#
#
# Elastic Compliance Matrix: (Units=1/GPa)
#
#
# Indices 1 2 3 4 5 6 
#
# 1 0.029894 -0.002961 -0.000581 0.000000 -0.008680 0.000000
# 2 -0.002961 0.010171 -0.005873 0.000000 0.001306 0.000000
# 3 -0.000581 -0.005873 0.010991 0.000000 -0.001471 0.000000
# 4 0.000000 0.000000 0.000000 -0.151739 0.000000 -0.119119
# 5 -0.008680 0.001306 -0.001471 0.000000 0.029888 0.000000
# 6 0.000000 0.000000 0.000000 -0.119119 0.000000 0.129996
#
#
# Mechanical properties :
#
#
# Convention : Reuss Voigt Hill
#
# Bulk Modulus (GPa) = 31.03006 60.77912 45.90459
# Shear Modulus (GPa) = 56.32361 21.73953 39.03157
#
# Velocity S-wave (km/s) = 5.08668 3.16019 4.23445
# Velocity P-wave (km/s) = 6.98239 6.42159 6.70785
#
# Compressibility (1/GPa) = 0.03222681
#
# Stress axis : x y z
#
# Youngs Moduli (GPa) = 33.45186 98.31727 90.98097
#
# Poissons Ratio (x) = 0.29112 0.05284
# Poissons Ratio (y) = 0.09905 0.53432
# Poissons Ratio (z) = 0.01943 0.57740
#
# Static dielectric constant tensor:
#      x y z
#    x 1.877860 0.000000 -0.013500 
#    y 0.000000 1.777050 0.000000 
#    z -0.013500 0.000000 1.817150 
# 
# From -- ./inp_files/82231.got.cif
#   From: 2010.05.17/outbox.cif.g08.bks.cpg/sg10_42_cif.got.tgz:82231.got - 2010.06.03 11:33:40.
