data_PCOD9153923
_publ_section_title
;
Structure prediction by ZEFSAII (Michael W. Deem and Ramdas Pophale) SiO2 
 PCOD9153923
Probable space group: P 2/M
;
_chemical_formula_sum "Si O2"
_cell_formula_units_Z 12
_cell_length_a 5.134530
_cell_length_b 16.993496
_cell_length_c 5.004593
_cell_angle_alpha 90.000000
_cell_angle_beta 92.808542
_cell_angle_gamma 90.000000
_cell_volume 436.144323
_symmetry_space_group_name_H-M "P 2/M"
_symmetry_group_IT_number 10
_symmetry_cell_setting 'monoclinic'
loop_
_space_group_symop_operation_xyz
x,y,z
-x,y,-z
-x,-y,-z
x,-y,z
loop_
_atom_site_type_symbol
_atom_site_label
_atom_site_fract_x
_atom_site_fract_y
_atom_site_fract_z
Si Si1 0.318537 0.591743 0.226095
Si Si2 0.258448 0.000000 0.188308
Si Si3 0.261281 0.827475 0.196101
Si Si4 0.000000 0.296659 0.500000
O O1 0.500000 0.596187 0.500000
O O2 0.261540 0.500000 0.174245
O O3 0.057690 0.640179 0.270853
O O4 0.500000 0.623701 0.000000
O O5 0.262635 0.084952 0.324933
O O6 0.500000 0.000000 0.000000
O O7 0.000000 0.000000 0.000000
O O8 0.226970 0.764589 0.430757
O O9 0.500000 0.818831 0.000000
O O10 0.000000 0.819310 0.000000
#
# Coordination Sequence:
#
# PCOD9153923 Si02
#       4
#     4   2   4   2
#     4  10  24  45  68  96 134 180 228 280 345 418
#     4   8  16  37  60  85 126 176 223 272 333 405
#     4  10  23  40  63  94 133 177 226 281 341 406
#     4  12  25  35  66  94 136 170 228 283 351 396
#
# _framework density 27.513828
#
# number of rings (size 3 to 8) (size 9 to 14) (size 15 to 20)
#    0.000    2.000    0.000    1.500    9.333    0.667 
#    0.000    5.000    0.000   12.000    0.000    0.000 
#    0.000    0.000    0.000    0.000    0.000    0.000 
#
# Total GULP energy -67098.568207 kJ/mol
# GULP energy per Si atom -5591.547351 kJ/mol
# Density = 2.745121 g / cm^3
# Si number density = 27.513828 Si / 1000 Ang^3
#
#
#
# Elastic Constant Matrix: (Units=GPa)
#
#
# Indices 1 2 3 4 5 6 
#
# 1 206.5437 23.0701 74.7218 0.0000 -28.8036 0.0000
# 2 23.0701 220.9194 48.2511 0.0000 -55.4208 0.0000
# 3 74.7218 48.2511 175.9795 0.0000 -48.7661 0.0000
# 4 0.0000 0.0000 0.0000 27.5486 0.0000 -40.1250
# 5 -28.8036 -55.4208 -48.7661 0.0000 75.0964 0.0000
# 6 0.0000 0.0000 0.0000 -40.1250 0.0000 13.2532
#
#
#
# Elastic Compliance Matrix: (Units=1/GPa)
#
#
# Indices 1 2 3 4 5 6 
#
# 1 0.005757 0.000095 -0.002243 0.000000 0.000822 0.000000
# 2 0.000095 0.005589 -0.000512 0.000000 0.003829 0.000000
# 3 -0.002243 -0.000512 0.007843 0.000000 0.003856 0.000000
# 4 0.000000 0.000000 0.000000 -0.010646 0.000000 -0.032231
# 5 0.000822 0.003829 0.003856 0.000000 0.018961 0.000000
# 6 0.000000 0.000000 0.000000 -0.032231 0.000000 -0.022129
#
#
# Mechanical properties :
#
#
# Convention : Reuss Voigt Hill
#
# Bulk Modulus (GPa) = 72.09770 99.50319 85.80044
# Shear Modulus (GPa) = 326.42483 53.67294 190.04888
#
# Velocity S-wave (km/s) = 10.90403 4.42154 8.32009
# Velocity P-wave (km/s) = 13.59380 7.89366 11.11534
#
# Compressibility (1/GPa) = 0.01387007
#
# Stress axis : x y z
#
# Youngs Moduli (GPa) = 173.70322 178.92717 127.49455
#
# Poissons Ratio (x) = -0.01696 0.28593
# Poissons Ratio (y) = -0.01646 0.06523
# Poissons Ratio (z) = 0.38957 0.09155
#
# Static dielectric constant tensor:
#      x y z
#    x 2.736140 0.000000 -0.373260 
#    y 0.000000 2.158030 0.000000 
#    z -0.373260 0.000000 2.779990 
# 
# From -- ./inp_files/540.got.cif
#   From: 2010.05.17/outbox.cif.g08.bks.cpg/sg10_1_cif.got.tgz:540.got - 2010.06.03 11:33:40.
