data_PCOD9153153
_publ_section_title
;
Structure prediction by ZEFSAII (Michael W. Deem and Ramdas Pophale) SiO2 
 PCOD9153153
Probable space group: P 2/M
;
_chemical_formula_sum "Si O2"
_cell_formula_units_Z 32
_cell_length_a 12.372220
_cell_length_b 8.691094
_cell_length_c 15.695223
_cell_angle_alpha 90.000000
_cell_angle_beta 90.077579
_cell_angle_gamma 90.000000
_cell_volume 1687.676385
_symmetry_space_group_name_H-M "P 2/M"
_symmetry_group_IT_number 10
_symmetry_cell_setting 'monoclinic'
loop_
_space_group_symop_operation_xyz
x,y,z
-x,y,-z
-x,-y,-z
x,-y,z
loop_
_atom_site_type_symbol
_atom_site_label
_atom_site_fract_x
_atom_site_fract_y
_atom_site_fract_z
Si Si1 0.772777 0.185354 0.346964
Si Si2 0.627185 0.684958 0.499179
Si Si3 0.728581 0.183633 0.154539
Si Si4 0.267135 0.314793 0.159858
Si Si5 0.126226 0.813455 0.004837
Si Si6 0.228710 0.183058 0.347292
Si Si7 0.998181 0.324239 0.601781
Si Si8 0.504678 0.677641 0.101788
O O1 0.688220 0.251463 0.415610
O O2 0.750850 0.238939 0.250282
O O3 0.892182 0.242992 0.369796
O O4 0.767938 0.000000 0.350786
O O5 0.500000 0.726809 0.500000
O O6 0.635477 0.500000 0.499149
O O7 0.689287 0.748045 0.582458
O O8 0.606438 0.225676 0.131559
O O9 0.741635 0.000000 0.156117
O O10 0.808403 0.240356 0.079516
O O11 0.261491 0.500000 0.159124
O O12 0.184848 0.250924 0.088878
O O13 0.246800 0.251366 0.253715
O O14 0.389002 0.268024 0.134816
O O15 0.131397 0.000000 0.008128
O O16 0.000000 0.769771 0.000000
O O17 0.107560 0.231055 0.372317
O O18 0.240174 0.000000 0.346418
O O19 0.992344 0.500000 0.634748
O O20 0.000000 0.331662 0.500000
O O21 0.520328 0.500000 0.129166
O O22 0.500000 0.680304 0.000000
#
# Coordination Sequence:
#
# PCOD9153153 Si02
#       8
#     4   4   4   4   4   4   4   4
#     4  11  24  41  64  96 130 167 212 259 313 375
#     4  11  25  45  66  91 127 168 211 262 317 374
#     4  10  23  40  61  93 127 162 208 258 308 369
#     4  11  24  42  64  93 127 164 211 262 314 376
#     4  10  22  41  63  89 126 169 209 256 314 373
#     4  12  26  43  67  95 127 166 210 261 317 378
#     4  11  23  42  68  95 126 164 210 261 315 374
#     4  10  21  40  64  90 122 162 208 259 311 370
#
# _framework density 18.960981
#
# number of rings (size 3 to 8) (size 9 to 14) (size 15 to 20)
#    0.000    1.250    2.500    2.625    3.500    4.000 
#    0.000    0.000    0.000    0.000    0.000    0.000 
#    0.000    0.000    0.000    0.000    0.000    0.000 
#
# Total GULP energy -178840.926947 kJ/mol
# GULP energy per Si atom -5588.778967 kJ/mol
# Density = 1.891782 g / cm^3
# Si number density = 18.960981 Si / 1000 Ang^3
#
#
#
# Elastic Constant Matrix: (Units=GPa)
#
#
# Indices 1 2 3 4 5 6 
#
# 1 182.2475 47.5892 98.2749 0.0000 2.0637 0.0000
# 2 47.5892 52.5886 42.4315 0.0000 3.7160 0.0000
# 3 98.2749 42.4315 168.9009 0.0000 4.4459 0.0000
# 4 0.0000 0.0000 0.0000 26.1387 0.0000 16.2484
# 5 2.0637 3.7160 4.4459 0.0000 22.7166 0.0000
# 6 0.0000 0.0000 0.0000 16.2484 0.0000 102.2699
#
#
#
# Elastic Compliance Matrix: (Units=1/GPa)
#
#
# Indices 1 2 3 4 5 6 
#
# 1 0.008898 -0.004907 -0.003964 0.000000 0.000770 0.000000
# 2 -0.004907 0.026728 -0.003775 0.000000 -0.003187 0.000000
# 3 -0.003964 -0.003775 0.009197 0.000000 -0.000822 0.000000
# 4 0.000000 0.000000 0.000000 0.042450 0.000000 -0.006744
# 5 0.000770 -0.003187 -0.000822 0.000000 0.044633 0.000000
# 6 0.000000 0.000000 0.000000 -0.006744 0.000000 0.010850
#
#
# Mechanical properties :
#
#
# Convention : Reuss Voigt Hill
#
# Bulk Modulus (GPa) = 51.20744 86.70313 68.95528
# Shear Modulus (GPa) = 28.64359 44.58779 36.61569
#
# Velocity S-wave (km/s) = 3.89094 4.85454 4.39920
# Velocity P-wave (km/s) = 6.87395 8.78911 7.88986
#
# Compressibility (1/GPa) = 0.01952841
#
# Stress axis : x y z
#
# Youngs Moduli (GPa) = 112.39042 37.41430 108.72580
#
# Poissons Ratio (x) = 0.18361 0.43104
# Poissons Ratio (y) = 0.55154 0.41047
# Poissons Ratio (z) = 0.44557 0.14125
#
# Static dielectric constant tensor:
#      x y z
#    x 1.614380 0.000000 -0.010800 
#    y 0.000000 1.652550 0.000000 
#    z -0.010800 0.000000 1.668730 
# 
# From -- ./inp_files/49929.got.cif
#   From: 2010.05.17/outbox.cif.g08.bks.cpg/sg10_25_cif.got.tgz:49929.got - 2010.06.03 11:33:40.
