data_PCOD9153260
_publ_section_title
;
Structure prediction by ZEFSAII (Michael W. Deem and Ramdas Pophale) SiO2 
 PCOD9153260
Probable space group: P 2/M
;
_chemical_formula_sum "Si O2"
_cell_formula_units_Z 32
_cell_length_a 14.029051
_cell_length_b 21.102957
_cell_length_c 13.934952
_cell_angle_alpha 90.000000
_cell_angle_beta 158.836719
_cell_angle_gamma 90.000000
_cell_volume 1489.418581
_symmetry_space_group_name_H-M "P 2/M"
_symmetry_group_IT_number 10
_symmetry_cell_setting 'monoclinic'
loop_
_space_group_symop_operation_xyz
x,y,z
-x,y,-z
-x,-y,-z
x,-y,z
loop_
_atom_site_type_symbol
_atom_site_label
_atom_site_fract_x
_atom_site_fract_y
_atom_site_fract_z
Si Si1 0.463276 0.570315 0.349305
Si Si2 0.349529 0.074492 0.959838
Si Si3 0.853565 0.640207 0.584310
Si Si4 0.908107 0.234591 0.133462
Si Si5 0.721407 0.295253 0.788433
Si Si6 0.554796 0.730310 0.162250
Si Si7 0.186777 0.852371 0.519250
Si Si8 0.223527 0.571976 0.792045
O O1 0.500000 0.568560 0.500000
O O2 0.361155 0.500000 0.227352
O O3 0.718105 0.586636 0.522811
O O4 0.301043 0.635116 0.183441
O O5 0.062948 0.106283 0.682619
O O6 0.322390 0.000000 0.953944
O O7 0.500000 0.082582 0.000000
O O8 0.543705 0.108035 0.218843
O O9 0.666674 0.670075 0.325643
O O10 0.912826 0.702352 0.702567
O O11 0.112691 0.614844 0.773526
O O12 0.092948 0.175332 0.328373
O O13 0.721228 0.239652 0.866326
O O14 0.712465 0.244972 0.039223
O O15 0.500000 0.289832 0.500000
O O16 0.000000 0.292230 0.000000
O O17 0.759197 0.788505 0.368381
O O18 0.500000 0.718986 0.000000
O O19 0.242474 0.500000 0.846757
O O20 0.000000 0.574286 0.500000
O O21 0.500000 0.585272 0.000000
#
# Coordination Sequence:
#
# PCOD9153260 Si02
#       8
#     4   4   4   4   4   4   4   4
#     4  10  21  41  67  95 125 163 214 275 349 425
#     4  11  23  38  60  92 133 186 231 265 307 362
#     4  11  24  40  66  91 127 167 217 275 333 402
#     4  11  24  40  64  97 127 170 214 269 332 392
#     4  11  24  43  70  95 131 165 210 276 350 415
#     4  11  25  40  62  95 129 177 219 271 327 385
#     4  11  23  39  63  88 135 170 226 265 311 370
#     4  10  24  43  61  83 115 160 212 267 325 388
#
# _framework density 21.484893
#
# number of rings (size 3 to 8) (size 9 to 14) (size 15 to 20)
#    0.000    1.250    2.500    3.000    7.000    2.250 
#    0.000    4.375    0.000    1.125    0.000    0.000 
#    0.000   10.000    0.000    0.000    0.000    0.000 
#
# Total GULP energy -178884.406485 kJ/mol
# GULP energy per Si atom -5590.137703 kJ/mol
# Density = 2.143599 g / cm^3
# Si number density = 21.484893 Si / 1000 Ang^3
#
#
#
# Elastic Constant Matrix: (Units=GPa)
#
#
# Indices 1 2 3 4 5 6 
#
# 1 94.9810 26.4042 39.4325 0.0000 2.8572 0.0000
# 2 26.4042 108.2363 41.4706 0.0000 -10.3709 0.0000
# 3 39.4325 41.4706 130.8637 0.0000 -2.0565 0.0000
# 4 0.0000 0.0000 0.0000 32.0152 0.0000 3.3781
# 5 2.8572 -10.3709 -2.0565 0.0000 32.9823 0.0000
# 6 0.0000 0.0000 0.0000 3.3781 0.0000 12.5123
#
#
#
# Elastic Compliance Matrix: (Units=1/GPa)
#
#
# Indices 1 2 3 4 5 6 
#
# 1 0.012451 -0.002016 -0.003143 0.000000 -0.001909 0.000000
# 2 -0.002016 0.011169 -0.002877 0.000000 0.003507 0.000000
# 3 -0.003143 -0.002877 0.009500 0.000000 -0.000040 0.000000
# 4 0.000000 0.000000 0.000000 0.032151 0.000000 -0.008680
# 5 -0.001909 0.003507 -0.000040 0.000000 0.031585 0.000000
# 6 0.000000 0.000000 0.000000 -0.008680 0.000000 0.082265
#
#
# Mechanical properties :
#
#
# Convention : Reuss Voigt Hill
#
# Bulk Modulus (GPa) = 58.65750 60.96618 59.81184
# Shear Modulus (GPa) = 24.89101 30.62020 27.75561
#
# Velocity S-wave (km/s) = 3.40742 3.77927 3.59815
# Velocity P-wave (km/s) = 6.54536 6.89070 6.72025
#
# Compressibility (1/GPa) = 0.01704812
#
# Stress axis : x y z
#
# Youngs Moduli (GPa) = 80.31401 89.53185 105.26728
#
# Poissons Ratio (x) = 0.18051 0.33085
# Poissons Ratio (y) = 0.16192 0.30284
# Poissons Ratio (z) = 0.25242 0.25757
#
# Static dielectric constant tensor:
#      x y z
#    x 1.807450 0.000000 -0.024020 
#    y 0.000000 1.801850 0.000000 
#    z -0.024020 0.000000 1.858980 
# 
# From -- ./inp_files/67963.got.cif
#   From: 2010.05.17/outbox.cif.g08.bks.cpg/sg10_34_cif.got.tgz:67963.got - 2010.06.03 11:33:40.
