data_PCOD9153002
_publ_section_title
;
Structure prediction by ZEFSAII (Michael W. Deem and Ramdas Pophale) SiO2 
 PCOD9153002
Probable space group: P 2/M
;
_chemical_formula_sum "Si O2"
_cell_formula_units_Z 32
_cell_length_a 11.037831
_cell_length_b 15.482093
_cell_length_c 14.319965
_cell_angle_alpha 90.000000
_cell_angle_beta 149.360812
_cell_angle_gamma 90.000000
_cell_volume 1247.126082
_symmetry_space_group_name_H-M "P 2/M"
_symmetry_group_IT_number 10
_symmetry_cell_setting 'monoclinic'
loop_
_space_group_symop_operation_xyz
x,y,z
-x,y,-z
-x,-y,-z
x,-y,z
loop_
_atom_site_type_symbol
_atom_site_label
_atom_site_fract_x
_atom_site_fract_y
_atom_site_fract_z
Si Si1 0.167734 0.403816 0.204472
Si Si2 0.269214 0.856221 0.205114
Si Si3 0.248874 0.095878 0.558616
Si Si4 0.496806 0.319765 0.703811
Si Si5 0.509899 0.105473 0.900701
Si Si6 0.016551 0.600667 0.399603
Si Si7 0.956146 0.894721 0.763059
Si Si8 0.249778 0.604264 0.951646
O O1 0.350440 0.234441 0.216083
O O2 0.414135 0.374788 0.325936
O O3 0.003101 0.361353 0.173345
O O4 0.000000 0.403055 0.000000
O O5 0.491476 0.912186 0.318859
O O6 0.232887 0.854181 0.292307
O O7 0.000000 0.884265 0.000000
O O8 0.306809 0.138297 0.696163
O O9 0.087679 0.134742 0.371817
O O10 0.152013 0.000000 0.511368
O O11 0.802105 0.500000 0.741336
O O12 0.215945 0.327828 0.511634
O O13 0.566542 0.353977 0.853533
O O14 0.491233 0.000000 0.889005
O O15 0.500000 0.135411 0.000000
O O16 0.770457 0.125480 0.033579
O O17 0.086926 0.500000 0.421750
O O18 0.000000 0.600458 0.500000
O O19 0.783191 0.618021 0.181079
O O20 0.929487 0.000000 0.749292
O O21 0.276568 0.500000 0.983076
#
# Coordination Sequence:
#
# PCOD9153002 Si02
#       8
#     4   4   4   4   4   4   4   4
#     4   8  14  29  53  80 111 146 182 226 285 347
#     4  12  23  38  60  89 126 166 210 253 326 391
#     4  10  21  39  63  91 123 162 214 271 326 377
#     4  11  22  38  57  88 130 161 196 250 314 373
#     4   9  18  35  63  94 123 156 200 259 315 366
#     4  10  22  41  67  96 121 158 215 260 299 364
#     4  10  21  39  63  93 127 163 211 269 322 380
#     4   9  18  36  63  93 122 156 196 246 307 364
#
# _framework density 25.658992999999999
#
# number of rings (size 3 to 8) (size 9 to 14) (size 15 to 20)
#    0.000    2.125    1.250    3.750    0.000    3.000 
#    9.000    6.250    5.500    0.000    0.000    0.000 
#    0.000    0.000    0.000    0.000    0.000    0.000 
#
# Total GULP energy -178587.194336 kJ/mol
# GULP energy per Si atom -5580.849823 kJ/mol
# Density = 2.560059 g / cm^3
# Si number density = 25.658993 Si / 1000 Ang^3
#
#
#
# Elastic Constant Matrix: (Units=GPa)
#
#
# Indices 1 2 3 4 5 6 
#
# 1 83.4308 15.7328 24.7194 0.0000 -30.4501 0.0000
# 2 15.7328 49.2952 23.9119 0.0000 -6.5360 0.0000
# 3 24.7194 23.9119 133.2313 0.0000 -31.5543 0.0000
# 4 0.0000 0.0000 0.0000 8.5198 0.0000 -5.5448
# 5 -30.4501 -6.5360 -31.5543 0.0000 56.0394 0.0000
# 6 0.0000 0.0000 0.0000 -5.5448 0.0000 28.9772
#
#
#
# Elastic Compliance Matrix: (Units=1/GPa)
#
#
# Indices 1 2 3 4 5 6 
#
# 1 0.015681 -0.003783 -0.000366 0.000000 0.007874 0.000000
# 2 -0.003783 0.023141 -0.003807 0.000000 -0.001500 0.000000
# 3 -0.000366 -0.003807 0.009352 0.000000 0.004623 0.000000
# 4 0.000000 0.000000 0.000000 0.134069 0.000000 0.025654
# 5 0.007874 -0.001500 0.004623 0.000000 0.024551 0.000000
# 6 0.000000 0.000000 0.000000 0.025654 0.000000 0.039419
#
#
# Mechanical properties :
#
#
# Convention : Reuss Voigt Hill
#
# Bulk Modulus (GPa) = 30.99554 43.85395 37.42475
# Shear Modulus (GPa) = 18.32316 32.14683 25.23499
#
# Velocity S-wave (km/s) = 2.67517 3.54340 3.13944
# Velocity P-wave (km/s) = 4.65275 5.81971 5.26864
#
# Compressibility (1/GPa) = 0.03226270
#
# Stress axis : x y z
#
# Youngs Moduli (GPa) = 63.76947 43.21327 106.93255
#
# Poissons Ratio (x) = 0.16350 0.03910
# Poissons Ratio (y) = 0.24127 0.40705
# Poissons Ratio (z) = 0.02332 0.16450
#
# Static dielectric constant tensor:
#      x y z
#    x 2.115050 0.000000 -0.012210 
#    y 0.000000 2.089400 0.000000 
#    z -0.012210 0.000000 2.044400 
# 
# From -- ./inp_files/65426.got.cif
#   From: 2010.05.17/outbox.cif.g08.bks.cpg/sg10_33_cif.got.tgz:65426.got - 2010.06.03 11:33:40.
