data_PCOD9153908
_publ_section_title
;
Structure prediction by ZEFSAII (Michael W. Deem and Ramdas Pophale) SiO2 
 PCOD9153908
Probable space group: P 2/M
;
_chemical_formula_sum "Si O2"
_cell_formula_units_Z 24
_cell_length_a 15.626940
_cell_length_b 11.472146
_cell_length_c 15.338078
_cell_angle_alpha 90.000000
_cell_angle_beta 151.513837
_cell_angle_gamma 90.000000
_cell_volume 1311.472620
_symmetry_space_group_name_H-M "P 2/M"
_symmetry_group_IT_number 10
_symmetry_cell_setting 'monoclinic'
loop_
_space_group_symop_operation_xyz
x,y,z
-x,y,-z
-x,-y,-z
x,-y,z
loop_
_atom_site_type_symbol
_atom_site_label
_atom_site_fract_x
_atom_site_fract_y
_atom_site_fract_z
Si Si1 0.758747 0.000000 0.696318
Si Si2 0.329715 0.243383 0.107961
Si Si3 0.589695 0.368240 0.989186
Si Si4 0.006357 0.368163 0.410198
Si Si5 0.050649 0.639366 0.262273
Si Si6 0.816313 0.000000 0.956872
Si Si7 0.392868 0.251274 0.488731
O O1 0.661027 0.884087 0.574651
O O2 0.761894 0.000000 0.805243
O O3 0.966268 0.000000 0.850302
O O4 0.424762 0.277035 0.101966
O O5 0.262083 0.112551 0.064723
O O6 0.472021 0.269091 0.310521
O O7 0.144830 0.317656 0.943591
O O8 0.527282 0.500000 0.909053
O O9 0.500000 0.334740 0.000000
O O10 0.799929 0.377277 0.197710
O O11 0.081404 0.500000 0.490075
O O12 0.000000 0.310576 0.500000
O O13 0.091197 0.316039 0.398144
O O14 0.047926 0.500000 0.264908
O O15 0.207280 0.683022 0.340259
O O16 0.500000 0.292045 0.500000
#
# Coordination Sequence:
#
# PCOD9153908 Si02
#       7
#     2   4   4   4   4   2   4
#     4  11  22  43  66  90 111 150 213 268 303 369
#     4  11  22  39  63  92 120 161 201 257 307 357
#     4   9  19  35  57  88 123 160 200 239 292 364
#     4   8  15  30  53  78 109 150 196 240 281 336
#     4  10  23  40  56  87 129 164 200 243 303 371
#     4  11  21  40  72  84 115 156 202 264 321 351
#     4  12  24  39  64  90 118 155 210 257 305 360
#
# _framework density 18.300039000000002
#
# number of rings (size 3 to 8) (size 9 to 14) (size 15 to 20)
#    0.000    1.833    3.333    2.250    2.333    2.333 
#    0.000    1.250    0.000    0.000    0.000    4.083 
#    0.000    0.000    0.000    0.000    0.000    0.000 
#
# Total GULP energy -133777.756825 kJ/mol
# GULP energy per Si atom -5574.073201 kJ/mol
# Density = 1.825839 g / cm^3
# Si number density = 18.300039 Si / 1000 Ang^3
#
#
#
# Elastic Constant Matrix: (Units=GPa)
#
#
# Indices 1 2 3 4 5 6 
#
# 1 151.5266 50.4351 42.0452 0.0000 -1.8779 0.0000
# 2 50.4351 70.5557 23.9397 0.0000 -8.2297 0.0000
# 3 42.0452 23.9397 87.6545 0.0000 -7.2163 0.0000
# 4 0.0000 0.0000 0.0000 2.6153 0.0000 -39.3422
# 5 -1.8779 -8.2297 -7.2163 0.0000 34.5022 0.0000
# 6 0.0000 0.0000 0.0000 -39.3422 0.0000 -73.0297
#
#
#
# Elastic Compliance Matrix: (Units=1/GPa)
#
#
# Indices 1 2 3 4 5 6 
#
# 1 0.009365 -0.005846 -0.003020 0.000000 -0.001516 0.000000
# 2 -0.005846 0.019558 -0.002218 0.000000 0.003883 0.000000
# 3 -0.003020 -0.002218 0.013640 0.000000 0.002160 0.000000
# 4 0.000000 0.000000 0.000000 0.042000 0.000000 -0.022626
# 5 -0.001516 0.003883 0.002160 0.000000 0.030279 0.000000
# 6 0.000000 0.000000 0.000000 -0.022626 0.000000 -0.001504
#
#
# Mechanical properties :
#
#
# Convention : Reuss Voigt Hill
#
# Bulk Modulus (GPa) = 49.03154 60.28629 54.65892
# Shear Modulus (GPa) = 35.13620 5.70536 20.42078
#
# Velocity S-wave (km/s) = 4.38654 1.76761 3.34411
# Velocity P-wave (km/s) = 7.24617 6.09760 6.69655
#
# Compressibility (1/GPa) = 0.02039503
#
# Stress axis : x y z
#
# Youngs Moduli (GPa) = 106.78514 51.13111 73.31114
#
# Poissons Ratio (x) = 0.29892 0.22140
# Poissons Ratio (y) = 0.62429 0.16257
# Poissons Ratio (z) = 0.32250 0.11338
#
# Static dielectric constant tensor:
#      x y z
#    x 2.034250 0.000000 0.213450 
#    y 0.000000 1.616800 0.000000 
#    z 0.213450 0.000000 1.773120 
# 
# From -- ./inp_files/67441.got.cif
#   From: 2010.05.17/outbox.cif.g08.bks.cpg/sg10_34_cif.got.tgz:67441.got - 2010.06.03 11:33:40.
