data_PCOD9153561
_publ_section_title
;
Structure prediction by ZEFSAII (Michael W. Deem and Ramdas Pophale) SiO2 
 PCOD9153561
Probable space group: P 2/M
;
_chemical_formula_sum "Si O2"
_cell_formula_units_Z 28
_cell_length_a 10.116785
_cell_length_b 18.770351
_cell_length_c 16.651722
_cell_angle_alpha 90.000000
_cell_angle_beta 152.754147
_cell_angle_gamma 90.000000
_cell_volume 1447.634521
_symmetry_space_group_name_H-M "P 2/M"
_symmetry_group_IT_number 10
_symmetry_cell_setting 'monoclinic'
loop_
_space_group_symop_operation_xyz
x,y,z
-x,y,-z
-x,-y,-z
x,-y,z
loop_
_atom_site_type_symbol
_atom_site_label
_atom_site_fract_x
_atom_site_fract_y
_atom_site_fract_z
Si Si1 0.677444 0.691941 0.810013
Si Si2 0.279128 0.219004 0.708519
Si Si3 0.793349 0.769598 0.710550
Si Si4 0.154763 0.921372 0.311315
Si Si5 0.176639 0.679138 0.801301
Si Si6 0.168525 0.415960 0.506449
Si Si7 0.689709 0.081113 0.183199
O O1 0.532795 0.735715 0.804476
O O2 0.706175 0.745843 0.751507
O O3 0.463041 0.628196 0.672030
O O4 0.000000 0.665547 0.000000
O O5 0.197931 0.257360 0.747813
O O6 0.363196 0.139114 0.777776
O O7 0.000000 0.220218 0.500000
O O8 0.500000 0.770325 0.500000
O O9 0.922993 0.849390 0.777865
O O10 0.004818 0.712212 0.783516
O O11 0.500000 0.923942 0.500000
O O12 0.015673 0.912528 0.324462
O O13 0.053457 0.000000 0.227534
O O14 0.011237 0.616761 0.664732
O O15 0.500000 0.657961 0.000000
O O16 0.212332 0.500000 0.520680
O O17 0.000000 0.404000 0.500000
O O18 0.642924 0.000000 0.184176
O O19 0.500000 0.093666 0.000000
#
# Coordination Sequence:
#
# PCOD9153561 Si02
#       7
#     4   4   4   4   4   4   4
#     4  12  25  41  64  97 130 165 209 260 321 383
#     4  12  22  41  64  91 130 170 219 263 316 383
#     4  11  21  37  63  92 124 166 210 269 314 362
#     4   9  19  34  56  85 119 160 210 256 312 366
#     4  12  22  40  68  95 125 166 218 259 307 375
#     4  11  24  47  71  96 130 166 204 255 324 391
#     4  10  22  39  61  91 126 169 223 275 321 373
#
# _framework density 19.341898
#
# number of rings (size 3 to 8) (size 9 to 14) (size 15 to 20)
#    0.000    1.000    5.714    1.286    4.000    0.857 
#    0.000    2.143    0.000    0.857    0.000    0.000 
#    0.000    0.000    0.000    0.000    0.000    0.000 
#
# Total GULP energy -156417.197075 kJ/mol
# GULP energy per Si atom -5586.328467 kJ/mol
# Density = 1.929788 g / cm^3
# Si number density = 19.341898 Si / 1000 Ang^3
#
#
#
# Elastic Constant Matrix: (Units=GPa)
#
#
# Indices 1 2 3 4 5 6 
#
# 1 49.7564 24.0548 7.3636 0.0000 11.4886 0.0000
# 2 24.0548 146.6478 41.2626 0.0000 6.1185 0.0000
# 3 7.3636 41.2626 118.4839 0.0000 16.4094 0.0000
# 4 0.0000 0.0000 0.0000 5.1976 0.0000 -4.6433
# 5 11.4886 6.1185 16.4094 0.0000 29.0480 0.0000
# 6 0.0000 0.0000 0.0000 -4.6433 0.0000 23.3882
#
#
#
# Elastic Compliance Matrix: (Units=1/GPa)
#
#
# Indices 1 2 3 4 5 6 
#
# 1 0.023943 -0.003862 0.001145 0.000000 -0.009303 0.000000
# 2 -0.003862 0.008183 -0.002802 0.000000 0.001386 0.000000
# 3 0.001145 -0.002802 0.010117 0.000000 -0.005578 0.000000
# 4 0.000000 0.000000 0.000000 0.233880 0.000000 0.046433
# 5 -0.009303 0.001386 -0.005578 0.000000 0.040964 0.000000
# 6 0.000000 0.000000 0.000000 0.046433 0.000000 0.051975
#
#
# Mechanical properties :
#
#
# Convention : Reuss Voigt Hill
#
# Bulk Modulus (GPa) = 32.04386 51.13890 41.59138
# Shear Modulus (GPa) = 12.80406 27.67390 20.23898
#
# Velocity S-wave (km/s) = 2.57570 3.78666 3.23829
# Velocity P-wave (km/s) = 5.04467 6.75391 5.96087
#
# Compressibility (1/GPa) = 0.03120723
#
# Stress axis : x y z
#
# Youngs Moduli (GPa) = 41.76517 122.20506 98.84303
#
# Poissons Ratio (x) = 0.47190 -0.11320
# Poissons Ratio (y) = 0.16128 0.27694
# Poissons Ratio (z) = -0.04783 0.34239
#
# Static dielectric constant tensor:
#      x y z
#    x 1.650800 0.000000 0.025780 
#    y 0.000000 1.681650 0.000000 
#    z 0.025780 0.000000 1.721060 
# 
# From -- ./inp_files/62617.got.cif
#   From: 2010.05.17/outbox.cif.g08.bks.cpg/sg10_32_cif.got.tgz:62617.got - 2010.06.03 11:33:40.
