data_PCOD9153333
_publ_section_title
;
Structure prediction by ZEFSAII (Michael W. Deem and Ramdas Pophale) SiO2 
 PCOD9153333
Probable space group: P 2/M
;
_chemical_formula_sum "Si O2"
_cell_formula_units_Z 24
_cell_length_a 5.471558
_cell_length_b 20.600153
_cell_length_c 10.824770
_cell_angle_alpha 90.000000
_cell_angle_beta 66.943824
_cell_angle_gamma 90.000000
_cell_volume 1122.652176
_symmetry_space_group_name_H-M "P 2/M"
_symmetry_group_IT_number 10
_symmetry_cell_setting 'monoclinic'
loop_
_space_group_symop_operation_xyz
x,y,z
-x,y,-z
-x,-y,-z
x,-y,z
loop_
_atom_site_type_symbol
_atom_site_label
_atom_site_fract_x
_atom_site_fract_y
_atom_site_fract_z
Si Si1 0.017377 0.760168 0.263677
Si Si2 0.625806 0.930867 0.110377
Si Si3 0.500000 0.778570 0.500000
Si Si4 0.380595 0.351532 0.162695
Si Si5 0.000000 0.809188 0.000000
Si Si6 0.781901 0.122081 0.631207
Si Si7 0.121452 0.574114 0.837570
O O1 0.746845 0.741036 0.387920
O O2 0.268381 0.714752 0.242720
O O3 0.071662 0.833542 0.296085
O O4 0.009732 0.763290 0.117163
O O5 0.408735 0.924834 0.259378
O O6 0.767356 0.000000 0.107424
O O7 0.500000 0.934962 0.000000
O O8 0.771248 0.861482 0.076681
O O9 0.378172 0.826279 0.420430
O O10 0.608323 0.384949 0.199554
O O11 0.113137 0.394449 0.197241
O O12 0.500000 0.341510 0.000000
O O13 0.000000 0.090518 0.500000
O O14 0.176887 0.500000 0.788573
O O15 0.000000 0.571912 0.000000
#
# Coordination Sequence:
#
# PCOD9153333 Si02
#       7
#     4   4   2   4   2   4   4
#     4  11  24  36  63  87 125 157 206 258 315 377
#     4  11  23  40  61  87 116 154 202 250 308 381
#     4  10  22  42  61  80 121 164 206 244 324 368
#     4  10  22  32  56  94 123 162 212 258 309 377
#     4  12  23  38  62  86 119 162 188 260 320 370
#     4  10  22  41  59  85 115 158 201 253 312 373
#     4   9  18  35  54  82 130 172 205 250 308 367
#
# _framework density 21.377949000000001
#
# number of rings (size 3 to 8) (size 9 to 14) (size 15 to 20)
#    0.000    1.667    3.333    0.750    8.167    2.333 
#    0.000    0.417    0.000    0.000    0.000    3.500 
#    0.000    0.000    0.000    0.000    0.000    0.000 
#
# Total GULP energy -133926.502604 kJ/mol
# GULP energy per Si atom -5580.270942 kJ/mol
# Density = 2.132929 g / cm^3
# Si number density = 21.377949 Si / 1000 Ang^3
#
#
#
# Elastic Constant Matrix: (Units=GPa)
#
#
# Indices 1 2 3 4 5 6 
#
# 1 91.0952 28.7574 44.9570 0.0000 -24.4564 0.0000
# 2 28.7574 82.3447 39.7132 0.0000 -28.6557 0.0000
# 3 44.9570 39.7132 132.3227 0.0000 -26.4335 0.0000
# 4 0.0000 0.0000 0.0000 20.9366 0.0000 -9.7086
# 5 -24.4564 -28.6557 -26.4335 0.0000 42.6251 0.0000
# 6 0.0000 0.0000 0.0000 -9.7086 0.0000 46.2666
#
#
#
# Elastic Compliance Matrix: (Units=1/GPa)
#
#
# Indices 1 2 3 4 5 6 
#
# 1 0.014566 -0.001651 -0.003431 0.000000 0.005120 0.000000
# 2 -0.001651 0.017157 -0.002823 0.000000 0.008836 0.000000
# 3 -0.003431 -0.002823 0.010042 0.000000 0.002361 0.000000
# 4 0.000000 0.000000 0.000000 0.052912 0.000000 0.011103
# 5 0.005120 0.008836 0.002361 0.000000 0.033803 0.000000
# 6 0.000000 0.000000 0.000000 0.011103 0.000000 0.023944
#
#
# Mechanical properties :
#
#
# Convention : Reuss Voigt Hill
#
# Bulk Modulus (GPa) = 38.52642 59.17976 48.85309
# Shear Modulus (GPa) = 28.26694 34.78799 31.52747
#
# Velocity S-wave (km/s) = 3.64022 4.03834 3.84443
# Velocity P-wave (km/s) = 5.97737 7.03469 6.52748
#
# Compressibility (1/GPa) = 0.02595622
#
# Stress axis : x y z
#
# Youngs Moduli (GPa) = 68.65124 58.28470 99.58333
#
# Poissons Ratio (x) = 0.09621 0.34164
# Poissons Ratio (y) = 0.11332 0.28115
# Poissons Ratio (z) = 0.23552 0.16455
#
# Static dielectric constant tensor:
#      x y z
#    x 1.841950 0.000000 -0.005130 
#    y 0.000000 1.769740 0.000000 
#    z -0.005130 0.000000 1.737330 
# 
# From -- ./inp_files/39563.got.cif
#   From: 2010.05.17/outbox.cif.g08.bks.cpg/sg10_20_cif.got.tgz:39563.got - 2010.06.03 11:33:40.
