data_PCOD9153089
_publ_section_title
;
Structure prediction by ZEFSAII (Michael W. Deem and Ramdas Pophale) SiO2 
 PCOD9153089
Probable space group: P 2/M
;
_chemical_formula_sum "Si O2"
_cell_formula_units_Z 28
_cell_length_a 5.511102
_cell_length_b 8.821534
_cell_length_c 28.656246
_cell_angle_alpha 90.000000
_cell_angle_beta 69.063121
_cell_angle_gamma 90.000000
_cell_volume 1301.178722
_symmetry_space_group_name_H-M "P 2/M"
_symmetry_group_IT_number 10
_symmetry_cell_setting 'monoclinic'
loop_
_space_group_symop_operation_xyz
x,y,z
-x,y,-z
-x,-y,-z
x,-y,z
loop_
_atom_site_type_symbol
_atom_site_label
_atom_site_fract_x
_atom_site_fract_y
_atom_site_fract_z
Si Si1 0.085137 0.819007 0.315475
Si Si2 0.501546 0.680899 0.360697
Si Si3 0.867611 0.663742 0.133922
Si Si4 0.693595 0.819330 0.530314
Si Si5 0.270109 0.330309 0.964159
Si Si6 0.322038 0.833065 0.109823
Si Si7 0.659248 0.325232 0.791034
O O1 0.288894 0.750160 0.339237
O O2 0.206514 0.774335 0.257198
O O3 0.793216 0.750238 0.337131
O O4 0.070361 0.000000 0.322792
O O5 0.514293 0.500000 0.352906
O O6 0.399618 0.723882 0.419099
O O7 0.012109 0.500000 0.128993
O O8 0.747983 0.652655 0.090643
O O9 0.655096 0.671747 0.189104
O O10 0.021142 0.818538 0.118903
O O11 0.500000 0.789159 0.500000
O O12 0.000000 0.789611 0.500000
O O13 0.670853 0.000000 0.542298
O O14 0.284232 0.500000 0.983421
O O15 0.535853 0.238324 0.945149
O O16 0.000000 0.261196 0.000000
O O17 0.303386 0.743669 0.160235
O O18 0.423294 0.000000 0.110815
O O19 0.747122 0.500000 0.781757
#
# Coordination Sequence:
#
# PCOD9153089 Si02
#       7
#     4   4   4   4   4   4   4
#     4  12  26  45  69  98 137 181 227 282 343 405
#     4  12  26  45  69 102 142 182 230 284 339 403
#     4   9  19  36  58  81 109 147 193 245 298 366
#     4  10  21  39  66  98 135 180 227 279 340 400
#     4   9  19  37  58  79 106 144 192 243 297 360
#     4  11  22  35  55  83 116 150 190 242 302 373
#     4  10  22  41  63  86 115 156 206 257 313 377
#
# _framework density 21.51895
#
# number of rings (size 3 to 8) (size 9 to 14) (size 15 to 20)
#    0.000    1.571    0.000    6.000    2.000    5.429 
#    0.000    2.857    0.000    0.000    0.000    0.000 
#    0.000    0.000    0.000    0.000    0.000    0.000 
#
# Total GULP energy -156013.470468 kJ/mol
# GULP energy per Si atom -5571.909660 kJ/mol
# Density = 2.146997 g / cm^3
# Si number density = 21.518950 Si / 1000 Ang^3
#
#
#
# Elastic Constant Matrix: (Units=GPa)
#
#
# Indices 1 2 3 4 5 6 
#
# 1 115.2749 46.1519 46.0175 0.0000 -14.0623 0.0000
# 2 46.1519 110.2111 41.5653 0.0000 -16.3520 0.0000
# 3 46.0175 41.5653 112.6678 0.0000 -19.6526 0.0000
# 4 0.0000 0.0000 0.0000 127.4626 0.0000 -13.5962
# 5 -14.0623 -16.3520 -19.6526 0.0000 35.3599 0.0000
# 6 0.0000 0.0000 0.0000 -13.5962 0.0000 19.9000
#
#
#
# Elastic Compliance Matrix: (Units=1/GPa)
#
#
# Indices 1 2 3 4 5 6 
#
# 1 0.011472 -0.003413 -0.003218 0.000000 0.001195 0.000000
# 2 -0.003413 0.011852 -0.002502 0.000000 0.002733 0.000000
# 3 -0.003218 -0.002502 0.011835 0.000000 0.004141 0.000000
# 4 0.000000 0.000000 0.000000 0.008462 0.000000 0.005782
# 5 0.001195 0.002733 0.004141 0.000000 0.032322 0.000000
# 6 0.000000 0.000000 0.000000 0.005782 0.000000 0.054201
#
#
# Mechanical properties :
#
#
# Convention : Reuss Voigt Hill
#
# Bulk Modulus (GPa) = 59.19330 67.29145 63.24238
# Shear Modulus (GPa) = 32.45918 50.17245 41.31581
#
# Velocity S-wave (km/s) = 3.88803 4.83385 4.38650
# Velocity P-wave (km/s) = 6.90818 7.90528 7.42349
#
# Compressibility (1/GPa) = 0.01689380
#
# Stress axis : x y z
#
# Youngs Moduli (GPa) = 87.17095 84.37643 84.49391
#
# Poissons Ratio (x) = 0.28797 0.27189
# Poissons Ratio (y) = 0.29751 0.21137
# Poissons Ratio (z) = 0.28050 0.21108
#
# Static dielectric constant tensor:
#      x y z
#    x 2.033280 0.000000 -0.016020 
#    y 0.000000 1.939630 0.000000 
#    z -0.016020 0.000000 1.732300 
# 
# From -- ./inp_files/94303.got.cif
#   From: 2010.05.17/outbox.cif.g08.bks.cpg/sg10_48_cif.got.tgz:94303.got - 2010.06.03 11:33:40.
