data_PCOD9153813
_publ_section_title
;
Structure prediction by ZEFSAII (Michael W. Deem and Ramdas Pophale) SiO2 
 PCOD9153813
Probable space group: P 2/M
;
_chemical_formula_sum "Si O2"
_cell_formula_units_Z 24
_cell_length_a 18.223035
_cell_length_b 15.916181
_cell_length_c 11.896542
_cell_angle_alpha 90.000000
_cell_angle_beta 20.972775
_cell_angle_gamma 90.000000
_cell_volume 1235.012944
_symmetry_space_group_name_H-M "P 2/M"
_symmetry_group_IT_number 10
_symmetry_cell_setting 'monoclinic'
loop_
_space_group_symop_operation_xyz
x,y,z
-x,y,-z
-x,-y,-z
x,-y,z
loop_
_atom_site_type_symbol
_atom_site_label
_atom_site_fract_x
_atom_site_fract_y
_atom_site_fract_z
Si Si1 0.231728 0.220169 0.620162
Si Si2 0.418050 0.315171 0.741724
Si Si3 0.274900 0.651461 0.359502
Si Si4 0.990756 0.772749 0.383609
Si Si5 0.332647 0.500000 0.836349
Si Si6 0.722974 0.099309 0.625808
Si Si7 0.044356 0.500000 0.800690
O O1 0.401986 0.263424 0.454552
O O2 0.268949 0.270980 0.452398
O O3 0.269746 0.127220 0.516112
O O4 0.000000 0.229018 0.000000
O O5 0.500000 0.327329 0.500000
O O6 0.362046 0.411381 0.861149
O O7 0.215049 0.258718 0.028036
O O8 0.150546 0.689353 0.432038
O O9 0.171483 0.580691 0.582465
O O10 0.500000 0.626876 0.000000
O O11 0.896371 0.849086 0.446778
O O12 0.000000 0.796675 0.500000
O O13 0.500000 0.500000 0.500000
O O14 0.134318 0.500000 0.038721
O O15 0.755182 0.000000 0.590061
O O16 0.500000 0.119244 0.000000
O O17 0.000000 0.500000 0.000000
#
# Coordination Sequence:
#
# PCOD9153813 Si02
#       7
#     4   4   4   4   2   4   2
#     4  11  23  40  66  93 122 169 211 259 320 383
#     4  11  22  39  61  88 126 164 211 262 315 369
#     4  11  23  40  60  88 124 165 218 259 310 374
#     4  11  21  39  63  89 125 160 204 258 320 375
#     4  10  24  39  56  89 127 160 213 266 309 352
#     4  10  22  42  66  94 127 162 208 257 311 387
#     4  12  25  41  62  87 123 171 218 269 308 371
#
# _framework density 19.432994999999998
#
# number of rings (size 3 to 8) (size 9 to 14) (size 15 to 20)
#    0.000    1.167    1.667    6.750    7.000    0.667 
#    0.000    4.583    0.000    2.000    0.000    0.000 
#    0.000    0.000    0.000    0.000    0.000    0.000 
#
# Total GULP energy -133688.927160 kJ/mol
# GULP energy per Si atom -5570.371965 kJ/mol
# Density = 1.938877 g / cm^3
# Si number density = 19.432995 Si / 1000 Ang^3
#
#
#
# Elastic Constant Matrix: (Units=GPa)
#
#
# Indices 1 2 3 4 5 6 
#
# 1 98.2161 51.6801 37.4405 0.0000 -12.7977 0.0000
# 2 51.6801 127.9036 57.7774 0.0000 -10.2108 0.0000
# 3 37.4405 57.7774 136.0491 0.0000 -19.7184 0.0000
# 4 0.0000 0.0000 0.0000 26.2293 0.0000 2.5142
# 5 -12.7977 -10.2108 -19.7184 0.0000 28.7058 0.0000
# 6 0.0000 0.0000 0.0000 2.5142 0.0000 29.7694
#
#
#
# Elastic Compliance Matrix: (Units=1/GPa)
#
#
# Indices 1 2 3 4 5 6 
#
# 1 0.013556 -0.004629 -0.001252 0.000000 0.003537 0.000000
# 2 -0.004629 0.011268 -0.003586 0.000000 -0.000519 0.000000
# 3 -0.001252 -0.003586 0.009942 0.000000 0.004995 0.000000
# 4 0.000000 0.000000 0.000000 0.038436 0.000000 -0.003246
# 5 0.003537 -0.000519 0.004995 0.000000 0.039660 0.000000
# 6 0.000000 0.000000 0.000000 -0.003246 0.000000 0.033866
#
#
# Mechanical properties :
#
#
# Convention : Reuss Voigt Hill
#
# Bulk Modulus (GPa) = 63.17222 72.88498 68.02860
# Shear Modulus (GPa) = 29.25029 31.29230 30.27130
#
# Velocity S-wave (km/s) = 3.88388 4.01717 3.95109
# Velocity P-wave (km/s) = 7.25886 7.68792 7.47646
#
# Compressibility (1/GPa) = 0.01582974
#
# Stress axis : x y z
#
# Youngs Moduli (GPa) = 73.77018 88.75081 100.58453
#
# Poissons Ratio (x) = 0.41086 0.12592
# Poissons Ratio (y) = 0.34151 0.36074
# Poissons Ratio (z) = 0.09235 0.31830
#
# Static dielectric constant tensor:
#      x y z
#    x 1.684090 0.000000 0.022490 
#    y 0.000000 1.818150 0.000000 
#    z 0.022490 0.000000 1.642290 
# 
# From -- ./inp_files/54184.got.cif
#   From: 2010.05.17/outbox.cif.g08.bks.cpg/sg10_28_cif.got.tgz:54184.got - 2010.06.03 11:33:40.
