data_PCOD9153288
_publ_section_title
;
Structure prediction by ZEFSAII (Michael W. Deem and Ramdas Pophale) SiO2 
 PCOD9153288
Probable space group: P 2/M
;
_chemical_formula_sum "Si O2"
_cell_formula_units_Z 16
_cell_length_a 5.190834
_cell_length_b 22.992647
_cell_length_c 5.194738
_cell_angle_alpha 90.000000
_cell_angle_beta 91.815407
_cell_angle_gamma 90.000000
_cell_volume 619.686056
_symmetry_space_group_name_H-M "P 2/M"
_symmetry_group_IT_number 10
_symmetry_cell_setting 'monoclinic'
loop_
_space_group_symop_operation_xyz
x,y,z
-x,y,-z
-x,-y,-z
x,-y,z
loop_
_atom_site_type_symbol
_atom_site_label
_atom_site_fract_x
_atom_site_fract_y
_atom_site_fract_z
Si Si1 0.672429 0.872667 0.260942
Si Si2 0.000000 0.653364 0.500000
Si Si3 0.687265 0.746625 0.251542
Si Si4 0.746687 0.568359 0.173875
Si Si5 0.238858 0.000000 0.824377
O O1 0.500000 0.862212 0.500000
O O2 0.816849 0.811277 0.242793
O O3 0.779493 0.937396 0.311198
O O4 0.500000 0.876731 0.000000
O O5 0.085663 0.699724 0.719812
O O6 0.221849 0.606179 0.568113
O O7 0.500000 0.739664 0.500000
O O8 0.500000 0.740146 0.000000
O O9 0.728959 0.500000 0.235584
O O10 0.500000 0.585768 0.000000
O O11 0.000000 0.576795 0.000000
O O12 0.500000 0.000000 0.000000
O O13 0.000000 0.000000 0.000000
#
# Coordination Sequence:
#
# PCOD9153288 Si02
#       5
#     4   2   4   4   2
#     4   9  19  42  66  95 136 182 234 293 359 425
#     4  12  25  38  70 101 140 188 240 290 360 421
#     4  10  24  44  66  99 143 187 241 296 360 430
#     4  10  24  45  70 103 142 185 236 294 355 421
#     4  10  21  42  68 102 132 182 232 296 354 427
#
# _framework density 25.819523
#
# number of rings (size 3 to 8) (size 9 to 14) (size 15 to 20)
#    0.000    2.000    0.000    1.500    7.000    0.000 
#   22.500    8.750    0.000    0.000    0.000    0.000 
#    0.000    0.000    0.000    0.000    0.000    0.000 
#
# Total GULP energy -89246.634661 kJ/mol
# GULP energy per Si atom -5577.914666 kJ/mol
# Density = 2.576076 g / cm^3
# Si number density = 25.819523 Si / 1000 Ang^3
#
#
#
# Elastic Constant Matrix: (Units=GPa)
#
#
# Indices 1 2 3 4 5 6 
#
# 1 123.2320 38.7615 55.2875 0.0000 26.1150 0.0000
# 2 38.7615 216.6168 50.5415 0.0000 43.7722 0.0000
# 3 55.2875 50.5415 164.7106 0.0000 26.6885 0.0000
# 4 0.0000 0.0000 0.0000 50.1980 0.0000 26.6481
# 5 26.1150 43.7722 26.6885 0.0000 60.8884 0.0000
# 6 0.0000 0.0000 0.0000 26.6481 0.0000 -21.9813
#
#
#
# Elastic Compliance Matrix: (Units=1/GPa)
#
#
# Indices 1 2 3 4 5 6 
#
# 1 0.010122 -0.000623 -0.002772 0.000000 -0.002678 0.000000
# 2 -0.000623 0.005634 -0.000976 0.000000 -0.003355 0.000000
# 3 -0.002772 -0.000976 0.007530 0.000000 -0.001410 0.000000
# 4 0.000000 0.000000 0.000000 0.012121 0.000000 0.014694
# 5 -0.002678 -0.003355 -0.001410 0.000000 0.020602 0.000000
# 6 0.000000 0.000000 0.000000 0.014694 0.000000 -0.027680
#
#
# Mechanical properties :
#
#
# Convention : Reuss Voigt Hill
#
# Bulk Modulus (GPa) = 68.76438 88.19338 78.47888
# Shear Modulus (GPa) = 119.27724 41.81895 80.54809
#
# Velocity S-wave (km/s) = 6.80418 4.02887 5.59145
# Velocity P-wave (km/s) = 9.40317 7.47490 8.49393
#
# Compressibility (1/GPa) = 0.01454241
#
# Stress axis : x y z
#
# Youngs Moduli (GPa) = 98.79263 177.50669 132.80637
#
# Poissons Ratio (x) = 0.11062 0.36820
# Poissons Ratio (y) = 0.06157 0.12960
# Poissons Ratio (z) = 0.27390 0.17322
#
# Static dielectric constant tensor:
#      x y z
#    x 2.752010 0.000000 0.074400 
#    y 0.000000 1.748330 0.000000 
#    z 0.074400 0.000000 2.058350 
# 
# From -- ./inp_files/1772.got.cif
#   From: 2010.05.17/outbox.cif.g08.bks.cpg/sg10_1_cif.got.tgz:1772.got - 2010.06.03 11:33:40.
