data_PCOD9153734
_publ_section_title
;
Structure prediction by ZEFSAII (Michael W. Deem and Ramdas Pophale) SiO2 
 PCOD9153734
Probable space group: P 2/M
;
_chemical_formula_sum "Si O2"
_cell_formula_units_Z 24
_cell_length_a 11.885185
_cell_length_b 16.366729
_cell_length_c 11.577175
_cell_angle_alpha 90.000000
_cell_angle_beta 33.070729
_cell_angle_gamma 90.000000
_cell_volume 1228.863467
_symmetry_space_group_name_H-M "P 2/M"
_symmetry_group_IT_number 10
_symmetry_cell_setting 'monoclinic'
loop_
_space_group_symop_operation_xyz
x,y,z
-x,y,-z
-x,-y,-z
x,-y,z
loop_
_atom_site_type_symbol
_atom_site_label
_atom_site_fract_x
_atom_site_fract_y
_atom_site_fract_z
Si Si1 0.500000 0.699950 0.000000
Si Si2 0.420198 0.000000 0.710394
Si Si3 0.894207 0.593919 0.716868
Si Si4 0.649928 0.000000 0.756085
Si Si5 0.887969 0.277813 0.314659
Si Si6 0.209074 0.182533 0.385006
Si Si7 0.194697 0.168384 0.915283
Si Si8 0.500000 0.733591 0.500000
O O1 0.678867 0.642251 0.895579
O O2 0.605172 0.761490 0.819419
O O3 0.500000 0.000000 0.500000
O O4 0.282156 0.921262 0.862200
O O5 0.582990 0.000000 0.676687
O O6 0.864008 0.500000 0.778520
O O7 0.000000 0.593855 0.500000
O O8 0.043753 0.644148 0.671621
O O9 0.761049 0.087607 0.668712
O O10 0.500000 0.000000 0.000000
O O11 0.809933 0.205196 0.465108
O O12 0.702819 0.304196 0.387759
O O13 0.093904 0.235225 0.086684
O O14 0.000000 0.209794 0.500000
O O15 0.388311 0.211344 0.690340
O O16 0.000000 0.154184 0.000000
#
# Coordination Sequence:
#
# PCOD9153734 Si02
#       8
#     2   2   4   2   4   4   4   2
#     4  12  21  43  68 100 132 178 224 279 349 416
#     4  12  25  43  66  95 136 186 240 292 341 408
#     4  11  24  43  69 105 136 167 221 286 351 424
#     4  12  29  41  64  99 142 189 235 288 353 411
#     4  11  23  41  68  97 130 181 222 284 341 415
#     4  12  25  43  66  95 138 184 232 279 348 413
#     4  10  23  40  66  91 129 173 235 282 333 391
#     4  10  22  41  63  96 126 176 226 274 329 405
#
# _framework density 19.530242999999999
#
# number of rings (size 3 to 8) (size 9 to 14) (size 15 to 20)
#    0.000    0.833    5.000    1.750    9.333    0.667 
#    0.000    0.417    0.000    4.500    0.000    0.000 
#    0.000    0.000    0.000    0.000    0.000    0.000 
#
# Total GULP energy -133604.357640 kJ/mol
# GULP energy per Si atom -5566.848235 kJ/mol
# Density = 1.948579 g / cm^3
# Si number density = 19.530243 Si / 1000 Ang^3
#
#
#
# Elastic Constant Matrix: (Units=GPa)
#
#
# Indices 1 2 3 4 5 6 
#
# 1 87.3542 38.4580 25.6281 0.0000 -10.8248 0.0000
# 2 38.4580 146.9651 43.5173 0.0000 -8.6468 0.0000
# 3 25.6281 43.5173 117.6434 0.0000 0.4132 0.0000
# 4 0.0000 0.0000 0.0000 33.4176 0.0000 0.8202
# 5 -10.8248 -8.6468 0.4132 0.0000 26.3851 0.0000
# 6 0.0000 0.0000 0.0000 0.8202 0.0000 -78.0156
#
#
#
# Elastic Compliance Matrix: (Units=1/GPa)
#
#
# Indices 1 2 3 4 5 6 
#
# 1 0.013843 -0.002742 -0.002018 0.000000 0.004812 0.000000
# 2 -0.002742 0.008360 -0.002501 0.000000 0.001654 0.000000
# 3 -0.002018 -0.002501 0.009871 0.000000 -0.001802 0.000000
# 4 0.000000 0.000000 0.000000 0.029917 0.000000 0.000315
# 5 0.004812 0.001654 -0.001802 0.000000 0.040445 0.000000
# 6 0.000000 0.000000 0.000000 0.000315 0.000000 -0.012815
#
#
# Mechanical properties :
#
#
# Convention : Reuss Voigt Hill
#
# Bulk Modulus (GPa) = 56.97253 63.01882 59.99568
# Shear Modulus (GPa) = 45.45718 12.64805 29.05261
#
# Velocity S-wave (km/s) = 4.82968 2.54759 3.86109
# Velocity P-wave (km/s) = 7.76761 6.40242 7.11782
#
# Compressibility (1/GPa) = 0.01755232
#
# Stress axis : x y z
#
# Youngs Moduli (GPa) = 72.23766 119.62287 101.30303
#
# Poissons Ratio (x) = 0.32797 0.20447
# Poissons Ratio (y) = 0.19805 0.25334
# Poissons Ratio (z) = 0.14580 0.29916
#
# Static dielectric constant tensor:
#      x y z
#    x 1.728670 0.000000 0.024550 
#    y 0.000000 1.689540 0.000000 
#    z 0.024550 0.000000 1.636110 
# 
# From -- ./inp_files/47893.got.cif
#   From: 2010.05.17/outbox.cif.g08.bks.cpg/sg10_24_cif.got.tgz:47893.got - 2010.06.03 11:33:40.
