data_PCOD9153476
_publ_section_title
;
Structure prediction by ZEFSAII (Michael W. Deem and Ramdas Pophale) SiO2 
 PCOD9153476
Probable space group: P 2/M
;
_chemical_formula_sum "Si O2"
_cell_formula_units_Z 20
_cell_length_a 13.569711
_cell_length_b 7.755195
_cell_length_c 19.051387
_cell_angle_alpha 90.000000
_cell_angle_beta 149.738557
_cell_angle_gamma 90.000000
_cell_volume 1010.355814
_symmetry_space_group_name_H-M "P 2/M"
_symmetry_group_IT_number 10
_symmetry_cell_setting 'monoclinic'
loop_
_space_group_symop_operation_xyz
x,y,z
-x,y,-z
-x,-y,-z
x,-y,z
loop_
_atom_site_type_symbol
_atom_site_label
_atom_site_fract_x
_atom_site_fract_y
_atom_site_fract_z
Si Si1 0.319479 0.206104 0.240444
Si Si2 0.027950 0.300428 0.175302
Si Si3 0.607156 0.199110 0.875776
Si Si4 0.922690 0.500000 0.565424
Si Si5 0.682788 0.500000 0.271992
Si Si6 0.748938 0.801568 0.551486
O O1 0.136817 0.286980 0.167662
O O2 0.354473 0.256072 0.181376
O O3 0.519950 0.245130 0.405141
O O4 0.287914 0.000000 0.221742
O O5 0.001450 0.500000 0.177476
O O6 0.167461 0.215313 0.318987
O O7 0.817040 0.213047 0.041985
O O8 0.452981 0.330814 0.813716
O O9 0.540244 0.000000 0.834193
O O10 0.794277 0.500000 0.415468
O O11 0.865360 0.668685 0.574435
O O12 0.148898 0.500000 0.682755
O O13 0.766909 0.000000 0.538471
#
# Coordination Sequence:
#
# PCOD9153476 Si02
#       6
#     4   4   4   2   2   4
#     4  10  22  38  60  91 127 169 210 244 293 367
#     4  12  24  36  62  94 129 169 205 249 304 365
#     4  11  23  42  63  91 129 165 206 251 305 366
#     4  11  24  43  68  96 121 152 207 265 312 362
#     4  11  24  43  68  96 121 152 207 265 312 362
#     4  11  23  42  63  91 129 165 206 251 305 366
#
# _framework density 19.795006999999998
#
# number of rings (size 3 to 8) (size 9 to 14) (size 15 to 20)
#    0.000    1.000    4.000    3.000    2.800    5.600 
#    0.000    4.000    0.000    2.400    0.000    0.000 
#    0.000    0.000    0.000    0.000    0.000    0.000 
#
# Total GULP energy -111857.788262 kJ/mol
# GULP energy per Si atom -5592.889413 kJ/mol
# Density = 1.974995 g / cm^3
# Si number density = 19.795007 Si / 1000 Ang^3
#
#
#
# Elastic Constant Matrix: (Units=GPa)
#
#
# Indices 1 2 3 4 5 6 
#
# 1 55.6094 34.7127 6.3159 0.0000 30.0894 0.0000
# 2 34.7127 106.5190 12.5543 0.0000 27.0346 0.0000
# 3 6.3159 12.5543 79.5721 0.0000 13.8093 0.0000
# 4 0.0000 0.0000 0.0000 13.6427 0.0000 -22.4671
# 5 30.0894 27.0346 13.8093 0.0000 35.2113 0.0000
# 6 0.0000 0.0000 0.0000 -22.4671 0.0000 -12.0474
#
#
#
# Elastic Compliance Matrix: (Units=1/GPa)
#
#
# Indices 1 2 3 4 5 6 
#
# 1 0.035869 -0.004919 0.002782 0.000000 -0.027966 0.000000
# 2 -0.004919 0.012342 -0.000689 0.000000 -0.005002 0.000000
# 3 0.002782 -0.000689 0.013709 0.000000 -0.007225 0.000000
# 4 0.000000 0.000000 0.000000 0.018005 0.000000 -0.033577
# 5 -0.027966 -0.005002 -0.007225 0.000000 0.058972 0.000000
# 6 0.000000 0.000000 0.000000 -0.033577 0.000000 -0.020389
#
#
# Mechanical properties :
#
#
# Convention : Reuss Voigt Hill
#
# Bulk Modulus (GPa) = 17.77186 38.76291 28.26738
# Shear Modulus (GPa) = 34.98580 19.90250 27.44415
#
# Velocity S-wave (km/s) = 4.20861 3.17429 3.72750
# Velocity P-wave (km/s) = 5.71087 5.74974 5.73034
#
# Compressibility (1/GPa) = 0.05626873
#
# Stress axis : x y z
#
# Youngs Moduli (GPa) = 27.87907 81.02550 72.94510
#
# Poissons Ratio (x) = 0.39859 -0.20296
# Poissons Ratio (y) = 0.13715 0.05023
# Poissons Ratio (z) = -0.07757 0.05580
#
# Static dielectric constant tensor:
#      x y z
#    x 1.660210 0.000000 -0.025500 
#    y 0.000000 1.691660 0.000000 
#    z -0.025500 0.000000 1.697150 
# 
# From -- ./inp_files/53161.got.cif
#   From: 2010.05.17/outbox.cif.g08.bks.cpg/sg10_27_cif.got.tgz:53161.got - 2010.06.03 11:33:40.
