data_PCOD9153043
_publ_section_title
;
Structure prediction by ZEFSAII (Michael W. Deem and Ramdas Pophale) SiO2 
 PCOD9153043
Probable space group: P 2/M
;
_chemical_formula_sum "Si O2"
_cell_formula_units_Z 22
_cell_length_a 20.187271
_cell_length_b 10.127804
_cell_length_c 7.993093
_cell_angle_alpha 90.000000
_cell_angle_beta 138.975695
_cell_angle_gamma 90.000000
_cell_volume 1072.661083
_symmetry_space_group_name_H-M "P 2/M"
_symmetry_group_IT_number 10
_symmetry_cell_setting 'monoclinic'
loop_
_space_group_symop_operation_xyz
x,y,z
-x,y,-z
-x,-y,-z
x,-y,z
loop_
_atom_site_type_symbol
_atom_site_label
_atom_site_fract_x
_atom_site_fract_y
_atom_site_fract_z
Si Si1 0.777619 0.847435 0.066938
Si Si2 0.615733 0.645987 0.669077
Si Si3 0.209430 0.149352 0.517870
Si Si4 0.384436 0.652965 0.732352
Si Si5 0.000000 0.744874 0.000000
Si Si6 0.073851 0.356264 0.799444
O O1 0.813490 0.841984 0.327392
O O2 0.851136 0.764622 0.087814
O O3 0.768871 0.000000 0.000708
O O4 0.674358 0.766546 0.862240
O O5 0.500000 0.652941 0.500000
O O6 0.652632 0.500000 0.793629
O O7 0.624310 0.655346 0.485224
O O8 0.296971 0.253258 0.638060
O O9 0.103880 0.175684 0.223573
O O10 0.244683 0.000000 0.549814
O O11 0.370407 0.500000 0.761542
O O12 0.500000 0.690927 0.000000
O O13 0.015218 0.661586 0.860549
O O14 0.125612 0.500000 0.902486
O O15 0.000000 0.355541 0.500000
#
# Coordination Sequence:
#
# PCOD9153043 Si02
#       6
#     4   4   4   4   2   4
#     4  11  24  42  63  92 129 171 215 262 323 388
#     4  10  21  39  64  93 125 164 211 264 324 385
#     4  11  25  42  64  94 130 174 218 267 324 389
#     4  10  22  41  66  95 126 164 213 269 328 389
#     4  12  24  44  68  98 132 174 220 270 328 392
#     4  11  24  43  66  94 126 165 213 266 320 380
#
# _framework density 20.509740000000001
#
# number of rings (size 3 to 8) (size 9 to 14) (size 15 to 20)
#    0.000    1.273    1.818    3.273    0.000   10.545 
#    0.000    0.000    0.000    0.000    0.000    0.000 
#    0.000    0.000    0.000    0.000    0.000    0.000 
#
# Total GULP energy -122935.949419 kJ/mol
# GULP energy per Si atom -5587.997701 kJ/mol
# Density = 2.046306 g / cm^3
# Si number density = 20.509740 Si / 1000 Ang^3
#
#
#
# Elastic Constant Matrix: (Units=GPa)
#
#
# Indices 1 2 3 4 5 6 
#
# 1 113.0556 61.4507 21.6646 0.0000 4.0236 0.0000
# 2 61.4507 174.9465 52.6148 0.0000 18.3202 0.0000
# 3 21.6646 52.6148 89.5176 0.0000 7.2542 0.0000
# 4 0.0000 0.0000 0.0000 0.3729 0.0000 16.9872
# 5 4.0236 18.3202 7.2542 0.0000 39.6607 0.0000
# 6 0.0000 0.0000 0.0000 16.9872 0.0000 28.4282
#
#
#
# Elastic Compliance Matrix: (Units=1/GPa)
#
#
# Indices 1 2 3 4 5 6 
#
# 1 0.010969 -0.003781 -0.000491 0.000000 0.000723 0.000000
# 2 -0.003781 0.008499 -0.003851 0.000000 -0.002838 0.000000
# 3 -0.000491 -0.003851 0.013606 0.000000 -0.000660 0.000000
# 4 0.000000 0.000000 0.000000 -0.102272 0.000000 0.061113
# 5 0.000723 -0.002838 -0.000660 0.000000 0.026572 0.000000
# 6 0.000000 0.000000 0.000000 0.061113 0.000000 -0.001341
#
#
# Mechanical properties :
#
#
# Convention : Reuss Voigt Hill
#
# Bulk Modulus (GPa) = 59.41874 72.10888 65.76381
# Shear Modulus (GPa) = -226.11947 29.81166 -98.15391
#
# Velocity S-wave (km/s) = -10.51138 3.81666 -6.92540
# Velocity P-wave (km/s) = 10.87589 7.39305 5.64038
#
# Compressibility (1/GPa) = 0.01682971
#
# Stress axis : x y z
#
# Youngs Moduli (GPa) = 91.16925 117.65623 73.49429
#
# Poissons Ratio (x) = 0.44484 0.03608
# Poissons Ratio (y) = 0.34470 0.28299
# Poissons Ratio (z) = 0.04476 0.45304
#
# Static dielectric constant tensor:
#      x y z
#    x 1.755850 0.000000 0.022370 
#    y 0.000000 1.716740 0.000000 
#    z 0.022370 0.000000 1.765520 
# 
# From -- ./inp_files/34095.got.cif
#   From: 2010.05.17/outbox.cif.g08.bks.cpg/sg10_18_cif.got.tgz:34095.got - 2010.06.03 11:33:40.
