data_PCOD9153644
_publ_section_title
;
Structure prediction by ZEFSAII (Michael W. Deem and Ramdas Pophale) SiO2 
 PCOD9153644
Probable space group: P 2/M
;
_chemical_formula_sum "Si O2"
_cell_formula_units_Z 24
_cell_length_a 13.037189
_cell_length_b 8.500393
_cell_length_c 14.787844
_cell_angle_alpha 90.000000
_cell_angle_beta 139.844148
_cell_angle_gamma 90.000000
_cell_volume 1056.815823
_symmetry_space_group_name_H-M "P 2/M"
_symmetry_group_IT_number 10
_symmetry_cell_setting 'monoclinic'
loop_
_space_group_symop_operation_xyz
x,y,z
-x,y,-z
-x,-y,-z
x,-y,z
loop_
_atom_site_type_symbol
_atom_site_label
_atom_site_fract_x
_atom_site_fract_y
_atom_site_fract_z
Si Si1 0.668489 0.311041 0.159628
Si Si2 0.643423 0.681482 0.462489
Si Si3 0.327660 0.815749 0.167796
Si Si4 0.837052 0.814639 0.439640
Si Si5 0.141022 0.315443 0.885487
Si Si6 0.182402 0.185203 0.255648
O O1 0.675711 0.500000 0.180250
O O2 0.700885 0.221598 0.274103
O O3 0.802603 0.267489 0.176190
O O4 0.500000 0.276020 0.000000
O O5 0.599528 0.500000 0.425747
O O6 0.500029 0.784031 0.326298
O O7 0.794808 0.719446 0.500904
O O8 0.692820 0.724750 0.596994
O O9 0.206225 0.772857 0.167007
O O10 0.309943 0.000000 0.134049
O O11 0.286863 0.715201 0.052395
O O12 0.000000 0.766417 0.500000
O O13 0.844694 0.000000 0.465560
O O14 0.102172 0.500000 0.857731
O O15 0.991979 0.222658 0.824799
O O16 0.214701 0.000000 0.285583
#
# Coordination Sequence:
#
# PCOD9153644 Si02
#       6
#     4   4   4   4   4   4
#     4  10  22  40  61  88 122 159 201 249 301 356
#     4  12  25  41  64  92 123 160 203 255 310 364
#     4  11  24  42  64  90 123 163 205 252 306 364
#     4  11  24  41  63  91 122 159 203 249 300 363
#     4  11  23  39  63  94 126 162 205 254 305 360
#     4  11  24  42  63  89 124 164 205 252 306 364
#
# _framework density 22.709726
#
# number of rings (size 3 to 8) (size 9 to 14) (size 15 to 20)
#    0.000    1.000    0.000    6.500    0.000   13.667 
#    0.000    0.000    0.000    0.000    0.000    0.000 
#    0.000    0.000    0.000    0.000    0.000    0.000 
#
# Total GULP energy -134462.371611 kJ/mol
# GULP energy per Si atom -5602.598817 kJ/mol
# Density = 2.265804 g / cm^3
# Si number density = 22.709726 Si / 1000 Ang^3
#
#
#
# Elastic Constant Matrix: (Units=GPa)
#
#
# Indices 1 2 3 4 5 6 
#
# 1 67.1812 13.5839 -12.3716 0.0000 -4.4769 0.0000
# 2 13.5839 29.6047 -8.2117 0.0000 -14.3452 0.0000
# 3 -12.3716 -8.2117 57.0032 0.0000 -4.7280 0.0000
# 4 0.0000 0.0000 0.0000 3.2240 0.0000 3.7699
# 5 -4.4769 -14.3452 -4.7280 0.0000 42.3121 0.0000
# 6 0.0000 0.0000 0.0000 3.7699 0.0000 32.9114
#
#
#
# Elastic Compliance Matrix: (Units=1/GPa)
#
#
# Indices 1 2 3 4 5 6 
#
# 1 0.016784 -0.007162 0.002581 0.000000 -0.000364 0.000000
# 2 -0.007162 0.046467 0.006443 0.000000 0.015716 0.000000
# 3 0.002581 0.006443 0.019415 0.000000 0.004627 0.000000
# 4 0.000000 0.000000 0.000000 0.358140 0.000000 -0.041024
# 5 -0.000364 0.015716 0.004627 0.000000 0.029441 0.000000
# 6 0.000000 0.000000 0.000000 -0.041024 0.000000 0.035084
#
#
# Mechanical properties :
#
#
# Convention : Reuss Voigt Hill
#
# Bulk Modulus (GPa) = 11.57531 15.53225 13.55378
# Shear Modulus (GPa) = 9.42679 26.40873 17.91776
#
# Velocity S-wave (km/s) = 2.03961 3.41380 2.81194
# Velocity P-wave (km/s) = 3.26417 4.73213 4.06496
#
# Compressibility (1/GPa) = 0.08639080
#
# Stress axis : x y z
#
# Youngs Moduli (GPa) = 59.57965 21.52059 51.50665
#
# Poissons Ratio (x) = 0.15413 -0.13293
# Poissons Ratio (y) = 0.42669 -0.33186
# Poissons Ratio (z) = -0.15377 -0.13866
#
# Static dielectric constant tensor:
#      x y z
#    x 1.868500 0.000000 0.030360 
#    y 0.000000 1.750770 0.000000 
#    z 0.030360 0.000000 1.825460 
# 
# From -- ./inp_files/66689.got.cif
#   From: 2010.05.17/outbox.cif.g08.bks.cpg/sg10_34_cif.got.tgz:66689.got - 2010.06.03 11:33:40.
