data_PCOD9153609
_publ_section_title
;
Structure prediction by ZEFSAII (Michael W. Deem and Ramdas Pophale) SiO2 
 PCOD9153609
Probable space group: P 2/M
;
_chemical_formula_sum "Si O2"
_cell_formula_units_Z 17
_cell_length_a 7.239922
_cell_length_b 20.869981
_cell_length_c 7.242324
_cell_angle_alpha 90.000000
_cell_angle_beta 140.114556
_cell_angle_gamma 90.000000
_cell_volume 701.720979
_symmetry_space_group_name_H-M "P 2/M"
_symmetry_group_IT_number 10
_symmetry_cell_setting 'monoclinic'
loop_
_space_group_symop_operation_xyz
x,y,z
-x,y,-z
-x,-y,-z
x,-y,z
loop_
_atom_site_type_symbol
_atom_site_label
_atom_site_fract_x
_atom_site_fract_y
_atom_site_fract_z
Si Si1 0.373463 0.694575 0.111216
Si Si2 0.825091 0.070873 0.684086
Si Si3 0.875050 0.614587 0.612792
Si Si4 0.000000 0.500000 0.000000
Si Si5 0.304326 0.187133 0.675854
O O1 0.546532 0.636242 0.335562
O O2 0.484684 0.763035 0.268306
O O3 0.500000 0.697197 0.000000
O O4 0.045761 0.674768 0.833353
O O5 0.500000 0.063792 0.500000
O O6 0.809045 0.126659 0.523835
O O7 0.930902 0.000000 0.703146
O O8 0.000000 0.090053 0.000000
O O9 0.927408 0.555481 0.786792
O O10 0.000000 0.602656 0.500000
O O11 0.000000 0.220096 0.500000
O O12 0.500000 0.165786 0.000000
#
# Coordination Sequence:
#
# PCOD9153609 Si02
#       5
#     4   4   4   1   4
#     4   9  19  39  62  84 120 157 194 245 318 366
#     4  10  22  40  58  86 132 175 208 254 322 385
#     4  10  22  41  63  87 122 163 196 254 317 367
#     4  12  26  42  64  96 124 154 220 254 294 398
#     4  11  21  37  66  94 120 160 218 269 312 372
#
# _framework density 24.226154999999999
#
# number of rings (size 3 to 8) (size 9 to 14) (size 15 to 20)
#    0.000    1.882    0.000    5.294    0.000    3.765 
#    6.353    3.529    0.000    0.000    0.000    0.000 
#    0.000    0.000    0.000    0.000    0.000    0.000 
#
# Total GULP energy -94729.919086 kJ/mol
# GULP energy per Si atom -5572.348182 kJ/mol
# Density = 2.417101 g / cm^3
# Si number density = 24.226155 Si / 1000 Ang^3
#
#
#
# Elastic Constant Matrix: (Units=GPa)
#
#
# Indices 1 2 3 4 5 6 
#
# 1 46.1763 24.1765 28.1221 0.0000 -35.7413 0.0000
# 2 24.1765 169.9436 69.5333 0.0000 -38.5201 0.0000
# 3 28.1221 69.5333 194.8769 0.0000 -20.4770 0.0000
# 4 0.0000 0.0000 0.0000 -128.0420 0.0000 -118.9478
# 5 -35.7413 -38.5201 -20.4770 0.0000 53.6715 0.0000
# 6 0.0000 0.0000 0.0000 -118.9478 0.0000 7.6377
#
#
#
# Elastic Compliance Matrix: (Units=1/GPa)
#
#
# Indices 1 2 3 4 5 6 
#
# 1 0.047632 0.002159 -0.004321 0.000000 0.031621 0.000000
# 2 0.002159 0.008020 -0.002518 0.000000 0.006233 0.000000
# 3 -0.004321 -0.002518 0.006419 0.000000 -0.002236 0.000000
# 4 0.000000 0.000000 0.000000 -0.000505 0.000000 -0.007864
# 5 0.031621 0.006233 -0.002236 0.000000 0.043309 0.000000
# 6 0.000000 0.000000 0.000000 -0.007864 0.000000 0.008465
#
#
# Mechanical properties :
#
#
# Convention : Reuss Voigt Hill
#
# Bulk Modulus (GPa) = 18.97174 72.74006 45.85590
# Shear Modulus (GPa) = 35.64508 5.93110 20.78809
#
# Velocity S-wave (km/s) = 3.83998 1.56638 2.93249
# Velocity P-wave (km/s) = 5.24487 5.77598 5.51682
#
# Compressibility (1/GPa) = 0.05270998
#
# Stress axis : x y z
#
# Youngs Moduli (GPa) = 20.99413 124.68232 155.79644
#
# Poissons Ratio (x) = -0.26920 0.67327
# Poissons Ratio (y) = -0.04533 0.39235
# Poissons Ratio (z) = 0.09073 0.31399
#
# Static dielectric constant tensor:
#      x y z
#    x 2.027580 0.000000 -0.023820 
#    y 0.000000 2.004070 0.000000 
#    z -0.023820 0.000000 1.887760 
# 
# From -- ./inp_files/20389.got.cif
#   From: 2010.05.17/outbox.cif.g08.bks.cpg/sg10_11_cif.got.tgz:20389.got - 2010.06.03 11:33:40.
