data_PCOD9153129
_publ_section_title
;
Structure prediction by ZEFSAII (Michael W. Deem and Ramdas Pophale) SiO2 
 PCOD9153129
Probable space group: P 2/M
;
_chemical_formula_sum "Si O2"
_cell_formula_units_Z 19
_cell_length_a 5.370984
_cell_length_b 26.874752
_cell_length_c 5.326142
_cell_angle_alpha 90.000000
_cell_angle_beta 81.976229
_cell_angle_gamma 90.000000
_cell_volume 761.269586
_symmetry_space_group_name_H-M "P 2/M"
_symmetry_group_IT_number 10
_symmetry_cell_setting 'monoclinic'
loop_
_space_group_symop_operation_xyz
x,y,z
-x,y,-z
-x,-y,-z
x,-y,z
loop_
_atom_site_type_symbol
_atom_site_label
_atom_site_fract_x
_atom_site_fract_y
_atom_site_fract_z
Si Si1 0.159803 0.418303 0.219866
Si Si2 0.167968 0.000000 0.224330
Si Si3 0.276845 0.106956 0.335601
Si Si4 0.838503 0.211746 0.779602
Si Si5 0.500000 0.500000 0.000000
Si Si6 0.720603 0.685144 0.658785
O O1 0.244039 0.361311 0.161639
O O2 0.000000 0.419536 0.500000
O O3 0.387974 0.456124 0.200625
O O4 0.000000 0.435780 0.000000
O O5 0.312774 0.947716 0.215051
O O6 0.000000 0.000000 0.500000
O O7 0.000000 0.000000 0.000000
O O8 0.500000 0.115337 0.500000
O O9 0.266449 0.156214 0.167110
O O10 0.000000 0.104294 0.500000
O O11 0.660931 0.259119 0.759267
O O12 0.000000 0.207433 0.500000
O O13 0.000000 0.224727 0.000000
O O14 0.500000 0.670574 0.500000
O O15 0.000000 0.689698 0.500000
#
# Coordination Sequence:
#
# PCOD9153129 Si02
#       6
#     4   2   4   4   1   4
#     4  11  27  48  72 109 145 189 242 298 359 434
#     4  10  21  40  62  94 132 182 232 290 348 416
#     4  10  21  40  64  95 135 179 232 286 351 416
#     4  10  21  42  67 100 135 179 228 287 349 419
#     4  12  28  46  84 100 154 188 248 290 372 414
#     4  10  23  45  72 102 141 181 232 287 353 419
#
# _framework density 24.958303999999998
#
# number of rings (size 3 to 8) (size 9 to 14) (size 15 to 20)
#    0.000    1.684    0.000    2.842    5.895    0.842 
#    0.000   29.474    0.000    0.000    0.000    0.000 
#    0.000    0.000    0.000    0.000    0.000    0.000 
#
# Total GULP energy -105960.973996 kJ/mol
# GULP energy per Si atom -5576.893368 kJ/mol
# Density = 2.490150 g / cm^3
# Si number density = 24.958304 Si / 1000 Ang^3
#
#
#
# Elastic Constant Matrix: (Units=GPa)
#
#
# Indices 1 2 3 4 5 6 
#
# 1 94.8318 -24.5114 29.6335 0.0000 -11.6002 0.0000
# 2 -24.5114 210.7747 -18.6716 0.0000 -15.6838 0.0000
# 3 29.6335 -18.6716 116.7348 0.0000 -12.5623 0.0000
# 4 0.0000 0.0000 0.0000 18.1446 0.0000 5.8329
# 5 -11.6002 -15.6838 -12.5623 0.0000 69.7922 0.0000
# 6 0.0000 0.0000 0.0000 5.8329 0.0000 -65.2016
#
#
#
# Elastic Compliance Matrix: (Units=1/GPa)
#
#
# Indices 1 2 3 4 5 6 
#
# 1 0.011918 0.001287 -0.002626 0.000000 0.001797 0.000000
# 2 0.001287 0.005060 0.000640 0.000000 0.001466 0.000000
# 3 -0.002626 0.000640 0.009488 0.000000 0.001415 0.000000
# 4 0.000000 0.000000 0.000000 0.053572 0.000000 0.004793
# 5 0.001797 0.001466 0.001415 0.000000 0.015211 0.000000
# 6 0.000000 0.000000 0.000000 0.004793 0.000000 -0.014908
#
#
# Mechanical properties :
#
#
# Convention : Reuss Voigt Hill
#
# Bulk Modulus (GPa) = 39.89065 43.91582 41.90323
# Shear Modulus (GPa) = 55.49724 33.60643 44.55184
#
# Velocity S-wave (km/s) = 4.72062 3.67345 4.22957
# Velocity P-wave (km/s) = 6.76239 5.96877 6.37794
#
# Compressibility (1/GPa) = 0.02506853
#
# Stress axis : x y z
#
# Youngs Moduli (GPa) = 83.90543 197.63176 105.39844
#
# Poissons Ratio (x) = -0.25437 0.27679
# Poissons Ratio (y) = -0.10799 -0.06750
# Poissons Ratio (z) = 0.22035 -0.12656
#
# Static dielectric constant tensor:
#      x y z
#    x 1.767680 0.000000 0.057410 
#    y 0.000000 1.642540 0.000000 
#    z 0.057410 0.000000 1.924990 
# 
# From -- ./inp_files/2145.got.cif
#   From: 2010.05.17/outbox.cif.g08.bks.cpg/sg10_2_cif.got.tgz:2145.got - 2010.06.03 11:33:40.
