data_PCOD9153004
_publ_section_title
;
Structure prediction by ZEFSAII (Michael W. Deem and Ramdas Pophale) SiO2 
 PCOD9153004
Probable space group: P 2/M
;
_chemical_formula_sum "Si O2"
_cell_formula_units_Z 20
_cell_length_a 8.317272
_cell_length_b 22.919329
_cell_length_c 10.039707
_cell_angle_alpha 90.000000
_cell_angle_beta 150.894139
_cell_angle_gamma 90.000000
_cell_volume 930.935334
_symmetry_space_group_name_H-M "P 2/M"
_symmetry_group_IT_number 10
_symmetry_cell_setting 'monoclinic'
loop_
_space_group_symop_operation_xyz
x,y,z
-x,y,-z
-x,-y,-z
x,-y,z
loop_
_atom_site_type_symbol
_atom_site_label
_atom_site_fract_x
_atom_site_fract_y
_atom_site_fract_z
Si Si1 0.133374 0.166839 0.447247
Si Si2 0.241804 0.233596 0.051163
Si Si3 0.620729 0.934784 0.737724
Si Si4 0.617407 0.344124 0.224162
Si Si5 0.625204 0.566947 0.740501
O O1 0.332255 0.105402 0.589064
O O2 0.000000 0.174331 0.500000
O O3 0.879506 0.184758 0.145453
O O4 0.426942 0.211910 0.638460
O O5 0.358451 0.291357 0.059240
O O6 0.000000 0.243746 0.000000
O O7 0.500000 0.940247 0.500000
O O8 0.641697 0.000000 0.814164
O O9 0.000000 0.911437 0.000000
O O10 0.578687 0.390656 0.313314
O O11 0.000000 0.324051 0.500000
O O12 0.500000 0.371527 0.000000
O O13 0.500000 0.566676 0.500000
O O14 0.624765 0.500000 0.790632
O O15 0.000000 0.588197 0.000000
#
# Coordination Sequence:
#
# PCOD9153004 Si02
#       5
#     4   4   4   4   4
#     4  12  24  40  63  92 126 159 202 261 318 367
#     4  12  25  42  63  87 121 166 212 253 308 378
#     4  10  21  39  63  91 124 164 210 254 305 376
#     4  12  25  41  63  93 129 163 207 264 319 370
#     4  10  22  42  67  95 129 170 214 256 307 376
#
# _framework density 21.48377
#
# number of rings (size 3 to 8) (size 9 to 14) (size 15 to 20)
#    0.000    0.800    0.000    9.000    0.000    2.800 
#    0.000    0.000    0.000    6.000    0.000    0.000 
#    0.000    0.000    0.000    0.000    0.000    0.000 
#
# Total GULP energy -111648.295541 kJ/mol
# GULP energy per Si atom -5582.414777 kJ/mol
# Density = 2.143487 g / cm^3
# Si number density = 21.483770 Si / 1000 Ang^3
#
#
#
# Elastic Constant Matrix: (Units=GPa)
#
#
# Indices 1 2 3 4 5 6 
#
# 1 141.8123 49.0051 26.3290 0.0000 10.8618 0.0000
# 2 49.0051 78.9239 -5.9209 0.0000 3.5396 0.0000
# 3 26.3290 -5.9209 92.2191 0.0000 4.3038 0.0000
# 4 0.0000 0.0000 0.0000 41.5338 0.0000 -9.5277
# 5 10.8618 3.5396 4.3038 0.0000 31.6249 0.0000
# 6 0.0000 0.0000 0.0000 -9.5277 0.0000 64.1778
#
#
#
# Elastic Compliance Matrix: (Units=1/GPa)
#
#
# Indices 1 2 3 4 5 6 
#
# 1 0.010007 -0.006347 -0.003157 0.000000 -0.002297 0.000000
# 2 -0.006347 0.016833 0.002898 0.000000 -0.000098 0.000000
# 3 -0.003157 0.002898 0.011972 0.000000 -0.000869 0.000000
# 4 0.000000 0.000000 0.000000 0.024926 0.000000 0.003700
# 5 -0.002297 -0.000098 -0.000869 0.000000 0.032539 0.000000
# 6 0.000000 0.000000 0.000000 0.003700 0.000000 0.016131
#
#
# Mechanical properties :
#
#
# Convention : Reuss Voigt Hill
#
# Bulk Modulus (GPa) = 39.06577 50.19796 44.63186
# Shear Modulus (GPa) = 37.27026 43.70343 40.48685
#
# Velocity S-wave (km/s) = 4.16962 4.51516 4.34583
# Velocity P-wave (km/s) = 6.43462 7.11326 6.78244
#
# Compressibility (1/GPa) = 0.02559786
#
# Stress axis : x y z
#
# Youngs Moduli (GPa) = 99.92844 59.40545 83.52960
#
# Poissons Ratio (x) = 0.37707 0.26374
# Poissons Ratio (y) = 0.63429 -0.24204
# Poissons Ratio (z) = 0.31552 -0.17213
#
# Static dielectric constant tensor:
#      x y z
#    x 1.878340 0.000000 0.037350 
#    y 0.000000 1.852730 0.000000 
#    z 0.037350 0.000000 1.745810 
# 
# From -- ./inp_files/20660.got.cif
#   From: 2010.05.17/outbox.cif.g08.bks.cpg/sg10_11_cif.got.tgz:20660.got - 2010.06.03 11:33:40.
