data_PCOD9153897
_publ_section_title
;
Structure prediction by ZEFSAII (Michael W. Deem and Ramdas Pophale) SiO2 
 PCOD9153897
Probable space group: P 2/M
;
_chemical_formula_sum "Si O2"
_cell_formula_units_Z 26
_cell_length_a 5.110049
_cell_length_b 21.231993
_cell_length_c 13.215452
_cell_angle_alpha 90.000000
_cell_angle_beta 51.114763
_cell_angle_gamma 90.000000
_cell_volume 1116.100811
_symmetry_space_group_name_H-M "P 2/M"
_symmetry_group_IT_number 10
_symmetry_cell_setting 'monoclinic'
loop_
_space_group_symop_operation_xyz
x,y,z
-x,y,-z
-x,-y,-z
x,-y,z
loop_
_atom_site_type_symbol
_atom_site_label
_atom_site_fract_x
_atom_site_fract_y
_atom_site_fract_z
Si Si1 0.000000 0.126176 0.500000
Si Si2 0.827478 0.812024 0.350633
Si Si3 0.397480 0.103233 0.915641
Si Si4 0.636163 0.067760 0.293006
Si Si5 0.597873 0.432245 0.593356
Si Si6 0.619001 0.293390 0.647497
Si Si7 0.397231 0.746220 0.914901
O O1 0.078439 0.171442 0.384361
O O2 0.689857 0.079751 0.559625
O O3 0.500000 0.819111 0.500000
O O4 0.856414 0.870001 0.264487
O O5 0.684448 0.750713 0.324753
O O6 0.510485 0.071019 0.784928
O O7 0.461540 0.178523 0.898864
O O8 0.500000 0.077878 0.000000
O O9 0.000000 0.095282 0.000000
O O10 0.794393 0.000000 0.271894
O O11 0.500000 0.429115 0.500000
O O12 0.470931 0.500000 0.665429
O O13 0.501428 0.365698 0.664261
O O14 0.000000 0.434226 0.500000
O O15 0.616196 0.279705 0.768357
O O16 0.000000 0.289776 0.500000
O O17 0.500000 0.721888 0.000000
O O18 0.000000 0.735847 0.000000
#
# Coordination Sequence:
#
# PCOD9153897 Si02
#       7
#     2   4   4   4   4   4   4
#     4  10  25  42  60  90 127 162 198 260 343 398
#     4  10  23  39  59  92 125 160 207 272 325 391
#     4  10  23  43  64  86 117 162 209 263 323 390
#     4  11  24  41  63  87 121 163 208 264 327 394
#     4   9  19  37  60  95 141 181 216 268 336 395
#     4  11  23  41  71 104 133 171 231 282 326 384
#     4  10  23  42  65  92 136 179 216 269 346 405
#
# _framework density 23.295387999999999
#
# number of rings (size 3 to 8) (size 9 to 14) (size 15 to 20)
#    0.000    1.846    1.538    0.692    6.462    8.923 
#    6.923    0.000    0.000    0.923    0.000    0.000 
#    0.000    0.000    0.000    0.000    0.000    0.000 
#
# Total GULP energy -144916.941622 kJ/mol
# GULP energy per Si atom -5573.728524 kJ/mol
# Density = 2.324237 g / cm^3
# Si number density = 23.295388 Si / 1000 Ang^3
#
#
#
# Elastic Constant Matrix: (Units=GPa)
#
#
# Indices 1 2 3 4 5 6 
#
# 1 125.1477 53.1737 47.0728 0.0000 37.6082 0.0000
# 2 53.1737 166.8779 33.6966 0.0000 14.8866 0.0000
# 3 47.0728 33.6966 124.1581 0.0000 21.2314 0.0000
# 4 0.0000 0.0000 0.0000 -1.4274 0.0000 -4.5100
# 5 37.6082 14.8866 21.2314 0.0000 40.3514 0.0000
# 6 0.0000 0.0000 0.0000 -4.5100 0.0000 1.3224
#
#
#
# Elastic Compliance Matrix: (Units=1/GPa)
#
#
# Indices 1 2 3 4 5 6 
#
# 1 0.013075 -0.002780 -0.002521 0.000000 -0.009834 0.000000
# 2 -0.002780 0.007023 -0.000936 0.000000 0.000493 0.000000
# 3 -0.002521 -0.000936 0.009674 0.000000 -0.002395 0.000000
# 4 0.000000 0.000000 0.000000 -0.059492 0.000000 -0.202900
# 5 -0.009834 0.000493 -0.002395 0.000000 0.035026 0.000000
# 6 0.000000 0.000000 0.000000 -0.202900 0.000000 0.064219
#
#
# Mechanical properties :
#
#
# Convention : Reuss Voigt Hill
#
# Bulk Modulus (GPa) = 57.81201 76.00778 66.90990
# Shear Modulus (GPa) = 56.96933 26.86531 41.91732
#
# Velocity S-wave (km/s) = 4.95058 3.39963 4.24652
# Velocity P-wave (km/s) = 7.58607 6.93604 7.26833
#
# Compressibility (1/GPa) = 0.01729745
#
# Stress axis : x y z
#
# Youngs Moduli (GPa) = 76.47982 142.38241 103.37253
#
# Poissons Ratio (x) = 0.39581 0.26062
# Poissons Ratio (y) = 0.21261 0.09680
# Poissons Ratio (z) = 0.19282 0.13333
#
# Static dielectric constant tensor:
#      x y z
#    x 2.187550 0.000000 0.010130 
#    y 0.000000 1.993210 0.000000 
#    z 0.010130 0.000000 2.009250 
# 
# From -- ./inp_files/39686.got.cif
#   From: 2010.05.17/outbox.cif.g08.bks.cpg/sg10_20_cif.got.tgz:39686.got - 2010.06.03 11:33:40.
