data_PCOD9153931
_publ_section_title
;
Structure prediction by ZEFSAII (Michael W. Deem and Ramdas Pophale) SiO2 
 PCOD9153931
Probable space group: P 2/M
;
_chemical_formula_sum "Si O2"
_cell_formula_units_Z 32
_cell_length_a 15.196760
_cell_length_b 9.175813
_cell_length_c 21.989898
_cell_angle_alpha 90.000000
_cell_angle_beta 34.033469
_cell_angle_gamma 90.000000
_cell_volume 1716.154171
_symmetry_space_group_name_H-M "P 2/M"
_symmetry_group_IT_number 10
_symmetry_cell_setting 'monoclinic'
loop_
_space_group_symop_operation_xyz
x,y,z
-x,y,-z
-x,-y,-z
x,-y,z
loop_
_atom_site_type_symbol
_atom_site_label
_atom_site_fract_x
_atom_site_fract_y
_atom_site_fract_z
Si Si1 0.882062 0.669474 0.469933
Si Si2 0.190244 0.172431 0.107436
Si Si3 0.819312 0.828292 0.745187
Si Si4 0.303137 0.332467 0.552468
Si Si5 0.433227 0.323257 0.290128
Si Si6 0.861153 0.826290 0.243342
Si Si7 0.503166 0.674580 0.884628
Si Si8 0.620583 0.674330 0.301254
O O1 0.919170 0.500000 0.462432
O O2 0.798295 0.673176 0.451549
O O3 0.745655 0.724630 0.593360
O O4 0.040264 0.760993 0.374902
O O5 0.142036 0.191700 0.205470
O O6 0.042707 0.215541 0.150143
O O7 0.222366 0.000000 0.080487
O O8 0.345434 0.262769 0.004223
O O9 0.656903 0.745905 0.825960
O O10 0.801762 0.000000 0.743773
O O11 0.298148 0.500000 0.577829
O O12 0.232432 0.228399 0.643489
O O13 0.480737 0.298687 0.430155
O O14 0.426745 0.500000 0.298570
O O15 0.490546 0.285943 0.190486
O O16 0.550004 0.275285 0.277015
O O17 0.776188 0.752917 0.234895
O O18 0.852723 0.000000 0.244144
O O19 0.509246 0.500000 0.887061
O O20 0.643892 0.500000 0.285417
#
# Coordination Sequence:
#
# PCOD9153931 Si02
#       8
#     4   4   4   4   4   4   4   4
#     4   9  17  33  58  84 111 145 182 223 269 325
#     4  10  23  41  56  76 113 151 180 222 281 330
#     4  11  22  38  58  82 115 148 177 221 282 335
#     4   9  17  30  51  79 111 144 179 219 267 322
#     4   8  18  38  59  81 113 146 180 228 280 319
#     4  11  21  33  51  79 112 146 181 221 271 324
#     4  11  23  39  61  84 104 139 191 237 273 323
#     4   9  18  34  55  79 109 146 181 218 269 326
#
# _framework density 18.646343000000002
#
# number of rings (size 3 to 8) (size 9 to 14) (size 15 to 20)
#    0.000    2.250    1.250    3.375    0.000    6.000 
#    0.000    7.500    0.000    3.750    0.000    0.000 
#    0.000    0.000    0.000    0.000    0.000    0.000 
#
# Total GULP energy -178655.638840 kJ/mol
# GULP energy per Si atom -5582.988714 kJ/mol
# Density = 1.860390 g / cm^3
# Si number density = 18.646343 Si / 1000 Ang^3
#
#
#
# Elastic Constant Matrix: (Units=GPa)
#
#
# Indices 1 2 3 4 5 6 
#
# 1 50.9906 32.7149 37.9368 0.0000 -23.1169 0.0000
# 2 32.7149 85.2351 124.2638 0.0000 -27.5046 0.0000
# 3 37.9368 124.2638 246.1843 0.0000 -49.9142 0.0000
# 4 0.0000 0.0000 0.0000 63.4252 0.0000 7.3041
# 5 -23.1169 -27.5046 -49.9142 0.0000 38.9387 0.0000
# 6 0.0000 0.0000 0.0000 7.3041 0.0000 28.0735
#
#
#
# Elastic Compliance Matrix: (Units=1/GPa)
#
#
# Indices 1 2 3 4 5 6 
#
# 1 0.033245 -0.018359 0.007454 0.000000 0.016323 0.000000
# 2 -0.018359 0.054928 -0.025996 0.000000 -0.005424 0.000000
# 3 0.007454 -0.025996 0.017848 0.000000 0.008941 0.000000
# 4 0.000000 0.000000 0.000000 0.016254 0.000000 -0.004229
# 5 0.016323 -0.005424 0.008941 0.000000 0.043002 0.000000
# 6 0.000000 0.000000 0.000000 -0.004229 0.000000 0.036721
#
#
# Mechanical properties :
#
#
# Convention : Reuss Voigt Hill
#
# Bulk Modulus (GPa) = 31.03882 85.80455 58.42168
# Shear Modulus (GPa) = 17.44946 38.58712 28.01829
#
# Velocity S-wave (km/s) = 3.06242 4.55402 3.88056
# Velocity P-wave (km/s) = 5.40248 8.58888 7.17481
#
# Compressibility (1/GPa) = 0.03221772
#
# Stress axis : x y z
#
# Youngs Moduli (GPa) = 30.07935 18.20555 56.02840
#
# Poissons Ratio (x) = 0.33424 -0.41761
# Poissons Ratio (y) = 0.55224 1.45652
# Poissons Ratio (z) = -0.22420 0.47327
#
# Static dielectric constant tensor:
#      x y z
#    x 1.668590 0.000000 -0.002990 
#    y 0.000000 1.618800 0.000000 
#    z -0.002990 0.000000 1.621280 
# 
# From -- ./inp_files/89566.got.cif
#   From: 2010.05.17/outbox.cif.g08.bks.cpg/sg10_45_cif.got.tgz:89566.got - 2010.06.03 11:33:40.
