data_PCOD9153727
_publ_section_title
;
Structure prediction by ZEFSAII (Michael W. Deem and Ramdas Pophale) SiO2 
 PCOD9153727
Probable space group: P 2/M
;
_chemical_formula_sum "Si O2"
_cell_formula_units_Z 24
_cell_length_a 23.563322
_cell_length_b 7.884310
_cell_length_c 11.179365
_cell_angle_alpha 90.000000
_cell_angle_beta 149.421106
_cell_angle_gamma 90.000000
_cell_volume 1056.573801
_symmetry_space_group_name_H-M "P 2/M"
_symmetry_group_IT_number 10
_symmetry_cell_setting 'monoclinic'
loop_
_space_group_symop_operation_xyz
x,y,z
-x,y,-z
-x,-y,-z
x,-y,z
loop_
_atom_site_type_symbol
_atom_site_label
_atom_site_fract_x
_atom_site_fract_y
_atom_site_fract_z
Si Si1 0.507148 0.305435 0.376696
Si Si2 0.196574 0.801611 0.607588
Si Si3 0.967420 0.695103 0.078415
Si Si4 0.871638 0.207286 0.263805
Si Si5 0.572570 0.698768 0.021225
Si Si6 0.249629 0.801431 0.198398
O O1 0.500000 0.230715 0.500000
O O2 0.466917 0.500000 0.315694
O O3 0.448495 0.228093 0.151436
O O4 0.637285 0.298659 0.577734
O O5 0.070403 0.779943 0.333585
O O6 0.192774 0.733729 0.735939
O O7 0.222755 0.000000 0.655014
O O8 0.295498 0.714093 0.714648
O O9 0.959614 0.500000 0.103900
O O10 0.000000 0.699825 0.000000
O O11 0.848169 0.779484 0.883169
O O12 0.000000 0.263953 0.500000
O O13 0.874013 0.000000 0.270689
O O14 0.808352 0.256989 0.029752
O O15 0.542163 0.500000 0.956857
O O16 0.500000 0.770571 0.000000
O O17 0.278638 0.000000 0.241245
#
# Coordination Sequence:
#
# PCOD9153727 Si02
#       6
#     4   4   4   4   4   4
#     4  10  22  41  63  88 123 166 211 254 299 363
#     4  11  22  39  65  92 121 154 199 253 300 356
#     4  11  25  42  60  85 122 165 203 243 303 369
#     4   9  17  34  57  86 124 156 183 232 304 361
#     4  10  23  42  62  85 120 165 204 247 309 366
#     4  11  22  38  64  93 123 157 200 253 307 360
#
# _framework density 22.714932000000001
#
# number of rings (size 3 to 8) (size 9 to 14) (size 15 to 20)
#    0.000    1.667    1.667    2.500    2.333    2.667 
#    0.000    3.333    0.000    0.000    0.000    0.000 
#    0.000    0.000    0.000    0.000    0.000    0.000 
#
# Total GULP energy -134053.990570 kJ/mol
# GULP energy per Si atom -5585.582940 kJ/mol
# Density = 2.266323 g / cm^3
# Si number density = 22.714932 Si / 1000 Ang^3
#
#
#
# Elastic Constant Matrix: (Units=GPa)
#
#
# Indices 1 2 3 4 5 6 
#
# 1 109.5059 9.3651 13.4296 0.0000 16.5786 0.0000
# 2 9.3651 39.3036 -0.8983 0.0000 -8.5609 0.0000
# 3 13.4296 -0.8983 68.7674 0.0000 20.4708 0.0000
# 4 0.0000 0.0000 0.0000 7.1581 0.0000 -20.4028
# 5 16.5786 -8.5609 20.4708 0.0000 38.5845 0.0000
# 6 0.0000 0.0000 0.0000 -20.4028 0.0000 -28.1534
#
#
#
# Elastic Compliance Matrix: (Units=1/GPa)
#
#
# Indices 1 2 3 4 5 6 
#
# 1 0.010242 -0.003513 -0.000599 0.000000 -0.004863 0.000000
# 2 -0.003513 0.028105 -0.001487 0.000000 0.008534 0.000000
# 3 -0.000599 -0.001487 0.017411 0.000000 -0.009310 0.000000
# 4 0.000000 0.000000 0.000000 0.045570 0.000000 -0.033025
# 5 -0.004863 0.008534 -0.009310 0.000000 0.034839 0.000000
# 6 0.000000 0.000000 0.000000 -0.033025 0.000000 -0.011586
#
#
# Mechanical properties :
#
#
# Convention : Reuss Voigt Hill
#
# Bulk Modulus (GPa) = 22.44195 29.04108 25.74152
# Shear Modulus (GPa) = 33.19342 16.56321 24.87831
#
# Velocity S-wave (km/s) = 3.82685 2.70326 3.31303
# Velocity P-wave (km/s) = 5.42472 4.74934 5.09823
#
# Compressibility (1/GPa) = 0.04455941
#
# Stress axis : x y z
#
# Youngs Moduli (GPa) = 97.63749 35.58089 57.43613
#
# Poissons Ratio (x) = 0.12500 0.03438
# Poissons Ratio (y) = 0.34302 0.08543
# Poissons Ratio (z) = 0.05844 0.05292
#
# Static dielectric constant tensor:
#      x y z
#    x 1.877940 0.000000 -0.019150 
#    y 0.000000 1.837970 0.000000 
#    z -0.019150 0.000000 1.870130 
# 
# From -- ./inp_files/56530.got.cif
#   From: 2010.05.17/outbox.cif.g08.bks.cpg/sg10_29_cif.got.tgz:56530.got - 2010.06.03 11:33:40.
