data_PCOD9153863
_publ_section_title
;
Structure prediction by ZEFSAII (Michael W. Deem and Ramdas Pophale) SiO2 
 PCOD9153863
Probable space group: P 2/M
;
_chemical_formula_sum "Si O2"
_cell_formula_units_Z 18
_cell_length_a 8.101255
_cell_length_b 20.994414
_cell_length_c 5.321299
_cell_angle_alpha 90.000000
_cell_angle_beta 63.930957
_cell_angle_gamma 90.000000
_cell_volume 812.977020
_symmetry_space_group_name_H-M "P 2/M"
_symmetry_group_IT_number 10
_symmetry_cell_setting 'monoclinic'
loop_
_space_group_symop_operation_xyz
x,y,z
-x,y,-z
-x,-y,-z
x,-y,z
loop_
_atom_site_type_symbol
_atom_site_label
_atom_site_fract_x
_atom_site_fract_y
_atom_site_fract_z
Si Si1 0.783226 0.696718 0.678778
Si Si2 0.115548 0.816345 0.164039
Si Si3 0.379713 0.926926 0.826257
Si Si4 0.805887 0.572670 0.984438
Si Si5 0.500000 0.641835 0.500000
O O1 0.740453 0.759469 0.869020
O O2 0.637300 0.688174 0.558214
O O3 0.000000 0.708632 0.500000
O O4 0.789181 0.625931 0.785801
O O5 0.000000 0.832082 0.500000
O O6 0.216327 0.878450 0.991024
O O7 0.000000 0.791858 0.000000
O O8 0.500000 0.908628 0.500000
O O9 0.317596 0.000000 0.825539
O O10 0.500000 0.926051 0.000000
O O11 0.793060 0.500000 0.904574
O O12 0.635977 0.593725 0.267607
O O13 0.000000 0.579765 0.000000
#
# Coordination Sequence:
#
# PCOD9153863 Si02
#       5
#     4   4   4   4   2
#     4  11  25  46  68  98 142 180 240 303 359 438
#     4  11  25  45  71 103 145 189 239 301 360 430
#     4  10  22  43  70 105 147 187 236 294 353 428
#     4  11  24  44  70 100 137 181 237 304 365 435
#     4  12  25  44  72  96 131 194 232 294 375 440
#
# _framework density 22.140847999999998
#
# number of rings (size 3 to 8) (size 9 to 14) (size 15 to 20)
#    0.000    1.111    2.222    3.000    3.111    5.778 
#    4.000    0.000    0.000    0.000    0.000    0.000 
#    0.000    0.000    0.000    0.000    0.000    0.000 
#
# Total GULP energy -100404.578548 kJ/mol
# GULP energy per Si atom -5578.032142 kJ/mol
# Density = 2.209045 g / cm^3
# Si number density = 22.140848 Si / 1000 Ang^3
#
#
#
# Elastic Constant Matrix: (Units=GPa)
#
#
# Indices 1 2 3 4 5 6 
#
# 1 90.2942 53.1693 40.5888 0.0000 -8.0100 0.0000
# 2 53.1693 130.9259 47.8115 0.0000 1.2577 0.0000
# 3 40.5888 47.8115 120.8794 0.0000 -1.6437 0.0000
# 4 0.0000 0.0000 0.0000 1.9171 0.0000 -2.6615
# 5 -8.0100 1.2577 -1.6437 0.0000 31.0615 0.0000
# 6 0.0000 0.0000 0.0000 -2.6615 0.0000 -3.9163
#
#
#
# Elastic Compliance Matrix: (Units=1/GPa)
#
#
# Indices 1 2 3 4 5 6 
#
# 1 0.016063 -0.005394 -0.003203 0.000000 0.004191 0.000000
# 2 -0.005394 0.010748 -0.002467 0.000000 -0.001957 0.000000
# 3 -0.003203 -0.002467 0.010321 0.000000 -0.000180 0.000000
# 4 0.000000 0.000000 0.000000 0.268392 0.000000 -0.182399
# 5 0.004191 -0.001957 -0.000180 0.000000 0.033345 0.000000
# 6 0.000000 0.000000 0.000000 -0.182399 0.000000 -0.131386
#
#
# Mechanical properties :
#
#
# Convention : Reuss Voigt Hill
#
# Bulk Modulus (GPa) = 66.64420 69.47098 68.05759
# Shear Modulus (GPa) = 21.31192 19.18114 20.24653
#
# Velocity S-wave (km/s) = 3.10588 2.94653 3.02726
# Velocity P-wave (km/s) = 6.55953 6.55904 6.55929
#
# Compressibility (1/GPa) = 0.01500506
#
# Stress axis : x y z
#
# Youngs Moduli (GPa) = 62.25659 93.04216 96.88564
#
# Poissons Ratio (x) = 0.50183 0.31034
# Poissons Ratio (y) = 0.33579 0.23898
# Poissons Ratio (z) = 0.19942 0.22950
#
# Static dielectric constant tensor:
#      x y z
#    x 1.702930 0.000000 0.000310 
#    y 0.000000 1.817960 0.000000 
#    z 0.000310 0.000000 1.844830 
# 
# From -- ./inp_files/4627.got.cif
#   From: 2010.05.17/outbox.cif.g08.bks.cpg/sg10_3_cif.got.tgz:4627.got - 2010.06.03 11:33:40.
