data_PCOD9153871
_publ_section_title
;
Structure prediction by ZEFSAII (Michael W. Deem and Ramdas Pophale) SiO2 
 PCOD9153871
Probable space group: P 2/M
;
_chemical_formula_sum "Si O2"
_cell_formula_units_Z 28
_cell_length_a 11.858132
_cell_length_b 14.233697
_cell_length_c 9.658931
_cell_angle_alpha 90.000000
_cell_angle_beta 63.865966
_cell_angle_gamma 90.000000
_cell_volume 1463.613001
_symmetry_space_group_name_H-M "P 2/M"
_symmetry_group_IT_number 10
_symmetry_cell_setting 'monoclinic'
loop_
_space_group_symop_operation_xyz
x,y,z
-x,y,-z
-x,-y,-z
x,-y,z
loop_
_atom_site_type_symbol
_atom_site_label
_atom_site_fract_x
_atom_site_fract_y
_atom_site_fract_z
Si Si1 0.019128 0.500000 0.264934
Si Si2 0.825018 0.751527 0.856279
Si Si3 0.788963 0.500000 0.607475
Si Si4 0.079930 0.309725 0.777421
Si Si5 0.493884 0.244804 0.668770
Si Si6 0.291242 0.614627 0.872367
Si Si7 0.611911 0.111421 0.049588
Si Si8 0.235040 0.706266 0.413964
O O1 0.906981 0.500000 0.438020
O O2 0.997132 0.407175 0.191578
O O3 0.148172 0.500000 0.276521
O O4 0.839885 0.730229 0.685056
O O5 0.961581 0.759935 0.854944
O O6 0.742627 0.665265 0.964563
O O7 0.739843 0.842595 0.924595
O O8 0.722101 0.597241 0.617175
O O9 0.188306 0.336027 0.826702
O O10 0.150011 0.285524 0.596148
O O11 0.500000 0.237477 0.500000
O O12 0.423798 0.342140 0.749299
O O13 0.418449 0.163582 0.789602
O O14 0.636443 0.237888 0.644636
O O15 0.285062 0.500000 0.874274
O O16 0.620340 0.000000 0.061251
O O17 0.500000 0.132175 0.000000
#
# Coordination Sequence:
#
# PCOD9153871 Si02
#       8
#     2   4   2   4   4   4   4   4
#     4   9  16  28  47  74 111 156 209 226 269 326
#     4  11  23  37  60  88 119 155 200 247 295 352
#     4   9  18  28  45  79 116 158 195 239 276 317
#     4  11  20  36  57  83 123 164 205 242 282 338
#     4  11  23  41  62  89 118 154 202 249 296 349
#     4  11  25  37  53  87 130 171 203 237 287 342
#     4  10  22  44  69  90 114 148 191 245 311 374
#     4  11  21  35  57  87 117 162 206 245 284 346
#
# _framework density 19.130741
#
# number of rings (size 3 to 8) (size 9 to 14) (size 15 to 20)
#    0.000    1.429    5.000    0.857    3.000    1.143 
#    0.000    0.714    0.000    9.429    0.000    0.000 
#    0.000    0.000    0.000    0.000    0.000    0.000 
#
# Total GULP energy -156138.125527 kJ/mol
# GULP energy per Si atom -5576.361626 kJ/mol
# Density = 1.908720 g / cm^3
# Si number density = 19.130741 Si / 1000 Ang^3
#
#
#
# Elastic Constant Matrix: (Units=GPa)
#
#
# Indices 1 2 3 4 5 6 
#
# 1 78.9747 20.0412 8.7861 0.0000 -11.8176 0.0000
# 2 20.0412 73.1197 25.0734 0.0000 -9.9818 0.0000
# 3 8.7861 25.0734 94.6691 0.0000 -0.5175 0.0000
# 4 0.0000 0.0000 0.0000 16.2134 0.0000 -2.3963
# 5 -11.8176 -9.9818 -0.5175 0.0000 24.4774 0.0000
# 6 0.0000 0.0000 0.0000 -2.3963 0.0000 23.3334
#
#
#
# Elastic Compliance Matrix: (Units=1/GPa)
#
#
# Indices 1 2 3 4 5 6 
#
# 1 0.014326 -0.002974 -0.000511 0.000000 0.005693 0.000000
# 2 -0.002974 0.016613 -0.004095 0.000000 0.005252 0.000000
# 3 -0.000511 -0.004095 0.011686 0.000000 -0.001669 0.000000
# 4 0.000000 0.000000 0.000000 0.062628 0.000000 0.006432
# 5 0.005693 0.005252 -0.001669 0.000000 0.045709 0.000000
# 6 0.000000 0.000000 0.000000 0.006432 0.000000 0.043518
#
#
# Mechanical properties :
#
#
# Convention : Reuss Voigt Hill
#
# Bulk Modulus (GPa) = 36.41111 39.39611 37.90361
# Shear Modulus (GPa) = 22.85256 25.66235 24.25746
#
# Velocity S-wave (km/s) = 3.45997 3.66651 3.56474
# Velocity P-wave (km/s) = 5.91912 6.20985 6.06623
#
# Compressibility (1/GPa) = 0.02746414
#
# Stress axis : x y z
#
# Youngs Moduli (GPa) = 69.80451 60.19509 85.57259
#
# Poissons Ratio (x) = 0.17904 0.04370
# Poissons Ratio (y) = 0.20762 0.35043
# Poissons Ratio (z) = 0.03565 0.24651
#
# Static dielectric constant tensor:
#      x y z
#    x 1.699260 0.000000 0.017770 
#    y 0.000000 1.651760 0.000000 
#    z 0.017770 0.000000 1.716980 
# 
# From -- ./inp_files/24959.got.cif
#   From: 2010.05.17/outbox.cif.g08.bks.cpg/sg10_13_cif.got.tgz:24959.got - 2010.06.03 11:33:40.
