data_PCOD9153637
_publ_section_title
;
Structure prediction by ZEFSAII (Michael W. Deem and Ramdas Pophale) SiO2 
 PCOD9153637
Probable space group: P 2/M
;
_chemical_formula_sum "Si O2"
_cell_formula_units_Z 21
_cell_length_a 20.552772
_cell_length_b 7.216670
_cell_length_c 9.571686
_cell_angle_alpha 90.000000
_cell_angle_beta 39.686140
_cell_angle_gamma 90.000000
_cell_volume 906.592556
_symmetry_space_group_name_H-M "P 2/M"
_symmetry_group_IT_number 10
_symmetry_cell_setting 'monoclinic'
loop_
_space_group_symop_operation_xyz
x,y,z
-x,y,-z
-x,-y,-z
x,-y,z
loop_
_atom_site_type_symbol
_atom_site_label
_atom_site_fract_x
_atom_site_fract_y
_atom_site_fract_z
Si Si1 0.805234 0.774918 0.481349
Si Si2 0.197292 0.226009 0.835022
Si Si3 0.388960 0.220558 0.018671
Si Si4 0.500000 0.500000 0.000000
Si Si5 0.384595 0.223914 0.709607
Si Si6 0.000475 0.225704 0.338113
O O1 0.812651 0.714987 0.308944
O O2 0.699270 0.719768 0.727889
O O3 0.900486 0.716087 0.418026
O O4 0.805526 0.000000 0.481789
O O5 0.301531 0.287640 0.735932
O O6 0.197407 0.000000 0.833445
O O7 0.101301 0.282045 0.087772
O O8 0.406661 0.000000 0.998411
O O9 0.485762 0.337478 0.903514
O O10 0.353339 0.262850 0.920610
O O11 0.500000 0.289136 0.500000
O O12 0.387291 0.000000 0.692002
O O13 0.000000 0.285073 0.500000
O O14 0.999870 0.000000 0.340655
#
# Coordination Sequence:
#
# PCOD9153637 Si02
#       6
#     4   4   4   1   4   4
#     4   9  17  29  50  79 112 153 195 242 299 353
#     4   9  16  26  45  77 115 153 198 246 293 350
#     4  10  22  40  61  85 119 156 199 247 301 357
#     4  12  26  40  62  90 116 156 204 252 296 356
#     4   9  18  32  53  80 113 156 200 244 297 353
#     4   9  15  24  42  74 116 153 193 244 294 350
#
# _framework density 23.163657000000001
#
# number of rings (size 3 to 8) (size 9 to 14) (size 15 to 20)
#    0.000    2.667    0.000    2.000    2.667    6.857 
#    0.000    0.476    0.000    0.000    0.000    8.667 
#    0.000    0.000    0.000    0.000    0.000    1.714 
#
# Total GULP energy -117183.933922 kJ/mol
# GULP energy per Si atom -5580.187330 kJ/mol
# Density = 2.311094 g / cm^3
# Si number density = 23.163657 Si / 1000 Ang^3
#
#
#
# Elastic Constant Matrix: (Units=GPa)
#
#
# Indices 1 2 3 4 5 6 
#
# 1 176.3183 23.2857 64.2791 0.0000 30.9756 0.0000
# 2 23.2857 121.8399 8.7373 0.0000 6.1800 0.0000
# 3 64.2791 8.7373 148.6782 0.0000 25.7755 0.0000
# 4 0.0000 0.0000 0.0000 -42.0921 0.0000 35.5676
# 5 30.9756 6.1800 25.7755 0.0000 40.6280 0.0000
# 6 0.0000 0.0000 0.0000 35.5676 0.0000 -108.0934
#
#
#
# Elastic Compliance Matrix: (Units=1/GPa)
#
#
# Indices 1 2 3 4 5 6 
#
# 1 0.007393 -0.001038 -0.002455 0.000000 -0.003921 0.000000
# 2 -0.001038 0.008429 0.000043 0.000000 -0.000518 0.000000
# 3 -0.002455 0.000043 0.008384 0.000000 -0.003453 0.000000
# 4 0.000000 0.000000 0.000000 -0.032907 0.000000 -0.010828
# 5 -0.003921 -0.000518 -0.003453 0.000000 0.029872 0.000000
# 6 0.000000 0.000000 0.000000 -0.010828 0.000000 -0.012814
#
#
# Mechanical properties :
#
#
# Convention : Reuss Voigt Hill
#
# Bulk Modulus (GPa) = 57.78645 71.04893 64.41769
# Shear Modulus (GPa) = 237.81215 1.45748 119.63482
#
# Velocity S-wave (km/s) = 10.14342 0.79409 7.19443
# Velocity P-wave (km/s) = 12.73524 5.61960 9.84293
#
# Compressibility (1/GPa) = 0.01730510
#
# Stress axis : x y z
#
# Youngs Moduli (GPa) = 135.27145 118.63743 119.27998
#
# Poissons Ratio (x) = 0.12313 0.29288
# Poissons Ratio (y) = 0.14040 -0.00516
# Poissons Ratio (z) = 0.33214 -0.00513
#
# Static dielectric constant tensor:
#      x y z
#    x 1.840410 0.000000 -0.024530 
#    y 0.000000 1.814560 0.000000 
#    z -0.024530 0.000000 1.838960 
# 
# From -- ./inp_files/33681.got.cif
#   From: 2010.05.17/outbox.cif.g08.bks.cpg/sg10_17_cif.got.tgz:33681.got - 2010.06.03 11:33:40.
