data_PCOD9153360
_publ_section_title
;
Structure prediction by ZEFSAII (Michael W. Deem and Ramdas Pophale) SiO2 
 PCOD9153360
Probable space group: P 2/M
;
_chemical_formula_sum "Si O2"
_cell_formula_units_Z 32
_cell_length_a 15.312308
_cell_length_b 22.993278
_cell_length_c 8.937309
_cell_angle_alpha 90.000000
_cell_angle_beta 33.073108
_cell_angle_gamma 90.000000
_cell_volume 1717.153854
_symmetry_space_group_name_H-M "P 2/M"
_symmetry_group_IT_number 10
_symmetry_cell_setting 'monoclinic'
loop_
_space_group_symop_operation_xyz
x,y,z
-x,y,-z
-x,-y,-z
x,-y,z
loop_
_atom_site_type_symbol
_atom_site_label
_atom_site_fract_x
_atom_site_fract_y
_atom_site_fract_z
Si Si1 0.411916 0.223009 0.967014
Si Si2 0.061337 0.779699 0.082012
Si Si3 0.996591 0.648639 0.826273
Si Si4 0.343627 0.933133 0.330452
Si Si5 0.864907 0.139056 0.577609
Si Si6 0.165763 0.433674 0.167690
Si Si7 0.328034 0.351587 0.166540
Si Si8 0.620137 0.841433 0.453410
O O1 0.540721 0.213602 0.652616
O O2 0.500000 0.214035 0.000000
O O3 0.282851 0.171995 0.132355
O O4 0.336367 0.286789 0.084133
O O5 0.073901 0.712558 0.109669
O O6 0.935610 0.811640 0.367501
O O7 0.221252 0.817399 0.851347
O O8 0.000000 0.779655 0.000000
O O9 0.884810 0.601038 0.907967
O O10 0.177015 0.646438 0.498181
O O11 0.000000 0.641568 0.000000
O O12 0.198711 0.912892 0.432898
O O13 0.350970 0.889570 0.460320
O O14 0.330125 0.000000 0.397274
O O15 0.500000 0.927515 0.000000
O O16 0.000000 0.121375 0.500000
O O17 0.216186 0.500000 0.067760
O O18 0.289944 0.398001 0.091626
O O19 0.000000 0.435015 0.500000
O O20 0.500000 0.361107 0.000000
O O21 0.500000 0.863891 0.500000
#
# Coordination Sequence:
#
# PCOD9153360 Si02
#       8
#     4   4   4   4   4   4   4   4
#     4  11  20  39  60  87 126 160 196 243 300 364
#     4  11  22  37  58  91 128 156 184 253 312 358
#     4  10  22  37  58  92 123 157 201 248 307 358
#     4  11  24  46  66  84 119 165 206 241 289 365
#     4  12  22  37  64  91 119 155 198 244 301 351
#     4   9  20  40  62  85 122 167 209 245 295 363
#     4  10  22  36  60  91 120 160 203 251 295 357
#     4  12  24  39  62  93 121 157 198 245 306 356
#
# _framework density 18.635487999999999
#
# number of rings (size 3 to 8) (size 9 to 14) (size 15 to 20)
#    0.000    1.250    5.000    0.750    8.750    1.000 
#    0.000    1.875    0.000    0.750    0.000    0.000 
#    0.000    0.000    0.000    0.000    0.000    0.000 
#
# Total GULP energy -178709.188230 kJ/mol
# GULP energy per Si atom -5584.662132 kJ/mol
# Density = 1.859307 g / cm^3
# Si number density = 18.635488 Si / 1000 Ang^3
#
#
#
# Elastic Constant Matrix: (Units=GPa)
#
#
# Indices 1 2 3 4 5 6 
#
# 1 113.4997 56.2340 15.2924 0.0000 -12.7247 0.0000
# 2 56.2340 123.2733 31.7338 0.0000 -5.3930 0.0000
# 3 15.2924 31.7338 33.7317 0.0000 -1.6019 0.0000
# 4 0.0000 0.0000 0.0000 47.3344 0.0000 -4.7289
# 5 -12.7247 -5.3930 -1.6019 0.0000 31.4384 0.0000
# 6 0.0000 0.0000 0.0000 -4.7289 0.0000 1.9735
#
#
#
# Elastic Compliance Matrix: (Units=1/GPa)
#
#
# Indices 1 2 3 4 5 6 
#
# 1 0.011841 -0.005142 -0.000346 0.000000 0.003893 0.000000
# 2 -0.005142 0.012993 -0.009909 0.000000 -0.000357 0.000000
# 3 -0.000346 -0.009909 0.039132 0.000000 0.000154 0.000000
# 4 0.000000 0.000000 0.000000 0.027776 0.000000 0.066556
# 5 0.003893 -0.000357 0.000154 0.000000 0.033331 0.000000
# 6 0.000000 0.000000 0.000000 0.066556 0.000000 0.666192
#
#
# Mechanical properties :
#
#
# Convention : Reuss Voigt Hill
#
# Bulk Modulus (GPa) = 30.14580 53.00278 41.57429
# Shear Modulus (GPa) = 6.00156 27.29889 16.65023
#
# Velocity S-wave (km/s) = 1.79652 3.83154 2.99234
# Velocity P-wave (km/s) = 4.52935 6.93382 5.85631
#
# Compressibility (1/GPa) = 0.03317211
#
# Stress axis : x y z
#
# Youngs Moduli (GPa) = 84.44881 76.96343 25.55449
#
# Poissons Ratio (x) = 0.39578 0.00883
# Poissons Ratio (y) = 0.43428 0.25323
# Poissons Ratio (z) = 0.02918 0.76265
#
# Static dielectric constant tensor:
#      x y z
#    x 1.648740 0.000000 -0.004280 
#    y 0.000000 1.627130 0.000000 
#    z -0.004280 0.000000 1.587560 
# 
# From -- ./inp_files/30564.got.cif
#   From: 2010.05.17/outbox.cif.g08.bks.cpg/sg10_16_cif.got.tgz:30564.got - 2010.06.03 11:33:40.
