data_PCOD9153041
_publ_section_title
;
Structure prediction by ZEFSAII (Michael W. Deem and Ramdas Pophale) SiO2 
 PCOD9153041
Probable space group: P 2/M
;
_chemical_formula_sum "Si O2"
_cell_formula_units_Z 32
_cell_length_a 23.634941
_cell_length_b 7.819936
_cell_length_c 14.873549
_cell_angle_alpha 90.000000
_cell_angle_beta 148.516593
_cell_angle_gamma 90.000000
_cell_volume 1435.661726
_symmetry_space_group_name_H-M "P 2/M"
_symmetry_group_IT_number 10
_symmetry_cell_setting 'monoclinic'
loop_
_space_group_symop_operation_xyz
x,y,z
-x,y,-z
-x,-y,-z
x,-y,z
loop_
_atom_site_type_symbol
_atom_site_label
_atom_site_fract_x
_atom_site_fract_y
_atom_site_fract_z
Si Si1 0.015443 0.800259 0.296567
Si Si2 0.109878 0.302769 0.604346
Si Si3 0.472548 0.302811 0.865556
Si Si4 0.079213 0.206892 0.185390
Si Si5 0.391685 0.709379 0.404795
Si Si6 0.769760 0.702523 0.965136
Si Si7 0.328919 0.295317 0.514548
Si Si8 0.668287 0.804120 0.012324
O O1 0.086350 0.705572 0.467016
O O2 0.039055 0.735404 0.228653
O O3 0.044095 0.000000 0.340873
O O4 0.887302 0.782132 0.140942
O O5 0.121458 0.500000 0.650348
O O6 0.217350 0.209236 0.780944
O O7 0.000000 0.231490 0.500000
O O8 0.440447 0.500000 0.840584
O O9 0.379941 0.224904 0.676038
O O10 0.500000 0.223934 0.000000
O O11 0.579067 0.297536 0.947564
O O12 0.202017 0.261389 0.336713
O O13 0.075254 0.000000 0.179557
O O14 0.000000 0.270085 0.000000
O O15 0.500000 0.763563 0.500000
O O16 0.391437 0.500000 0.405104
O O17 0.288597 0.763405 0.205046
O O18 0.383886 0.768862 0.496966
O O19 0.786346 0.500000 0.980867
O O20 0.691669 0.737492 0.943842
O O21 0.347027 0.500000 0.540794
O O22 0.632919 0.000000 0.960053
#
# Coordination Sequence:
#
# PCOD9153041 Si02
#       8
#     4   4   4   4   4   4   4   4
#     4  11  23  38  59  88 121 159 203 248 303 366
#     4  11  23  40  63  90 121 161 203 251 308 364
#     4  10  23  43  65  91 123 163 210 260 308 362
#     4  10  23  42  62  88 128 171 205 248 309 371
#     4   9  18  34  59  88 118 151 195 250 305 358
#     4  11  21  36  60  89 120 157 198 249 305 362
#     4  10  21  39  64  93 122 160 210 261 308 360
#     4  12  25  40  62  90 124 162 201 251 307 368
#
# _framework density 22.289372
#
# number of rings (size 3 to 8) (size 9 to 14) (size 15 to 20)
#    0.000    1.500    1.250    3.750    1.750    4.500 
#    0.000    0.625    0.000    2.625    0.000    0.000 
#    0.000    0.000    0.000    0.000    0.000    0.000 
#
# Total GULP energy -178967.704385 kJ/mol
# GULP energy per Si atom -5592.740762 kJ/mol
# Density = 2.223864 g / cm^3
# Si number density = 22.289372 Si / 1000 Ang^3
#
#
#
# Elastic Constant Matrix: (Units=GPa)
#
#
# Indices 1 2 3 4 5 6 
#
# 1 117.7235 -11.9748 40.8423 0.0000 -23.2472 0.0000
# 2 -11.9748 37.2581 -4.4382 0.0000 -5.2807 0.0000
# 3 40.8423 -4.4382 134.2508 0.0000 -24.9298 0.0000
# 4 0.0000 0.0000 0.0000 24.0303 0.0000 9.2591
# 5 -23.2472 -5.2807 -24.9298 0.0000 43.2410 0.0000
# 6 0.0000 0.0000 0.0000 9.2591 0.0000 7.3766
#
#
#
# Elastic Compliance Matrix: (Units=1/GPa)
#
#
# Indices 1 2 3 4 5 6 
#
# 1 0.010616 0.003848 -0.002190 0.000000 0.004915 0.000000
# 2 0.003848 0.029060 0.000933 0.000000 0.006156 0.000000
# 3 -0.002190 0.000933 0.008901 0.000000 0.004069 0.000000
# 4 0.000000 0.000000 0.000000 0.080591 0.000000 -0.101158
# 5 0.004915 0.006156 0.004069 0.000000 0.028866 0.000000
# 6 0.000000 0.000000 0.000000 -0.101158 0.000000 0.262537
#
#
# Mechanical properties :
#
#
# Convention : Reuss Voigt Hill
#
# Bulk Modulus (GPa) = 18.60126 37.56567 28.08347
# Shear Modulus (GPa) = 11.53910 32.58312 22.06111
#
# Velocity S-wave (km/s) = 2.27776 3.82753 3.14946
# Velocity P-wave (km/s) = 3.90910 6.03519 5.08451
#
# Compressibility (1/GPa) = 0.05375980
#
# Stress axis : x y z
#
# Youngs Moduli (GPa) = 94.19611 34.41146 112.34318
#
# Poissons Ratio (x) = -0.13241 0.24601
# Poissons Ratio (y) = -0.36245 -0.10483
# Poissons Ratio (z) = 0.20627 -0.03211
#
# Static dielectric constant tensor:
#      x y z
#    x 1.805850 0.000000 -0.029090 
#    y 0.000000 1.809130 0.000000 
#    z -0.029090 0.000000 1.805420 
# 
# From -- ./inp_files/71610.got.cif
#   From: 2010.05.17/outbox.cif.g08.bks.cpg/sg10_36_cif.got.tgz:71610.got - 2010.06.03 11:33:40.
