data_PCOD9153361
_publ_section_title
;
Structure prediction by ZEFSAII (Michael W. Deem and Ramdas Pophale) SiO2 
 PCOD9153361
Probable space group: P 2/M
;
_chemical_formula_sum "Si O2"
_cell_formula_units_Z 19
_cell_length_a 8.492823
_cell_length_b 19.719385
_cell_length_c 5.059719
_cell_angle_alpha 90.000000
_cell_angle_beta 94.839851
_cell_angle_gamma 90.000000
_cell_volume 844.346208
_symmetry_space_group_name_H-M "P 2/M"
_symmetry_group_IT_number 10
_symmetry_cell_setting 'monoclinic'
loop_
_space_group_symop_operation_xyz
x,y,z
-x,y,-z
-x,-y,-z
x,-y,z
loop_
_atom_site_type_symbol
_atom_site_label
_atom_site_fract_x
_atom_site_fract_y
_atom_site_fract_z
Si Si1 0.500000 0.348015 0.500000
Si Si2 0.383871 0.000000 0.734650
Si Si3 0.500000 0.751505 0.000000
Si Si4 0.898310 0.768546 0.745613
Si Si5 0.155076 0.617845 0.327224
Si Si6 0.665955 0.146450 0.370105
Si Si7 0.000000 0.500000 0.000000
O O1 0.510974 0.298124 0.752603
O O2 0.669749 0.386740 0.515096
O O3 0.500000 0.000000 0.500000
O O4 0.290115 0.070836 0.713901
O O5 0.500000 0.000000 0.000000
O O6 0.638381 0.802818 0.118792
O O7 0.844186 0.692286 0.807910
O O8 0.776397 0.820541 0.603823
O O9 0.000000 0.754143 0.500000
O O10 0.000000 0.796588 0.000000
O O11 0.000000 0.610203 0.500000
O O12 0.125009 0.559344 0.113346
O O13 0.500000 0.142236 0.500000
#
# Coordination Sequence:
#
# PCOD9153361 Si02
#       7
#     2   2   2   4   4   4   1
#     4  12  28  43  76 109 144 178 246 296 356 411
#     4  10  22  36  60  98 136 174 225 285 350 411
#     4  12  22  39  72 109 132 178 240 298 344 417
#     4  11  25  41  67  96 134 175 224 283 346 404
#     4  11  26  47  70 104 143 185 231 297 352 425
#     4  11  23  40  68  98 135 178 233 285 347 413
#     4  12  26  46  78  98 142 194 240 272 370 432
#
# _framework density 22.502617000000001
#
# number of rings (size 3 to 8) (size 9 to 14) (size 15 to 20)
#    0.000    0.842    5.263    0.316    8.842    0.421 
#    0.000    2.105    0.000    0.000    0.000    0.000 
#    0.000    0.000    0.000    0.000    0.000    0.000 
#
# Total GULP energy -105768.461745 kJ/mol
# GULP energy per Si atom -5566.761144 kJ/mol
# Density = 2.245140 g / cm^3
# Si number density = 22.502617 Si / 1000 Ang^3
#
#
#
# Elastic Constant Matrix: (Units=GPa)
#
#
# Indices 1 2 3 4 5 6 
#
# 1 102.7915 48.9174 37.0590 0.0000 41.8968 0.0000
# 2 48.9174 174.1467 70.6938 0.0000 42.1608 0.0000
# 3 37.0590 70.6938 182.0502 0.0000 37.3192 0.0000
# 4 0.0000 0.0000 0.0000 19.4185 0.0000 5.0316
# 5 41.8968 42.1608 37.3192 0.0000 49.2460 0.0000
# 6 0.0000 0.0000 0.0000 5.0316 0.0000 13.7168
#
#
#
# Elastic Compliance Matrix: (Units=1/GPa)
#
#
# Indices 1 2 3 4 5 6 
#
# 1 0.015176 -0.001385 -0.000175 0.000000 -0.011592 0.000000
# 2 -0.001385 0.007921 -0.001948 0.000000 -0.004127 0.000000
# 3 -0.000175 -0.001948 0.007000 0.000000 -0.003488 0.000000
# 4 0.000000 0.000000 0.000000 0.056906 0.000000 -0.020874
# 5 -0.011592 -0.004127 -0.003488 0.000000 0.036345 0.000000
# 6 0.000000 0.000000 0.000000 -0.020874 0.000000 0.080560
#
#
# Mechanical properties :
#
#
# Convention : Reuss Voigt Hill
#
# Bulk Modulus (GPa) = 43.32640 85.81430 64.57035
# Shear Modulus (GPa) = 22.87086 36.63082 29.75084
#
# Velocity S-wave (km/s) = 3.19151 4.03904 3.64002
# Velocity P-wave (km/s) = 5.73382 7.74402 6.81346
#
# Compressibility (1/GPa) = 0.02308062
#
# Stress axis : x y z
#
# Youngs Moduli (GPa) = 65.89491 126.24181 142.85473
#
# Poissons Ratio (x) = 0.17488 0.02499
# Poissons Ratio (y) = 0.09128 0.27829
# Poissons Ratio (z) = 0.01153 0.24592
#
# Static dielectric constant tensor:
#      x y z
#    x 1.971320 0.000000 -0.025600 
#    y 0.000000 1.865760 0.000000 
#    z -0.025600 0.000000 1.821710 
# 
# From -- ./inp_files/4530.got.cif
#   From: 2010.05.17/outbox.cif.g08.bks.cpg/sg10_3_cif.got.tgz:4530.got - 2010.06.03 11:33:40.
