data_PCOD9153292
_publ_section_title
;
Structure prediction by ZEFSAII (Michael W. Deem and Ramdas Pophale) SiO2 
 PCOD9153292
Probable space group: P 2/M
;
_chemical_formula_sum "Si O2"
_cell_formula_units_Z 28
_cell_length_a 7.976345
_cell_length_b 15.014215
_cell_length_c 14.674598
_cell_angle_alpha 90.000000
_cell_angle_beta 50.653086
_cell_angle_gamma 90.000000
_cell_volume 1359.041648
_symmetry_space_group_name_H-M "P 2/M"
_symmetry_group_IT_number 10
_symmetry_cell_setting 'monoclinic'
loop_
_space_group_symop_operation_xyz
x,y,z
-x,y,-z
-x,-y,-z
x,-y,z
loop_
_atom_site_type_symbol
_atom_site_label
_atom_site_fract_x
_atom_site_fract_y
_atom_site_fract_z
Si Si1 0.682889 0.235183 0.163493
Si Si2 0.403045 0.500000 0.179125
Si Si3 0.086120 0.748377 0.271665
Si Si4 0.244159 0.398895 0.573228
Si Si5 0.305463 0.657813 0.352021
Si Si6 0.594799 0.105486 0.864606
Si Si7 0.853672 0.500000 0.922931
Si Si8 0.107168 0.691651 0.080547
O O1 0.526057 0.286224 0.286773
O O2 0.563265 0.151282 0.157302
O O3 0.919507 0.234019 0.129476
O O4 0.729742 0.295656 0.058348
O O5 0.346191 0.582916 0.262569
O O6 0.261954 0.500000 0.135728
O O7 0.652685 0.500000 0.062321
O O8 0.156316 0.727277 0.349812
O O9 0.165785 0.849699 0.228853
O O10 0.214528 0.705184 0.141564
O O11 0.869636 0.686729 0.340888
O O12 0.500000 0.397353 0.500000
O O13 0.167764 0.500000 0.624622
O O14 0.220251 0.384873 0.473171
O O15 0.602950 0.000000 0.848434
O O16 0.500000 0.121370 0.000000
O O17 0.983061 0.591386 0.891184
#
# Coordination Sequence:
#
# PCOD9153292 Si02
#       8
#     4   2   4   4   4   4   2   4
#     4  10  22  36  57  84 125 158 197 258 311 370
#     4  11  20  31  51  84 114 169 221 258 285 354
#     4  11  23  38  64  88 123 159 211 262 307 365
#     4  11  25  41  58  86 127 176 222 257 299 358
#     4  11  21  37  56  81 118 167 214 260 295 346
#     4  10  21  42  70  95 120 155 201 260 330 394
#     4  11  22  32  52  82 131 178 211 245 311 358
#     4  11  21  35  52  87 126 170 204 248 304 368
#
# _framework density 20.602753
#
# number of rings (size 3 to 8) (size 9 to 14) (size 15 to 20)
#    0.000    1.286    5.000    1.286    2.000    2.286 
#    0.000    2.143    0.000    7.286    0.000    0.000 
#    0.000    0.000    0.000    0.000    0.000    0.000 
#
# Total GULP energy -155891.827718 kJ/mol
# GULP energy per Si atom -5567.565276 kJ/mol
# Density = 2.055586 g / cm^3
# Si number density = 20.602753 Si / 1000 Ang^3
#
#
#
# Elastic Constant Matrix: (Units=GPa)
#
#
# Indices 1 2 3 4 5 6 
#
# 1 69.8187 31.2756 16.1550 0.0000 0.4071 0.0000
# 2 31.2756 150.4134 33.6294 0.0000 -10.6520 0.0000
# 3 16.1550 33.6294 65.6073 0.0000 2.3007 0.0000
# 4 0.0000 0.0000 0.0000 25.5740 0.0000 -2.3133
# 5 0.4071 -10.6520 2.3007 0.0000 35.4137 0.0000
# 6 0.0000 0.0000 0.0000 -2.3133 0.0000 22.4319
#
#
#
# Elastic Compliance Matrix: (Units=1/GPa)
#
#
# Indices 1 2 3 4 5 6 
#
# 1 0.016190 -0.002874 -0.002482 0.000000 -0.000889 0.000000
# 2 -0.002874 0.008249 -0.003617 0.000000 0.002749 0.000000
# 3 -0.002482 -0.003617 0.017785 0.000000 -0.002215 0.000000
# 4 0.000000 0.000000 0.000000 0.039470 0.000000 0.004070
# 5 -0.000889 0.002749 -0.002215 0.000000 0.029219 0.000000
# 6 0.000000 0.000000 0.000000 0.004070 0.000000 0.044999
#
#
# Mechanical properties :
#
#
# Convention : Reuss Voigt Hill
#
# Bulk Modulus (GPa) = 41.19070 49.77326 45.48198
# Shear Modulus (GPa) = 27.47968 30.33587 28.90778
#
# Velocity S-wave (km/s) = 3.65607 3.84137 3.74986
# Velocity P-wave (km/s) = 6.15294 6.62464 6.39314
#
# Compressibility (1/GPa) = 0.02427733
#
# Stress axis : x y z
#
# Youngs Moduli (GPa) = 61.76686 121.21990 56.22662
#
# Poissons Ratio (x) = 0.34844 0.13955
# Poissons Ratio (y) = 0.17755 0.20338
# Poissons Ratio (z) = 0.15330 0.43848
#
# Static dielectric constant tensor:
#      x y z
#    x 1.856760 0.000000 -0.020930 
#    y 0.000000 1.742160 0.000000 
#    z -0.020930 0.000000 1.762670 
# 
# From -- ./inp_files/61797.got.cif
#   From: 2010.05.17/outbox.cif.g08.bks.cpg/sg10_31_cif.got.tgz:61797.got - 2010.06.03 11:33:40.
