data_PCOD9153345
_publ_section_title
;
Structure prediction by ZEFSAII (Michael W. Deem and Ramdas Pophale) SiO2 
 PCOD9153345
Probable space group: P 2/M
;
_chemical_formula_sum "Si O2"
_cell_formula_units_Z 24
_cell_length_a 11.155826
_cell_length_b 10.571442
_cell_length_c 9.570848
_cell_angle_alpha 90.000000
_cell_angle_beta 83.887976
_cell_angle_gamma 90.000000
_cell_volume 1122.304347
_symmetry_space_group_name_H-M "P 2/M"
_symmetry_group_IT_number 10
_symmetry_cell_setting 'monoclinic'
loop_
_space_group_symop_operation_xyz
x,y,z
-x,y,-z
-x,-y,-z
x,-y,z
loop_
_atom_site_type_symbol
_atom_site_label
_atom_site_fract_x
_atom_site_fract_y
_atom_site_fract_z
Si Si1 0.446659 0.356993 0.857694
Si Si2 0.117756 0.213376 0.692768
Si Si3 0.867503 0.857284 0.843880
Si Si4 0.610832 0.856816 0.341052
Si Si5 0.838337 0.635776 0.064575
Si Si6 0.244948 0.849203 0.420854
O O1 0.491243 0.500000 0.816150
O O2 0.304695 0.366880 0.902267
O O3 0.500000 0.317889 0.000000
O O4 0.456518 0.250607 0.737743
O O5 0.245492 0.148153 0.723122
O O6 0.144038 0.223166 0.524978
O O7 0.995819 0.142657 0.747498
O O8 0.112991 0.339850 0.785345
O O9 0.871426 0.754113 0.964184
O O10 0.767736 0.819158 0.739849
O O11 0.843925 0.000000 0.897915
O O12 0.633018 0.830387 0.504144
O O13 0.566775 0.000000 0.324712
O O14 0.874623 0.500000 0.001189
O O15 0.219587 0.000000 0.434564
#
# Coordination Sequence:
#
# PCOD9153345 Si02
#       6
#     4   4   4   4   4   4
#     4   9  18  34  54  71  89 119 161 206 249 294
#     4   9  17  30  50  71  98 135 172 201 230 273
#     4  11  20  30  49  75 104 137 168 196 234 286
#     4   8  15  28  48  73  97 119 155 201 240 274
#     4  10  22  36  48  70 103 130 159 206 255 292
#     4   8  16  30  48  73 102 131 167 205 233 271
#
# _framework density 21.384571999999999
#
# number of rings (size 3 to 8) (size 9 to 14) (size 15 to 20)
#    1.000    1.833    0.000    2.000    0.000    7.667 
#    0.000    1.667    0.000    3.000    0.000    7.000 
#    0.000    0.000    0.000    0.000    0.000    0.000 
#
# Total GULP energy -133602.191817 kJ/mol
# GULP energy per Si atom -5566.757992 kJ/mol
# Density = 2.133590 g / cm^3
# Si number density = 21.384572 Si / 1000 Ang^3
#
#
#
# Elastic Constant Matrix: (Units=GPa)
#
#
# Indices 1 2 3 4 5 6 
#
# 1 39.4083 13.6215 17.4033 0.0000 2.2151 0.0000
# 2 13.6215 130.7875 78.0938 0.0000 1.1727 0.0000
# 3 17.4033 78.0938 108.2647 0.0000 10.8251 0.0000
# 4 0.0000 0.0000 0.0000 13.2093 0.0000 32.9721
# 5 2.2151 1.1727 10.8251 0.0000 34.7428 0.0000
# 6 0.0000 0.0000 0.0000 32.9721 0.0000 12.0354
#
#
#
# Elastic Compliance Matrix: (Units=1/GPa)
#
#
# Indices 1 2 3 4 5 6 
#
# 1 0.027333 -0.000434 -0.004034 0.000000 -0.000471 0.000000
# 2 -0.000434 0.013678 -0.010066 0.000000 0.002702 0.000000
# 3 -0.004034 -0.010066 0.017636 0.000000 -0.004898 0.000000
# 4 0.000000 0.000000 0.000000 -0.012967 0.000000 0.035523
# 5 -0.000471 0.002702 -0.004898 0.000000 0.030248 0.000000
# 6 0.000000 0.000000 0.000000 0.035523 0.000000 -0.014231
#
#
# Mechanical properties :
#
#
# Convention : Reuss Voigt Hill
#
# Bulk Modulus (GPa) = 33.80822 55.18863 44.49842
# Shear Modulus (GPa) = 49.68981 23.28696 36.48839
#
# Velocity S-wave (km/s) = 4.82563 3.30352 4.13521
# Velocity P-wave (km/s) = 6.84784 6.35726 6.60710
#
# Compressibility (1/GPa) = 0.02957861
#
# Stress axis : x y z
#
# Youngs Moduli (GPa) = 36.58564 73.11173 56.70247
#
# Poissons Ratio (x) = 0.03174 0.22871
# Poissons Ratio (y) = 0.01588 0.57079
# Poissons Ratio (z) = 0.14757 0.73598
#
# Static dielectric constant tensor:
#      x y z
#    x 1.885410 0.000000 -0.007410 
#    y 0.000000 1.757850 0.000000 
#    z -0.007410 0.000000 1.806790 
# 
# From -- ./inp_files/48891.got.cif
#   From: 2010.05.17/outbox.cif.g08.bks.cpg/sg10_25_cif.got.tgz:48891.got - 2010.06.03 11:33:40.
