data_PCOD9153231
_publ_section_title
;
Structure prediction by ZEFSAII (Michael W. Deem and Ramdas Pophale) SiO2 
 PCOD9153231
Probable space group: P 2/M
;
_chemical_formula_sum "Si O2"
_cell_formula_units_Z 24
_cell_length_a 13.404230
_cell_length_b 15.524396
_cell_length_c 8.542562
_cell_angle_alpha 90.000000
_cell_angle_beta 40.754527
_cell_angle_gamma 90.000000
_cell_volume 1160.480674
_symmetry_space_group_name_H-M "P 2/M"
_symmetry_group_IT_number 10
_symmetry_cell_setting 'monoclinic'
loop_
_space_group_symop_operation_xyz
x,y,z
-x,y,-z
-x,-y,-z
x,-y,z
loop_
_atom_site_type_symbol
_atom_site_label
_atom_site_fract_x
_atom_site_fract_y
_atom_site_fract_z
Si Si1 0.971325 0.402834 0.219740
Si Si2 0.848674 0.097428 0.253250
Si Si3 0.694358 0.096666 0.106647
Si Si4 0.858710 0.262503 0.773177
Si Si5 0.345494 0.648480 0.249267
Si Si6 0.417923 0.832001 0.261130
O O1 0.018954 0.500000 0.209510
O O2 0.793147 0.393462 0.486659
O O3 0.072877 0.330997 0.185270
O O4 0.000000 0.394298 0.000000
O O5 0.736220 0.094181 0.238812
O O6 0.756498 0.139288 0.504399
O O7 0.891478 0.000000 0.249649
O O8 0.000000 0.140553 0.000000
O O9 0.523178 0.122644 0.264347
O O10 0.726528 0.000000 0.006604
O O11 0.789238 0.176170 0.925469
O O12 0.739309 0.310407 0.801029
O O13 0.000000 0.235545 0.500000
O O14 0.409576 0.728793 0.274766
O O15 0.500000 0.602788 0.000000
O O16 0.500000 0.855458 0.000000
#
# Coordination Sequence:
#
# PCOD9153231 Si02
#       6
#     4   4   4   4   4   4
#     4  10  24  45  72 102 128 163 209 262 331 399
#     4  10  24  40  57  86 121 166 226 274 323 375
#     4  11  23  39  60  91 131 178 224 266 315 376
#     4  10  22  40  64  93 134 170 214 264 323 381
#     4  10  21  41  63  99 129 168 215 257 320 387
#     4  11  22  40  61  89 127 171 218 269 315 372
#
# _framework density 20.681086000000001
#
# number of rings (size 3 to 8) (size 9 to 14) (size 15 to 20)
#    0.000    1.667    3.333    1.000    7.000    6.333 
#    0.000    0.833    0.000    2.000    0.000    0.000 
#    0.000    0.000    0.000    0.000    0.000    0.000 
#
# Total GULP energy -133802.566816 kJ/mol
# GULP energy per Si atom -5575.106951 kJ/mol
# Density = 2.063402 g / cm^3
# Si number density = 20.681086 Si / 1000 Ang^3
#
#
#
# Elastic Constant Matrix: (Units=GPa)
#
#
# Indices 1 2 3 4 5 6 
#
# 1 62.8555 24.1622 27.4270 0.0000 -12.7413 0.0000
# 2 24.1622 119.9781 68.6370 0.0000 -3.2097 0.0000
# 3 27.4270 68.6370 171.6308 0.0000 -22.9669 0.0000
# 4 0.0000 0.0000 0.0000 -22.5582 0.0000 -72.8325
# 5 -12.7413 -3.2097 -22.9669 0.0000 26.4662 0.0000
# 6 0.0000 0.0000 0.0000 -72.8325 0.0000 -71.3083
#
#
#
# Elastic Compliance Matrix: (Units=1/GPa)
#
#
# Indices 1 2 3 4 5 6 
#
# 1 0.019116 -0.003258 -0.000649 0.000000 0.008245 0.000000
# 2 -0.003258 0.011544 -0.004660 0.000000 -0.004212 0.000000
# 3 -0.000649 -0.004660 0.008685 0.000000 0.006659 0.000000
# 4 0.000000 0.000000 0.000000 0.019293 0.000000 -0.019706
# 5 0.008245 -0.004212 0.006659 0.000000 0.047021 0.000000
# 6 0.000000 0.000000 0.000000 -0.019706 0.000000 0.006103
#
#
# Mechanical properties :
#
#
# Convention : Reuss Voigt Hill
#
# Bulk Modulus (GPa) = 45.02012 66.10189 55.56100
# Shear Modulus (GPa) = 36.68396 2.13582 19.40989
#
# Velocity S-wave (km/s) = 4.21621 1.01734 3.06687
# Velocity P-wave (km/s) = 6.74670 5.78030 6.28211
#
# Compressibility (1/GPa) = 0.02221229
#
# Stress axis : x y z
#
# Youngs Moduli (GPa) = 52.31141 86.62544 115.14679
#
# Poissons Ratio (x) = 0.28224 0.07468
# Poissons Ratio (y) = 0.17044 0.53653
# Poissons Ratio (z) = 0.03393 0.40363
#
# Static dielectric constant tensor:
#      x y z
#    x 1.776350 0.000000 -0.035170 
#    y 0.000000 1.742100 0.000000 
#    z -0.035170 0.000000 1.798980 
# 
# From -- ./inp_files/29276.got.cif
#   From: 2010.05.17/outbox.cif.g08.bks.cpg/sg10_15_cif.got.tgz:29276.got - 2010.06.03 11:33:40.
