data_PCOD9153100
_publ_section_title
;
Structure prediction by ZEFSAII (Michael W. Deem and Ramdas Pophale) SiO2 
 PCOD9153100
Probable space group: P 2/M
;
_chemical_formula_sum "Si O2"
_cell_formula_units_Z 20
_cell_length_a 5.130938
_cell_length_b 13.472951
_cell_length_c 15.672152
_cell_angle_alpha 90.000000
_cell_angle_beta 120.072152
_cell_angle_gamma 90.000000
_cell_volume 937.567512
_symmetry_space_group_name_H-M "P 2/M"
_symmetry_group_IT_number 10
_symmetry_cell_setting 'monoclinic'
loop_
_space_group_symop_operation_xyz
x,y,z
-x,y,-z
-x,-y,-z
x,-y,z
loop_
_atom_site_type_symbol
_atom_site_label
_atom_site_fract_x
_atom_site_fract_y
_atom_site_fract_z
Si Si1 0.189986 0.614272 0.705301
Si Si2 0.167347 0.387762 0.908648
Si Si3 0.125469 0.116145 0.772154
Si Si4 0.850030 0.218588 0.567300
Si Si5 0.321465 0.762875 0.183458
O O1 0.219669 0.500000 0.684074
O O2 0.176395 0.617366 0.806464
O O3 0.474371 0.684500 0.729560
O O4 0.911890 0.672800 0.618718
O O5 0.071858 0.500000 0.914821
O O6 0.924219 0.308392 0.898778
O O7 0.500000 0.371573 0.000000
O O8 0.440219 0.175659 0.833621
O O9 0.011229 0.142092 0.658194
O O10 0.868919 0.161178 0.790824
O O11 0.165371 0.000000 0.791552
O O12 0.500000 0.197820 0.500000
O O13 0.000000 0.214791 0.500000
#
# Coordination Sequence:
#
# PCOD9153100 Si02
#       5
#     4   4   4   4   4
#     4  10  22  40  63  93 133 173 207 251 312 376
#     4  10  21  39  68 102 131 165 209 255 312 378
#     4  11  24  42  68  92 121 167 215 269 322 368
#     4  11  23  39  61  92 129 163 214 259 308 376
#     4  11  20  42  64  94 130 164 205 257 317 375
#
# _framework density 21.331797999999999
#
# number of rings (size 3 to 8) (size 9 to 14) (size 15 to 20)
#    0.000    1.400    4.000    3.600    0.000    2.400 
#    0.000    3.000    0.000    3.600    0.000    0.000 
#    0.000    0.000    0.000    0.000    0.000    0.000 
#
# Total GULP energy -111798.905963 kJ/mol
# GULP energy per Si atom -5589.945298 kJ/mol
# Density = 2.128325 g / cm^3
# Si number density = 21.331798 Si / 1000 Ang^3
#
#
#
# Elastic Constant Matrix: (Units=GPa)
#
#
# Indices 1 2 3 4 5 6 
#
# 1 113.7252 41.1501 18.9559 0.0000 3.3285 0.0000
# 2 41.1501 161.9786 2.7095 0.0000 22.2504 0.0000
# 3 18.9559 2.7095 53.9234 0.0000 7.6828 0.0000
# 4 0.0000 0.0000 0.0000 57.8186 0.0000 -150.5626
# 5 3.3285 22.2504 7.6828 0.0000 25.9763 0.0000
# 6 0.0000 0.0000 0.0000 -150.5626 0.0000 650.3982
#
#
#
# Elastic Compliance Matrix: (Units=1/GPa)
#
#
# Indices 1 2 3 4 5 6 
#
# 1 0.010414 -0.002895 -0.003840 0.000000 0.002281 0.000000
# 2 -0.002895 0.007816 0.001593 0.000000 -0.006795 0.000000
# 3 -0.003840 0.001593 0.020816 0.000000 -0.007029 0.000000
# 4 0.000000 0.000000 0.000000 0.043546 0.000000 0.010081
# 5 0.002281 -0.006795 -0.007029 0.000000 0.046104 0.000000
# 6 0.000000 0.000000 0.000000 0.010081 0.000000 0.003871
#
#
# Mechanical properties :
#
#
# Convention : Reuss Voigt Hill
#
# Bulk Modulus (GPa) = 34.76834 50.58424 42.67629
# Shear Modulus (GPa) = 32.80029 164.62608 98.71318
#
# Velocity S-wave (km/s) = 3.92551 8.79441 6.80996
# Velocity P-wave (km/s) = 6.07292 11.26440 9.04895
#
# Compressibility (1/GPa) = 0.02876180
#
# Stress axis : x y z
#
# Youngs Moduli (GPa) = 96.02547 127.94605 48.03935
#
# Poissons Ratio (x) = 0.37037 0.18449
# Poissons Ratio (y) = 0.27797 -0.07653
# Poissons Ratio (z) = 0.36877 -0.20382
#
# Static dielectric constant tensor:
#      x y z
#    x 1.813700 0.000000 -0.011670 
#    y 0.000000 1.761720 0.000000 
#    z -0.011670 0.000000 1.772860 
# 
# From -- ./inp_files/73377.got.cif
#   From: 2010.05.17/outbox.cif.g08.bks.cpg/sg10_37_cif.got.tgz:73377.got - 2010.06.03 11:33:40.
