data_PCOD9153870
_publ_section_title
;
Structure prediction by ZEFSAII (Michael W. Deem and Ramdas Pophale) SiO2 
 PCOD9153870
Probable space group: P 2/M
;
_chemical_formula_sum "Si O2"
_cell_formula_units_Z 19
_cell_length_a 8.933140
_cell_length_b 9.701571
_cell_length_c 10.901801
_cell_angle_alpha 90.000000
_cell_angle_beta 78.945592
_cell_angle_gamma 90.000000
_cell_volume 927.279517
_symmetry_space_group_name_H-M "P 2/M"
_symmetry_group_IT_number 10
_symmetry_cell_setting 'monoclinic'
loop_
_space_group_symop_operation_xyz
x,y,z
-x,y,-z
-x,-y,-z
x,-y,z
loop_
_atom_site_type_symbol
_atom_site_label
_atom_site_fract_x
_atom_site_fract_y
_atom_site_fract_z
Si Si1 0.179912 0.500000 0.448844
Si Si2 0.919953 0.000000 0.811072
Si Si3 0.500000 0.000000 0.500000
Si Si4 0.783857 0.730487 0.755066
Si Si5 0.762502 0.000000 0.095913
Si Si6 0.549158 0.211515 0.258390
Si Si7 0.703779 0.500000 0.303610
Si Si8 0.042464 0.500000 0.133282
O O1 0.211437 0.636095 0.365786
O O2 0.280435 0.500000 0.553040
O O3 0.000000 0.500000 0.500000
O O4 0.887711 0.865485 0.736197
O O5 0.084756 0.000000 0.846234
O O6 0.806271 0.000000 0.946287
O O7 0.523383 0.121070 0.386924
O O8 0.609496 0.775874 0.790071
O O9 0.856099 0.632414 0.847222
O O10 0.667140 0.131849 0.152956
O O11 0.616404 0.362479 0.276021
O O12 0.880702 0.500000 0.230053
O O13 0.000000 0.500000 0.000000
#
# Coordination Sequence:
#
# PCOD9153870 Si02
#       8
#     2   2   1   4   2   4   2   2
#     4  11  23  44  67 100 136 176 232 280 348 405
#     4  11  24  45  70  97 136 184 224 278 341 412
#     4  10  22  44  66  96 150 172 220 280 344 416
#     4  11  24  43  69  98 136 176 226 289 337 407
#     4  10  25  43  68  96 139 180 225 274 347 411
#     4  11  24  43  68 107 135 183 227 282 349 404
#     4  12  23  42  72  98 137 181 230 281 340 414
#     4  11  26  45  66  97 139 182 231 288 342 407
#
# _framework density 20.490044000000001
#
# number of rings (size 3 to 8) (size 9 to 14) (size 15 to 20)
#    0.000    1.053    2.105    5.053    5.895    2.947 
#    0.000    1.579    0.000    0.000    0.000    0.000 
#    0.000    0.000    0.000    0.000    0.000    0.000 
#
# Total GULP energy -105953.600580 kJ/mol
# GULP energy per Si atom -5576.505294 kJ/mol
# Density = 2.044341 g / cm^3
# Si number density = 20.490044 Si / 1000 Ang^3
#
#
#
# Elastic Constant Matrix: (Units=GPa)
#
#
# Indices 1 2 3 4 5 6 
#
# 1 111.8636 40.4540 23.5514 0.0000 4.4396 0.0000
# 2 40.4540 163.9007 21.0287 0.0000 7.4295 0.0000
# 3 23.5514 21.0287 63.4006 0.0000 5.5246 0.0000
# 4 0.0000 0.0000 0.0000 -25.7224 0.0000 -16.5965
# 5 4.4396 7.4295 5.5246 0.0000 31.1684 0.0000
# 6 0.0000 0.0000 0.0000 -16.5965 0.0000 27.6071
#
#
#
# Elastic Compliance Matrix: (Units=1/GPa)
#
#
# Indices 1 2 3 4 5 6 
#
# 1 0.010387 -0.002146 -0.003110 0.000000 -0.000417 0.000000
# 2 -0.002146 0.006857 -0.001383 0.000000 -0.001084 0.000000
# 3 -0.003110 -0.001383 0.017591 0.000000 -0.002345 0.000000
# 4 0.000000 0.000000 0.000000 -0.028012 0.000000 -0.016840
# 5 -0.000417 -0.001084 -0.002345 0.000000 0.032817 0.000000
# 6 0.000000 0.000000 0.000000 -0.016840 0.000000 0.026099
#
#
# Mechanical properties :
#
#
# Convention : Reuss Voigt Hill
#
# Bulk Modulus (GPa) = 46.38793 56.58145 51.48469
# Shear Modulus (GPa) = 58.00181 23.55268 40.77725
#
# Velocity S-wave (km/s) = 5.32623 3.39406 4.46589
# Velocity P-wave (km/s) = 7.77904 6.56000 7.19538
#
# Compressibility (1/GPa) = 0.02155733
#
# Stress axis : x y z
#
# Youngs Moduli (GPa) = 96.27586 145.82724 56.84655
#
# Poissons Ratio (x) = 0.31290 0.17681
# Poissons Ratio (y) = 0.20658 0.07862
# Poissons Ratio (z) = 0.29945 0.20167
#
# Static dielectric constant tensor:
#      x y z
#    x -1.694080 0.000000 0.468680 
#    y 0.000000 1.764140 0.000000 
#    z 0.468680 0.000000 1.654740 
# 
# From -- ./inp_files/40788.got.cif
#   From: 2010.05.17/outbox.cif.g08.bks.cpg/sg10_21_cif.got.tgz:40788.got - 2010.06.03 11:33:40.
