data_PCOD9153268
_publ_section_title
;
Structure prediction by ZEFSAII (Michael W. Deem and Ramdas Pophale) SiO2 
 PCOD9153268
Probable space group: P 2/M
;
_chemical_formula_sum "Si O2"
_cell_formula_units_Z 17
_cell_length_a 9.913664
_cell_length_b 20.709405
_cell_length_c 5.104673
_cell_angle_alpha 90.000000
_cell_angle_beta 123.541103
_cell_angle_gamma 90.000000
_cell_volume 873.514179
_symmetry_space_group_name_H-M "P 2/M"
_symmetry_group_IT_number 10
_symmetry_cell_setting 'monoclinic'
loop_
_space_group_symop_operation_xyz
x,y,z
-x,y,-z
-x,-y,-z
x,-y,z
loop_
_atom_site_type_symbol
_atom_site_label
_atom_site_fract_x
_atom_site_fract_y
_atom_site_fract_z
Si Si1 0.387897 0.727297 0.630376
Si Si2 0.000000 0.500000 0.000000
Si Si3 0.316435 0.924030 0.901985
Si Si4 0.100733 0.366842 0.343706
Si Si5 0.186132 0.145802 0.274552
O O1 0.500000 0.716296 0.500000
O O2 0.273828 0.665691 0.556062
O O3 0.272974 0.788137 0.450577
O O4 0.500000 0.740257 0.000000
O O5 0.100495 0.442065 0.262038
O O6 0.203307 0.901527 0.541698
O O7 0.297382 0.000000 0.935607
O O8 0.500000 0.912861 0.000000
O O9 0.277302 0.884378 0.121494
O O10 0.000000 0.359827 0.500000
O O11 0.000000 0.333669 0.000000
O O12 0.000000 0.155544 0.000000
#
# Coordination Sequence:
#
# PCOD9153268 Si02
#       5
#     4   1   4   4   4
#     4  12  25  42  64  94 131 168 213 269 319 371
#     4   8  22  40  74  94 134 168 208 254 310 376
#     4  11  24  43  66  92 127 169 210 263 329 387
#     4  10  21  41  69  95 128 170 212 249 315 374
#     4  12  25  41  64  93 126 168 217 267 319 377
#
# _framework density 19.461618999999999
#
# number of rings (size 3 to 8) (size 9 to 14) (size 15 to 20)
#    0.706    0.235    0.000    8.118    0.000    6.588 
#    0.000    1.176    0.000    0.000    0.000    0.000 
#    0.000    0.000    0.000    0.000    0.000    0.000 
#
# Total GULP energy -94791.400116 kJ/mol
# GULP energy per Si atom -5575.964713 kJ/mol
# Density = 1.941732 g / cm^3
# Si number density = 19.461619 Si / 1000 Ang^3
#
#
#
# Elastic Constant Matrix: (Units=GPa)
#
#
# Indices 1 2 3 4 5 6 
#
# 1 92.8043 72.0629 55.1313 0.0000 -4.0980 0.0000
# 2 72.0629 126.6619 71.9431 0.0000 6.9831 0.0000
# 3 55.1313 71.9431 160.6620 0.0000 0.6135 0.0000
# 4 0.0000 0.0000 0.0000 32.4726 0.0000 -3.3322
# 5 -4.0980 6.9831 0.6135 0.0000 39.0994 0.0000
# 6 0.0000 0.0000 0.0000 -3.3322 0.0000 19.2388
#
#
#
# Elastic Compliance Matrix: (Units=1/GPa)
#
#
# Indices 1 2 3 4 5 6 
#
# 1 0.020577 -0.010612 -0.002325 0.000000 0.004089 0.000000
# 2 -0.010612 0.016192 -0.003594 0.000000 -0.003948 0.000000
# 3 -0.002325 -0.003594 0.008630 0.000000 0.000263 0.000000
# 4 0.000000 0.000000 0.000000 0.031352 0.000000 0.005430
# 5 0.004089 -0.003948 0.000263 0.000000 0.026705 0.000000
# 6 0.000000 0.000000 0.000000 0.005430 0.000000 0.052919
#
#
# Mechanical properties :
#
#
# Convention : Reuss Voigt Hill
#
# Bulk Modulus (GPa) = 81.05192 86.48921 83.77057
# Shear Modulus (GPa) = 25.83311 30.22821 28.03066
#
# Velocity S-wave (km/s) = 3.64729 3.94537 3.79925
# Velocity P-wave (km/s) = 7.71196 8.08034 7.89830
#
# Compressibility (1/GPa) = 0.01233777
#
# Stress axis : x y z
#
# Youngs Moduli (GPa) = 48.59706 61.76013 115.87173
#
# Poissons Ratio (x) = 0.65542 0.26936
# Poissons Ratio (y) = 0.51573 0.41642
# Poissons Ratio (z) = 0.11297 0.22195
#
# Static dielectric constant tensor:
#      x y z
#    x 1.660770 0.000000 -0.004450 
#    y 0.000000 1.663950 0.000000 
#    z -0.004450 0.000000 1.682840 
# 
# From -- ./inp_files/4942.got.cif
#   From: 2010.05.17/outbox.cif.g08.bks.cpg/sg10_3_cif.got.tgz:4942.got - 2010.06.03 11:33:40.
