data_PCOD9153890
_publ_section_title
;
Structure prediction by ZEFSAII (Michael W. Deem and Ramdas Pophale) SiO2 
 PCOD9153890
Probable space group: P 2/M
;
_chemical_formula_sum "Si O2"
_cell_formula_units_Z 14
_cell_length_a 16.922051
_cell_length_b 8.625422
_cell_length_c 8.714806
_cell_angle_alpha 90.000000
_cell_angle_beta 33.101408
_cell_angle_gamma 90.000000
_cell_volume 694.674221
_symmetry_space_group_name_H-M "P 2/M"
_symmetry_group_IT_number 10
_symmetry_cell_setting 'monoclinic'
loop_
_space_group_symop_operation_xyz
x,y,z
-x,y,-z
-x,-y,-z
x,-y,z
loop_
_atom_site_type_symbol
_atom_site_label
_atom_site_fract_x
_atom_site_fract_y
_atom_site_fract_z
Si Si1 0.308629 0.000000 0.260915
Si Si2 0.000000 0.256582 0.500000
Si Si3 0.035987 0.000000 0.198232
Si Si4 0.686661 0.666004 0.911892
Si Si5 0.670055 0.000000 0.423948
Si Si6 0.500000 0.752718 0.500000
O O1 0.340542 0.165548 0.124728
O O2 0.371465 0.000000 0.330211
O O3 0.133327 0.000000 0.563118
O O4 0.141215 0.337480 0.336552
O O5 0.061181 0.147187 0.266117
O O6 0.156421 0.000000 0.872837
O O7 0.648961 0.500000 0.894240
O O8 0.600818 0.668824 0.212357
O O9 0.604295 0.856509 0.437434
#
# Coordination Sequence:
#
# PCOD9153890 Si02
#       6
#     2   2   2   4   2   2
#     4  10  23  38  63  90 118 162 196 241 304 352
#     4   9  17  34  62  89 115 152 203 247 288 341
#     4   9  16  33  63  91 116 152 200 244 295 348
#     4  11  22  40  61  90 121 156 201 247 293 350
#     4  11  20  38  62  89 124 158 196 244 297 358
#     4  11  23  36  62  89 119 158 201 243 296 353
#
# _framework density 20.15333
#
# number of rings (size 3 to 8) (size 9 to 14) (size 15 to 20)
#    0.000    1.714    2.857    3.857    0.000    2.286 
#    0.000    4.286    0.000    3.429    0.000    0.000 
#    0.000    0.000    0.000    0.000    0.000    0.000 
#
# Total GULP energy -77986.003501 kJ/mol
# GULP energy per Si atom -5570.428822 kJ/mol
# Density = 2.010746 g / cm^3
# Si number density = 20.153330 Si / 1000 Ang^3
#
#
#
# Elastic Constant Matrix: (Units=GPa)
#
#
# Indices 1 2 3 4 5 6 
#
# 1 84.6330 55.0979 22.3507 0.0000 13.4483 0.0000
# 2 55.0979 175.6325 52.3803 0.0000 13.9541 0.0000
# 3 22.3507 52.3803 119.4766 0.0000 9.5676 0.0000
# 4 0.0000 0.0000 0.0000 23.1850 0.0000 -1.1025
# 5 13.4483 13.9541 9.5676 0.0000 37.8871 0.0000
# 6 0.0000 0.0000 0.0000 -1.1025 0.0000 0.2101
#
#
#
# Elastic Compliance Matrix: (Units=1/GPa)
#
#
# Indices 1 2 3 4 5 6 
#
# 1 0.015407 -0.004335 -0.000685 0.000000 -0.003699 0.000000
# 2 -0.004335 0.007882 -0.002588 0.000000 -0.000711 0.000000
# 3 -0.000685 -0.002588 0.009734 0.000000 -0.001262 0.000000
# 4 0.000000 0.000000 0.000000 0.057477 0.000000 0.301678
# 5 -0.003699 -0.000711 -0.001262 0.000000 0.028288 0.000000
# 6 0.000000 0.000000 0.000000 0.301678 0.000000 6.343918
#
#
# Mechanical properties :
#
#
# Convention : Reuss Voigt Hill
#
# Bulk Modulus (GPa) = 56.16079 71.04443 63.60261
# Shear Modulus (GPa) = 0.77115 28.91731 14.84423
#
# Velocity S-wave (km/s) = 0.61925 3.79207 2.71692
# Velocity P-wave (km/s) = 5.33278 7.38252 6.43972
#
# Compressibility (1/GPa) = 0.01780602
#
# Stress axis : x y z
#
# Youngs Moduli (GPa) = 64.90698 126.87407 102.73731
#
# Poissons Ratio (x) = 0.54999 0.07042
# Poissons Ratio (y) = 0.28137 0.26585
# Poissons Ratio (z) = 0.04449 0.32831
#
# Static dielectric constant tensor:
#      x y z
#    x 1.696360 0.000000 -0.027070 
#    y 0.000000 1.772330 0.000000 
#    z -0.027070 0.000000 1.708180 
# 
# From -- ./inp_files/21231.got.cif
#   From: 2010.05.17/outbox.cif.g08.bks.cpg/sg10_11_cif.got.tgz:21231.got - 2010.06.03 11:33:40.
