data_PCOD9153843
_publ_section_title
;
Structure prediction by ZEFSAII (Michael W. Deem and Ramdas Pophale) SiO2 
 PCOD9153843
Probable space group: P 2/M
;
_chemical_formula_sum "Si O2"
_cell_formula_units_Z 28
_cell_length_a 6.861920
_cell_length_b 14.125926
_cell_length_c 14.014060
_cell_angle_alpha 90.000000
_cell_angle_beta 54.525451
_cell_angle_gamma 90.000000
_cell_volume 1106.241950
_symmetry_space_group_name_H-M "P 2/M"
_symmetry_group_IT_number 10
_symmetry_cell_setting 'monoclinic'
loop_
_space_group_symop_operation_xyz
x,y,z
-x,y,-z
-x,-y,-z
x,-y,z
loop_
_atom_site_type_symbol
_atom_site_label
_atom_site_fract_x
_atom_site_fract_y
_atom_site_fract_z
Si Si1 0.757489 0.709451 0.799256
Si Si2 0.653214 0.106311 0.552199
Si Si3 0.266263 0.606911 0.921407
Si Si4 0.355199 0.107010 0.828756
Si Si5 0.808470 0.888426 0.919231
Si Si6 0.755224 0.702451 0.574223
Si Si7 0.734976 0.605912 0.306003
O O1 0.506307 0.655189 0.894126
O O2 0.786124 0.809867 0.844027
O O3 0.729280 0.720111 0.694173
O O4 0.007030 0.654031 0.748149
O O5 0.500000 0.102481 0.500000
O O6 0.499813 0.129683 0.690955
O O7 0.806806 0.200986 0.500317
O O8 0.755212 0.000000 0.533845
O O9 0.244774 0.500000 0.968804
O O10 0.295007 0.599269 0.799876
O O11 0.000000 0.654139 0.000000
O O12 0.332466 0.143771 0.944392
O O13 0.084400 0.111157 0.870258
O O14 0.432065 0.000000 0.824698
O O15 0.757001 0.000000 0.910875
O O16 0.512244 0.659820 0.600483
O O17 0.000000 0.641922 0.500000
O O18 0.738218 0.500000 0.345633
#
# Coordination Sequence:
#
# PCOD9153843 Si02
#       7
#     4   4   4   4   4   4   4
#     4  11  23  42  70 111 141 189 245 294 352 445
#     4  10  22  42  71  99 138 194 243 294 358 422
#     4   9  20  43  71 103 143 181 230 298 364 434
#     4   8  16  35  62  97 140 188 245 298 345 410
#     4   9  18  35  64 102 148 194 235 289 352 421
#     4  11  27  44  67 104 148 184 241 311 357 430
#     4  10  23  46  73 102 141 186 240 305 368 430
#
# _framework density 25.310918000000001
#
# number of rings (size 3 to 8) (size 9 to 14) (size 15 to 20)
#    0.000    2.286    0.000    2.143    4.000    2.286 
#   10.286    2.857    0.000    3.857    0.000    0.000 
#    0.000    0.000    0.000    0.000    0.000    0.000 
#
# Total GULP energy -156125.138353 kJ/mol
# GULP energy per Si atom -5575.897798 kJ/mol
# Density = 2.525331 g / cm^3
# Si number density = 25.310918 Si / 1000 Ang^3
#
#
#
# Elastic Constant Matrix: (Units=GPa)
#
#
# Indices 1 2 3 4 5 6 
#
# 1 189.2404 106.8184 55.0189 0.0000 -28.5795 0.0000
# 2 106.8184 154.7632 33.1818 0.0000 -23.1853 0.0000
# 3 55.0189 33.1818 85.7527 0.0000 6.6677 0.0000
# 4 0.0000 0.0000 0.0000 -16.4042 0.0000 13.6461
# 5 -28.5795 -23.1853 6.6677 0.0000 66.0675 0.0000
# 6 0.0000 0.0000 0.0000 13.6461 0.0000 30.0953
#
#
#
# Elastic Compliance Matrix: (Units=1/GPa)
#
#
# Indices 1 2 3 4 5 6 
#
# 1 0.010260 -0.005653 -0.004623 0.000000 0.002921 0.000000
# 2 -0.005653 0.010702 -0.000621 0.000000 0.001373 0.000000
# 3 -0.004623 -0.000621 0.015159 0.000000 -0.003747 0.000000
# 4 0.000000 0.000000 0.000000 -0.044264 0.000000 0.020071
# 5 0.002921 0.001373 -0.003747 0.000000 0.017260 0.000000
# 6 0.000000 0.000000 0.000000 0.020071 0.000000 0.024127
#
#
# Mechanical properties :
#
#
# Convention : Reuss Voigt Hill
#
# Bulk Modulus (GPa) = 69.79300 91.08828 80.44064
# Shear Modulus (GPa) = 83.59311 31.60088 57.59699
#
# Velocity S-wave (km/s) = 5.75310 3.53726 4.77548
# Velocity P-wave (km/s) = 8.47143 7.26284 7.89031
#
# Compressibility (1/GPa) = 0.01432808
#
# Stress axis : x y z
#
# Youngs Moduli (GPa) = 97.46308 93.44039 65.96722
#
# Poissons Ratio (x) = 0.52822 0.30495
# Poissons Ratio (y) = 0.55096 0.04096
# Poissons Ratio (z) = 0.45055 0.05802
#
# Static dielectric constant tensor:
#      x y z
#    x 1.990990 0.000000 -0.066480 
#    y 0.000000 2.054600 0.000000 
#    z -0.066480 0.000000 2.102200 
# 
# From -- ./inp_files/73479.got.cif
#   From: 2010.05.17/outbox.cif.g08.bks.cpg/sg10_37_cif.got.tgz:73479.got - 2010.06.03 11:33:40.
