data_PCOD9153411
_publ_section_title
;
Structure prediction by ZEFSAII (Michael W. Deem and Ramdas Pophale) SiO2 
 PCOD9153411
Probable space group: P 2/M
;
_chemical_formula_sum "Si O2"
_cell_formula_units_Z 32
_cell_length_a 8.677762
_cell_length_b 14.741215
_cell_length_c 19.524193
_cell_angle_alpha 90.000000
_cell_angle_beta 37.404502
_cell_angle_gamma 90.000000
_cell_volume 1517.107129
_symmetry_space_group_name_H-M "P 2/M"
_symmetry_group_IT_number 10
_symmetry_cell_setting 'monoclinic'
loop_
_space_group_symop_operation_xyz
x,y,z
-x,y,-z
-x,-y,-z
x,-y,z
loop_
_atom_site_type_symbol
_atom_site_label
_atom_site_fract_x
_atom_site_fract_y
_atom_site_fract_z
Si Si1 0.381738 0.893062 0.701579
Si Si2 0.079304 0.234351 0.709012
Si Si3 0.670036 0.601664 0.330494
Si Si4 0.304104 0.104258 0.887729
Si Si5 0.541183 0.722859 0.868151
Si Si6 0.243168 0.101353 0.543769
Si Si7 0.077196 0.397807 0.072336
Si Si8 0.478797 0.608261 0.763070
O O1 0.382303 0.876617 0.781691
O O2 0.650195 0.877313 0.568982
O O3 0.179321 0.829819 0.734783
O O4 0.320944 0.000000 0.711821
O O5 0.279252 0.317439 0.635430
O O6 0.795547 0.266770 0.820830
O O7 0.078717 0.176201 0.639379
O O8 0.610311 0.500000 0.376398
O O9 0.940674 0.596746 0.194577
O O10 0.485784 0.626224 0.331022
O O11 0.434877 0.178264 0.888333
O O12 0.370529 0.000000 0.880858
O O13 0.000000 0.112667 0.000000
O O14 0.315107 0.666334 0.982160
O O15 0.611734 0.668761 0.772771
O O16 0.500000 0.098618 0.500000
O O17 0.130997 0.000000 0.584352
O O18 0.154234 0.500000 0.026073
O O19 0.823181 0.371580 0.119424
O O20 0.517308 0.500000 0.758341
#
# Coordination Sequence:
#
# PCOD9153411 Si02
#       8
#     4   4   4   4   4   4   4   4
#     4   9  19  40  65  78  96 140 188 227 266 315
#     4  11  21  30  51  86 114 135 171 230 283 320
#     4   8  18  34  50  72 106 147 190 222 252 311
#     4  10  22  38  54  76 108 147 183 209 250 329
#     4  12  21  28  48  80 116 143 167 221 282 321
#     4   8  16  35  61  81  97 130 184 234 269 311
#     4   8  17  33  52  70 100 149 196 223 249 301
#     4   8  16  32  51  70  98 146 197 230 256 304
#
# _framework density 21.092776000000001
#
# number of rings (size 3 to 8) (size 9 to 14) (size 15 to 20)
#    0.750    2.000    0.000    3.375    1.750    3.500 
#    0.000    1.875    0.000    7.875    0.000    0.000 
#    0.000   23.000    0.000    0.000    0.000    0.000 
#
# Total GULP energy -178364.883965 kJ/mol
# GULP energy per Si atom -5573.902624 kJ/mol
# Density = 2.104477 g / cm^3
# Si number density = 21.092776 Si / 1000 Ang^3
#
#
#
# Elastic Constant Matrix: (Units=GPa)
#
#
# Indices 1 2 3 4 5 6 
#
# 1 21.1204 30.5568 -0.7013 0.0000 -5.0298 0.0000
# 2 30.5568 65.5873 0.1824 0.0000 -1.5655 0.0000
# 3 -0.7013 0.1824 25.5450 0.0000 15.1300 0.0000
# 4 0.0000 0.0000 0.0000 4.7421 0.0000 0.3146
# 5 -5.0298 -1.5655 15.1300 0.0000 19.2783 0.0000
# 6 0.0000 0.0000 0.0000 0.3146 0.0000 -16.3064
#
#
#
# Elastic Compliance Matrix: (Units=1/GPa)
#
#
# Indices 1 2 3 4 5 6 
#
# 1 0.184205 -0.084081 -0.035062 0.000000 0.068749 0.000000
# 2 -0.084081 0.053690 0.014424 0.000000 -0.028898 0.000000
# 3 -0.035062 0.014424 0.079987 0.000000 -0.070752 0.000000
# 4 0.000000 0.000000 0.000000 0.210607 0.000000 0.004063
# 5 0.068749 -0.028898 -0.070752 0.000000 0.122990 0.000000
# 6 0.000000 0.000000 0.000000 0.004063 0.000000 -0.061247
#
#
# Mechanical properties :
#
#
# Convention : Reuss Voigt Hill
#
# Bulk Modulus (GPa) = 9.22150 19.14761 14.18455
# Shear Modulus (GPa) = 5.98217 7.02379 6.50298
#
# Velocity S-wave (km/s) = 1.68591 1.82679 1.75776
# Velocity P-wave (km/s) = 2.85851 3.68064 3.29531
#
# Compressibility (1/GPa) = 0.10844222
#
# Stress axis : x y z
#
# Youngs Moduli (GPa) = 5.42875 18.62541 12.50209
#
# Poissons Ratio (x) = 1.56605 0.43835
# Poissons Ratio (y) = 0.45646 -0.18033
# Poissons Ratio (z) = 0.19034 -0.26865
#
# Static dielectric constant tensor:
#      x y z
#    x 1.783030 0.000000 0.053020 
#    y 0.000000 1.794420 0.000000 
#    z 0.053020 0.000000 1.811020 
# 
# From -- ./inp_files/82821.got.cif
#   From: 2010.05.17/outbox.cif.g08.bks.cpg/sg10_42_cif.got.tgz:82821.got - 2010.06.03 11:33:40.
