data_PCOD9153149
_publ_section_title
;
Structure prediction by ZEFSAII (Michael W. Deem and Ramdas Pophale) SiO2 
 PCOD9153149
Probable space group: P 2/M
;
_chemical_formula_sum "Si O2"
_cell_formula_units_Z 18
_cell_length_a 5.112516
_cell_length_b 16.321526
_cell_length_c 10.125129
_cell_angle_alpha 90.000000
_cell_angle_beta 112.698815
_cell_angle_gamma 90.000000
_cell_volume 779.442477
_symmetry_space_group_name_H-M "P 2/M"
_symmetry_group_IT_number 10
_symmetry_cell_setting 'monoclinic'
loop_
_space_group_symop_operation_xyz
x,y,z
-x,y,-z
-x,-y,-z
x,-y,z
loop_
_atom_site_type_symbol
_atom_site_label
_atom_site_fract_x
_atom_site_fract_y
_atom_site_fract_z
Si Si1 0.557689 0.763032 0.853946
Si Si2 0.817071 0.352766 0.594147
Si Si3 0.635926 0.589667 0.173675
Si Si4 0.046553 0.821422 0.278728
Si Si5 0.822949 0.000000 0.599154
O O1 0.513651 0.669797 0.795613
O O2 0.841452 0.798000 0.845999
O O3 0.285559 0.813631 0.753711
O O4 0.500000 0.762040 0.000000
O O5 0.500000 0.382143 0.500000
O O6 0.814933 0.253620 0.612425
O O7 0.000000 0.371954 0.500000
O O8 0.026907 0.389976 0.749310
O O9 0.585787 0.500000 0.223112
O O10 0.500000 0.586361 0.000000
O O11 0.122474 0.914806 0.316940
O O12 0.500000 0.000000 0.500000
O O13 0.000000 0.000000 0.500000
#
# Coordination Sequence:
#
# PCOD9153149 Si02
#       5
#     4   4   4   4   2
#     4  10  21  40  64  89 123 166 211 258 316 385
#     4  11  22  39  63  92 128 170 214 266 330 394
#     4   9  20  40  65  93 127 171 222 273 324 385
#     4  11  22  40  62  90 125 164 207 259 322 382
#     4  12  24  40  63  92 123 158 208 260 312 382
#
# _framework density 23.093429
#
# number of rings (size 3 to 8) (size 9 to 14) (size 15 to 20)
#    0.000    1.556    0.000    6.000    0.000    0.889 
#    0.000   15.556    0.000   30.667    0.000    0.000 
#    0.000    0.000    0.000    0.000    0.000    0.000 
#
# Total GULP energy -100421.791495 kJ/mol
# GULP energy per Si atom -5578.988416 kJ/mol
# Density = 2.304087 g / cm^3
# Si number density = 23.093429 Si / 1000 Ang^3
#
#
#
# Elastic Constant Matrix: (Units=GPa)
#
#
# Indices 1 2 3 4 5 6 
#
# 1 144.2839 26.8761 48.8923 0.0000 2.1788 0.0000
# 2 26.8761 184.6332 31.0989 0.0000 9.0831 0.0000
# 3 48.8923 31.0989 96.7857 0.0000 22.0111 0.0000
# 4 0.0000 0.0000 0.0000 19.8208 0.0000 -5.0994
# 5 2.1788 9.0831 22.0111 0.0000 41.0033 0.0000
# 6 0.0000 0.0000 0.0000 -5.0994 0.0000 15.9491
#
#
#
# Elastic Compliance Matrix: (Units=1/GPa)
#
#
# Indices 1 2 3 4 5 6 
#
# 1 0.008577 -0.000573 -0.004640 0.000000 0.002162 0.000000
# 2 -0.000573 0.005768 -0.001458 0.000000 -0.000465 0.000000
# 3 -0.004640 -0.001458 0.014825 0.000000 -0.007389 0.000000
# 4 0.000000 0.000000 0.000000 0.054974 0.000000 0.017577
# 5 0.002162 -0.000465 -0.007389 0.000000 0.028343 0.000000
# 6 0.000000 0.000000 0.000000 0.017577 0.000000 0.068319
#
#
# Mechanical properties :
#
#
# Convention : Reuss Voigt Hill
#
# Bulk Modulus (GPa) = 63.18403 71.04859 67.11631
# Shear Modulus (GPa) = 25.07197 36.61035 30.84116
#
# Velocity S-wave (km/s) = 3.29853 3.98592 3.65841
# Velocity P-wave (km/s) = 6.47508 7.21221 6.85356
#
# Compressibility (1/GPa) = 0.01582678
#
# Stress axis : x y z
#
# Youngs Moduli (GPa) = 116.58537 173.36879 67.45281
#
# Poissons Ratio (x) = 0.09939 0.31301
# Poissons Ratio (y) = 0.06684 0.09835
# Poissons Ratio (z) = 0.54101 0.25279
#
# Static dielectric constant tensor:
#      x y z
#    x 1.844180 0.000000 -0.023620 
#    y 0.000000 1.764540 0.000000 
#    z -0.023620 0.000000 2.015450 
# 
# From -- ./inp_files/39195.got.cif
#   From: 2010.05.17/outbox.cif.g08.bks.cpg/sg10_20_cif.got.tgz:39195.got - 2010.06.03 11:33:40.
