data_PCOD9153487
_publ_section_title
;
Structure prediction by ZEFSAII (Michael W. Deem and Ramdas Pophale) SiO2 
 PCOD9153487
Probable space group: P 2/M
;
_chemical_formula_sum "Si O2"
_cell_formula_units_Z 26
_cell_length_a 15.724168
_cell_length_b 15.919550
_cell_length_c 5.530939
_cell_angle_alpha 90.000000
_cell_angle_beta 62.999597
_cell_angle_gamma 90.000000
_cell_volume 1233.606528
_symmetry_space_group_name_H-M "P 2/M"
_symmetry_group_IT_number 10
_symmetry_cell_setting 'monoclinic'
loop_
_space_group_symop_operation_xyz
x,y,z
-x,y,-z
-x,-y,-z
x,-y,z
loop_
_atom_site_type_symbol
_atom_site_label
_atom_site_fract_x
_atom_site_fract_y
_atom_site_fract_z
Si Si1 0.423400 0.133084 0.414642
Si Si2 0.549202 0.672587 0.689246
Si Si3 0.893712 0.241782 0.079722
Si Si4 0.331816 0.000000 0.189253
Si Si5 0.739495 0.840747 0.985863
Si Si6 0.252160 0.308045 0.361372
Si Si7 0.896349 0.594945 0.761048
O O1 0.500000 0.094705 0.500000
O O2 0.458679 0.225769 0.303485
O O3 0.398935 0.073471 0.227037
O O4 0.327983 0.143676 0.696644
O O5 0.500000 0.643651 0.500000
O O6 0.663269 0.658215 0.576518
O O7 0.500000 0.640602 0.000000
O O8 0.823377 0.250558 0.396873
O O9 0.843435 0.183542 0.947727
O O10 0.896953 0.335984 0.968727
O O11 0.000000 0.214536 0.000000
O O12 0.265758 0.075063 0.159261
O O13 0.703653 0.756997 0.891377
O O14 0.189089 0.378168 0.309110
O O15 0.883167 0.500000 0.864526
O O16 0.000000 0.600476 0.500000
#
# Coordination Sequence:
#
# PCOD9153487 Si02
#       7
#     4   4   4   2   4   4   4
#     4  11  23  36  55  86 122 160 211 270 334 380
#     4  11  23  39  64  93 128 172 227 275 317 389
#     4  11  22  39  63  92 121 165 204 256 316 392
#     4  12  23  37  56  82 124 168 206 274 326 387
#     4  11  23  39  58  85 122 163 216 261 321 387
#     4  11  21  40  64  89 127 170 206 257 319 385
#     4  10  22  38  63 102 133 156 196 254 325 393
#
# _framework density 21.076414
#
# number of rings (size 3 to 8) (size 9 to 14) (size 15 to 20)
#    0.000    1.077    4.615    2.538    2.154    1.538 
#    0.000    0.385    0.000    4.615    0.000    0.000 
#    0.000    0.000    0.000    0.000    0.000    0.000 
#
# Total GULP energy -144773.741031 kJ/mol
# GULP energy per Si atom -5568.220809 kJ/mol
# Density = 2.102844 g / cm^3
# Si number density = 21.076414 Si / 1000 Ang^3
#
#
#
# Elastic Constant Matrix: (Units=GPa)
#
#
# Indices 1 2 3 4 5 6 
#
# 1 189.8832 36.8391 33.2118 0.0000 3.4400 0.0000
# 2 36.8391 82.7189 7.0424 0.0000 2.5137 0.0000
# 3 33.2118 7.0424 42.1302 0.0000 -5.0765 0.0000
# 4 0.0000 0.0000 0.0000 7.7994 0.0000 5.5286
# 5 3.4400 2.5137 -5.0765 0.0000 27.1462 0.0000
# 6 0.0000 0.0000 0.0000 5.5286 0.0000 17.4593
#
#
#
# Elastic Compliance Matrix: (Units=1/GPa)
#
#
# Indices 1 2 3 4 5 6 
#
# 1 0.006655 -0.002490 -0.005017 0.000000 -0.001551 0.000000
# 2 -0.002490 0.013259 -0.000372 0.000000 -0.000982 0.000000
# 3 -0.005017 -0.000372 0.028476 0.000000 0.005995 0.000000
# 4 0.000000 0.000000 0.000000 0.165324 0.000000 -0.052351
# 5 -0.001551 -0.000982 0.005995 0.000000 0.038246 0.000000
# 6 0.000000 0.000000 0.000000 -0.052351 0.000000 0.073853
#
#
# Mechanical properties :
#
#
# Convention : Reuss Voigt Hill
#
# Bulk Modulus (GPa) = 30.64431 52.10210 41.37320
# Shear Modulus (GPa) = 14.18647 26.32358 20.25502
#
# Velocity S-wave (km/s) = 2.59723 3.53790 3.10341
# Velocity P-wave (km/s) = 4.85441 6.43919 5.70213
#
# Compressibility (1/GPa) = 0.03263248
#
# Stress axis : x y z
#
# Youngs Moduli (GPa) = 150.26324 75.41823 35.11790
#
# Poissons Ratio (x) = 0.18776 0.17618
# Poissons Ratio (y) = 0.37409 0.01307
# Poissons Ratio (z) = 0.75386 0.02807
#
# Static dielectric constant tensor:
#      x y z
#    x 1.806270 0.000000 -0.009780 
#    y 0.000000 1.714310 0.000000 
#    z -0.009780 0.000000 1.929320 
# 
# From -- ./inp_files/9595.got.cif
#   From: 2010.05.17/outbox.cif.g08.bks.cpg/sg10_5_cif.got.tgz:9595.got - 2010.06.03 11:33:40.
