data_PCOD9153930
_publ_section_title
;
Structure prediction by ZEFSAII (Michael W. Deem and Ramdas Pophale) SiO2 
 PCOD9153930
Probable space group: P 2/M
;
_chemical_formula_sum "Si O2"
_cell_formula_units_Z 28
_cell_length_a 11.906586
_cell_length_b 18.783703
_cell_length_c 16.683703
_cell_angle_alpha 90.000000
_cell_angle_beta 156.767494
_cell_angle_gamma 90.000000
_cell_volume 1471.863466
_symmetry_space_group_name_H-M "P 2/M"
_symmetry_group_IT_number 10
_symmetry_cell_setting 'monoclinic'
loop_
_space_group_symop_operation_xyz
x,y,z
-x,y,-z
-x,-y,-z
x,-y,z
loop_
_atom_site_type_symbol
_atom_site_label
_atom_site_fract_x
_atom_site_fract_y
_atom_site_fract_z
Si Si1 0.097584 0.855051 0.656011
Si Si2 0.857536 0.918366 0.652206
Si Si3 0.620140 0.322082 0.949297
Si Si4 0.331470 0.915097 0.211377
Si Si5 0.282436 0.420284 0.628205
Si Si6 0.332720 0.835127 0.052889
Si Si7 0.039849 0.697460 0.671334
O O1 0.437732 0.848086 0.867248
O O2 0.977726 0.780206 0.613137
O O3 0.000000 0.864930 0.500000
O O4 0.005238 0.912682 0.660791
O O5 0.531569 0.898019 0.418295
O O6 0.870557 0.000000 0.690204
O O7 0.035979 0.867434 0.827158
O O8 0.558326 0.392162 0.857284
O O9 0.666575 0.249169 0.931309
O O10 0.321144 0.314252 0.801112
O O11 0.864218 0.320694 0.176075
O O12 0.430055 0.875860 0.195984
O O13 0.354751 0.000000 0.215883
O O14 0.000000 0.896766 0.000000
O O15 0.321639 0.500000 0.621696
O O16 0.000000 0.423826 0.500000
O O17 0.200669 0.357097 0.514127
#
# Coordination Sequence:
#
# PCOD9153930 Si02
#       7
#     4   4   4   4   4   4   4
#     4  11  19  32  51  75 106 136 169 208 260 314
#     4  11  23  35  52  77 101 132 171 214 263 311
#     4   9  17  27  45  66  94 130 168 201 246 295
#     4  10  23  41  56  72  97 133 177 221 265 309
#     4   9  17  27  41  64  95 137 179 206 232 281
#     4  11  20  34  55  76 102 136 169 214 260 310
#     4   9  16  28  42  64  96 134 167 201 243 294
#
# _framework density 19.023503000000002
#
# number of rings (size 3 to 8) (size 9 to 14) (size 15 to 20)
#    0.000    2.000    2.857    3.000    0.000    3.143 
#    0.000    5.000    0.000    0.000    0.000    0.000 
#    0.000    0.571    0.000    2.714    0.000    2.286 
#
# Total GULP energy -156097.080005 kJ/mol
# GULP energy per Si atom -5574.895714 kJ/mol
# Density = 1.898021 g / cm^3
# Si number density = 19.023503 Si / 1000 Ang^3
#
#
#
# Elastic Constant Matrix: (Units=GPa)
#
#
# Indices 1 2 3 4 5 6 
#
# 1 21.3567 9.2567 12.1373 0.0000 -5.4245 0.0000
# 2 9.2567 58.3618 39.1579 0.0000 1.0732 0.0000
# 3 12.1373 39.1579 81.6906 0.0000 -10.0210 0.0000
# 4 0.0000 0.0000 0.0000 22.7111 0.0000 -4.2312
# 5 -5.4245 1.0732 -10.0210 0.0000 25.5853 0.0000
# 6 0.0000 0.0000 0.0000 -4.2312 0.0000 1.2044
#
#
#
# Elastic Compliance Matrix: (Units=1/GPa)
#
#
# Indices 1 2 3 4 5 6 
#
# 1 0.054310 -0.006243 -0.003815 0.000000 0.010282 0.000000
# 2 -0.006243 0.026914 -0.012894 0.000000 -0.007503 0.000000
# 3 -0.003815 -0.012894 0.019913 0.000000 0.007531 0.000000
# 4 0.000000 0.000000 0.000000 0.127432 0.000000 0.447660
# 5 0.010282 -0.007503 0.007531 0.000000 0.044529 0.000000
# 6 0.000000 0.000000 0.000000 0.447660 0.000000 2.402854
#
#
# Mechanical properties :
#
#
# Convention : Reuss Voigt Hill
#
# Bulk Modulus (GPa) = 18.10560 31.39033 24.74797
# Shear Modulus (GPa) = 1.82464 16.62398 9.22431
#
# Velocity S-wave (km/s) = 0.98042 2.95933 2.20441
# Velocity P-wave (km/s) = 3.28935 5.31163 4.41776
#
# Compressibility (1/GPa) = 0.05523153
#
# Stress axis : x y z
#
# Youngs Moduli (GPa) = 18.41298 37.15567 50.21968
#
# Poissons Ratio (x) = 0.23198 0.19159
# Poissons Ratio (y) = 0.11496 0.64752
# Poissons Ratio (z) = 0.07025 0.47907
#
# Static dielectric constant tensor:
#      x y z
#    x 1.682140 0.000000 -0.002230 
#    y 0.000000 1.644840 0.000000 
#    z -0.002230 0.000000 1.736390 
# 
# From -- ./inp_files/85462.got.cif
#   From: 2010.05.17/outbox.cif.g08.bks.cpg/sg10_43_cif.got.tgz:85462.got - 2010.06.03 11:33:40.
