data_PCOD9153749
_publ_section_title
;
Structure prediction by ZEFSAII (Michael W. Deem and Ramdas Pophale) SiO2 
 PCOD9153749
Probable space group: P 2/M
;
_chemical_formula_sum "Si O2"
_cell_formula_units_Z 25
_cell_length_a 12.017924
_cell_length_b 7.565632
_cell_length_c 25.269553
_cell_angle_alpha 90.000000
_cell_angle_beta 31.147552
_cell_angle_gamma 90.000000
_cell_volume 1188.413344
_symmetry_space_group_name_H-M "P 2/M"
_symmetry_group_IT_number 10
_symmetry_cell_setting 'monoclinic'
loop_
_space_group_symop_operation_xyz
x,y,z
-x,y,-z
-x,-y,-z
x,-y,z
loop_
_atom_site_type_symbol
_atom_site_label
_atom_site_fract_x
_atom_site_fract_y
_atom_site_fract_z
Si Si1 0.372248 0.000000 0.136981
Si Si2 0.138372 0.212080 0.392430
Si Si3 0.696883 0.285878 0.386882
Si Si4 0.835884 0.293581 0.218628
Si Si5 0.898241 0.296507 0.708443
Si Si6 0.818527 0.000000 0.904035
Si Si7 0.000000 0.000000 0.000000
Si Si8 0.650734 0.294097 0.177021
O O1 0.300209 0.170285 0.198909
O O2 0.260099 0.000000 0.124586
O O3 0.620078 0.000000 0.023912
O O4 0.032963 0.276828 0.380418
O O5 0.391028 0.265241 0.284573
O O6 0.000000 0.273770 0.500000
O O7 0.133518 0.000000 0.395141
O O8 0.500000 0.214027 0.500000
O O9 0.690329 0.500000 0.392175
O O10 0.692138 0.238973 0.327436
O O11 0.915674 0.235418 0.327240
O O12 0.891256 0.500000 0.202303
O O13 0.723303 0.269949 0.208630
O O14 0.042072 0.171400 0.139929
O O15 0.847602 0.500000 0.739878
O O16 0.193345 0.843571 0.916901
O O17 0.688026 0.500000 0.146062
#
# Coordination Sequence:
#
# PCOD9153749 Si02
#       8
#     2   4   4   4   4   2   1   4
#     4  11  24  42  61  95 130 166 219 263 313 396
#     4  11  25  45  68  99 140 178 224 277 335 406
#     4   9  19  37  63  95 128 163 204 257 315 382
#     4  10  22  41  64  97 132 161 212 264 318 391
#     4  11  23  42  67  94 130 172 214 266 323 388
#     4  11  23  40  66  90 130 175 206 261 334 375
#     4  12  24  48  70  96 134 170 228 298 324 388
#     4  11  25  44  71 101 132 180 226 277 342 398
#
# _framework density 21.036451
#
# number of rings (size 3 to 8) (size 9 to 14) (size 15 to 20)
#    0.000    1.440    3.200    1.200    2.240    4.480 
#    0.000    4.800    0.000    0.000    0.000    0.000 
#    0.000    0.000    0.000    0.000    0.000    0.000 
#
# Total GULP energy -139367.849556 kJ/mol
# GULP energy per Si atom -5574.713982 kJ/mol
# Density = 2.098857 g / cm^3
# Si number density = 21.036451 Si / 1000 Ang^3
#
#
#
# Elastic Constant Matrix: (Units=GPa)
#
#
# Indices 1 2 3 4 5 6 
#
# 1 32.4484 7.2451 5.8865 0.0000 14.8790 0.0000
# 2 7.2451 97.0023 40.9207 0.0000 3.4151 0.0000
# 3 5.8865 40.9207 107.8526 0.0000 -1.4125 0.0000
# 4 0.0000 0.0000 0.0000 39.4084 0.0000 6.0471
# 5 14.8790 3.4151 -1.4125 0.0000 23.8242 0.0000
# 6 0.0000 0.0000 0.0000 6.0471 0.0000 23.6498
#
#
#
# Elastic Compliance Matrix: (Units=1/GPa)
#
#
# Indices 1 2 3 4 5 6 
#
# 1 0.044147 -0.001382 -0.002246 0.000000 -0.027506 0.000000
# 2 -0.001382 0.012416 -0.004651 0.000000 -0.001193 0.000000
# 3 -0.002246 -0.004651 0.011195 0.000000 0.002733 0.000000
# 4 0.000000 0.000000 0.000000 0.026412 0.000000 -0.006753
# 5 -0.027506 -0.001193 0.002733 0.000000 0.059486 0.000000
# 6 0.000000 0.000000 0.000000 -0.006753 0.000000 0.044010
#
#
# Mechanical properties :
#
#
# Convention : Reuss Voigt Hill
#
# Bulk Modulus (GPa) = 19.53070 38.37865 28.95468
# Shear Modulus (GPa) = 21.61795 29.59321 25.60558
#
# Velocity S-wave (km/s) = 3.20916 3.75475 3.49262
# Velocity P-wave (km/s) = 4.79959 6.08942 5.48256
#
# Compressibility (1/GPa) = 0.05120145
#
# Stress axis : x y z
#
# Youngs Moduli (GPa) = 22.65172 80.53924 89.32599
#
# Poissons Ratio (x) = 0.11128 0.20058
# Poissons Ratio (y) = 0.03130 0.41547
# Poissons Ratio (z) = 0.05086 0.37460
#
# Static dielectric constant tensor:
#      x y z
#    x 1.787120 0.000000 0.016080 
#    y 0.000000 1.755790 0.000000 
#    z 0.016080 0.000000 1.761210 
# 
# From -- ./inp_files/88645.got.cif
#   From: 2010.05.17/outbox.cif.g08.bks.cpg/sg10_45_cif.got.tgz:88645.got - 2010.06.03 11:33:40.
