data_PCOD9153597
_publ_section_title
;
Structure prediction by ZEFSAII (Michael W. Deem and Ramdas Pophale) SiO2 
 PCOD9153597
Probable space group: P 2/M
;
_chemical_formula_sum "Si O2"
_cell_formula_units_Z 20
_cell_length_a 17.159344
_cell_length_b 10.137119
_cell_length_c 20.013643
_cell_angle_alpha 90.000000
_cell_angle_beta 15.505268
_cell_angle_gamma 90.000000
_cell_volume 930.645235
_symmetry_space_group_name_H-M "P 2/M"
_symmetry_group_IT_number 10
_symmetry_cell_setting 'monoclinic'
loop_
_space_group_symop_operation_xyz
x,y,z
-x,y,-z
-x,-y,-z
x,-y,z
loop_
_atom_site_type_symbol
_atom_site_label
_atom_site_fract_x
_atom_site_fract_y
_atom_site_fract_z
Si Si1 0.887464 0.843190 0.279040
Si Si2 0.367089 0.648399 0.404232
Si Si3 0.656093 0.000000 0.798269
Si Si4 0.506181 0.246943 0.156094
Si Si5 0.033413 0.643771 0.893265
Si Si6 0.367171 0.500000 0.185597
O O1 0.702366 0.758285 0.484050
O O2 0.835366 0.770667 0.251421
O O3 0.839177 0.000000 0.318000
O O4 0.210408 0.809084 0.039673
O O5 0.240395 0.500000 0.518832
O O6 0.293882 0.708722 0.392285
O O7 0.713209 0.631943 0.125756
O O8 0.565228 0.130347 0.834498
O O9 0.000000 0.000000 0.500000
O O10 0.500000 0.000000 0.000000
O O11 0.505557 0.375451 0.110187
O O12 0.176314 0.500000 0.762117
O O13 0.000000 0.659611 0.000000
O O14 0.000000 0.500000 0.500000
O O15 0.500000 0.500000 0.000000
#
# Coordination Sequence:
#
# PCOD9153597 Si02
#       6
#     4   4   2   4   4   2
#     4  11  24  39  64  95 130 181 221 270 338 409
#     4  10  22  39  66  94 125 175 221 275 338 401
#     4  12  28  46  68  98 137 184 227 280 354 420
#     4  11  25  43  66  94 133 174 225 280 339 414
#     4   9  20  41  65  95 130 168 221 280 336 400
#     4  12  28  46  70 104 135 178 231 294 358 410
#
# _framework density 21.490466999999999
#
# number of rings (size 3 to 8) (size 9 to 14) (size 15 to 20)
#    0.000    1.400    2.000    1.800    9.800    2.000 
#    0.000    4.000    0.000    0.000    0.000    0.000 
#    0.000    0.000    0.000    0.000    0.000    0.000 
#
# Total GULP energy -111386.482449 kJ/mol
# GULP energy per Si atom -5569.324122 kJ/mol
# Density = 2.144155 g / cm^3
# Si number density = 21.490467 Si / 1000 Ang^3
#
#
#
# Elastic Constant Matrix: (Units=GPa)
#
#
# Indices 1 2 3 4 5 6 
#
# 1 120.2835 88.4394 21.4840 0.0000 30.8916 0.0000
# 2 88.4394 268.9101 45.3254 0.0000 30.8198 0.0000
# 3 21.4840 45.3254 60.2474 0.0000 12.1395 0.0000
# 4 0.0000 0.0000 0.0000 122.3110 0.0000 77.1993
# 5 30.8916 30.8198 12.1395 0.0000 28.0074 0.0000
# 6 0.0000 0.0000 0.0000 77.1993 0.0000 77.1882
#
#
#
# Elastic Compliance Matrix: (Units=1/GPa)
#
#
# Indices 1 2 3 4 5 6 
#
# 1 0.013589 -0.003123 -0.000185 0.000000 -0.011472 0.000000
# 2 -0.003123 0.005339 -0.002644 0.000000 -0.001284 0.000000
# 3 -0.000185 -0.002644 0.019751 0.000000 -0.005448 0.000000
# 4 0.000000 0.000000 0.000000 0.022173 0.000000 -0.022176
# 5 -0.011472 -0.001284 -0.005448 0.000000 0.052132 0.000000
# 6 0.000000 0.000000 0.000000 -0.022176 0.000000 0.035134
#
#
# Mechanical properties :
#
#
# Convention : Reuss Voigt Hill
#
# Bulk Modulus (GPa) = 37.34833 84.43763 60.89298
# Shear Modulus (GPa) = 29.59514 65.11415 47.35464
#
# Velocity S-wave (km/s) = 3.71499 5.51043 4.69926
# Velocity P-wave (km/s) = 5.98484 8.93658 7.60529
#
# Compressibility (1/GPa) = 0.02677496
#
# Stress axis : x y z
#
# Youngs Moduli (GPa) = 73.58688 187.31088 50.63069
#
# Poissons Ratio (x) = 0.58504 0.00935
# Poissons Ratio (y) = 0.22984 0.13387
# Poissons Ratio (z) = 0.01359 0.49524
#
# Static dielectric constant tensor:
#      x y z
#    x 1.812610 0.000000 -0.003630 
#    y 0.000000 1.615830 0.000000 
#    z -0.003630 0.000000 1.847620 
# 
# From -- ./inp_files/78077.got.cif
#   From: 2010.05.17/outbox.cif.g08.bks.cpg/sg10_40_cif.got.tgz:78077.got - 2010.06.03 11:33:40.
