data_PCOD9153818
_publ_section_title
;
Structure prediction by ZEFSAII (Michael W. Deem and Ramdas Pophale) SiO2 
 PCOD9153818
Probable space group: P 2/M
;
_chemical_formula_sum "Si O2"
_cell_formula_units_Z 24
_cell_length_a 20.970887
_cell_length_b 11.260301
_cell_length_c 14.958823
_cell_angle_alpha 90.000000
_cell_angle_beta 159.633258
_cell_angle_gamma 90.000000
_cell_volume 1229.357867
_symmetry_space_group_name_H-M "P 2/M"
_symmetry_group_IT_number 10
_symmetry_cell_setting 'monoclinic'
loop_
_space_group_symop_operation_xyz
x,y,z
-x,y,-z
-x,-y,-z
x,-y,z
loop_
_atom_site_type_symbol
_atom_site_label
_atom_site_fract_x
_atom_site_fract_y
_atom_site_fract_z
Si Si1 0.035970 0.000000 0.192911
Si Si2 0.498492 0.641792 0.166788
Si Si3 0.111789 0.746176 0.371887
Si Si4 0.122069 0.639797 0.573773
Si Si5 0.501225 0.745702 0.363758
Si Si6 0.314003 0.000000 0.389942
Si Si7 0.232420 0.361650 0.155286
O O1 0.074194 0.882088 0.299188
O O2 0.180187 0.000000 0.300173
O O3 0.829541 0.000000 0.881501
O O4 0.527037 0.500000 0.213448
O O5 0.681488 0.705672 0.374289
O O6 0.450371 0.698027 0.199574
O O7 0.331741 0.658515 0.878873
O O8 0.069017 0.714630 0.417960
O O9 0.978350 0.670867 0.132283
O O10 0.097768 0.500000 0.519508
O O11 0.000000 0.665357 0.500000
O O12 0.560947 0.882751 0.444413
O O13 0.679392 0.674875 0.634742
O O14 0.342067 0.714082 0.224821
O O15 0.264338 0.500000 0.180119
#
# Coordination Sequence:
#
# PCOD9153818 Si02
#       7
#     2   4   4   4   4   2   4
#     4  11  24  43  63  92 130 170 218 269 310 367
#     4  11  22  38  63  95 127 165 212 263 320 384
#     4  12  23  41  64  93 125 171 213 264 317 377
#     4  10  22  42  67  94 128 166 206 262 328 387
#     4  11  22  39  62  90 128 169 215 256 318 375
#     4  11  22  44  64  88 130 178 220 258 309 376
#     4  11  23  38  60  96 134 162 204 271 328 380
#
# _framework density 19.522386999999998
#
# number of rings (size 3 to 8) (size 9 to 14) (size 15 to 20)
#    0.000    1.000    3.333    5.000    0.000    5.333 
#    0.000    4.583    0.000    0.000    0.000    0.000 
#    0.000    0.000    0.000    0.000    0.000    0.000 
#
# Total GULP energy -134248.821595 kJ/mol
# GULP energy per Si atom -5593.700900 kJ/mol
# Density = 1.947795 g / cm^3
# Si number density = 19.522387 Si / 1000 Ang^3
#
#
#
# Elastic Constant Matrix: (Units=GPa)
#
#
# Indices 1 2 3 4 5 6 
#
# 1 42.5568 25.9768 2.4097 0.0000 -12.9192 0.0000
# 2 25.9768 127.6270 24.5995 0.0000 -10.9643 0.0000
# 3 2.4097 24.5995 57.8109 0.0000 -7.7311 0.0000
# 4 0.0000 0.0000 0.0000 185.7431 0.0000 -23.1152
# 5 -12.9192 -10.9643 -7.7311 0.0000 23.5784 0.0000
# 6 0.0000 0.0000 0.0000 -23.1152 0.0000 11.1069
#
#
#
# Elastic Compliance Matrix: (Units=1/GPa)
#
#
# Indices 1 2 3 4 5 6 
#
# 1 0.031555 -0.005692 0.003206 0.000000 0.015694 0.000000
# 2 -0.005692 0.009757 -0.003896 0.000000 0.000141 0.000000
# 3 0.003206 -0.003896 0.019677 0.000000 0.006397 0.000000
# 4 0.000000 0.000000 0.000000 0.007266 0.000000 0.015121
# 5 0.015694 0.000141 0.006397 0.000000 0.053174 0.000000
# 6 0.000000 0.000000 0.000000 0.015121 0.000000 0.121503
#
#
# Mechanical properties :
#
#
# Convention : Reuss Voigt Hill
#
# Bulk Modulus (GPa) = 20.73609 37.10740 28.92174
# Shear Modulus (GPa) = 18.39779 55.75292 37.07535
#
# Velocity S-wave (km/s) = 3.07317 5.34981 4.36262
# Velocity P-wave (km/s) = 4.82051 7.56369 6.34219
#
# Compressibility (1/GPa) = 0.04822510
#
# Stress axis : x y z
#
# Youngs Moduli (GPa) = 31.69023 102.49170 50.82002
#
# Poissons Ratio (x) = 0.58341 -0.16291
# Poissons Ratio (y) = 0.18039 0.19798
# Poissons Ratio (z) = -0.10159 0.39927
#
# Static dielectric constant tensor:
#      x y z
#    x 1.685090 0.000000 0.018440 
#    y 0.000000 1.647250 0.000000 
#    z 0.018440 0.000000 1.687210 
# 
# From -- ./inp_files/70611.got.cif
#   From: 2010.05.17/outbox.cif.g08.bks.cpg/sg10_36_cif.got.tgz:70611.got - 2010.06.03 11:33:40.
