data_PCOD9153924
_publ_section_title
;
Structure prediction by ZEFSAII (Michael W. Deem and Ramdas Pophale) SiO2 
 PCOD9153924
Probable space group: P 2/M
;
_chemical_formula_sum "Si O2"
_cell_formula_units_Z 14
_cell_length_a 5.084752
_cell_length_b 13.220303
_cell_length_c 9.821140
_cell_angle_alpha 90.000000
_cell_angle_beta 113.331030
_cell_angle_gamma 90.000000
_cell_volume 606.213389
_symmetry_space_group_name_H-M "P 2/M"
_symmetry_group_IT_number 10
_symmetry_cell_setting 'monoclinic'
loop_
_space_group_symop_operation_xyz
x,y,z
-x,y,-z
-x,-y,-z
x,-y,z
loop_
_atom_site_type_symbol
_atom_site_label
_atom_site_fract_x
_atom_site_fract_y
_atom_site_fract_z
Si Si1 0.391310 0.689734 0.833635
Si Si2 0.178157 0.000000 0.397009
Si Si3 0.116999 0.884021 0.878368
Si Si4 0.252408 0.621497 0.341087
O O1 0.335540 0.807655 0.853978
O O2 0.636466 0.668159 0.776464
O O3 0.083470 0.650255 0.714272
O O4 0.500000 0.644228 0.000000
O O5 0.500000 0.000000 0.500000
O O6 0.000000 0.000000 0.500000
O O7 0.115654 0.903778 0.287412
O O8 0.215299 0.000000 0.921419
O O9 0.000000 0.847256 0.000000
O O10 0.500000 0.652939 0.500000
O O11 0.262674 0.500000 0.337782
#
# Coordination Sequence:
#
# PCOD9153924 Si02
#       4
#     4   2   4   4
#     4  12  25  43  72 107 137 179 238 288 341 406
#     4  10  23  40  63  96 130 172 229 282 324 384
#     4   9  22  46  67  95 139 190 220 277 336 416
#     4  11  26  48  72  99 140 186 226 283 361 423
#
# _framework density 23.094176000000001
#
# number of rings (size 3 to 8) (size 9 to 14) (size 15 to 20)
#    0.857    0.571    0.000    4.286    0.000   14.286 
#    0.000    0.000    0.000    0.000    0.000    0.000 
#    0.000    0.000    0.000    0.000    0.000    0.000 
#
# Total GULP energy -78153.454092 kJ/mol
# GULP energy per Si atom -5582.389578 kJ/mol
# Density = 2.304161 g / cm^3
# Si number density = 23.094176 Si / 1000 Ang^3
#
#
#
# Elastic Constant Matrix: (Units=GPa)
#
#
# Indices 1 2 3 4 5 6 
#
# 1 99.7080 1.3451 21.7239 0.0000 14.8009 0.0000
# 2 1.3451 59.6544 -6.7448 0.0000 0.1358 0.0000
# 3 21.7239 -6.7448 131.1804 0.0000 14.3027 0.0000
# 4 0.0000 0.0000 0.0000 36.1530 0.0000 13.9661
# 5 14.8009 0.1358 14.3027 0.0000 53.6941 0.0000
# 6 0.0000 0.0000 0.0000 13.9661 0.0000 31.2690
#
#
#
# Elastic Compliance Matrix: (Units=1/GPa)
#
#
# Indices 1 2 3 4 5 6 
#
# 1 0.010746 -0.000409 -0.001522 0.000000 -0.002556 0.000000
# 2 -0.000409 0.016881 0.000956 0.000000 -0.000185 0.000000
# 3 -0.001522 0.000956 0.008114 0.000000 -0.001744 0.000000
# 4 0.000000 0.000000 0.000000 0.033428 0.000000 -0.014930
# 5 -0.002556 -0.000185 -0.001744 0.000000 0.019794 0.000000
# 6 0.000000 0.000000 0.000000 -0.014930 0.000000 0.038649
#
#
# Mechanical properties :
#
#
# Convention : Reuss Voigt Hill
#
# Bulk Modulus (GPa) = 29.59308 35.91015 32.75161
# Shear Modulus (GPa) = 35.50505 42.50446 39.00476
#
# Velocity S-wave (km/s) = 3.92523 4.29474 4.11413
# Velocity P-wave (km/s) = 5.77798 6.33847 6.06471
#
# Compressibility (1/GPa) = 0.03379169
#
# Stress axis : x y z
#
# Youngs Moduli (GPa) = 93.06008 59.23853 123.23686
#
# Poissons Ratio (x) = 0.02420 0.18755
# Poissons Ratio (y) = 0.03802 -0.11778
# Poissons Ratio (z) = 0.14163 -0.05662
#
# Static dielectric constant tensor:
#      x y z
#    x 1.846270 0.000000 0.080510 
#    y 0.000000 1.875460 0.000000 
#    z 0.080510 0.000000 1.919820 
# 
# From -- ./inp_files/3174.got.cif
#   From: 2010.05.17/outbox.cif.g08.bks.cpg/sg10_2_cif.got.tgz:3174.got - 2010.06.03 11:33:40.
