data_PCOD9153366
_publ_section_title
;
Structure prediction by ZEFSAII (Michael W. Deem and Ramdas Pophale) SiO2 
 PCOD9153366
Probable space group: P 2/M
;
_chemical_formula_sum "Si O2"
_cell_formula_units_Z 16
_cell_length_a 8.284858
_cell_length_b 11.609734
_cell_length_c 11.855371
_cell_angle_alpha 90.000000
_cell_angle_beta 141.715153
_cell_angle_gamma 90.000000
_cell_volume 706.502808
_symmetry_space_group_name_H-M "P 2/M"
_symmetry_group_IT_number 10
_symmetry_cell_setting 'monoclinic'
loop_
_space_group_symop_operation_xyz
x,y,z
-x,y,-z
-x,-y,-z
x,-y,z
loop_
_atom_site_type_symbol
_atom_site_label
_atom_site_fract_x
_atom_site_fract_y
_atom_site_fract_z
Si Si1 0.866263 0.752737 0.547112
Si Si2 0.645219 0.131473 0.759498
Si Si3 0.169995 0.500000 0.478362
Si Si4 0.252534 0.500000 0.947260
Si Si5 0.861378 0.748895 0.074406
O O1 0.643647 0.846308 0.442759
O O2 0.715278 0.628323 0.463114
O O3 0.000000 0.766957 0.500000
O O4 0.090304 0.755068 0.765092
O O5 0.854015 0.216493 0.816765
O O6 0.723196 0.000000 0.783731
O O7 0.667596 0.164485 0.904489
O O8 0.000000 0.500000 0.500000
O O9 0.992072 0.500000 0.270197
O O10 0.233796 0.619208 0.003818
O O11 0.500000 0.500000 0.000000
#
# Coordination Sequence:
#
# PCOD9153366 Si02
#       5
#     4   4   2   2   4
#     4  10  22  39  65  96 127 164 211 263 323 372
#     4  11  25  43  64  88 127 179 220 256 303 368
#     4   8  18  35  56  91 125 156 188 248 320 385
#     4  10  22  36  66 100 126 156 199 264 333 381
#     4  10  23  41  64  94 129 164 210 257 320 383
#
# _framework density 22.646763
#
# number of rings (size 3 to 8) (size 9 to 14) (size 15 to 20)
#    0.000    2.000    0.000    2.250   10.500    6.500 
#    0.000    5.000    0.000    0.000    0.000    0.000 
#    0.000    0.000    0.000    0.000    0.000    0.000 
#
# Total GULP energy -89268.655897 kJ/mol
# GULP energy per Si atom -5579.290994 kJ/mol
# Density = 2.259522 g / cm^3
# Si number density = 22.646763 Si / 1000 Ang^3
#
#
#
# Elastic Constant Matrix: (Units=GPa)
#
#
# Indices 1 2 3 4 5 6 
#
# 1 47.6307 41.4386 -6.8958 0.0000 -5.4368 0.0000
# 2 41.4386 115.5679 -14.4744 0.0000 12.8286 0.0000
# 3 -6.8958 -14.4744 52.7830 0.0000 -14.7788 0.0000
# 4 0.0000 0.0000 0.0000 25.5118 0.0000 -10.9991
# 5 -5.4368 12.8286 -14.7788 0.0000 38.7907 0.0000
# 6 0.0000 0.0000 0.0000 -10.9991 0.0000 -17.7210
#
#
#
# Elastic Compliance Matrix: (Units=1/GPa)
#
#
# Indices 1 2 3 4 5 6 
#
# 1 0.033918 -0.012843 0.003839 0.000000 0.010464 0.000000
# 2 -0.012843 0.014005 0.000405 0.000000 -0.006277 0.000000
# 3 0.003839 0.000405 0.022020 0.000000 0.008794 0.000000
# 4 0.000000 0.000000 0.000000 0.030923 0.000000 -0.019193
# 5 0.010464 -0.006277 0.008794 0.000000 0.032672 0.000000
# 6 0.000000 0.000000 0.000000 -0.019193 0.000000 -0.044517
#
#
# Mechanical properties :
#
#
# Convention : Reuss Voigt Hill
#
# Bulk Modulus (GPa) = 18.95824 28.45760 23.70792
# Shear Modulus (GPa) = 40.38779 22.37717 31.38248
#
# Velocity S-wave (km/s) = 4.22759 3.14681 3.72659
# Velocity P-wave (km/s) = 5.67622 5.07901 5.38590
#
# Compressibility (1/GPa) = 0.05274753
#
# Stress axis : x y z
#
# Youngs Moduli (GPa) = 29.48283 71.40119 45.41266
#
# Poissons Ratio (x) = 0.91697 -0.17435
# Poissons Ratio (y) = 0.37863 -0.01840
# Poissons Ratio (z) = -0.11319 -0.02893
#
# Static dielectric constant tensor:
#      x y z
#    x 1.826460 0.000000 -0.064400 
#    y 0.000000 1.904220 0.000000 
#    z -0.064400 0.000000 1.881930 
# 
# From -- ./inp_files/41822.got.cif
#   From: 2010.05.17/outbox.cif.g08.bks.cpg/sg10_21_cif.got.tgz:41822.got - 2010.06.03 11:33:40.
