data_PCOD9153992
_publ_section_title
;
Structure prediction by ZEFSAII (Michael W. Deem and Ramdas Pophale) SiO2 
 PCOD9153992
Probable space group: P 2/M
;
_chemical_formula_sum "Si O2"
_cell_formula_units_Z 18
_cell_length_a 7.426568
_cell_length_b 20.418829
_cell_length_c 5.168881
_cell_angle_alpha 90.000000
_cell_angle_beta 109.284534
_cell_angle_gamma 90.000000
_cell_volume 739.838580
_symmetry_space_group_name_H-M "P 2/M"
_symmetry_group_IT_number 10
_symmetry_cell_setting 'monoclinic'
loop_
_space_group_symop_operation_xyz
x,y,z
-x,y,-z
-x,-y,-z
x,-y,z
loop_
_atom_site_type_symbol
_atom_site_label
_atom_site_fract_x
_atom_site_fract_y
_atom_site_fract_z
Si Si1 0.716981 0.135625 0.280906
Si Si2 0.881502 0.315688 0.679409
Si Si3 0.864445 0.000000 0.187752
Si Si4 0.291751 0.187694 0.221071
Si Si5 0.629193 0.426513 0.307162
O O1 0.504602 0.162039 0.253017
O O2 0.801446 0.140396 0.608347
O O3 0.735096 0.064525 0.163143
O O4 0.802540 0.182648 0.103846
O O5 0.725899 0.261693 0.690757
O O6 0.788490 0.377070 0.484923
O O7 0.000000 0.285110 0.500000
O O8 0.000000 0.331803 0.000000
O O9 0.000000 0.000000 0.500000
O O10 0.000000 0.000000 0.000000
O O11 0.500000 0.432120 0.500000
O O12 0.700359 0.500000 0.272655
O O13 0.500000 0.403928 0.000000
#
# Coordination Sequence:
#
# PCOD9153992 Si02
#       5
#     4   4   2   4   4
#     4  10  23  43  67  95 133 186 232 295 350 438
#     4  12  26  43  68 108 147 188 240 308 370 423
#     4  12  26  42  68 102 136 178 236 303 363 423
#     4  10  23  42  66  97 134 184 236 287 353 443
#     4  10  23  45  73 104 143 194 249 296 352 437
#
# _framework density 24.329629000000001
#
# number of rings (size 3 to 8) (size 9 to 14) (size 15 to 20)
#    0.000    1.333    0.000    4.000    3.111    9.778 
#    0.000    0.000    0.000    0.000    0.000    0.000 
#    0.000    0.000    0.000    0.000    0.000    0.000 
#
# Total GULP energy -100438.273152 kJ/mol
# GULP energy per Si atom -5579.904064 kJ/mol
# Density = 2.427425 g / cm^3
# Si number density = 24.329629 Si / 1000 Ang^3
#
#
#
# Elastic Constant Matrix: (Units=GPa)
#
#
# Indices 1 2 3 4 5 6 
#
# 1 107.2815 63.2758 76.7501 0.0000 0.4169 0.0000
# 2 63.2758 154.6609 71.4504 0.0000 11.8000 0.0000
# 3 76.7501 71.4504 233.4327 0.0000 -31.2973 0.0000
# 4 0.0000 0.0000 0.0000 45.1115 0.0000 6.2853
# 5 0.4169 11.8000 -31.2973 0.0000 53.3385 0.0000
# 6 0.0000 0.0000 0.0000 6.2853 0.0000 37.2492
#
#
#
# Elastic Compliance Matrix: (Units=1/GPa)
#
#
# Indices 1 2 3 4 5 6 
#
# 1 0.014343 -0.004080 -0.003648 0.000000 -0.001350 0.000000
# 2 -0.004080 0.009258 -0.001913 0.000000 -0.003139 0.000000
# 3 -0.003648 -0.001913 0.006653 0.000000 0.004356 0.000000
# 4 0.000000 0.000000 0.000000 0.022701 0.000000 -0.003831
# 5 -0.001350 -0.003139 0.004356 0.000000 0.022009 0.000000
# 6 0.000000 0.000000 0.000000 -0.003831 0.000000 0.027493
#
#
# Mechanical properties :
#
#
# Convention : Reuss Voigt Hill
#
# Bulk Modulus (GPa) = 91.14239 102.03642 96.58940
# Shear Modulus (GPa) = 39.87394 46.06642 42.97018
#
# Velocity S-wave (km/s) = 4.05273 4.35608 4.20714
# Velocity P-wave (km/s) = 7.70988 8.20553 7.96157
#
# Compressibility (1/GPa) = 0.01097184
#
# Stress axis : x y z
#
# Youngs Moduli (GPa) = 69.72285 108.01180 150.31012
#
# Poissons Ratio (x) = 0.44064 0.54833
# Poissons Ratio (y) = 0.28444 0.28760
# Poissons Ratio (z) = 0.25435 0.20666
#
# Static dielectric constant tensor:
#      x y z
#    x 2.270000 0.000000 0.664540 
#    y 0.000000 1.998080 0.000000 
#    z 0.664540 0.000000 3.262300 
# 
# From -- ./inp_files/4521.got.cif
#   From: 2010.05.17/outbox.cif.g08.bks.cpg/sg10_3_cif.got.tgz:4521.got - 2010.06.03 11:33:40.
