data_PCOD9153722
_publ_section_title
;
Structure prediction by ZEFSAII (Michael W. Deem and Ramdas Pophale) SiO2 
 PCOD9153722
Probable space group: P 2/M
;
_chemical_formula_sum "Si O2"
_cell_formula_units_Z 20
_cell_length_a 10.920029
_cell_length_b 12.239135
_cell_length_c 11.768035
_cell_angle_alpha 90.000000
_cell_angle_beta 36.888508
_cell_angle_gamma 90.000000
_cell_volume 944.099441
_symmetry_space_group_name_H-M "P 2/M"
_symmetry_group_IT_number 10
_symmetry_cell_setting 'monoclinic'
loop_
_space_group_symop_operation_xyz
x,y,z
-x,y,-z
-x,-y,-z
x,-y,z
loop_
_atom_site_type_symbol
_atom_site_label
_atom_site_fract_x
_atom_site_fract_y
_atom_site_fract_z
Si Si1 0.175866 0.000000 0.132086
Si Si2 0.971087 0.235586 0.754215
Si Si3 0.678124 0.762550 0.770320
Si Si4 0.365959 0.000000 0.247004
Si Si5 0.646279 0.627365 0.574487
Si Si6 0.201102 0.625541 0.925828
O O1 0.043137 0.107106 0.212900
O O2 0.269294 0.000000 0.190649
O O3 0.391759 0.000000 0.907072
O O4 0.185643 0.295568 0.606102
O O5 0.878129 0.253679 0.698117
O O6 0.819506 0.292497 0.955179
O O7 0.694683 0.874055 0.681439
O O8 0.641647 0.663785 0.710973
O O9 0.500000 0.777960 0.000000
O O10 0.701971 0.500000 0.520486
O O11 0.415029 0.642888 0.703747
O O12 0.205590 0.500000 0.963827
O O13 0.000000 0.638780 0.000000
#
# Coordination Sequence:
#
# PCOD9153722 Si02
#       6
#     2   4   4   2   4   4
#     4   9  16  31  55  83 111 147 187 221 274 326
#     4  11  21  37  58  85 117 147 182 231 274 330
#     4  11  18  34  58  83 117 151 180 222 276 330
#     4   9  14  31  56  81 110 150 191 223 261 323
#     4  11  24  37  55  85 115 148 186 225 280 336
#     4  10  22  41  63  82 104 144 192 235 281 327
#
# _framework density 21.18421
#
# number of rings (size 3 to 8) (size 9 to 14) (size 15 to 20)
#    0.000    1.600    6.000    1.200    0.000    4.400 
#    0.000    7.500    0.000    1.200    0.000    0.000 
#    0.000    0.000    0.000    0.000    0.000    0.000 
#
# Total GULP energy -111536.564205 kJ/mol
# GULP energy per Si atom -5576.828210 kJ/mol
# Density = 2.113599 g / cm^3
# Si number density = 21.184210 Si / 1000 Ang^3
#
#
#
# Elastic Constant Matrix: (Units=GPa)
#
#
# Indices 1 2 3 4 5 6 
#
# 1 25.8241 41.3325 18.0586 0.0000 -18.3686 0.0000
# 2 41.3325 132.3058 73.4776 0.0000 -27.3407 0.0000
# 3 18.0586 73.4776 104.3942 0.0000 -24.9901 0.0000
# 4 0.0000 0.0000 0.0000 5.7515 0.0000 -3.9197
# 5 -18.3686 -27.3407 -24.9901 0.0000 34.9224 0.0000
# 6 0.0000 0.0000 0.0000 -3.9197 0.0000 0.5222
#
#
#
# Elastic Compliance Matrix: (Units=1/GPa)
#
#
# Indices 1 2 3 4 5 6 
#
# 1 0.117636 -0.036354 0.015973 0.000000 0.044843 0.000000
# 2 -0.036354 0.024171 -0.012998 0.000000 -0.009499 0.000000
# 3 0.015973 -0.012998 0.018752 0.000000 0.011644 0.000000
# 4 0.000000 0.000000 0.000000 -0.042249 0.000000 -0.317111
# 5 0.044843 -0.009499 0.011644 0.000000 0.053117 0.000000
# 6 0.000000 0.000000 0.000000 -0.317111 0.000000 -0.465302
#
#
# Mechanical properties :
#
#
# Convention : Reuss Voigt Hill
#
# Bulk Modulus (GPa) = 10.66079 58.69571 34.67825
# Shear Modulus (GPa) = -25.52964 16.88292 -4.32336
#
# Velocity S-wave (km/s) = -3.47526 2.82611 -1.43013
# Velocity P-wave (km/s) = 3.32564 6.19811 3.69843
#
# Compressibility (1/GPa) = 0.09380164
#
# Stress axis : x y z
#
# Youngs Moduli (GPa) = 8.50078 41.37251 53.32805
#
# Poissons Ratio (x) = 1.50404 -0.85180
# Poissons Ratio (y) = 0.30903 0.69315
# Poissons Ratio (z) = -0.13578 0.53775
#
# Static dielectric constant tensor:
#      x y z
#    x 1.747570 0.000000 0.008750 
#    y 0.000000 1.766450 0.000000 
#    z 0.008750 0.000000 1.864710 
# 
# From -- ./inp_files/64594.got.cif
#   From: 2010.05.17/outbox.cif.g08.bks.cpg/sg10_33_cif.got.tgz:64594.got - 2010.06.03 11:33:40.
