data_PCOD9153615
_publ_section_title
;
Structure prediction by ZEFSAII (Michael W. Deem and Ramdas Pophale) SiO2 
 PCOD9153615
Probable space group: P 2/M
;
_chemical_formula_sum "Si O2"
_cell_formula_units_Z 28
_cell_length_a 8.652575
_cell_length_b 14.009121
_cell_length_c 15.053178
_cell_angle_alpha 90.000000
_cell_angle_beta 122.462273
_cell_angle_gamma 90.000000
_cell_volume 1539.556727
_symmetry_space_group_name_H-M "P 2/M"
_symmetry_group_IT_number 10
_symmetry_cell_setting 'monoclinic'
loop_
_space_group_symop_operation_xyz
x,y,z
-x,y,-z
-x,-y,-z
x,-y,z
loop_
_atom_site_type_symbol
_atom_site_label
_atom_site_fract_x
_atom_site_fract_y
_atom_site_fract_z
Si Si1 0.040460 0.108774 0.157341
Si Si2 0.877985 0.613187 0.546583
Si Si3 0.882078 0.302115 0.736472
Si Si4 0.690411 0.109289 0.930230
Si Si5 0.776049 0.386415 0.072709
Si Si6 0.492533 0.385910 0.668761
Si Si7 0.507530 0.697543 0.138814
O O1 0.092930 0.189836 0.242280
O O2 0.184758 0.116362 0.120133
O O3 0.047343 0.000000 0.192101
O O4 0.837444 0.126010 0.054493
O O5 0.904514 0.500000 0.570608
O O6 0.929943 0.666536 0.651961
O O7 0.668930 0.628588 0.452100
O O8 0.000000 0.640515 0.500000
O O9 0.678799 0.338355 0.693327
O O10 0.017918 0.352583 0.848563
O O11 0.535898 0.189944 0.880208
O O12 0.623206 0.000000 0.916428
O O13 0.760333 0.500000 0.075560
O O14 0.658603 0.336901 0.115145
O O15 0.681856 0.352067 0.952735
O O16 0.514936 0.500000 0.687113
O O17 0.444506 0.338859 0.748655
#
# Coordination Sequence:
#
# PCOD9153615 Si02
#       7
#     4   4   4   4   4   4   4
#     4   9  18  34  57  85 114 145 183 235 293 337
#     4  10  22  40  59  80 111 152 191 228 280 341
#     4  12  21  36  59  84 111 143 194 238 282 331
#     4   9  17  34  57  82 113 149 190 234 282 336
#     4  11  23  35  50  78 122 162 183 218 284 349
#     4  11  22  35  56  83 112 146 192 239 273 326
#     4  11  20  36  53  79 115 155 188 227 278 342
#
# _framework density 18.187052999999999
#
# number of rings (size 3 to 8) (size 9 to 14) (size 15 to 20)
#    0.000    1.571    2.857    5.143    0.000    2.857 
#    0.000    3.571    0.000    3.000    0.000    0.000 
#    0.000    0.000    0.000    0.000    0.000    0.000 
#
# Total GULP energy -156463.349912 kJ/mol
# GULP energy per Si atom -5587.976783 kJ/mol
# Density = 1.814566 g / cm^3
# Si number density = 18.187053 Si / 1000 Ang^3
#
#
#
# Elastic Constant Matrix: (Units=GPa)
#
#
# Indices 1 2 3 4 5 6 
#
# 1 20.4532 6.6972 -1.6212 0.0000 2.7145 0.0000
# 2 6.6972 115.9932 22.4405 0.0000 1.5583 0.0000
# 3 -1.6212 22.4405 50.8268 0.0000 -2.1557 0.0000
# 4 0.0000 0.0000 0.0000 37.3625 0.0000 23.7657
# 5 2.7145 1.5583 -2.1557 0.0000 17.9978 0.0000
# 6 0.0000 0.0000 0.0000 23.7657 0.0000 69.2131
#
#
#
# Elastic Compliance Matrix: (Units=1/GPa)
#
#
# Indices 1 2 3 4 5 6 
#
# 1 0.051173 -0.003408 0.002837 0.000000 -0.007083 0.000000
# 2 -0.003408 0.009685 -0.004421 0.000000 -0.000854 0.000000
# 3 0.002837 -0.004421 0.021826 0.000000 0.002569 0.000000
# 4 0.000000 0.000000 0.000000 0.034244 0.000000 -0.011758
# 5 -0.007083 -0.000854 0.002569 0.000000 0.057012 0.000000
# 6 0.000000 0.000000 0.000000 -0.011758 0.000000 0.018486
#
#
# Mechanical properties :
#
#
# Convention : Reuss Voigt Hill
#
# Bulk Modulus (GPa) = 13.75539 26.92290 20.33914
# Shear Modulus (GPa) = 22.06108 35.56514 28.81311
#
# Velocity S-wave (km/s) = 3.48661 4.42692 3.98460
# Velocity P-wave (km/s) = 4.87732 6.40044 5.69008
#
# Compressibility (1/GPa) = 0.07269879
#
# Stress axis : x y z
#
# Youngs Moduli (GPa) = 19.54155 103.25548 45.81708
#
# Poissons Ratio (x) = 0.35192 -0.12997
# Poissons Ratio (y) = 0.06660 0.20255
# Poissons Ratio (z) = -0.05543 0.45647
#
# Static dielectric constant tensor:
#      x y z
#    x 1.654450 0.000000 0.004490 
#    y 0.000000 1.614280 0.000000 
#    z 0.004490 0.000000 1.605390 
# 
# From -- ./inp_files/28693.got.cif
#   From: 2010.05.17/outbox.cif.g08.bks.cpg/sg10_15_cif.got.tgz:28693.got - 2010.06.03 11:33:40.
