data_PCOD9153295
_publ_section_title
;
Structure prediction by ZEFSAII (Michael W. Deem and Ramdas Pophale) SiO2 
 PCOD9153295
Probable space group: P 2/M
;
_chemical_formula_sum "Si O2"
_cell_formula_units_Z 28
_cell_length_a 19.857038
_cell_length_b 8.642023
_cell_length_c 14.782903
_cell_angle_alpha 90.000000
_cell_angle_beta 32.816845
_cell_angle_gamma 90.000000
_cell_volume 1374.842950
_symmetry_space_group_name_H-M "P 2/M"
_symmetry_group_IT_number 10
_symmetry_cell_setting 'monoclinic'
loop_
_space_group_symop_operation_xyz
x,y,z
-x,y,-z
-x,-y,-z
x,-y,z
loop_
_atom_site_type_symbol
_atom_site_label
_atom_site_fract_x
_atom_site_fract_y
_atom_site_fract_z
Si Si1 0.955049 0.685043 0.780528
Si Si2 0.110914 0.182038 0.948065
Si Si3 0.263408 0.325050 0.626308
Si Si4 0.523288 0.313183 0.870279
Si Si5 0.216023 0.180976 0.493685
Si Si6 0.541557 0.321279 0.359563
Si Si7 0.691581 0.689203 0.024649
O O1 0.960578 0.500000 0.776755
O O2 0.835943 0.731908 0.854210
O O3 0.088450 0.748197 0.599888
O O4 0.925905 0.745076 0.914869
O O5 0.223638 0.268329 0.770296
O O6 0.136018 0.000000 0.930749
O O7 0.000000 0.199489 0.000000
O O8 0.216732 0.500000 0.664685
O O9 0.213414 0.215555 0.604340
O O10 0.412167 0.328363 0.450952
O O11 0.525953 0.500000 0.862876
O O12 0.656984 0.254432 0.686321
O O13 0.500000 0.266743 0.000000
O O14 0.407669 0.260070 0.938310
O O15 0.217851 0.000000 0.475559
O O16 0.500000 0.244011 0.500000
O O17 0.579682 0.500000 0.337640
O O18 0.642448 0.253935 0.178103
O O19 0.685978 0.500000 0.033175
#
# Coordination Sequence:
#
# PCOD9153295 Si02
#       7
#     4   4   4   4   4   4   4
#     4  11  22  37  61  87 118 162 209 250 297 352
#     4  11  22  34  49  77 122 165 206 253 299 351
#     4  11  20  33  57  82 111 155 210 255 293 347
#     4  10  21  42  72  98 118 148 195 251 308 367
#     4  12  24  39  59  86 124 159 194 244 302 360
#     4   9  16  28  51  82 115 148 189 244 297 341
#     4   9  18  35  59  92 123 148 194 258 306 349
#
# _framework density 20.365960999999999
#
# number of rings (size 3 to 8) (size 9 to 14) (size 15 to 20)
#    0.000    1.571    2.857    3.429    0.000    3.143 
#    0.000    2.143    0.000    6.000    0.000    0.000 
#    0.000    0.000    0.000    0.000    0.000    0.000 
#
# Total GULP energy -156352.395815 kJ/mol
# GULP energy per Si atom -5584.014136 kJ/mol
# Density = 2.031961 g / cm^3
# Si number density = 20.365961 Si / 1000 Ang^3
#
#
#
# Elastic Constant Matrix: (Units=GPa)
#
#
# Indices 1 2 3 4 5 6 
#
# 1 111.2664 18.3820 69.1093 0.0000 -16.0743 0.0000
# 2 18.3820 37.2383 17.8334 0.0000 -6.3544 0.0000
# 3 69.1093 17.8334 107.5114 0.0000 -21.1744 0.0000
# 4 0.0000 0.0000 0.0000 -7.7268 0.0000 -19.6075
# 5 -16.0743 -6.3544 -21.1744 0.0000 35.8560 0.0000
# 6 0.0000 0.0000 0.0000 -19.6075 0.0000 -34.0505
#
#
#
# Elastic Compliance Matrix: (Units=1/GPa)
#
#
# Indices 1 2 3 4 5 6 
#
# 1 0.015306 -0.003013 -0.009158 0.000000 0.000920 0.000000
# 2 -0.003013 0.029983 -0.002553 0.000000 0.002455 0.000000
# 3 -0.009158 -0.002553 0.016651 0.000000 0.005275 0.000000
# 4 0.000000 0.000000 0.000000 0.280589 0.000000 -0.161574
# 5 0.000920 0.002455 0.005275 0.000000 0.031852 0.000000
# 6 0.000000 0.000000 0.000000 -0.161574 0.000000 0.063672
#
#
# Mechanical properties :
#
#
# Convention : Reuss Voigt Hill
#
# Bulk Modulus (GPa) = 30.77722 51.85172 41.31447
# Shear Modulus (GPa) = 10.45300 8.86184 9.65742
#
# Velocity S-wave (km/s) = 2.26798 2.08824 2.17996
# Velocity P-wave (km/s) = 4.69076 5.59728 5.16395
#
# Compressibility (1/GPa) = 0.03249156
#
# Stress axis : x y z
#
# Youngs Moduli (GPa) = 65.33251 33.35225 60.05777
#
# Poissons Ratio (x) = 0.10049 0.55002
# Poissons Ratio (y) = 0.19684 0.15333
# Poissons Ratio (z) = 0.59832 0.08515
#
# Static dielectric constant tensor:
#      x y z
#    x 1.766240 0.000000 -0.042980 
#    y 0.000000 1.684140 0.000000 
#    z -0.042980 0.000000 1.741350 
# 
# From -- ./inp_files/70188.got.cif
#   From: 2010.05.17/outbox.cif.g08.bks.cpg/sg10_36_cif.got.tgz:70188.got - 2010.06.03 11:33:40.
