data_PCOD9153258
_publ_section_title
;
Structure prediction by ZEFSAII (Michael W. Deem and Ramdas Pophale) SiO2 
 PCOD9153258
Probable space group: P 2/M
;
_chemical_formula_sum "Si O2"
_cell_formula_units_Z 24
_cell_length_a 13.234026
_cell_length_b 14.613977
_cell_length_c 11.420419
_cell_angle_alpha 90.000000
_cell_angle_beta 144.960150
_cell_angle_gamma 90.000000
_cell_volume 1268.133007
_symmetry_space_group_name_H-M "P 2/M"
_symmetry_group_IT_number 10
_symmetry_cell_setting 'monoclinic'
loop_
_space_group_symop_operation_xyz
x,y,z
-x,y,-z
-x,-y,-z
x,-y,z
loop_
_atom_site_type_symbol
_atom_site_label
_atom_site_fract_x
_atom_site_fract_y
_atom_site_fract_z
Si Si1 0.714059 0.709958 0.997677
Si Si2 0.938209 0.708575 0.809883
Si Si3 0.624934 0.103976 0.800874
Si Si4 0.788603 0.395133 0.294429
Si Si5 0.623467 0.606898 0.396277
Si Si6 0.232674 0.103455 0.327076
O O1 0.681543 0.817080 0.943097
O O2 0.562115 0.657869 0.782164
O O3 0.710335 0.675542 0.127164
O O4 0.904397 0.683531 0.127574
O O5 0.761457 0.653992 0.613578
O O6 0.894705 0.816167 0.755263
O O7 0.000000 0.691709 0.000000
O O8 0.417524 0.111006 0.571786
O O9 0.721748 0.116801 0.767235
O O10 0.658914 0.000000 0.872778
O O11 0.750154 0.500000 0.218695
O O12 0.706996 0.383717 0.345325
O O13 0.000000 0.385147 0.500000
O O14 0.603028 0.500000 0.402329
O O15 0.164639 0.000000 0.277428
#
# Coordination Sequence:
#
# PCOD9153258 Si02
#       6
#     4   4   4   4   4   4
#     4  12  22  37  66  91 122 159 203 250 308 352
#     4  12  24  37  61  93 127 160 201 248 302 366
#     4   9  18  34  61  90 121 161 203 246 295 359
#     4  10  21  41  67  91 113 151 212 262 298 352
#     4  11  25  44  63  86 120 161 208 257 301 355
#     4   9  18  36  59  87 124 163 204 246 290 353
#
# _framework density 18.925460000000001
#
# number of rings (size 3 to 8) (size 9 to 14) (size 15 to 20)
#    0.000    1.500    5.000    2.000    0.000    4.000 
#    0.000    0.833    0.000    3.500    0.000    0.000 
#    0.000    0.000    0.000    0.000    0.000    0.000 
#
# Total GULP energy -134146.802243 kJ/mol
# GULP energy per Si atom -5589.450093 kJ/mol
# Density = 1.888238 g / cm^3
# Si number density = 18.925460 Si / 1000 Ang^3
#
#
#
# Elastic Constant Matrix: (Units=GPa)
#
#
# Indices 1 2 3 4 5 6 
#
# 1 22.5500 12.0073 3.1552 0.0000 10.5586 0.0000
# 2 12.0073 110.6946 52.4832 0.0000 -7.1540 0.0000
# 3 3.1552 52.4832 84.4703 0.0000 5.9552 0.0000
# 4 0.0000 0.0000 0.0000 137.8766 0.0000 105.9767
# 5 10.5586 -7.1540 5.9552 0.0000 34.7562 0.0000
# 6 0.0000 0.0000 0.0000 105.9767 0.0000 145.0277
#
#
#
# Elastic Compliance Matrix: (Units=1/GPa)
#
#
# Indices 1 2 3 4 5 6 
#
# 1 0.059011 -0.010524 0.005822 0.000000 -0.021091 0.000000
# 2 -0.010524 0.015272 -0.009659 0.000000 0.007996 0.000000
# 3 0.005822 -0.009659 0.018106 0.000000 -0.006859 0.000000
# 4 0.000000 0.000000 0.000000 0.016546 0.000000 -0.012091
# 5 -0.021091 0.007996 -0.006859 0.000000 0.038000 0.000000
# 6 0.000000 0.000000 0.000000 -0.012091 0.000000 0.015731
#
#
# Mechanical properties :
#
#
# Convention : Reuss Voigt Hill
#
# Bulk Modulus (GPa) = 15.70729 39.22292 27.46511
# Shear Modulus (GPa) = 23.51709 73.53672 48.52690
#
# Velocity S-wave (km/s) = 3.52890 6.24022 5.06919
# Velocity P-wave (km/s) = 4.99217 8.52587 6.98613
#
# Compressibility (1/GPa) = 0.06366471
#
# Stress axis : x y z
#
# Youngs Moduli (GPa) = 16.94611 65.47957 55.22983
#
# Poissons Ratio (x) = 0.68912 -0.32153
# Poissons Ratio (y) = 0.17834 0.53348
# Poissons Ratio (z) = -0.09865 0.63249
#
# Static dielectric constant tensor:
#      x y z
#    x 1.649430 0.000000 0.025740 
#    y 0.000000 1.652110 0.000000 
#    z 0.025740 0.000000 1.665090 
# 
# From -- ./inp_files/51520.got.cif
#   From: 2010.05.17/outbox.cif.g08.bks.cpg/sg10_26_cif.got.tgz:51520.got - 2010.06.03 11:33:40.
