data_PCOD9153682
_publ_section_title
;
Structure prediction by ZEFSAII (Michael W. Deem and Ramdas Pophale) SiO2 
 PCOD9153682
Probable space group: P 2/M
;
_chemical_formula_sum "Si O2"
_cell_formula_units_Z 28
_cell_length_a 14.916002
_cell_length_b 18.893256
_cell_length_c 9.109400
_cell_angle_alpha 90.000000
_cell_angle_beta 30.649503
_cell_angle_gamma 90.000000
_cell_volume 1308.687580
_symmetry_space_group_name_H-M "P 2/M"
_symmetry_group_IT_number 10
_symmetry_cell_setting 'monoclinic'
loop_
_space_group_symop_operation_xyz
x,y,z
-x,y,-z
-x,-y,-z
x,-y,z
loop_
_atom_site_type_symbol
_atom_site_label
_atom_site_fract_x
_atom_site_fract_y
_atom_site_fract_z
Si Si1 0.190249 0.827385 0.808696
Si Si2 0.691934 0.304514 0.188789
Si Si3 0.793587 0.267630 0.748585
Si Si4 0.696284 0.423571 0.787612
Si Si5 0.687049 0.855874 0.671689
Si Si6 0.035320 0.918646 0.282843
Si Si7 0.962270 0.419970 0.889740
O O1 0.242607 0.749089 0.780247
O O2 0.319148 0.849410 0.495388
O O3 0.162794 0.875169 0.993620
O O4 0.000000 0.826423 0.000000
O O5 0.500000 0.332090 0.500000
O O6 0.689596 0.255678 0.046377
O O7 0.832922 0.367714 0.986409
O O8 0.736445 0.348753 0.803412
O O9 0.745818 0.216433 0.679048
O O10 0.000000 0.264039 0.500000
O O11 0.712833 0.500000 0.846224
O O12 0.848320 0.424900 0.451983
O O13 0.500000 0.421257 0.000000
O O14 0.841755 0.910973 0.486381
O O15 0.500000 0.876121 0.000000
O O16 0.000000 0.892720 0.500000
O O17 0.092721 0.000000 0.209713
O O18 0.888744 0.500000 0.002088
O O19 0.000000 0.393303 0.000000
#
# Coordination Sequence:
#
# PCOD9153682 Si02
#       7
#     4   4   4   4   4   4   4
#     4  10  22  40  64  89 123 169 210 256 303 375
#     4  12  25  38  60  90 126 162 205 262 320 379
#     4  12  23  39  61  90 123 161 207 266 319 373
#     4  10  23  41  62  85 116 162 212 261 318 383
#     4  11  23  39  64  94 126 163 211 262 307 370
#     4  10  22  42  68  95 128 168 205 249 309 373
#     4  10  23  41  61  85 120 163 208 262 322 386
#
# _framework density 21.395479999999999
#
# number of rings (size 3 to 8) (size 9 to 14) (size 15 to 20)
#    0.000    1.286    1.429    4.714    4.000    4.000 
#    0.000    0.000    0.000    2.143    0.000    0.000 
#    0.000    0.000    0.000    0.000    0.000    0.000 
#
# Total GULP energy -156165.608503 kJ/mol
# GULP energy per Si atom -5577.343161 kJ/mol
# Density = 2.134678 g / cm^3
# Si number density = 21.395480 Si / 1000 Ang^3
#
#
#
# Elastic Constant Matrix: (Units=GPa)
#
#
# Indices 1 2 3 4 5 6 
#
# 1 59.7098 33.8805 28.9114 0.0000 22.0101 0.0000
# 2 33.8805 81.8638 15.3285 0.0000 -4.0417 0.0000
# 3 28.9114 15.3285 129.8415 0.0000 1.0827 0.0000
# 4 0.0000 0.0000 0.0000 20.3100 0.0000 0.8400
# 5 22.0101 -4.0417 1.0827 0.0000 35.1543 0.0000
# 6 0.0000 0.0000 0.0000 0.8400 0.0000 25.3491
#
#
#
# Elastic Compliance Matrix: (Units=1/GPa)
#
#
# Indices 1 2 3 4 5 6 
#
# 1 0.038374 -0.015941 -0.006449 0.000000 -0.025660 0.000000
# 2 -0.015941 0.019191 0.001183 0.000000 0.012151 0.000000
# 3 -0.006449 0.001183 0.008966 0.000000 0.003897 0.000000
# 4 0.000000 0.000000 0.000000 0.049304 0.000000 -0.001634
# 5 -0.025660 0.012151 0.003897 0.000000 0.045789 0.000000
# 6 0.000000 0.000000 0.000000 -0.001634 0.000000 0.039503
#
#
# Mechanical properties :
#
#
# Convention : Reuss Voigt Hill
#
# Bulk Modulus (GPa) = 41.46527 47.51731 44.49129
# Shear Modulus (GPa) = 19.87426 29.04899 24.46163
#
# Velocity S-wave (km/s) = 3.05109 3.68872 3.38495
# Velocity P-wave (km/s) = 5.64222 6.35606 6.00975
#
# Compressibility (1/GPa) = 0.02411657
#
# Stress axis : x y z
#
# Youngs Moduli (GPa) = 26.05902 52.10679 111.53852
#
# Poissons Ratio (x) = 0.83064 0.71929
# Poissons Ratio (y) = 0.41541 -0.13191
# Poissons Ratio (z) = 0.16805 -0.06162
#
# Static dielectric constant tensor:
#      x y z
#    x 5.758800 0.000000 4.793720 
#    y 0.000000 1.796820 0.000000 
#    z 4.793720 0.000000 7.499330 
# 
# From -- ./inp_files/30422.got.cif
#   From: 2010.05.17/outbox.cif.g08.bks.cpg/sg10_16_cif.got.tgz:30422.got - 2010.06.03 11:33:40.
