data_PCOD9153390
_publ_section_title
;
Structure prediction by ZEFSAII (Michael W. Deem and Ramdas Pophale) SiO2 
 PCOD9153390
Probable space group: P 2/M
;
_chemical_formula_sum "Si O2"
_cell_formula_units_Z 26
_cell_length_a 10.487439
_cell_length_b 16.907810
_cell_length_c 11.686257
_cell_angle_alpha 90.000000
_cell_angle_beta 143.012419
_cell_angle_gamma 90.000000
_cell_volume 1246.723988
_symmetry_space_group_name_H-M "P 2/M"
_symmetry_group_IT_number 10
_symmetry_cell_setting 'monoclinic'
loop_
_space_group_symop_operation_xyz
x,y,z
-x,y,-z
-x,-y,-z
x,-y,z
loop_
_atom_site_type_symbol
_atom_site_label
_atom_site_fract_x
_atom_site_fract_y
_atom_site_fract_z
Si Si1 0.520708 0.367908 0.285010
Si Si2 0.256401 0.500000 0.394899
Si Si3 0.704322 0.757911 0.570329
Si Si4 0.834091 0.092161 0.546615
Si Si5 0.209833 0.340358 0.725157
Si Si6 0.278490 0.848852 0.785280
Si Si7 0.939763 0.639049 0.128104
O O1 0.601074 0.431876 0.434111
O O2 0.642705 0.287734 0.409113
O O3 0.607558 0.382424 0.218377
O O4 0.267829 0.359713 0.099603
O O5 0.105582 0.568900 0.230705
O O6 0.500000 0.742207 0.500000
O O7 0.736039 0.849694 0.569488
O O8 0.919853 0.718660 0.771323
O O9 0.739763 0.117769 0.355889
O O10 0.081982 0.114113 0.712758
O O11 0.803870 0.000000 0.545092
O O12 0.255267 0.246643 0.770024
O O13 0.152624 0.371987 0.809205
O O14 0.000000 0.351431 0.500000
O O15 0.500000 0.869853 0.000000
#
# Coordination Sequence:
#
# PCOD9153390 Si02
#       7
#     4   2   4   4   4   4   4
#     4  11  22  39  62  88 120 158 199 241 297 355
#     4  10  22  37  59  92 128 154 189 243 296 356
#     4  11  24  42  62  84 114 156 207 253 292 346
#     4  11  23  38  58  91 126 153 192 241 293 355
#     4  12  18  35  61  90 122 159 195 244 290 351
#     4  11  19  35  61  91 122 153 191 238 294 352
#     4  11  22  39  62  88 120 158 199 241 297 355
#
# _framework density 20.854655000000001
#
# number of rings (size 3 to 8) (size 9 to 14) (size 15 to 20)
#    0.000    0.923    7.692    2.769    0.000    3.385 
#    0.000    7.692    0.000    7.385    0.000    4.308 
#    0.000    0.000    0.000    0.000    0.000    0.000 
#
# Total GULP energy -144834.103640 kJ/mol
# GULP energy per Si atom -5570.542448 kJ/mol
# Density = 2.080719 g / cm^3
# Si number density = 20.854655 Si / 1000 Ang^3
#
#
#
# Elastic Constant Matrix: (Units=GPa)
#
#
# Indices 1 2 3 4 5 6 
#
# 1 58.8545 -9.7457 10.2857 0.0000 12.4344 0.0000
# 2 -9.7457 91.3933 23.0148 0.0000 0.8831 0.0000
# 3 10.2857 23.0148 153.9257 0.0000 23.0613 0.0000
# 4 0.0000 0.0000 0.0000 8.5976 0.0000 6.3835
# 5 12.4344 0.8831 23.0613 0.0000 17.8879 0.0000
# 6 0.0000 0.0000 0.0000 6.3835 0.0000 41.3483
#
#
#
# Elastic Compliance Matrix: (Units=1/GPa)
#
#
# Indices 1 2 3 4 5 6 
#
# 1 0.020430 0.002183 0.000561 0.000000 -0.015032 0.000000
# 2 0.002183 0.011662 -0.001953 0.000000 0.000425 0.000000
# 3 0.000561 -0.001953 0.008422 0.000000 -0.011151 0.000000
# 4 0.000000 0.000000 0.000000 0.131371 0.000000 -0.020281
# 5 -0.015032 0.000425 -0.011151 0.000000 0.080708 0.000000
# 6 0.000000 0.000000 0.000000 -0.020281 0.000000 0.027316
#
#
# Mechanical properties :
#
#
# Convention : Reuss Voigt Hill
#
# Bulk Modulus (GPa) = 23.75611 39.03145 31.39378
# Shear Modulus (GPa) = 17.10220 32.27466 24.68843
#
# Velocity S-wave (km/s) = 2.86679 3.93822 3.44442
# Velocity P-wave (km/s) = 4.73011 6.27981 5.55923
#
# Compressibility (1/GPa) = 0.04209443
#
# Stress axis : x y z
#
# Youngs Moduli (GPa) = 48.94668 85.74683 118.73870
#
# Poissons Ratio (x) = -0.18716 -0.06656
# Poissons Ratio (y) = -0.10684 0.23193
# Poissons Ratio (z) = -0.02744 0.16749
#
# Static dielectric constant tensor:
#      x y z
#    x 1.823960 0.000000 -0.047340 
#    y 0.000000 1.714040 0.000000 
#    z -0.047340 0.000000 1.650490 
# 
# From -- ./inp_files/65282.got.cif
#   From: 2010.05.17/outbox.cif.g08.bks.cpg/sg10_33_cif.got.tgz:65282.got - 2010.06.03 11:33:40.
