data_PCOD9153137
_publ_section_title
;
Structure prediction by ZEFSAII (Michael W. Deem and Ramdas Pophale) SiO2 
 PCOD9153137
Probable space group: P 2/M
;
_chemical_formula_sum "Si O2"
_cell_formula_units_Z 29
_cell_length_a 12.291323
_cell_length_b 14.502283
_cell_length_c 8.806486
_cell_angle_alpha 90.000000
_cell_angle_beta 108.437482
_cell_angle_gamma 90.000000
_cell_volume 1489.198226
_symmetry_space_group_name_H-M "P 2/M"
_symmetry_group_IT_number 10
_symmetry_cell_setting 'monoclinic'
loop_
_space_group_symop_operation_xyz
x,y,z
-x,y,-z
-x,-y,-z
x,-y,z
loop_
_atom_site_type_symbol
_atom_site_label
_atom_site_fract_x
_atom_site_fract_y
_atom_site_fract_z
Si Si1 0.717519 0.895841 0.429981
Si Si2 0.516160 0.638881 0.235817
Si Si3 0.245177 0.106068 0.210762
Si Si4 0.296243 0.396126 0.938901
Si Si5 0.102685 0.248701 0.948093
Si Si6 0.500000 0.500000 0.500000
Si Si7 0.082942 0.892344 0.681961
Si Si8 0.514039 0.852914 0.823352
O O1 0.732426 0.859561 0.606641
O O2 0.795306 0.856327 0.330238
O O3 0.589402 0.898642 0.313331
O O4 0.762518 0.000000 0.461652
O O5 0.625225 0.626174 0.173000
O O6 0.537016 0.580908 0.394318
O O7 0.495117 0.747477 0.235053
O O8 0.395390 0.604159 0.111684
O O9 0.365616 0.106699 0.175251
O O10 0.201845 0.000000 0.193719
O O11 0.166016 0.176308 0.086323
O O12 0.249300 0.500000 0.905813
O O13 0.196950 0.321850 0.929384
O O14 0.051078 0.182323 0.794048
O O15 0.000000 0.293426 0.000000
O O16 0.000000 0.891017 0.500000
O O17 0.089032 0.000000 0.739755
O O18 0.500000 0.858194 0.000000
#
# Coordination Sequence:
#
# PCOD9153137 Si02
#       8
#     4   4   4   4   4   1   4   4
#     4  10  22  37  55  85 126 169 208 255 315 374
#     4  11  21  39  64  96 127 156 202 251 317 378
#     4  11  23  39  58  89 130 168 211 266 317 374
#     4  11  21  44  66  87 128 165 200 259 319 381
#     4  12  25  41  66  95 120 170 223 263 320 381
#     4  12  24  34  64 108 120 162 202 264 318 374
#     4  10  21  40  63  89 123 166 215 269 317 369
#     4  12  22  36  59  90 129 168 206 251 317 388
#
# _framework density 19.473566000000002
#
# number of rings (size 3 to 8) (size 9 to 14) (size 15 to 20)
#    0.000    0.966    4.138    4.138    1.931    5.793 
#    0.000    0.000    0.000    0.414    0.000    0.000 
#    0.000    0.000    0.000    0.000    0.000    0.000 
#
# Total GULP energy -161558.311967 kJ/mol
# GULP energy per Si atom -5570.976275 kJ/mol
# Density = 1.942924 g / cm^3
# Si number density = 19.473566 Si / 1000 Ang^3
#
#
#
# Elastic Constant Matrix: (Units=GPa)
#
#
# Indices 1 2 3 4 5 6 
#
# 1 96.5794 27.4048 17.6780 0.0000 -6.3381 0.0000
# 2 27.4048 123.9504 28.4274 0.0000 -8.0550 0.0000
# 3 17.6780 28.4274 54.1388 0.0000 -5.4332 0.0000
# 4 0.0000 0.0000 0.0000 29.4020 0.0000 -1.1357
# 5 -6.3381 -8.0550 -5.4332 0.0000 26.9863 0.0000
# 6 0.0000 0.0000 0.0000 -1.1357 0.0000 17.8617
#
#
#
# Elastic Compliance Matrix: (Units=1/GPa)
#
#
# Indices 1 2 3 4 5 6 
#
# 1 0.011458 -0.001827 -0.002620 0.000000 0.001618 0.000000
# 2 -0.001827 0.009551 -0.004261 0.000000 0.001564 0.000000
# 3 -0.002620 -0.004261 0.021815 0.000000 0.002505 0.000000
# 4 0.000000 0.000000 0.000000 0.034095 0.000000 0.002168
# 5 0.001618 0.001564 0.002505 0.000000 0.038407 0.000000
# 6 0.000000 0.000000 0.000000 0.002168 0.000000 0.056123
#
#
# Mechanical properties :
#
#
# Convention : Reuss Voigt Hill
#
# Bulk Modulus (GPa) = 39.35790 46.85434 43.10612
# Shear Modulus (GPa) = 25.33753 28.26057 26.79905
#
# Velocity S-wave (km/s) = 3.61102 3.81363 3.71371
# Velocity P-wave (km/s) = 6.13521 6.59579 6.36966
#
# Compressibility (1/GPa) = 0.02540786
#
# Stress axis : x y z
#
# Youngs Moduli (GPa) = 87.27216 104.70441 45.83933
#
# Poissons Ratio (x) = 0.19134 0.12008
# Poissons Ratio (y) = 0.15948 0.19533
# Poissons Ratio (z) = 0.22861 0.44617
#
# Static dielectric constant tensor:
#      x y z
#    x 1.736880 0.000000 -0.019560 
#    y 0.000000 1.798870 0.000000 
#    z -0.019560 0.000000 1.703710 
# 
# From -- ./inp_files/25096.got.cif
#   From: 2010.05.17/outbox.cif.g08.bks.cpg/sg10_13_cif.got.tgz:25096.got - 2010.06.03 11:33:40.
