data_PCOD9153210
_publ_section_title
;
Structure prediction by ZEFSAII (Michael W. Deem and Ramdas Pophale) SiO2 
 PCOD9153210
Probable space group: P 2/M
;
_chemical_formula_sum "Si O2"
_cell_formula_units_Z 28
_cell_length_a 10.744899
_cell_length_b 13.799356
_cell_length_c 9.746140
_cell_angle_alpha 90.000000
_cell_angle_beta 66.145030
_cell_angle_gamma 90.000000
_cell_volume 1321.635642
_symmetry_space_group_name_H-M "P 2/M"
_symmetry_group_IT_number 10
_symmetry_cell_setting 'monoclinic'
loop_
_space_group_symop_operation_xyz
x,y,z
-x,y,-z
-x,-y,-z
x,-y,z
loop_
_atom_site_type_symbol
_atom_site_label
_atom_site_fract_x
_atom_site_fract_y
_atom_site_fract_z
Si Si1 0.081125 0.614089 0.206611
Si Si2 0.811123 0.887421 0.845118
Si Si3 0.809179 0.264769 0.605493
Si Si4 0.665599 0.885053 0.195014
Si Si5 0.512499 0.721529 0.654766
Si Si6 0.620981 0.384438 0.048494
Si Si7 0.093528 0.210821 0.738703
O O1 0.053173 0.500000 0.212490
O O2 0.108248 0.653109 0.348836
O O3 0.962185 0.681864 0.198684
O O4 0.226447 0.635886 0.070210
O O5 0.785566 0.819970 0.726524
O O6 0.964737 0.859126 0.821100
O O7 0.803956 0.000000 0.812839
O O8 0.709853 0.869539 0.017276
O O9 0.663332 0.306629 0.630905
O O10 0.872772 0.220069 0.438766
O O11 0.523968 0.832867 0.292736
O O12 0.778156 0.831016 0.238395
O O13 0.664900 0.000000 0.221356
O O14 0.500000 0.706473 0.500000
O O15 0.407486 0.660782 0.791675
O O16 0.608036 0.500000 0.060814
O O17 0.500000 0.349023 0.000000
#
# Coordination Sequence:
#
# PCOD9153210 Si02
#       7
#     4   4   4   4   4   4   4
#     4  10  21  40  70  99 126 165 212 262 318 376
#     4  10  22  39  63  90 118 161 214 266 319 375
#     4  11  23  39  61  95 126 165 212 261 320 373
#     4  11  25  43  64  92 128 172 216 264 320 375
#     4  12  24  42  63  93 129 171 211 263 321 379
#     4  10  21  40  68  95 122 163 209 256 313 375
#     4  11  22  40  62  93 129 168 209 258 318 379
#
# _framework density 21.185870000000001
#
# number of rings (size 3 to 8) (size 9 to 14) (size 15 to 20)
#    0.000    1.286    2.857    4.286    0.000    5.143 
#    0.000    2.143    0.000   10.286    0.000    0.000 
#    0.000    0.000    0.000    0.000    0.000    0.000 
#
# Total GULP energy -156514.236603 kJ/mol
# GULP energy per Si atom -5589.794164 kJ/mol
# Density = 2.113765 g / cm^3
# Si number density = 21.185870 Si / 1000 Ang^3
#
#
#
# Elastic Constant Matrix: (Units=GPa)
#
#
# Indices 1 2 3 4 5 6 
#
# 1 34.7773 1.8288 1.8606 0.0000 -8.1302 0.0000
# 2 1.8288 86.2281 33.0787 0.0000 7.6468 0.0000
# 3 1.8606 33.0787 127.5319 0.0000 0.8165 0.0000
# 4 0.0000 0.0000 0.0000 5.2641 0.0000 2.6168
# 5 -8.1302 7.6468 0.8165 0.0000 7.5515 0.0000
# 6 0.0000 0.0000 0.0000 2.6168 0.0000 21.5173
#
#
#
# Elastic Compliance Matrix: (Units=1/GPa)
#
#
# Indices 1 2 3 4 5 6 
#
# 1 0.040458 -0.005390 0.000494 0.000000 0.048962 0.000000
# 2 -0.005390 0.014938 -0.003664 0.000000 -0.020533 0.000000
# 3 0.000494 -0.003664 0.008763 0.000000 0.003295 0.000000
# 4 0.000000 0.000000 0.000000 0.202190 0.000000 -0.024589
# 5 0.048962 -0.020533 0.003295 0.000000 0.205573 0.000000
# 6 0.000000 0.000000 0.000000 -0.024589 0.000000 0.049465
#
#
# Mechanical properties :
#
#
# Convention : Reuss Voigt Hill
#
# Bulk Modulus (GPa) = 21.25880 35.78595 28.52238
# Shear Modulus (GPa) = 9.02224 20.98452 15.00338
#
# Velocity S-wave (km/s) = 2.06588 3.15063 2.66405
# Velocity P-wave (km/s) = 3.96821 5.49212 4.79114
#
# Compressibility (1/GPa) = 0.04703934
#
# Stress axis : x y z
#
# Youngs Moduli (GPa) = 24.71718 66.94298 114.11164
#
# Poissons Ratio (x) = 0.36080 -0.05640
# Poissons Ratio (y) = 0.13322 0.41816
# Poissons Ratio (z) = -0.01222 0.24531
#
# Static dielectric constant tensor:
#      x y z
#    x 1.790400 0.000000 -0.018600 
#    y 0.000000 1.751260 0.000000 
#    z -0.018600 0.000000 1.777760 
# 
# From -- ./inp_files/25186.got.cif
#   From: 2010.05.17/outbox.cif.g08.bks.cpg/sg10_13_cif.got.tgz:25186.got - 2010.06.03 11:33:40.
