data_PCOD9153407
_publ_section_title
;
Structure prediction by ZEFSAII (Michael W. Deem and Ramdas Pophale) SiO2 
 PCOD9153407
Probable space group: P 2/M
;
_chemical_formula_sum "Si O2"
_cell_formula_units_Z 28
_cell_length_a 9.711494
_cell_length_b 7.808059
_cell_length_c 25.865041
_cell_angle_alpha 90.000000
_cell_angle_beta 141.778714
_cell_angle_gamma 90.000000
_cell_volume 1213.452093
_symmetry_space_group_name_H-M "P 2/M"
_symmetry_group_IT_number 10
_symmetry_cell_setting 'monoclinic'
loop_
_space_group_symop_operation_xyz
x,y,z
-x,y,-z
-x,-y,-z
x,-y,z
loop_
_atom_site_type_symbol
_atom_site_label
_atom_site_fract_x
_atom_site_fract_y
_atom_site_fract_z
Si Si1 0.422060 0.292914 0.204741
Si Si2 0.006568 0.198135 0.239202
Si Si3 0.478571 0.296963 0.880038
Si Si4 0.439683 0.795066 0.319903
Si Si5 0.057202 0.695697 0.955404
Si Si6 0.751639 0.700845 0.585491
Si Si7 0.152158 0.207343 0.496517
O O1 0.415364 0.500000 0.201094
O O2 0.522299 0.232410 0.179793
O O3 0.534826 0.242475 0.291414
O O4 0.167316 0.223925 0.133214
O O5 0.761829 0.275068 0.166557
O O6 0.193281 0.276407 0.256689
O O7 0.119045 0.212930 0.329114
O O8 0.976331 0.000000 0.217296
O O9 0.522712 0.500000 0.889653
O O10 0.696119 0.225504 0.973925
O O11 0.602976 0.734135 0.412925
O O12 0.428871 0.000000 0.321934
O O13 0.067986 0.500000 0.938642
O O14 0.000000 0.687450 0.000000
O O15 0.500000 0.767950 0.500000
O O16 0.734631 0.500000 0.592890
O O17 0.887193 0.722374 0.572065
O O18 0.000000 0.258771 0.500000
O O19 0.143896 0.000000 0.490827
#
# Coordination Sequence:
#
# PCOD9153407 Si02
#       7
#     4   4   4   4   4   4   4
#     4   9  18  33  57  84 109 141 178 222 276 323
#     4  11  23  38  56  77 109 150 185 217 265 326
#     4   9  18  34  57  85 111 137 179 229 269 316
#     4  10  22  38  53  76 111 147 182 221 267 320
#     4   7  12  28  53  79 108 140 174 216 269 323
#     4  11  23  39  60  84 108 139 181 227 273 317
#     4  10  22  40  60  81 108 146 185 221 267 321
#
# _framework density 23.074666000000001
#
# number of rings (size 3 to 8) (size 9 to 14) (size 15 to 20)
#    0.000    2.429    1.429    2.571    2.000    3.143 
#    0.000    1.429    0.000    6.857    0.000    0.000 
#    0.000    0.000    0.000    0.000    0.000    0.000 
#
# Total GULP energy -156237.402027 kJ/mol
# GULP energy per Si atom -5579.907215 kJ/mol
# Density = 2.302215 g / cm^3
# Si number density = 23.074666 Si / 1000 Ang^3
#
#
#
# Elastic Constant Matrix: (Units=GPa)
#
#
# Indices 1 2 3 4 5 6 
#
# 1 66.9271 -1.1202 -7.8383 0.0000 12.1761 0.0000
# 2 -1.1202 27.0556 -2.9883 0.0000 5.9030 0.0000
# 3 -7.8383 -2.9883 21.1109 0.0000 10.8705 0.0000
# 4 0.0000 0.0000 0.0000 -36.7649 0.0000 20.4731
# 5 12.1761 5.9030 10.8705 0.0000 42.5151 0.0000
# 6 0.0000 0.0000 0.0000 20.4731 0.0000 14.5905
#
#
#
# Elastic Compliance Matrix: (Units=1/GPa)
#
#
# Indices 1 2 3 4 5 6 
#
# 1 0.017955 0.003928 0.011690 0.000000 -0.008677 0.000000
# 2 0.003928 0.040648 0.012319 0.000000 -0.009919 0.000000
# 3 0.011690 0.012319 0.064558 0.000000 -0.021565 0.000000
# 4 0.000000 0.000000 0.000000 -0.015269 0.000000 0.021425
# 5 -0.008677 -0.009919 -0.021565 0.000000 0.032897 0.000000
# 6 0.000000 0.000000 0.000000 0.021425 0.000000 0.038474
#
#
# Mechanical properties :
#
#
# Convention : Reuss Voigt Hill
#
# Bulk Modulus (GPa) = 5.58548 10.13333 7.85941
# Shear Modulus (GPa) = 27.31238 12.53750 19.92494
#
# Velocity S-wave (km/s) = 3.44416 2.33350 2.94172
# Velocity P-wave (km/s) = 4.27108 3.41488 3.86675
#
# Compressibility (1/GPa) = 0.17903564
#
# Stress axis : x y z
#
# Youngs Moduli (GPa) = 55.69461 24.60134 15.49003
#
# Poissons Ratio (x) = -0.09663 -0.18108
# Poissons Ratio (y) = -0.21875 -0.19083
# Poissons Ratio (z) = -0.65109 -0.30307
#
# Static dielectric constant tensor:
#      x y z
#    x 1.876700 0.000000 0.052190 
#    y 0.000000 1.843800 0.000000 
#    z 0.052190 0.000000 1.895660 
# 
# From -- ./inp_files/37227.got.cif
#   From: 2010.05.17/outbox.cif.g08.bks.cpg/sg10_19_cif.got.tgz:37227.got - 2010.06.03 11:33:40.
