data_PCOD9153892
_publ_section_title
;
Structure prediction by ZEFSAII (Michael W. Deem and Ramdas Pophale) SiO2 
 PCOD9153892
Probable space group: P 2/M
;
_chemical_formula_sum "Si O2"
_cell_formula_units_Z 30
_cell_length_a 6.560973
_cell_length_b 14.082844
_cell_length_c 17.223755
_cell_angle_alpha 90.000000
_cell_angle_beta 113.720270
_cell_angle_gamma 90.000000
_cell_volume 1456.982896
_symmetry_space_group_name_H-M "P 2/M"
_symmetry_group_IT_number 10
_symmetry_cell_setting 'monoclinic'
loop_
_space_group_symop_operation_xyz
x,y,z
-x,y,-z
-x,-y,-z
x,-y,z
loop_
_atom_site_type_symbol
_atom_site_label
_atom_site_fract_x
_atom_site_fract_y
_atom_site_fract_z
Si Si1 0.167570 0.890822 0.098871
Si Si2 0.000000 0.822290 0.500000
Si Si3 0.283661 0.103092 0.410928
Si Si4 0.571091 0.394120 0.100213
Si Si5 0.962280 0.746777 0.189923
Si Si6 0.355701 0.611197 0.229453
Si Si7 0.438545 0.227884 0.647286
Si Si8 0.344412 0.890107 0.778731
O O1 0.435580 0.875305 0.132382
O O2 0.080071 0.813129 0.144874
O O3 0.147572 0.000000 0.124425
O O4 0.000000 0.883955 0.000000
O O5 0.921520 0.881895 0.562561
O O6 0.779659 0.766784 0.439485
O O7 0.500000 0.096947 0.500000
O O8 0.344889 0.194535 0.368366
O O9 0.264151 0.000000 0.367742
O O10 0.666054 0.500000 0.132169
O O11 0.743925 0.309612 0.130885
O O12 0.388157 0.379191 0.140689
O O13 0.500000 0.396883 0.000000
O O14 0.862576 0.821936 0.235178
O O15 0.134262 0.660838 0.228039
O O16 0.367341 0.500000 0.249190
O O17 0.539325 0.676492 0.299555
O O18 0.419061 0.141077 0.704798
O O19 0.284362 0.000000 0.774967
#
# Coordination Sequence:
#
# PCOD9153892 Si02
#       8
#     4   2   4   4   4   4   4   4
#     4  10  23  40  59  88 129 173 216 261 316 386
#     4  10  23  38  65  96 134 170 209 264 333 388
#     4   9  19  36  60  92 131 168 205 252 318 388
#     4  10  23  41  64  96 129 163 215 279 339 394
#     4  12  22  38  63  92 123 171 210 267 325 385
#     4  11  25  45  66  93 128 170 223 281 335 390
#     4  11  22  42  63  95 129 172 215 270 326 394
#     4  11  24  41  62  95 132 171 218 262 316 391
#
# _framework density 20.590495000000001
#
# number of rings (size 3 to 8) (size 9 to 14) (size 15 to 20)
#    0.000    1.467    2.667    1.400    5.600    1.600 
#    0.000    4.333    0.000    3.600    0.000    0.000 
#    0.000    0.000    0.000    0.000    0.000    0.000 
#
# Total GULP energy -167222.534636 kJ/mol
# GULP energy per Si atom -5574.084488 kJ/mol
# Density = 2.054363 g / cm^3
# Si number density = 20.590495 Si / 1000 Ang^3
#
#
#
# Elastic Constant Matrix: (Units=GPa)
#
#
# Indices 1 2 3 4 5 6 
#
# 1 99.6048 50.7606 25.6007 0.0000 -0.4204 0.0000
# 2 50.7606 120.2774 30.2388 0.0000 -13.6378 0.0000
# 3 25.6007 30.2388 65.9068 0.0000 2.2231 0.0000
# 4 0.0000 0.0000 0.0000 2.1836 0.0000 -12.4105
# 5 -0.4204 -13.6378 2.2231 0.0000 27.8241 0.0000
# 6 0.0000 0.0000 0.0000 -12.4105 0.0000 30.0649
#
#
#
# Elastic Compliance Matrix: (Units=1/GPa)
#
#
# Indices 1 2 3 4 5 6 
#
# 1 0.013386 -0.005201 -0.002741 0.000000 -0.002128 0.000000
# 2 -0.005201 0.012157 -0.003766 0.000000 0.006181 0.000000
# 3 -0.002741 -0.003766 0.018078 0.000000 -0.003332 0.000000
# 4 0.000000 0.000000 0.000000 -0.340216 0.000000 -0.140438
# 5 -0.002128 0.006181 -0.003332 0.000000 0.039204 0.000000
# 6 0.000000 0.000000 0.000000 -0.140438 0.000000 -0.024710
#
#
# Mechanical properties :
#
#
# Convention : Reuss Voigt Hill
#
# Bulk Modulus (GPa) = 49.49584 55.44323 52.46954
# Shear Modulus (GPa) = -19.84520 23.96046 2.05763
#
# Velocity S-wave (km/s) = -3.10789 3.41496 1.00074
# Velocity P-wave (km/s) = 3.34840 6.52183 5.18392
#
# Compressibility (1/GPa) = 0.02020372
#
# Stress axis : x y z
#
# Youngs Moduli (GPa) = 74.70480 82.25835 55.31602
#
# Poissons Ratio (x) = 0.42786 0.15164
# Poissons Ratio (y) = 0.38857 0.20831
# Poissons Ratio (z) = 0.20479 0.30976
#
# Static dielectric constant tensor:
#      x y z
#    x 1.790370 0.000000 0.019890 
#    y 0.000000 1.729690 0.000000 
#    z 0.019890 0.000000 1.796220 
# 
# From -- ./inp_files/73563.got.cif
#   From: 2010.05.17/outbox.cif.g08.bks.cpg/sg10_37_cif.got.tgz:73563.got - 2010.06.03 11:33:40.
