data_PCOD9153380
_publ_section_title
;
Structure prediction by ZEFSAII (Michael W. Deem and Ramdas Pophale) SiO2 
 PCOD9153380
Probable space group: P 2/M
;
_chemical_formula_sum "Si O2"
_cell_formula_units_Z 28
_cell_length_a 15.570749
_cell_length_b 18.488059
_cell_length_c 8.588386
_cell_angle_alpha 90.000000
_cell_angle_beta 142.586032
_cell_angle_gamma 90.000000
_cell_volume 1502.132819
_symmetry_space_group_name_H-M "P 2/M"
_symmetry_group_IT_number 10
_symmetry_cell_setting 'monoclinic'
loop_
_space_group_symop_operation_xyz
x,y,z
-x,y,-z
-x,-y,-z
x,-y,z
loop_
_atom_site_type_symbol
_atom_site_label
_atom_site_fract_x
_atom_site_fract_y
_atom_site_fract_z
Si Si1 0.657824 0.255232 0.897050
Si Si2 0.419010 0.583967 0.127832
Si Si3 0.117273 0.821980 0.554469
Si Si4 0.895775 0.711578 0.707467
Si Si5 0.284799 0.419366 0.589400
Si Si6 0.663875 0.206402 0.558554
Si Si7 0.847017 0.085939 0.699659
O O1 0.644783 0.343252 0.886856
O O2 0.701289 0.233526 0.785130
O O3 0.501579 0.221545 0.699086
O O4 0.758739 0.216866 0.168811
O O5 0.401066 0.500000 0.162997
O O6 0.586898 0.597703 0.344979
O O7 0.352844 0.583057 0.859290
O O8 0.048502 0.755886 0.358169
O O9 0.157570 0.880478 0.481020
O O10 0.000000 0.853504 0.500000
O O11 0.849178 0.631489 0.604576
O O12 0.750225 0.749190 0.553513
O O13 0.000000 0.716249 0.000000
O O14 0.240070 0.500000 0.489577
O O15 0.723334 0.125678 0.618429
O O16 0.832057 0.000000 0.676062
O O17 0.000000 0.103625 0.000000
#
# Coordination Sequence:
#
# PCOD9153380 Si02
#       7
#     4   4   4   4   4   4   4
#     4  11  20  36  60  86 118 152 190 251 279 333
#     4   9  17  32  55  82 112 152 198 245 292 334
#     4  11  22  37  60  88 111 145 196 238 285 340
#     4  11  20  33  53  77 113 149 189 240 284 339
#     4   9  17  30  50  78 108 145 192 237 290 343
#     4  10  22  37  56  88 116 148 192 231 295 338
#     4  10  22  42  64  86 120 155 183 227 286 350
#
# _framework density 18.640162
#
# number of rings (size 3 to 8) (size 9 to 14) (size 15 to 20)
#    0.000    1.857    2.857    4.286    0.000    2.857 
#    0.000    5.714    0.000    3.429    0.000    0.000 
#    0.000    0.000    0.000    0.000    0.000    0.000 
#
# Total GULP energy -156038.188397 kJ/mol
# GULP energy per Si atom -5572.792443 kJ/mol
# Density = 1.859774 g / cm^3
# Si number density = 18.640162 Si / 1000 Ang^3
#
#
#
# Elastic Constant Matrix: (Units=GPa)
#
#
# Indices 1 2 3 4 5 6 
#
# 1 75.5874 37.1475 10.7828 0.0000 -7.6890 0.0000
# 2 37.1475 135.2507 29.0944 0.0000 -3.6064 0.0000
# 3 10.7828 29.0944 78.6141 0.0000 -7.9576 0.0000
# 4 0.0000 0.0000 0.0000 23.7098 0.0000 -0.1382
# 5 -7.6890 -3.6064 -7.9576 0.0000 20.5307 0.0000
# 6 0.0000 0.0000 0.0000 -0.1382 0.0000 7.2738
#
#
#
# Elastic Compliance Matrix: (Units=1/GPa)
#
#
# Indices 1 2 3 4 5 6 
#
# 1 0.015826 -0.004188 -0.000099 0.000000 0.005153 0.000000
# 2 -0.004188 0.009143 -0.002920 0.000000 -0.001094 0.000000
# 3 -0.000099 -0.002920 0.014321 0.000000 0.005001 0.000000
# 4 0.000000 0.000000 0.000000 0.042181 0.000000 0.000801
# 5 0.005153 -0.001094 0.005001 0.000000 0.052383 0.000000
# 6 0.000000 0.000000 0.000000 0.000801 0.000000 0.137494
#
#
# Mechanical properties :
#
#
# Convention : Reuss Voigt Hill
#
# Bulk Modulus (GPa) = 40.20025 49.27795 44.73910
# Shear Modulus (GPa) = 17.00358 24.46469 20.73414
#
# Velocity S-wave (km/s) = 3.02354 3.62674 3.33879
# Velocity P-wave (km/s) = 5.81398 6.63562 6.23834
#
# Compressibility (1/GPa) = 0.02487547
#
# Stress axis : x y z
#
# Youngs Moduli (GPa) = 63.18609 109.37422 69.82835
#
# Poissons Ratio (x) = 0.45806 0.00693
# Poissons Ratio (y) = 0.26463 0.20390
# Poissons Ratio (z) = 0.00627 0.31938
#
# Static dielectric constant tensor:
#      x y z
#    x 1.654660 0.000000 0.000780 
#    y 0.000000 1.670270 0.000000 
#    z 0.000780 0.000000 1.649720 
# 
# From -- ./inp_files/30154.got.cif
#   From: 2010.05.17/outbox.cif.g08.bks.cpg/sg10_16_cif.got.tgz:30154.got - 2010.06.03 11:33:40.
