data_PCOD9153845
_publ_section_title
;
Structure prediction by ZEFSAII (Michael W. Deem and Ramdas Pophale) SiO2 
 PCOD9153845
Probable space group: P 2/M
;
_chemical_formula_sum "Si O2"
_cell_formula_units_Z 20
_cell_length_a 22.272874
_cell_length_b 7.656287
_cell_length_c 5.160505
_cell_angle_alpha 90.000000
_cell_angle_beta 96.827522
_cell_angle_gamma 90.000000
_cell_volume 873.767536
_symmetry_space_group_name_H-M "P 2/M"
_symmetry_group_IT_number 10
_symmetry_cell_setting 'monoclinic'
loop_
_space_group_symop_operation_xyz
x,y,z
-x,y,-z
-x,-y,-z
x,-y,z
loop_
_atom_site_type_symbol
_atom_site_label
_atom_site_fract_x
_atom_site_fract_y
_atom_site_fract_z
Si Si1 0.037496 0.786876 0.765747
Si Si2 0.172439 0.797583 0.938686
Si Si3 0.754892 0.298991 0.525184
Si Si4 0.542695 0.000000 0.774511
Si Si5 0.624360 0.700222 0.622118
Si Si6 0.542382 0.500000 0.267154
O O1 0.106662 0.727069 0.823578
O O2 0.000000 0.724363 0.500000
O O3 0.039654 0.000000 0.751066
O O4 0.000000 0.740003 0.000000
O O5 0.215832 0.786406 0.711989
O O6 0.164715 0.000000 0.008842
O O7 0.200793 0.709683 0.205828
O O8 0.743757 0.500000 0.446959
O O9 0.690179 0.228360 0.586218
O O10 0.500000 0.000000 0.500000
O O11 0.585614 0.169421 0.773704
O O12 0.500000 0.000000 0.000000
O O13 0.630653 0.500000 0.735147
O O14 0.586251 0.664350 0.338638
O O15 0.500000 0.500000 0.500000
O O16 0.500000 0.500000 0.000000
#
# Coordination Sequence:
#
# PCOD9153845 Si02
#       6
#     4   4   4   2   4   2
#     4   9  17  32  56  90 131 172 220 275 335 397
#     4  11  23  38  68 102 132 174 229 290 337 389
#     4  11  24  45  67  96 135 183 224 272 342 416
#     4  12  28  46  70 106 136 174 226 282 342 412
#     4   9  25  48  70 101 137 184 224 277 346 410
#     4  10  22  42  72  98 128 174 226 272 332 410
#
# _framework density 22.889382999999999
#
# number of rings (size 3 to 8) (size 9 to 14) (size 15 to 20)
#    0.600    1.200    0.000    3.000    2.800   10.000 
#    0.000    0.000    0.000   12.000    0.000    0.000 
#    0.000    0.000    0.000    0.000    0.000    0.000 
#
# Total GULP energy -111837.838698 kJ/mol
# GULP energy per Si atom -5591.891935 kJ/mol
# Density = 2.283729 g / cm^3
# Si number density = 22.889383 Si / 1000 Ang^3
#
#
#
# Elastic Constant Matrix: (Units=GPa)
#
#
# Indices 1 2 3 4 5 6 
#
# 1 103.3551 9.9083 8.7391 0.0000 -0.1356 0.0000
# 2 9.9083 71.3150 -5.9251 0.0000 -9.7822 0.0000
# 3 8.7391 -5.9251 107.9690 0.0000 -1.5520 0.0000
# 4 0.0000 0.0000 0.0000 8.3421 0.0000 20.6878
# 5 -0.1356 -9.7822 -1.5520 0.0000 35.1860 0.0000
# 6 0.0000 0.0000 0.0000 20.6878 0.0000 -3.5255
#
#
#
# Elastic Compliance Matrix: (Units=1/GPa)
#
#
# Indices 1 2 3 4 5 6 
#
# 1 0.009894 -0.001506 -0.000890 0.000000 -0.000420 0.000000
# 2 -0.001506 0.014888 0.000999 0.000000 0.004177 0.000000
# 3 -0.000890 0.000999 0.009399 0.000000 0.000689 0.000000
# 4 0.000000 0.000000 0.000000 0.007708 0.000000 0.045230
# 5 -0.000420 0.004177 0.000689 0.000000 0.029610 0.000000
# 6 0.000000 0.000000 0.000000 0.045230 0.000000 -0.018238
#
#
# Mechanical properties :
#
#
# Convention : Reuss Voigt Hill
#
# Bulk Modulus (GPa) = 31.86030 34.23152 33.04591
# Shear Modulus (GPa) = 75.16929 25.99498 50.58214
#
# Velocity S-wave (km/s) = 5.73686 3.37364 4.70601
# Velocity P-wave (km/s) = 7.60470 5.49208 6.63304
#
# Compressibility (1/GPa) = 0.03138702
#
# Stress axis : x y z
#
# Youngs Moduli (GPa) = 101.06686 67.17025 106.39833
#
# Poissons Ratio (x) = 0.10117 0.09465
# Poissons Ratio (y) = 0.15223 -0.10629
# Poissons Ratio (z) = 0.08990 -0.06710
#
# Static dielectric constant tensor:
#      x y z
#    x 1.857220 0.000000 0.014750 
#    y 0.000000 1.903690 0.000000 
#    z 0.014750 0.000000 1.790220 
# 
# From -- ./inp_files/12061.got.cif
#   From: 2010.05.17/outbox.cif.g08.bks.cpg/sg10_7_cif.got.tgz:12061.got - 2010.06.03 11:33:40.
