data_PCOD9153050
_publ_section_title
;
Structure prediction by ZEFSAII (Michael W. Deem and Ramdas Pophale) SiO2 
 PCOD9153050
Probable space group: P 2/M
;
_chemical_formula_sum "Si O2"
_cell_formula_units_Z 32
_cell_length_a 18.260774
_cell_length_b 14.143002
_cell_length_c 11.545117
_cell_angle_alpha 90.000000
_cell_angle_beta 28.897562
_cell_angle_gamma 90.000000
_cell_volume 1440.876007
_symmetry_space_group_name_H-M "P 2/M"
_symmetry_group_IT_number 10
_symmetry_cell_setting 'monoclinic'
loop_
_space_group_symop_operation_xyz
x,y,z
-x,y,-z
-x,-y,-z
x,-y,z
loop_
_atom_site_type_symbol
_atom_site_label
_atom_site_fract_x
_atom_site_fract_y
_atom_site_fract_z
Si Si1 0.319229 0.103193 0.270475
Si Si2 0.540862 0.112961 0.573715
Si Si3 0.769793 0.893581 0.869350
Si Si4 0.102882 0.275499 0.176978
Si Si5 0.243246 0.311663 0.366740
Si Si6 0.650116 0.613293 0.024079
Si Si7 0.692973 0.606267 0.485132
Si Si8 0.845558 0.221627 0.160388
O O1 0.274973 0.206891 0.376306
O O2 0.285064 0.000000 0.374508
O O3 0.500000 0.104223 0.000000
O O4 0.239347 0.102976 0.255624
O O5 0.500000 0.144088 0.500000
O O6 0.398336 0.134805 0.852951
O O7 0.699632 0.157811 0.386839
O O8 0.556134 0.000000 0.552392
O O9 0.801846 0.000000 0.868204
O O10 0.883107 0.817403 0.762802
O O11 0.225324 0.348222 0.058930
O O12 0.935086 0.317542 0.411498
O O13 0.137935 0.240594 0.998936
O O14 0.327110 0.332228 0.129687
O O15 0.293366 0.384431 0.395297
O O16 0.664863 0.500000 0.985404
O O17 0.480525 0.631728 0.304706
O O18 0.722626 0.500000 0.406086
O O19 0.810350 0.678157 0.267883
O O20 0.000000 0.181881 0.000000
#
# Coordination Sequence:
#
# PCOD9153050 Si02
#       8
#     4   4   4   4   4   4   4   4
#     4  10  22  38  62  97 133 172 216 261 319 388
#     4  10  21  39  68  97 125 169 219 266 317 378
#     4  10  21  39  64  95 134 175 217 265 320 387
#     4  12  25  42  63  99 135 172 214 268 331 393
#     4  12  24  42  68  97 137 174 212 264 332 391
#     4  11  25  44  69  99 125 163 221 278 328 387
#     4  11  26  47  71  96 126 174 223 269 328 392
#     4  12  26  45  65  96 135 174 219 269 332 389
#
# _framework density 22.208711999999998
#
# number of rings (size 3 to 8) (size 9 to 14) (size 15 to 20)
#    0.000    1.000    3.750    2.625    1.750    4.000 
#    0.000    2.500    0.000    0.000    0.000    0.000 
#    0.000    0.000    0.000    0.000    0.000    0.000 
#
# Total GULP energy -179100.712868 kJ/mol
# GULP energy per Si atom -5596.897277 kJ/mol
# Density = 2.215816 g / cm^3
# Si number density = 22.208712 Si / 1000 Ang^3
#
#
#
# Elastic Constant Matrix: (Units=GPa)
#
#
# Indices 1 2 3 4 5 6 
#
# 1 81.2959 11.5928 13.6900 0.0000 -14.3655 0.0000
# 2 11.5928 73.0001 10.4341 0.0000 -15.4154 0.0000
# 3 13.6900 10.4341 62.8865 0.0000 -22.2438 0.0000
# 4 0.0000 0.0000 0.0000 0.6105 0.0000 25.2431
# 5 -14.3655 -15.4154 -22.2438 0.0000 42.9682 0.0000
# 6 0.0000 0.0000 0.0000 25.2431 0.0000 -10.9448
#
#
#
# Elastic Compliance Matrix: (Units=1/GPa)
#
#
# Indices 1 2 3 4 5 6 
#
# 1 0.013303 -0.001213 -0.001561 0.000000 0.003204 0.000000
# 2 -0.001213 0.014958 -0.000567 0.000000 0.004667 0.000000
# 3 -0.001561 -0.000567 0.019683 0.000000 0.009464 0.000000
# 4 0.000000 0.000000 0.000000 0.016998 0.000000 0.039204
# 5 0.003204 0.004667 0.009464 0.000000 0.030918 0.000000
# 6 0.000000 0.000000 0.000000 0.039204 0.000000 -0.000948
#
#
# Mechanical properties :
#
#
# Convention : Reuss Voigt Hill
#
# Bulk Modulus (GPa) = 24.23543 32.06848 28.15196
# Shear Modulus (GPa) = 43.34720 18.62449 30.98584
#
# Velocity S-wave (km/s) = 4.42272 2.89902 3.73930
# Velocity P-wave (km/s) = 6.08415 5.06722 5.59882
#
# Compressibility (1/GPa) = 0.04126191
#
# Stress axis : x y z
#
# Youngs Moduli (GPa) = 75.17209 66.85458 50.80454
#
# Poissons Ratio (x) = 0.08108 0.07933
# Poissons Ratio (y) = 0.09117 0.02880
# Poissons Ratio (z) = 0.11737 0.03790
#
# Static dielectric constant tensor:
#      x y z
#    x 1.805870 0.000000 0.013980 
#    y 0.000000 1.829540 0.000000 
#    z 0.013980 0.000000 1.793890 
# 
# From -- ./inp_files/54005.got.cif
#   From: 2010.05.17/outbox.cif.g08.bks.cpg/sg10_28_cif.got.tgz:54005.got - 2010.06.03 11:33:40.
