data_PCOD9153115
_publ_section_title
;
Structure prediction by ZEFSAII (Michael W. Deem and Ramdas Pophale) SiO2 
 PCOD9153115
Probable space group: P 2/M
;
_chemical_formula_sum "Si O2"
_cell_formula_units_Z 28
_cell_length_a 15.545657
_cell_length_b 9.430440
_cell_length_c 11.783697
_cell_angle_alpha 90.000000
_cell_angle_beta 122.824925
_cell_angle_gamma 90.000000
_cell_volume 1451.686778
_symmetry_space_group_name_H-M "P 2/M"
_symmetry_group_IT_number 10
_symmetry_cell_setting 'monoclinic'
loop_
_space_group_symop_operation_xyz
x,y,z
-x,y,-z
-x,-y,-z
x,-y,z
loop_
_atom_site_type_symbol
_atom_site_label
_atom_site_fract_x
_atom_site_fract_y
_atom_site_fract_z
Si Si1 0.279980 0.168917 0.118297
Si Si2 0.377525 0.667234 0.399391
Si Si3 0.010325 0.161401 0.693584
Si Si4 0.173105 0.838407 0.618897
Si Si5 0.351319 0.668721 0.637796
Si Si6 0.473091 0.831465 0.110517
Si Si7 0.069530 0.664229 0.938744
O O1 0.331897 0.237555 0.267065
O O2 0.356739 0.193803 0.067067
O O3 0.268907 0.000000 0.124395
O O4 0.171438 0.242561 0.021919
O O5 0.500000 0.685387 0.500000
O O6 0.358721 0.500000 0.361342
O O7 0.332133 0.701628 0.491227
O O8 0.112745 0.185654 0.692601
O O9 0.005447 0.275350 0.787932
O O10 0.914731 0.168642 0.540107
O O11 0.014781 0.000000 0.741783
O O12 0.260806 0.729491 0.650392
O O13 0.214303 0.000000 0.649931
O O14 0.361512 0.500000 0.654628
O O15 0.454039 0.744259 0.753804
O O16 0.492643 0.000000 0.137544
O O17 0.500000 0.793568 0.000000
O O18 0.096765 0.500000 0.941955
O O19 0.000000 0.676742 0.000000
#
# Coordination Sequence:
#
# PCOD9153115 Si02
#       7
#     4   4   4   4   4   4   4
#     4  11  24  41  65  92 118 158 208 254 301 357
#     4  10  21  40  61  84 122 160 193 241 297 352
#     4   9  20  41  65  88 117 156 203 250 301 357
#     4   9  20  39  63  90 121 155 194 251 307 352
#     4  11  23  37  60  92 122 158 200 243 298 363
#     4  10  23  42  62  88 124 162 201 249 303 359
#     4  11  26  44  62  87 124 164 201 249 308 361
#
# _framework density 19.287906
#
# number of rings (size 3 to 8) (size 9 to 14) (size 15 to 20)
#    0.000    1.857    1.429    2.143    4.000    4.571 
#    0.000    1.429    0.000    0.000    0.000    0.000 
#    0.000    0.000    0.000    0.000    0.000    0.000 
#
# Total GULP energy -156450.091023 kJ/mol
# GULP energy per Si atom -5587.503251 kJ/mol
# Density = 1.924401 g / cm^3
# Si number density = 19.287906 Si / 1000 Ang^3
#
#
#
# Elastic Constant Matrix: (Units=GPa)
#
#
# Indices 1 2 3 4 5 6 
#
# 1 48.2533 39.8149 0.7003 0.0000 -0.2877 0.0000
# 2 39.8149 76.0981 32.6473 0.0000 -12.3946 0.0000
# 3 0.7003 32.6473 42.9428 0.0000 -17.2051 0.0000
# 4 0.0000 0.0000 0.0000 -22.5393 0.0000 -37.2019
# 5 -0.2877 -12.3946 -17.2051 0.0000 27.1003 0.0000
# 6 0.0000 0.0000 0.0000 -37.2019 0.0000 -23.0060
#
#
#
# Elastic Compliance Matrix: (Units=1/GPa)
#
#
# Indices 1 2 3 4 5 6 
#
# 1 0.055142 -0.042262 0.031813 0.000000 0.001453 0.000000
# 2 -0.042262 0.051901 -0.039480 0.000000 -0.001776 0.000000
# 3 0.031813 -0.039480 0.061268 0.000000 0.021178 0.000000
# 4 0.000000 0.000000 0.000000 0.026583 0.000000 -0.042986
# 5 0.001453 -0.001776 0.021178 0.000000 0.049548 0.000000
# 6 0.000000 0.000000 0.000000 -0.042986 0.000000 0.026044
#
#
# Mechanical properties :
#
#
# Convention : Reuss Voigt Hill
#
# Bulk Modulus (GPa) = 14.60872 34.84658 24.72765
# Shear Modulus (GPa) = 12.71740 2.58646 7.65193
#
# Velocity S-wave (km/s) = 2.57056 1.15926 1.99395
# Velocity P-wave (km/s) = 4.04979 4.46067 4.26019
#
# Compressibility (1/GPa) = 0.06845226
#
# Stress axis : x y z
#
# Youngs Moduli (GPa) = 18.13488 19.26747 16.32184
#
# Poissons Ratio (x) = 0.81429 -0.51924
# Poissons Ratio (y) = 0.76642 0.64439
# Poissons Ratio (z) = -0.57692 0.76068
#
# Static dielectric constant tensor:
#      x y z
#    x 1.678000 0.000000 -0.004380 
#    y 0.000000 1.638370 0.000000 
#    z -0.004380 0.000000 1.667380 
# 
# From -- ./inp_files/50064.got.cif
#   From: 2010.05.17/outbox.cif.g08.bks.cpg/sg10_26_cif.got.tgz:50064.got - 2010.06.03 11:33:40.
