data_PCOD9153781
_publ_section_title
;
Structure prediction by ZEFSAII (Michael W. Deem and Ramdas Pophale) SiO2 
 PCOD9153781
Probable space group: P 2/M
;
_chemical_formula_sum "Si O2"
_cell_formula_units_Z 26
_cell_length_a 20.227343
_cell_length_b 7.531652
_cell_length_c 9.897983
_cell_angle_alpha 90.000000
_cell_angle_beta 55.665637
_cell_angle_gamma 90.000000
_cell_volume 1245.173072
_symmetry_space_group_name_H-M "P 2/M"
_symmetry_group_IT_number 10
_symmetry_cell_setting 'monoclinic'
loop_
_space_group_symop_operation_xyz
x,y,z
-x,y,-z
-x,-y,-z
x,-y,z
loop_
_atom_site_type_symbol
_atom_site_label
_atom_site_fract_x
_atom_site_fract_y
_atom_site_fract_z
Si Si1 0.114208 0.500000 0.762730
Si Si2 0.601352 0.699711 0.123810
Si Si3 0.488338 0.000000 0.289995
Si Si4 0.256426 0.787817 0.233826
Si Si5 0.239041 0.211189 0.554372
Si Si6 0.615240 0.706869 0.424906
Si Si7 0.082432 0.212405 0.326173
Si Si8 0.930966 0.500000 0.883681
O O1 0.159492 0.325625 0.659296
O O2 0.023944 0.500000 0.816513
O O3 0.116819 0.500000 0.921996
O O4 0.570241 0.500000 0.153835
O O5 0.619263 0.746805 0.260544
O O6 0.537987 0.844627 0.151143
O O7 0.682471 0.708531 0.943671
O O8 0.442730 0.156049 0.432998
O O9 0.277425 0.744556 0.364360
O O10 0.163389 0.741797 0.314669
O O11 0.262157 0.000000 0.212708
O O12 0.299206 0.265473 0.603166
O O13 0.224516 0.000000 0.574386
O O14 0.591516 0.500000 0.466569
O O15 0.085722 0.327087 0.186937
O O16 0.000000 0.256010 0.500000
O O17 0.082206 0.000000 0.302072
#
# Coordination Sequence:
#
# PCOD9153781 Si02
#       8
#     2   4   2   4   4   4   4   2
#     4  11  26  44  64  96 139 172 220 278 320 399
#     4  11  24  39  65  98 129 167 216 274 325 383
#     4  12  23  44  67  98 136 169 212 275 332 390
#     4  10  23  41  64  95 131 168 222 274 322 389
#     4  11  24  43  66  93 130 178 217 262 332 390
#     4  11  23  40  67  97 130 170 217 261 329 399
#     4  10  22  41  67  98 133 174 224 274 328 386
#     4  11  25  42  66 100 132 176 224 271 336 379
#
# _framework density 20.880633
#
# number of rings (size 3 to 8) (size 9 to 14) (size 15 to 20)
#    0.000    1.231    2.308    3.000    4.308    3.692 
#    0.000    3.077    0.000    1.846    0.000    0.000 
#    0.000    0.000    0.000    0.000    0.000    0.000 
#
# Total GULP energy -144866.364269 kJ/mol
# GULP energy per Si atom -5571.783241 kJ/mol
# Density = 2.083311 g / cm^3
# Si number density = 20.880633 Si / 1000 Ang^3
#
#
#
# Elastic Constant Matrix: (Units=GPa)
#
#
# Indices 1 2 3 4 5 6 
#
# 1 12.0104 8.1941 -6.1529 0.0000 6.5785 0.0000
# 2 8.1941 105.2886 28.7162 0.0000 -4.7013 0.0000
# 3 -6.1529 28.7162 76.3580 0.0000 -13.9802 0.0000
# 4 0.0000 0.0000 0.0000 69.9846 0.0000 13.5746
# 5 6.5785 -4.7013 -13.9802 0.0000 26.2189 0.0000
# 6 0.0000 0.0000 0.0000 13.5746 0.0000 33.0131
#
#
#
# Elastic Compliance Matrix: (Units=1/GPa)
#
#
# Indices 1 2 3 4 5 6 
#
# 1 0.109675 -0.012050 0.008794 0.000000 -0.024990 0.000000
# 2 -0.012050 0.011909 -0.004992 0.000000 0.002497 0.000000
# 3 0.008794 -0.004992 0.016750 0.000000 0.005829 0.000000
# 4 0.000000 0.000000 0.000000 0.015527 0.000000 -0.006385
# 5 -0.024990 0.002497 0.005829 0.000000 0.047966 0.000000
# 6 0.000000 0.000000 0.000000 -0.006385 0.000000 0.032916
#
#
# Mechanical properties :
#
#
# Convention : Reuss Voigt Hill
#
# Bulk Modulus (GPa) = 8.20772 28.35242 18.28007
# Shear Modulus (GPa) = 17.13199 36.70329 26.91764
#
# Velocity S-wave (km/s) = 2.86750 4.19712 3.59433
# Velocity P-wave (km/s) = 3.86040 6.09061 5.09894
#
# Compressibility (1/GPa) = 0.12183652
#
# Stress axis : x y z
#
# Youngs Moduli (GPa) = 9.11786 83.97320 59.70290
#
# Poissons Ratio (x) = 1.01185 -0.52502
# Poissons Ratio (y) = 0.10987 0.29806
# Poissons Ratio (z) = -0.08018 0.41922
#
# Static dielectric constant tensor:
#      x y z
#    x 1.768230 0.000000 -0.002520 
#    y 0.000000 1.735430 0.000000 
#    z -0.002520 0.000000 1.736090 
# 
# From -- ./inp_files/34238.got.cif
#   From: 2010.05.17/outbox.cif.g08.bks.cpg/sg10_18_cif.got.tgz:34238.got - 2010.06.03 11:33:40.
