data_PCOD9153595
_publ_section_title
;
Structure prediction by ZEFSAII (Michael W. Deem and Ramdas Pophale) SiO2 
 PCOD9153595
Probable space group: P 2/M
;
_chemical_formula_sum "Si O2"
_cell_formula_units_Z 30
_cell_length_a 21.210459
_cell_length_b 12.111915
_cell_length_c 26.753768
_cell_angle_alpha 90.000000
_cell_angle_beta 11.796703
_cell_angle_gamma 90.000000
_cell_volume 1405.119057
_symmetry_space_group_name_H-M "P 2/M"
_symmetry_group_IT_number 10
_symmetry_cell_setting 'monoclinic'
loop_
_space_group_symop_operation_xyz
x,y,z
-x,y,-z
-x,-y,-z
x,-y,z
loop_
_atom_site_type_symbol
_atom_site_label
_atom_site_fract_x
_atom_site_fract_y
_atom_site_fract_z
Si Si1 0.643971 0.125554 0.575235
Si Si2 0.576957 0.367932 0.777179
Si Si3 0.412372 0.126119 0.498235
Si Si4 0.157177 0.737630 0.017395
Si Si5 0.040946 0.666188 0.262246
Si Si6 0.326400 0.500000 0.528285
Si Si7 0.177241 0.374876 0.265622
Si Si8 0.801295 0.328345 0.204970
O O1 0.542712 0.124015 0.596154
O O2 0.382516 0.183400 0.811080
O O3 0.932547 0.207953 0.350702
O O4 0.705450 0.000000 0.543422
O O5 0.593703 0.500000 0.760712
O O6 0.357326 0.324538 0.903479
O O7 0.923507 0.325093 0.499572
O O8 0.392629 0.340842 0.970453
O O9 0.686989 0.203878 0.303791
O O10 0.412820 0.000000 0.515037
O O11 0.098314 0.188104 0.756714
O O12 0.007391 0.650763 0.094042
O O13 0.007615 0.618625 0.343542
O O14 0.835658 0.596822 0.381926
O O15 0.509153 0.404626 0.420040
O O16 0.249074 0.500000 0.227609
O O17 0.500000 0.319222 0.000000
O O18 0.000000 0.337418 0.000000
#
# Coordination Sequence:
#
# PCOD9153595 Si02
#       8
#     4   4   4   4   4   2   4   4
#     4  11  23  41  65  91 120 162 221 270 310 366
#     4  11  23  37  63  96 129 167 204 247 309 378
#     4  11  24  42  60  85 120 160 219 276 317 364
#     4  12  23  41  62  90 121 169 216 260 317 370
#     4  12  21  43  66  90 134 167 204 260 314 372
#     4  12  23  40  60  89 126 172 205 253 320 375
#     4  10  22  39  66 100 130 166 203 248 312 382
#     4  12  25  39  57  85 121 166 212 261 318 363
#
# _framework density 21.350503
#
# number of rings (size 3 to 8) (size 9 to 14) (size 15 to 20)
#    0.000    0.667    6.667    1.000    0.933    2.400 
#    0.000    3.333    0.000    0.400    0.000    0.933 
#    0.000    0.000    0.000    0.000    0.000    0.000 
#
# Total GULP energy -167143.144880 kJ/mol
# GULP energy per Si atom -5571.438163 kJ/mol
# Density = 2.130191 g / cm^3
# Si number density = 21.350503 Si / 1000 Ang^3
#
#
#
# Elastic Constant Matrix: (Units=GPa)
#
#
# Indices 1 2 3 4 5 6 
#
# 1 69.2628 13.1279 21.6090 0.0000 13.8402 0.0000
# 2 13.1279 94.1347 33.6075 0.0000 -0.3815 0.0000
# 3 21.6090 33.6075 90.3404 0.0000 26.9812 0.0000
# 4 0.0000 0.0000 0.0000 14.0246 0.0000 -6.0607
# 5 13.8402 -0.3815 26.9812 0.0000 38.0079 0.0000
# 6 0.0000 0.0000 0.0000 -6.0607 0.0000 4.5128
#
#
#
# Elastic Compliance Matrix: (Units=1/GPa)
#
#
# Indices 1 2 3 4 5 6 
#
# 1 0.016255 -0.001596 -0.001931 0.000000 -0.004564 0.000000
# 2 -0.001596 0.012976 -0.005911 0.000000 0.004908 0.000000
# 3 -0.001931 -0.005911 0.017180 0.000000 -0.011552 0.000000
# 4 0.000000 0.000000 0.000000 0.169921 0.000000 0.228204
# 5 -0.004564 0.004908 -0.011552 0.000000 0.036222 0.000000
# 6 0.000000 0.000000 0.000000 0.228204 0.000000 0.528068
#
#
# Mechanical properties :
#
#
# Convention : Reuss Voigt Hill
#
# Bulk Modulus (GPa) = 36.31814 43.38074 39.84944
# Shear Modulus (GPa) = 6.18294 23.66864 14.92579
#
# Velocity S-wave (km/s) = 1.70359 3.33314 2.64689
# Velocity P-wave (km/s) = 4.57351 5.93090 5.29587
#
# Compressibility (1/GPa) = 0.02753445
#
# Stress axis : x y z
#
# Youngs Moduli (GPa) = 61.52046 77.06607 58.20600
#
# Poissons Ratio (x) = 0.12299 0.11241
# Poissons Ratio (y) = 0.09818 0.34406
# Poissons Ratio (z) = 0.11881 0.45555
#
# Static dielectric constant tensor:
#      x y z
#    x 1.807660 0.000000 0.001230 
#    y 0.000000 1.754370 0.000000 
#    z 0.001230 0.000000 1.843260 
# 
# From -- ./inp_files/95825.got.cif
#   From: 2010.05.17/outbox.cif.g08.bks.cpg/sg10_48_cif.got.tgz:95825.got - 2010.06.03 11:33:40.
