data_PCOD9153696
_publ_section_title
;
Structure prediction by ZEFSAII (Michael W. Deem and Ramdas Pophale) SiO2 
 PCOD9153696
Probable space group: P 2/M
;
_chemical_formula_sum "Si O2"
_cell_formula_units_Z 16
_cell_length_a 5.314062
_cell_length_b 26.585772
_cell_length_c 5.297732
_cell_angle_alpha 90.000000
_cell_angle_beta 100.215736
_cell_angle_gamma 90.000000
_cell_volume 736.590006
_symmetry_space_group_name_H-M "P 2/M"
_symmetry_group_IT_number 10
_symmetry_cell_setting 'monoclinic'
loop_
_space_group_symop_operation_xyz
x,y,z
-x,y,-z
-x,-y,-z
x,-y,z
loop_
_atom_site_type_symbol
_atom_site_label
_atom_site_fract_x
_atom_site_fract_y
_atom_site_fract_z
Si Si1 0.838157 0.000000 0.221282
Si Si2 0.500000 0.155163 0.500000
Si Si3 0.000000 0.289791 0.000000
Si Si4 0.721504 0.445950 0.333428
Si Si5 0.500000 0.353598 0.000000
Si Si6 0.500000 0.908369 0.000000
Si Si7 0.000000 0.777794 0.500000
O O1 0.000000 0.000000 0.500000
O O2 0.686096 0.948068 0.171826
O O3 0.000000 0.000000 0.000000
O O4 0.580207 0.124917 0.771370
O O5 0.253508 0.188219 0.527038
O O6 0.731038 0.320514 0.925513
O O7 0.022390 0.256376 0.752923
O O8 0.500000 0.450011 0.500000
O O9 0.725183 0.500000 0.189088
O O10 0.000000 0.442036 0.500000
O O11 0.659665 0.393681 0.191877
#
# Coordination Sequence:
#
# PCOD9153696 Si02
#       7
#     2   2   2   4   2   2   2
#     4  11  24  43  70 107 163 190 236 293 348 413
#     4  12  26  47  80 100 148 184 255 294 364 422
#     4  12  28  46  75 100 144 175 244 296 380 424
#     4  10  22  40  64  99 139 178 226 282 341 425
#     4  12  25  41  72 101 133 188 225 293 354 450
#     4  11  26  43  72 117 137 204 241 290 349 436
#     4  12  28  52  70 109 135 188 236 322 360 420
#
# _framework density 21.721717000000002
#
# number of rings (size 3 to 8) (size 9 to 14) (size 15 to 20)
#    0.000    0.750    0.000    6.375   10.500    2.000 
#    0.000    5.000    0.000    0.000    0.000    0.000 
#    0.000    0.000    0.000    0.000    0.000    0.000 
#
# Total GULP energy -89270.452845 kJ/mol
# GULP energy per Si atom -5579.403303 kJ/mol
# Density = 2.167228 g / cm^3
# Si number density = 21.721717 Si / 1000 Ang^3
#
#
#
# Elastic Constant Matrix: (Units=GPa)
#
#
# Indices 1 2 3 4 5 6 
#
# 1 179.2930 85.8208 55.5528 0.0000 16.0333 0.0000
# 2 85.8208 162.2094 83.9631 0.0000 -7.5246 0.0000
# 3 55.5528 83.9631 164.1901 0.0000 11.3141 0.0000
# 4 0.0000 0.0000 0.0000 27.2171 0.0000 -10.4988
# 5 16.0333 -7.5246 11.3141 0.0000 44.6366 0.0000
# 6 0.0000 0.0000 0.0000 -10.4988 0.0000 21.4475
#
#
#
# Elastic Compliance Matrix: (Units=1/GPa)
#
#
# Indices 1 2 3 4 5 6 
#
# 1 0.008020 -0.004254 -0.000296 0.000000 -0.003523 0.000000
# 2 -0.004254 0.010934 -0.004463 0.000000 0.004502 0.000000
# 3 -0.000296 -0.004463 0.008668 0.000000 -0.002843 0.000000
# 4 0.000000 0.000000 0.000000 0.045294 0.000000 0.022172
# 5 -0.003523 0.004502 -0.002843 0.000000 0.025148 0.000000
# 6 0.000000 0.000000 0.000000 0.022172 0.000000 0.057479
#
#
# Mechanical properties :
#
#
# Convention : Reuss Voigt Hill
#
# Bulk Modulus (GPa) = 104.17511 106.26289 105.21900
# Shear Modulus (GPa) = 28.28574 37.35062 32.81818
#
# Velocity S-wave (km/s) = 3.61250 4.15119 3.89118
# Velocity P-wave (km/s) = 8.09094 8.48545 8.29054
#
# Compressibility (1/GPa) = 0.00959922
#
# Stress axis : x y z
#
# Youngs Moduli (GPa) = 124.68567 91.45673 115.36076
#
# Poissons Ratio (x) = 0.38903 0.03410
# Poissons Ratio (y) = 0.53037 0.51480
# Poissons Ratio (z) = 0.03685 0.40813
#
# Static dielectric constant tensor:
#      x y z
#    x 1.791150 0.000000 -0.008370 
#    y 0.000000 1.261440 0.000000 
#    z -0.008370 0.000000 1.854100 
# 
# From -- ./inp_files/1901.got.cif
#   From: 2010.05.17/outbox.cif.g08.bks.cpg/sg10_1_cif.got.tgz:1901.got - 2010.06.03 11:33:40.
