data_PCOD9153005
_publ_section_title
;
Structure prediction by ZEFSAII (Michael W. Deem and Ramdas Pophale) SiO2 
 PCOD9153005
Probable space group: P 2/M
;
_chemical_formula_sum "Si O2"
_cell_formula_units_Z 14
_cell_length_a 4.997711
_cell_length_b 16.467388
_cell_length_c 9.545922
_cell_angle_alpha 90.000000
_cell_angle_beta 123.037496
_cell_angle_gamma 90.000000
_cell_volume 658.598045
_symmetry_space_group_name_H-M "P 2/M"
_symmetry_group_IT_number 10
_symmetry_cell_setting 'monoclinic'
loop_
_space_group_symop_operation_xyz
x,y,z
-x,y,-z
-x,-y,-z
x,-y,z
loop_
_atom_site_type_symbol
_atom_site_label
_atom_site_fract_x
_atom_site_fract_y
_atom_site_fract_z
Si Si1 0.068073 0.754659 0.683953
Si Si2 0.880902 0.092168 0.118618
Si Si3 0.621534 0.500000 0.376832
Si Si4 0.304924 0.336133 0.186661
O O1 0.024443 0.843809 0.736601
O O2 0.434125 0.725238 0.803067
O O3 0.000000 0.751584 0.500000
O O4 0.833843 0.696940 0.705842
O O5 0.999783 0.000000 0.177240
O O6 0.500000 0.089275 0.000000
O O7 0.000000 0.119599 0.000000
O O8 0.500000 0.500000 0.500000
O O9 0.488597 0.420333 0.262290
O O10 0.000000 0.500000 0.500000
O O11 0.000000 0.345211 0.000000
#
# Coordination Sequence:
#
# PCOD9153005 Si02
#       4
#     4   4   2   4
#     4  12  24  40  64  95 129 166 210 262 317 368
#     4  10  21  39  63  91 125 166 210 256 310 373
#     4  12  25  44  67  94 129 162 205 262 319 368
#     4  12  25  43  66  93 126 168 214 256 309 377
#
# _framework density 21.257276999999998
#
# number of rings (size 3 to 8) (size 9 to 14) (size 15 to 20)
#    0.000    0.571    0.000   10.714    0.000    0.571 
#    0.000    4.286    0.000    8.571    0.000    0.000 
#    0.000    0.000    0.000    0.000    0.000    0.000 
#
# Total GULP energy -78426.902124 kJ/mol
# GULP energy per Si atom -5601.921580 kJ/mol
# Density = 2.120889 g / cm^3
# Si number density = 21.257277 Si / 1000 Ang^3
#
#
#
# Elastic Constant Matrix: (Units=GPa)
#
#
# Indices 1 2 3 4 5 6 
#
# 1 149.6571 37.7871 44.1131 0.0000 -6.6222 0.0000
# 2 37.7871 140.8835 67.7723 0.0000 -2.6944 0.0000
# 3 44.1131 67.7723 122.7588 0.0000 -2.0472 0.0000
# 4 0.0000 0.0000 0.0000 23.1098 0.0000 -14.9173
# 5 -6.6222 -2.6944 -2.0472 0.0000 44.5823 0.0000
# 6 0.0000 0.0000 0.0000 -14.9173 0.0000 17.3914
#
#
#
# Elastic Compliance Matrix: (Units=1/GPa)
#
#
# Indices 1 2 3 4 5 6 
#
# 1 0.007614 -0.000974 -0.002182 0.000000 0.000972 0.000000
# 2 -0.000974 0.009795 -0.005054 0.000000 0.000215 0.000000
# 3 -0.002182 -0.005054 0.011719 0.000000 -0.000091 0.000000
# 4 0.000000 0.000000 0.000000 0.096950 0.000000 0.083158
# 5 0.000972 0.000215 -0.000091 0.000000 0.022584 0.000000
# 6 0.000000 0.000000 0.000000 0.083158 0.000000 0.128828
#
#
# Mechanical properties :
#
#
# Convention : Reuss Voigt Hill
#
# Bulk Modulus (GPa) = 78.69298 79.18272 78.93785
# Shear Modulus (GPa) = 16.77036 34.59183 25.68109
#
# Velocity S-wave (km/s) = 2.81182 4.03835 3.47956
# Velocity P-wave (km/s) = 6.90228 7.68602 7.30467
#
# Compressibility (1/GPa) = 0.01270761
#
# Stress axis : x y z
#
# Youngs Moduli (GPa) = 131.33563 102.09802 85.33303
#
# Poissons Ratio (x) = 0.09943 0.18622
# Poissons Ratio (y) = 0.12790 0.43125
# Poissons Ratio (z) = 0.28661 0.51598
#
# Static dielectric constant tensor:
#      x y z
#    x 1.743800 0.000000 0.004830 
#    y 0.000000 1.805020 0.000000 
#    z 0.004830 0.000000 1.734340 
# 
# From -- ./inp_files/14249.got.cif
#   From: 2010.05.17/outbox.cif.g08.bks.cpg/sg10_8_cif.got.tgz:14249.got - 2010.06.03 11:33:40.
