data_PCOD9153392
_publ_section_title
;
Structure prediction by ZEFSAII (Michael W. Deem and Ramdas Pophale) SiO2 
 PCOD9153392
Probable space group: P 2/M
;
_chemical_formula_sum "Si O2"
_cell_formula_units_Z 17
_cell_length_a 9.053367
_cell_length_b 7.631309
_cell_length_c 10.987651
_cell_angle_alpha 90.000000
_cell_angle_beta 90.819213
_cell_angle_gamma 90.000000
_cell_volume 759.048678
_symmetry_space_group_name_H-M "P 2/M"
_symmetry_group_IT_number 10
_symmetry_cell_setting 'monoclinic'
loop_
_space_group_symop_operation_xyz
x,y,z
-x,y,-z
-x,-y,-z
x,-y,z
loop_
_atom_site_type_symbol
_atom_site_label
_atom_site_fract_x
_atom_site_fract_y
_atom_site_fract_z
Si Si1 0.000000 0.500000 0.500000
Si Si2 0.922718 0.500000 0.810785
Si Si3 0.580481 0.204257 0.187062
Si Si4 0.730717 0.798594 0.707967
Si Si5 0.238205 0.500000 0.931993
Si Si6 0.769706 0.800591 0.433883
O O1 0.891904 0.653071 0.441829
O O2 0.863738 0.667183 0.736324
O O3 0.095208 0.500000 0.841423
O O4 0.834347 0.500000 0.936638
O O5 0.410515 0.249602 0.212334
O O6 0.661927 0.331241 0.094787
O O7 0.663459 0.223019 0.317707
O O8 0.588978 0.000000 0.150682
O O9 0.690082 0.788095 0.564837
O O10 0.770940 0.000000 0.734551
O O11 0.829851 0.000000 0.426304
#
# Coordination Sequence:
#
# PCOD9153392 Si02
#       6
#     1   2   4   4   2   4
#     4  12  22  32  50  86 130 168 196 232 288 352
#     4  11  26  44  61  87 124 164 207 256 308 362
#     4  10  22  41  66  93 123 161 203 251 305 362
#     4  10  22  41  66  93 123 161 203 251 305 362
#     4  11  26  44  61  87 124 164 207 256 308 362
#     4  10  22  37  59  93 129 160 196 242 301 369
#
# _framework density 22.396457000000002
#
# number of rings (size 3 to 8) (size 9 to 14) (size 15 to 20)
#    0.000    1.647    0.000    3.176    6.588    6.588 
#    0.000    8.235    0.000    0.000    0.000    0.000 
#    0.000    0.000    0.000    0.000    0.000    0.000 
#
# Total GULP energy -94913.453192 kJ/mol
# GULP energy per Si atom -5583.144305 kJ/mol
# Density = 2.234548 g / cm^3
# Si number density = 22.396457 Si / 1000 Ang^3
#
#
#
# Elastic Constant Matrix: (Units=GPa)
#
#
# Indices 1 2 3 4 5 6 
#
# 1 95.6027 61.9305 8.2173 0.0000 -12.8251 0.0000
# 2 61.9305 108.7083 14.1794 0.0000 -8.9626 0.0000
# 3 8.2173 14.1794 78.0950 0.0000 -14.6020 0.0000
# 4 0.0000 0.0000 0.0000 70.7701 0.0000 -1.3493
# 5 -12.8251 -8.9626 -14.6020 0.0000 39.6718 0.0000
# 6 0.0000 0.0000 0.0000 -1.3493 0.0000 68.5305
#
#
#
# Elastic Compliance Matrix: (Units=1/GPa)
#
#
# Indices 1 2 3 4 5 6 
#
# 1 0.017035 -0.009488 0.000600 0.000000 0.003585 0.000000
# 2 -0.009488 0.014803 -0.001759 0.000000 -0.000370 0.000000
# 3 0.000600 -0.001759 0.013986 0.000000 0.004944 0.000000
# 4 0.000000 0.000000 0.000000 0.014136 0.000000 0.000278
# 5 0.003585 -0.000370 0.004944 0.000000 0.028102 0.000000
# 6 0.000000 0.000000 0.000000 0.000278 0.000000 0.014598
#
#
# Mechanical properties :
#
#
# Convention : Reuss Voigt Hill
#
# Bulk Modulus (GPa) = 40.76320 50.11783 45.44051
# Shear Modulus (GPa) = 37.84218 48.99974 43.42096
#
# Velocity S-wave (km/s) = 4.11499 4.68250 4.40789
# Velocity P-wave (km/s) = 6.38888 7.18753 6.79994
#
# Compressibility (1/GPa) = 0.02453193
#
# Stress axis : x y z
#
# Youngs Moduli (GPa) = 58.70181 67.55448 71.50237
#
# Poissons Ratio (x) = 0.64093 -0.04293
# Poissons Ratio (y) = 0.55694 0.12575
# Poissons Ratio (z) = -0.03525 0.11880
#
# Static dielectric constant tensor:
#      x y z
#    x 1.781970 0.000000 -0.046450 
#    y 0.000000 1.785680 0.000000 
#    z -0.046450 0.000000 1.887660 
# 
# From -- ./inp_files/40496.got.cif
#   From: 2010.05.17/outbox.cif.g08.bks.cpg/sg10_21_cif.got.tgz:40496.got - 2010.06.03 11:33:40.
