data_PCOD9153160
_publ_section_title
;
Structure prediction by ZEFSAII (Michael W. Deem and Ramdas Pophale) SiO2 
 PCOD9153160
Probable space group: P 2/M
;
_chemical_formula_sum "Si O2"
_cell_formula_units_Z 32
_cell_length_a 11.100809
_cell_length_b 9.697993
_cell_length_c 28.744862
_cell_angle_alpha 90.000000
_cell_angle_beta 29.088405
_cell_angle_gamma 90.000000
_cell_volume 1504.439223
_symmetry_space_group_name_H-M "P 2/M"
_symmetry_group_IT_number 10
_symmetry_cell_setting 'monoclinic'
loop_
_space_group_symop_operation_xyz
x,y,z
-x,y,-z
-x,-y,-z
x,-y,z
loop_
_atom_site_type_symbol
_atom_site_label
_atom_site_fract_x
_atom_site_fract_y
_atom_site_fract_z
Si Si1 0.978229 0.158573 0.254308
Si Si2 0.361108 0.254204 0.202688
Si Si3 0.584597 0.662623 0.662825
Si Si4 0.142509 0.347917 0.013483
Si Si5 0.999168 0.349633 0.401543
Si Si6 0.776451 0.341812 0.904865
Si Si7 0.704487 0.844311 0.165069
Si Si8 0.581662 0.836738 0.568366
O O1 0.688930 0.181371 0.363194
O O2 0.170378 0.187206 0.230931
O O3 0.050584 0.256091 0.187120
O O4 0.002847 0.000000 0.231340
O O5 0.195065 0.345610 0.293383
O O6 0.508098 0.156993 0.189144
O O7 0.581577 0.328252 0.099821
O O8 0.519497 0.500000 0.678716
O O9 0.844071 0.666103 0.603643
O O10 0.401012 0.744423 0.759229
O O11 0.589360 0.746723 0.613250
O O12 0.048335 0.500000 0.032280
O O13 0.145958 0.343882 0.068068
O O14 0.956120 0.226817 0.063228
O O15 0.875285 0.500000 0.444564
O O16 0.803350 0.227196 0.463449
O O17 0.761391 0.500000 0.892598
O O18 0.500000 0.281565 0.000000
O O19 0.741988 0.000000 0.169142
O O20 0.617970 0.000000 0.565127
#
# Coordination Sequence:
#
# PCOD9153160 Si02
#       8
#     4   4   4   4   4   4   4   4
#     4  11  25  43  63  91 126 167 209 254 310 372
#     4  11  24  43  64  88 122 168 215 260 308 367
#     4  10  21  41  68  96 127 162 205 257 313 372
#     4  11  23  41  66  93 125 164 207 259 314 369
#     4  10  23  42  66  94 124 162 211 262 313 370
#     4  10  21  40  64  93 123 158 203 250 304 367
#     4  11  24  40  62  94 129 164 207 256 310 374
#     4  11  24  41  64  95 129 164 206 258 316 373
#
# _framework density 21.270384
#
# number of rings (size 3 to 8) (size 9 to 14) (size 15 to 20)
#    0.000    1.375    1.250    3.375    0.000   12.750 
#    0.000    1.875    0.000    0.000    0.000    0.000 
#    0.000    0.000    0.000    0.000    0.000    0.000 
#
# Total GULP energy -178799.518015 kJ/mol
# GULP energy per Si atom -5587.484938 kJ/mol
# Density = 2.122197 g / cm^3
# Si number density = 21.270384 Si / 1000 Ang^3
#
#
#
# Elastic Constant Matrix: (Units=GPa)
#
#
# Indices 1 2 3 4 5 6 
#
# 1 75.5857 32.0929 36.3602 0.0000 -4.5952 0.0000
# 2 32.0929 151.4263 63.6276 0.0000 -15.1400 0.0000
# 3 36.3602 63.6276 111.3144 0.0000 -10.8683 0.0000
# 4 0.0000 0.0000 0.0000 262.4301 0.0000 124.7081
# 5 -4.5952 -15.1400 -10.8683 0.0000 27.9885 0.0000
# 6 0.0000 0.0000 0.0000 124.7081 0.0000 89.6726
#
#
#
# Elastic Compliance Matrix: (Units=1/GPa)
#
#
# Indices 1 2 3 4 5 6 
#
# 1 0.015975 -0.001562 -0.004315 0.000000 0.000102 0.000000
# 2 -0.001562 0.009074 -0.004388 0.000000 0.002948 0.000000
# 3 -0.004315 -0.004388 0.013097 0.000000 0.002003 0.000000
# 4 0.000000 0.000000 0.000000 0.011236 0.000000 -0.015626
# 5 0.000102 0.002948 0.002003 0.000000 0.038118 0.000000
# 6 0.000000 0.000000 0.000000 -0.015626 0.000000 0.032883
#
#
# Mechanical properties :
#
#
# Convention : Reuss Voigt Hill
#
# Bulk Modulus (GPa) = 56.77237 66.94308 61.85773
# Shear Modulus (GPa) = 34.06293 89.76798 61.91546
#
# Velocity S-wave (km/s) = 4.00612 6.50345 5.40111
# Velocity P-wave (km/s) = 6.93884 9.37731 8.24868
#
# Compressibility (1/GPa) = 0.01761420
#
# Stress axis : x y z
#
# Youngs Moduli (GPa) = 62.59621 110.20907 76.35251
#
# Poissons Ratio (x) = 0.17219 0.32948
# Poissons Ratio (y) = 0.09780 0.33506
# Poissons Ratio (z) = 0.27012 0.48364
#
# Static dielectric constant tensor:
#      x y z
#    x 1.786600 0.000000 -0.008720 
#    y 0.000000 1.744630 0.000000 
#    z -0.008720 0.000000 1.790130 
# 
# From -- ./inp_files/94922.got.cif
#   From: 2010.05.17/outbox.cif.g08.bks.cpg/sg10_48_cif.got.tgz:94922.got - 2010.06.03 11:33:40.
