data_PCOD9153357
_publ_section_title
;
Structure prediction by ZEFSAII (Michael W. Deem and Ramdas Pophale) SiO2 
 PCOD9153357
Probable space group: P 2/M
;
_chemical_formula_sum "Si O2"
_cell_formula_units_Z 18
_cell_length_a 7.617335
_cell_length_b 5.560435
_cell_length_c 22.139483
_cell_angle_alpha 90.000000
_cell_angle_beta 119.797321
_cell_angle_gamma 90.000000
_cell_volume 813.754278
_symmetry_space_group_name_H-M "P 2/M"
_symmetry_group_IT_number 10
_symmetry_cell_setting 'monoclinic'
loop_
_space_group_symop_operation_xyz
x,y,z
-x,y,-z
-x,-y,-z
x,-y,z
loop_
_atom_site_type_symbol
_atom_site_label
_atom_site_fract_x
_atom_site_fract_y
_atom_site_fract_z
Si Si1 0.325055 0.500000 0.841561
Si Si2 0.188257 0.750240 0.578678
Si Si3 0.368301 0.250103 0.406709
Si Si4 0.340275 0.000000 0.918058
Si Si5 0.076571 0.000000 0.081696
Si Si6 0.860491 0.500000 0.730469
Si Si7 0.719024 0.500000 0.842707
O O1 0.361585 0.251946 0.885349
O O2 0.482714 0.500000 0.814520
O O3 0.097804 0.500000 0.778965
O O4 0.179657 0.500000 0.612444
O O5 0.401321 0.750411 0.578543
O O6 0.000000 0.750501 0.500000
O O7 0.180467 0.000000 0.612816
O O8 0.328746 0.500000 0.434408
O O9 0.227362 0.279491 0.323880
O O10 0.324230 0.000000 0.431140
O O11 0.500000 0.000000 0.000000
O O12 0.115845 0.000000 0.907162
O O13 0.192605 0.748308 0.113928
O O14 0.000000 0.000000 0.000000
O O15 0.768095 0.500000 0.780787
#
# Coordination Sequence:
#
# PCOD9153357 Si02
#       7
#     2   4   4   2   2   2   2
#     4  12  25  41  61  86 113 149 185 225 277 334
#     4   8  12  20  34  58  92 128 166 212 262 306
#     4   8  16  26  44  68  98 136 174 218 264 316
#     4  12  24  44  64  89 115 142 179 230 276 334
#     4  12  24  44  64  89 115 142 179 230 276 334
#     4  10  22  36  57  76 114 140 190 214 286 312
#     4  12  25  41  61  86 113 149 185 225 277 334
#
# _framework density 22.119699000000001
#
# number of rings (size 3 to 8) (size 9 to 14) (size 15 to 20)
#    0.667    1.333    2.222    2.667    3.111    0.000 
#    0.000    0.000    0.000    0.000    0.000    0.000 
#    0.000    3.556    0.000   11.111    0.000    0.000 
#
# Total GULP energy -100386.518126 kJ/mol
# GULP energy per Si atom -5577.028785 kJ/mol
# Density = 2.206935 g / cm^3
# Si number density = 22.119699 Si / 1000 Ang^3
#
#
#
# Elastic Constant Matrix: (Units=GPa)
#
#
# Indices 1 2 3 4 5 6 
#
# 1 123.7376 17.4243 41.8609 0.0000 29.8336 0.0000
# 2 17.4243 258.2695 45.4374 0.0000 0.5154 0.0000
# 3 41.8609 45.4374 139.8062 0.0000 15.7989 0.0000
# 4 0.0000 0.0000 0.0000 -1.2769 0.0000 21.3622
# 5 29.8336 0.5154 15.7989 0.0000 34.1654 0.0000
# 6 0.0000 0.0000 0.0000 21.3622 0.0000 -9.2364
#
#
#
# Elastic Compliance Matrix: (Units=1/GPa)
#
#
# Indices 1 2 3 4 5 6 
#
# 1 0.010927 -0.000333 -0.002201 0.000000 -0.008519 0.000000
# 2 -0.000333 0.004128 -0.001338 0.000000 0.000847 0.000000
# 3 -0.002201 -0.001338 0.008470 0.000000 -0.001975 0.000000
# 4 0.000000 0.000000 0.000000 0.020777 0.000000 0.048054
# 5 -0.008519 0.000847 -0.001975 0.000000 0.037608 0.000000
# 6 0.000000 0.000000 0.000000 0.048054 0.000000 0.002872
#
#
# Mechanical properties :
#
#
# Convention : Reuss Voigt Hill
#
# Bulk Modulus (GPa) = 63.36488 81.25094 72.30791
# Shear Modulus (GPa) = 51.13210 32.53646 41.83428
#
# Velocity S-wave (km/s) = 4.81314 3.83943 4.35359
# Velocity P-wave (km/s) = 7.71990 7.51446 7.61787
#
# Compressibility (1/GPa) = 0.01578161
#
# Stress axis : x y z
#
# Youngs Moduli (GPa) = 91.51659 242.24630 118.06907
#
# Poissons Ratio (x) = 0.08067 0.25986
# Poissons Ratio (y) = 0.03047 0.15793
# Poissons Ratio (z) = 0.20142 0.32404
#
# Static dielectric constant tensor:
#      x y z
#    x 1.769380 0.000000 0.038520 
#    y 0.000000 1.916130 0.000000 
#    z 0.038520 0.000000 1.780400 
# 
# From -- ./inp_files/91666.got.cif
#   From: 2010.05.17/outbox.cif.g08.bks.cpg/sg10_46_cif.got.tgz:91666.got - 2010.06.03 11:33:40.
