data_PCOD9153308
_publ_section_title
;
Structure prediction by ZEFSAII (Michael W. Deem and Ramdas Pophale) SiO2 
 PCOD9153308
Probable space group: P 2/M
;
_chemical_formula_sum "Si O2"
_cell_formula_units_Z 16
_cell_length_a 5.359134
_cell_length_b 22.245117
_cell_length_c 5.318742
_cell_angle_alpha 90.000000
_cell_angle_beta 88.615113
_cell_angle_gamma 90.000000
_cell_volume 633.886290
_symmetry_space_group_name_H-M "P 2/M"
_symmetry_group_IT_number 10
_symmetry_cell_setting 'monoclinic'
loop_
_space_group_symop_operation_xyz
x,y,z
-x,y,-z
-x,-y,-z
x,-y,z
loop_
_atom_site_type_symbol
_atom_site_label
_atom_site_fract_x
_atom_site_fract_y
_atom_site_fract_z
Si Si1 0.748644 0.801967 0.855015
Si Si2 0.000000 0.719166 0.500000
Si Si3 0.745794 0.935105 0.668233
Si Si4 0.661557 0.368423 0.235917
Si Si5 0.755564 0.500000 0.332485
O O1 0.739482 0.873792 0.820612
O O2 0.785742 0.764232 0.600975
O O3 0.500000 0.783765 0.000000
O O4 0.000000 0.789556 0.000000
O O5 0.108711 0.675070 0.708946
O O6 0.500000 0.934123 0.500000
O O7 0.000000 0.932947 0.500000
O O8 0.746167 0.000000 0.805204
O O9 0.500000 0.367717 0.500000
O O10 0.749650 0.437015 0.187221
O O11 0.500000 0.350289 0.000000
O O12 0.500000 0.500000 0.500000
O O13 0.000000 0.500000 0.500000
#
# Coordination Sequence:
#
# PCOD9153308 Si02
#       5
#     4   2   4   4   2
#     4  12  29  47  76 109 151 204 264 325 399 478
#     4  12  30  49  73 112 164 208 272 324 408 480
#     4  10  21  43  73 105 145 194 253 325 400 471
#     4  11  27  49  81 116 161 212 269 337 406 485
#     4  10  21  50  80 119 157 203 266 339 405 478
#
# _framework density 25.241122000000001
#
# number of rings (size 3 to 8) (size 9 to 14) (size 15 to 20)
#    0.000    1.000    2.500    1.875    7.000    1.000 
#    0.000    2.500    0.000    0.000    0.000    0.875 
#    0.000    0.000    0.000    0.000    0.000    0.000 
#
# Total GULP energy -89718.652181 kJ/mol
# GULP energy per Si atom -5607.415761 kJ/mol
# Density = 2.518367 g / cm^3
# Si number density = 25.241122 Si / 1000 Ang^3
#
#
#
# Elastic Constant Matrix: (Units=GPa)
#
#
# Indices 1 2 3 4 5 6 
#
# 1 192.5010 45.0824 56.8763 0.0000 1.0568 0.0000
# 2 45.0824 236.9796 45.6009 0.0000 0.5776 0.0000
# 3 56.8763 45.6009 96.0936 0.0000 6.3354 0.0000
# 4 0.0000 0.0000 0.0000 23.7171 0.0000 88.7192
# 5 1.0568 0.5776 6.3354 0.0000 63.7787 0.0000
# 6 0.0000 0.0000 0.0000 88.7192 0.0000 59.9017
#
#
#
# Elastic Compliance Matrix: (Units=1/GPa)
#
#
# Indices 1 2 3 4 5 6 
#
# 1 0.006361 -0.000532 -0.003529 0.000000 0.000250 0.000000
# 2 -0.000532 0.004690 -0.001921 0.000000 0.000157 0.000000
# 3 -0.003529 -0.001921 0.013490 0.000000 -0.001264 0.000000
# 4 0.000000 0.000000 0.000000 -0.009287 0.000000 0.013754
# 5 0.000250 0.000157 -0.001264 0.000000 0.015799 0.000000
# 6 0.000000 0.000000 0.000000 0.013754 0.000000 -0.003677
#
#
# Mechanical properties :
#
#
# Convention : Reuss Voigt Hill
#
# Bulk Modulus (GPa) = 79.50859 91.18815 85.34837
# Shear Modulus (GPa) = 114.85399 54.68048 84.76723
#
# Velocity S-wave (km/s) = 6.75289 4.65943 5.80137
# Velocity P-wave (km/s) = 9.61093 8.07170 8.87475
#
# Compressibility (1/GPa) = 0.01257726
#
# Stress axis : x y z
#
# Youngs Moduli (GPa) = 157.21902 213.20794 74.12660
#
# Poissons Ratio (x) = 0.11333 0.26159
# Poissons Ratio (y) = 0.08357 0.14243
# Poissons Ratio (z) = 0.55482 0.40968
#
# Static dielectric constant tensor:
#      x y z
#    x 1.959190 0.000000 -0.023100 
#    y 0.000000 1.978770 0.000000 
#    z -0.023100 0.000000 2.045840 
# 
# From -- ./inp_files/1324.got.cif
#   From: 2010.05.17/outbox.cif.g08.bks.cpg/sg10_1_cif.got.tgz:1324.got - 2010.06.03 11:33:40.
