data_PCOD9153342
_publ_section_title
;
Structure prediction by ZEFSAII (Michael W. Deem and Ramdas Pophale) SiO2 
 PCOD9153342
Probable space group: P 2/M
;
_chemical_formula_sum "Si O2"
_cell_formula_units_Z 18
_cell_length_a 11.561449
_cell_length_b 8.090807
_cell_length_c 25.941610
_cell_angle_alpha 90.000000
_cell_angle_beta 23.400675
_cell_angle_gamma 90.000000
_cell_volume 963.751615
_symmetry_space_group_name_H-M "P 2/M"
_symmetry_group_IT_number 10
_symmetry_cell_setting 'monoclinic'
loop_
_space_group_symop_operation_xyz
x,y,z
-x,y,-z
-x,-y,-z
x,-y,z
loop_
_atom_site_type_symbol
_atom_site_label
_atom_site_fract_x
_atom_site_fract_y
_atom_site_fract_z
Si Si1 0.353012 0.500000 0.356216
Si Si2 0.784001 0.817080 0.348827
Si Si3 0.607051 0.816468 0.844638
Si Si4 0.728669 0.500000 0.298475
Si Si5 0.350483 0.500000 0.004893
Si Si6 0.336955 0.311606 0.857248
O O1 0.449985 0.500000 0.375809
O O2 0.507070 0.345977 0.261860
O O3 0.000000 0.500000 0.500000
O O4 0.500000 0.815756 0.500000
O O5 0.759857 0.663806 0.320263
O O6 0.060092 0.799257 0.273660
O O7 0.808818 0.000000 0.313558
O O8 0.542779 0.792250 0.810567
O O9 0.507957 0.000000 0.900806
O O10 0.445903 0.668179 0.938832
O O11 0.005658 0.500000 0.148217
O O12 0.500000 0.500000 0.000000
O O13 0.323880 0.500000 0.884150
O O14 0.000000 0.251611 0.000000
#
# Coordination Sequence:
#
# PCOD9153342 Si02
#       6
#     2   4   4   2   2   4
#     4  10  22  35  59  92 116 150 205 243 288 357
#     4  10  23  39  58  89 119 151 200 242 283 355
#     4  11  22  38  64  89 113 154 201 240 287 351
#     4  12  23  38  64  83 121 163 181 239 315 344
#     4  12  21  37  57  88 126 150 180 243 297 350
#     4   9  19  39  61  79 119 155 199 244 286 342
#
# _framework density 18.677011
#
# number of rings (size 3 to 8) (size 9 to 14) (size 15 to 20)
#    0.667    0.889    3.333    1.667    3.111    1.778 
#    0.000    1.111    0.000    1.333    0.000    0.000 
#    0.000    0.000    0.000    0.000    0.000    0.000 
#
# Total GULP energy -100239.589890 kJ/mol
# GULP energy per Si atom -5568.866105 kJ/mol
# Density = 1.863450 g / cm^3
# Si number density = 18.677011 Si / 1000 Ang^3
#
#
#
# Elastic Constant Matrix: (Units=GPa)
#
#
# Indices 1 2 3 4 5 6 
#
# 1 106.8131 54.2857 24.4038 0.0000 -21.8869 0.0000
# 2 54.2857 131.0765 40.4624 0.0000 -5.5099 0.0000
# 3 24.4038 40.4624 99.5084 0.0000 -18.5212 0.0000
# 4 0.0000 0.0000 0.0000 12.7220 0.0000 -19.5954
# 5 -21.8869 -5.5099 -18.5212 0.0000 28.1078 0.0000
# 6 0.0000 0.0000 0.0000 -19.5954 0.0000 -13.3914
#
#
#
# Elastic Compliance Matrix: (Units=1/GPa)
#
#
# Indices 1 2 3 4 5 6 
#
# 1 0.014222 -0.005689 0.000774 0.000000 0.010469 0.000000
# 2 -0.005689 0.011012 -0.003995 0.000000 -0.004904 0.000000
# 3 0.000774 -0.003995 0.013051 0.000000 0.008419 0.000000
# 4 0.000000 0.000000 0.000000 0.024157 0.000000 -0.035349
# 5 0.010469 -0.004904 0.008419 0.000000 0.048316 0.000000
# 6 0.000000 0.000000 0.000000 -0.035349 0.000000 -0.022950
#
#
# Mechanical properties :
#
#
# Convention : Reuss Voigt Hill
#
# Bulk Modulus (GPa) = 48.86430 63.96685 56.41558
# Shear Modulus (GPa) = 44.46373 20.03741 32.25057
#
# Velocity S-wave (km/s) = 4.88450 3.27897 4.15993
# Velocity P-wave (km/s) = 7.61779 6.97559 7.30375
#
# Compressibility (1/GPa) = 0.02046484
#
# Stress axis : x y z
#
# Youngs Moduli (GPa) = 70.31493 90.80655 76.62051
#
# Poissons Ratio (x) = 0.51658 -0.05930
# Poissons Ratio (y) = 0.40001 0.30614
# Poissons Ratio (z) = -0.05442 0.36282
#
# Static dielectric constant tensor:
#      x y z
#    x 1.703270 0.000000 -0.016300 
#    y 0.000000 1.679490 0.000000 
#    z -0.016300 0.000000 1.646500 
# 
# From -- ./inp_files/92601.got.cif
#   From: 2010.05.17/outbox.cif.g08.bks.cpg/sg10_47_cif.got.tgz:92601.got - 2010.06.03 11:33:40.
