data_PCOD9153311
_publ_section_title
;
Structure prediction by ZEFSAII (Michael W. Deem and Ramdas Pophale) SiO2 
 PCOD9153311
Probable space group: P 2/M
;
_chemical_formula_sum "Si O2"
_cell_formula_units_Z 18
_cell_length_a 5.931983
_cell_length_b 23.819698
_cell_length_c 4.832991
_cell_angle_alpha 90.000000
_cell_angle_beta 97.277264
_cell_angle_gamma 90.000000
_cell_volume 677.391330
_symmetry_space_group_name_H-M "P 2/M"
_symmetry_group_IT_number 10
_symmetry_cell_setting 'monoclinic'
loop_
_space_group_symop_operation_xyz
x,y,z
-x,y,-z
-x,-y,-z
x,-y,z
loop_
_atom_site_type_symbol
_atom_site_label
_atom_site_fract_x
_atom_site_fract_y
_atom_site_fract_z
Si Si1 0.333246 0.120791 0.220639
Si Si2 0.000000 0.788962 0.000000
Si Si3 0.357932 0.281356 0.703164
Si Si4 0.823668 0.500000 0.725614
Si Si5 0.833780 0.380772 0.714040
Si Si6 0.232262 0.000000 0.342334
O O1 0.500000 0.117910 0.500000
O O2 0.229825 0.058359 0.174548
O O3 0.500000 0.136208 0.000000
O O4 0.144898 0.168220 0.206636
O O5 0.844350 0.751567 0.177820
O O6 0.500000 0.245052 0.500000
O O7 0.278177 0.328710 0.468213
O O8 0.500000 0.302274 0.000000
O O9 0.000000 0.500000 0.500000
O O10 0.696692 0.439295 0.741446
O O11 0.000000 0.500000 0.000000
O O12 0.000000 0.398455 0.500000
O O13 0.000000 0.366718 0.000000
O O14 0.500000 0.000000 0.500000
O O15 0.000000 0.000000 0.500000
#
# Coordination Sequence:
#
# PCOD9153311 Si02
#       6
#     4   2   4   2   4   2
#     4  11  28  54  83 123 162 215 278 341 419 507
#     4  12  32  55  86 109 174 222 282 344 424 482
#     4  12  30  53  76 115 163 215 282 345 416 505
#     4   8  16  34  68 110 146 191 265 331 410 508
#     4  10  21  43  75 110 151 209 266 337 422 501
#     4  10  25  51  87 129 174 218 280 359 441 522
#
# _framework density 26.57253
#
# number of rings (size 3 to 8) (size 9 to 14) (size 15 to 20)
#    0.000    1.333    0.000    2.333   10.889    5.778 
#    4.000    1.111    0.000    0.000    0.000    0.000 
#    0.000    0.000    0.000    0.000    0.000    0.000 
#
# Total GULP energy -100376.907065 kJ/mol
# GULP energy per Si atom -5576.494837 kJ/mol
# Density = 2.651205 g / cm^3
# Si number density = 26.572530 Si / 1000 Ang^3
#
#
#
# Elastic Constant Matrix: (Units=GPa)
#
#
# Indices 1 2 3 4 5 6 
#
# 1 132.1624 80.4399 53.6035 0.0000 21.5372 0.0000
# 2 80.4399 220.4680 45.0908 0.0000 27.1942 0.0000
# 3 53.6035 45.0908 197.7663 0.0000 18.3123 0.0000
# 4 0.0000 0.0000 0.0000 14.8139 0.0000 24.2776
# 5 21.5372 27.1942 18.3123 0.0000 67.4446 0.0000
# 6 0.0000 0.0000 0.0000 24.2776 0.0000 -79.4594
#
#
#
# Elastic Compliance Matrix: (Units=1/GPa)
#
#
# Indices 1 2 3 4 5 6 
#
# 1 0.010618 -0.003279 -0.001989 0.000000 -0.001529 0.000000
# 2 -0.003279 0.005960 -0.000353 0.000000 -0.001260 0.000000
# 3 -0.001989 -0.000353 0.005749 0.000000 -0.000783 0.000000
# 4 0.000000 0.000000 0.000000 0.044981 0.000000 0.013743
# 5 -0.001529 -0.001260 -0.000783 0.000000 0.016036 0.000000
# 6 0.000000 0.000000 0.000000 0.013743 0.000000 -0.008386
#
#
# Mechanical properties :
#
#
# Convention : Reuss Voigt Hill
#
# Bulk Modulus (GPa) = 90.21823 100.96280 95.59051
# Shear Modulus (GPa) = 55.62127 25.31067 40.46597
#
# Velocity S-wave (km/s) = 4.58010 3.08963 3.90660
# Velocity P-wave (km/s) = 7.87370 7.12779 7.51001
#
# Compressibility (1/GPa) = 0.01108423
#
# Stress axis : x y z
#
# Youngs Moduli (GPa) = 94.18210 167.79121 173.95405
#
# Poissons Ratio (x) = 0.55013 0.34596
# Poissons Ratio (y) = 0.30879 0.06149
# Poissons Ratio (z) = 0.18731 0.05931
#
# Static dielectric constant tensor:
#      x y z
#    x 2.261380 0.000000 -0.000260 
#    y 0.000000 2.291110 0.000000 
#    z -0.000260 0.000000 2.011710 
# 
# From -- ./inp_files/1654.got.cif
#   From: 2010.05.17/outbox.cif.g08.bks.cpg/sg10_1_cif.got.tgz:1654.got - 2010.06.03 11:33:40.
