data_PCOD9153125
_publ_section_title
;
Structure prediction by ZEFSAII (Michael W. Deem and Ramdas Pophale) SiO2 
 PCOD9153125
Probable space group: P 2/M
;
_chemical_formula_sum "Si O2"
_cell_formula_units_Z 17
_cell_length_a 5.084405
_cell_length_b 24.609447
_cell_length_c 5.282776
_cell_angle_alpha 90.000000
_cell_angle_beta 96.254528
_cell_angle_gamma 90.000000
_cell_volume 657.069679
_symmetry_space_group_name_H-M "P 2/M"
_symmetry_group_IT_number 10
_symmetry_cell_setting 'monoclinic'
loop_
_space_group_symop_operation_xyz
x,y,z
-x,y,-z
-x,-y,-z
x,-y,z
loop_
_atom_site_type_symbol
_atom_site_label
_atom_site_fract_x
_atom_site_fract_y
_atom_site_fract_z
Si Si1 0.831125 0.843270 0.217293
Si Si2 0.000000 0.000000 0.500000
Si Si3 0.171086 0.381940 0.774466
Si Si4 0.271744 0.500000 0.681184
Si Si5 0.500000 0.916973 0.500000
Si Si6 0.719666 0.268708 0.331470
O O1 0.575977 0.878240 0.272630
O O2 0.761267 0.780673 0.144044
O O3 0.000000 0.840649 0.500000
O O4 0.000000 0.865938 0.000000
O O5 0.231855 0.046526 0.456964
O O6 0.277789 0.442766 0.825841
O O7 0.357661 0.329865 0.754783
O O8 0.000000 0.386498 0.500000
O O9 0.000000 0.367550 0.000000
O O10 0.500000 0.500000 0.500000
O O11 0.000000 0.500000 0.500000
O O12 0.500000 0.248213 0.500000
O O13 0.000000 0.275624 0.500000
#
# Coordination Sequence:
#
# PCOD9153125 Si02
#       6
#     4   1   4   2   2   4
#     4  11  24  45  73 105 142 185 232 287 347 410
#     4  10  24  46  78 104 150 182 236 282 340 404
#     4  10  21  40  62  92 129 172 223 278 338 405
#     4  10  21  40  62  90 124 174 220 278 336 404
#     4  11  22  48  72 110 140 189 230 286 340 407
#     4  10  21  41  64  99 134 177 224 283 341 407
#
# _framework density 25.872444999999999
#
# number of rings (size 3 to 8) (size 9 to 14) (size 15 to 20)
#    0.000    1.647    2.353    1.765    0.000    0.941 
#    0.000   34.118    0.000    0.000    0.000    0.000 
#    0.000    0.000    0.000    0.000    0.000    0.000 
#
# Total GULP energy -94736.167390 kJ/mol
# GULP energy per Si atom -5572.715729 kJ/mol
# Density = 2.581356 g / cm^3
# Si number density = 25.872445 Si / 1000 Ang^3
#
#
#
# Elastic Constant Matrix: (Units=GPa)
#
#
# Indices 1 2 3 4 5 6 
#
# 1 171.4935 16.1847 49.9142 0.0000 -11.8137 0.0000
# 2 16.1847 230.3022 16.9559 0.0000 -25.4408 0.0000
# 3 49.9142 16.9559 153.7639 0.0000 -31.6637 0.0000
# 4 0.0000 0.0000 0.0000 24.8862 0.0000 -54.7418
# 5 -11.8137 -25.4408 -31.6637 0.0000 76.2531 0.0000
# 6 0.0000 0.0000 0.0000 -54.7418 0.0000 23.8593
#
#
#
# Elastic Compliance Matrix: (Units=1/GPa)
#
#
# Indices 1 2 3 4 5 6 
#
# 1 0.006460 -0.000297 -0.002054 0.000000 0.000049 0.000000
# 2 -0.000297 0.004528 -0.000111 0.000000 0.001419 0.000000
# 3 -0.002054 -0.000111 0.007774 0.000000 0.002873 0.000000
# 4 0.000000 0.000000 0.000000 -0.009929 0.000000 -0.022782
# 5 0.000049 0.001419 0.002873 0.000000 0.014788 0.000000
# 6 0.000000 0.000000 0.000000 -0.022782 0.000000 -0.010357
#
#
# Mechanical properties :
#
#
# Convention : Reuss Voigt Hill
#
# Bulk Modulus (GPa) = 72.26603 80.18547 76.22575
# Shear Modulus (GPa) = 219.28111 56.50006 137.89058
#
# Velocity S-wave (km/s) = 9.21622 4.67818 7.30835
# Velocity P-wave (km/s) = 11.88461 7.76147 10.03704
#
# Compressibility (1/GPa) = 0.01383776
#
# Stress axis : x y z
#
# Youngs Moduli (GPa) = 154.78737 220.85391 128.63100
#
# Poissons Ratio (x) = 0.06568 0.26426
# Poissons Ratio (y) = 0.04603 0.01423
# Poissons Ratio (z) = 0.31799 0.02443
#
# Static dielectric constant tensor:
#      x y z
#    x 1.967350 0.000000 -0.015310 
#    y 0.000000 1.995150 0.000000 
#    z -0.015310 0.000000 1.954910 
# 
# From -- ./inp_files/1964.got.cif
#   From: 2010.05.17/outbox.cif.g08.bks.cpg/sg10_1_cif.got.tgz:1964.got - 2010.06.03 11:33:40.
