data_PCOD9153832
_publ_section_title
;
Structure prediction by ZEFSAII (Michael W. Deem and Ramdas Pophale) SiO2 
 PCOD9153832
Probable space group: P 2/M
;
_chemical_formula_sum "Si O2"
_cell_formula_units_Z 24
_cell_length_a 11.188922
_cell_length_b 17.827384
_cell_length_c 12.789986
_cell_angle_alpha 90.000000
_cell_angle_beta 155.675686
_cell_angle_gamma 90.000000
_cell_volume 1050.845502
_symmetry_space_group_name_H-M "P 2/M"
_symmetry_group_IT_number 10
_symmetry_cell_setting 'monoclinic'
loop_
_space_group_symop_operation_xyz
x,y,z
-x,y,-z
-x,-y,-z
x,-y,z
loop_
_atom_site_type_symbol
_atom_site_label
_atom_site_fract_x
_atom_site_fract_y
_atom_site_fract_z
Si Si1 0.812929 0.087525 0.762498
Si Si2 0.794677 0.702709 0.580773
Si Si3 0.240232 0.916187 0.908174
Si Si4 0.809509 0.168577 0.432711
Si Si5 0.228086 0.585046 0.858778
Si Si6 0.188923 0.363351 0.057629
O O1 0.500000 0.122719 0.500000
O O2 0.010479 0.084693 0.819040
O O3 0.757003 0.000000 0.752153
O O4 0.000000 0.125950 0.000000
O O5 0.769081 0.781491 0.502956
O O6 0.476513 0.669328 0.338283
O O7 0.975393 0.646454 0.648546
O O8 0.983310 0.699285 0.837161
O O9 0.039923 0.895530 0.650163
O O10 0.360765 0.000000 0.996978
O O11 0.503740 0.860247 0.144553
O O12 0.000000 0.213334 0.500000
O O13 0.136176 0.500000 0.760892
O O14 0.500000 0.602599 0.000000
O O15 0.283713 0.589752 0.029597
O O16 0.000000 0.399907 0.000000
#
# Coordination Sequence:
#
# PCOD9153832 Si02
#       6
#     4   4   4   4   4   4
#     4   9  17  33  58  84 116 154 194 248 314 383
#     4  10  24  42  68  94 134 178 228 276 328 401
#     4  11  24  42  64  96 127 161 216 275 332 406
#     4  12  26  42  66  92 125 176 219 266 342 405
#     4   9  22  41  70 107 141 183 230 278 328 388
#     4  10  22  42  68  98 138 181 225 282 338 393
#
# _framework density 22.838753000000001
#
# number of rings (size 3 to 8) (size 9 to 14) (size 15 to 20)
#    1.000    0.833    0.000    3.500    2.333    5.667 
#    0.000   10.833    0.000    0.000    0.000    0.000 
#    0.000    0.000    0.000    0.000    0.000    0.000 
#
# Total GULP energy -133823.259846 kJ/mol
# GULP energy per Si atom -5575.969160 kJ/mol
# Density = 2.278677 g / cm^3
# Si number density = 22.838753 Si / 1000 Ang^3
#
#
#
# Elastic Constant Matrix: (Units=GPa)
#
#
# Indices 1 2 3 4 5 6 
#
# 1 121.1440 5.7836 33.2326 0.0000 20.6459 0.0000
# 2 5.7836 41.6245 21.2543 0.0000 13.4868 0.0000
# 3 33.2326 21.2543 164.9093 0.0000 3.3346 0.0000
# 4 0.0000 0.0000 0.0000 47.4390 0.0000 -6.8925
# 5 20.6459 13.4868 3.3346 0.0000 37.3045 0.0000
# 6 0.0000 0.0000 0.0000 -6.8925 0.0000 3.1627
#
#
#
# Elastic Compliance Matrix: (Units=1/GPa)
#
#
# Indices 1 2 3 4 5 6 
#
# 1 0.009723 0.001560 -0.002044 0.000000 -0.005762 0.000000
# 2 0.001560 0.029399 -0.003878 0.000000 -0.011145 0.000000
# 3 -0.002044 -0.003878 0.006937 0.000000 0.001913 0.000000
# 4 0.000000 0.000000 0.000000 0.030847 0.000000 0.067225
# 5 -0.005762 -0.011145 0.001913 0.000000 0.033854 0.000000
# 6 0.000000 0.000000 0.000000 0.067225 0.000000 0.462690
#
#
# Mechanical properties :
#
#
# Convention : Reuss Voigt Hill
#
# Bulk Modulus (GPa) = 26.78487 49.80207 38.29347
# Shear Modulus (GPa) = 8.40875 35.40838 21.90857
#
# Velocity S-wave (km/s) = 1.92088 3.94174 3.10057
# Velocity P-wave (km/s) = 4.08326 6.52454 5.44255
#
# Compressibility (1/GPa) = 0.03733451
#
# Stress axis : x y z
#
# Youngs Moduli (GPa) = 102.85010 34.01473 144.15541
#
# Poissons Ratio (x) = -0.05305 0.29463
# Poissons Ratio (y) = -0.16042 0.55904
# Poissons Ratio (z) = 0.21021 0.13191
#
# Static dielectric constant tensor:
#      x y z
#    x 1.951690 0.000000 -0.044250 
#    y 0.000000 1.875380 0.000000 
#    z -0.044250 0.000000 1.813670 
# 
# From -- ./inp_files/65487.got.cif
#   From: 2010.05.17/outbox.cif.g08.bks.cpg/sg10_33_cif.got.tgz:65487.got - 2010.06.03 11:33:40.
