data_PCOD9153674
_publ_section_title
;
Structure prediction by ZEFSAII (Michael W. Deem and Ramdas Pophale) SiO2 
 PCOD9153674
Probable space group: P 2/M
;
_chemical_formula_sum "Si O2"
_cell_formula_units_Z 28
_cell_length_a 15.825095
_cell_length_b 8.654330
_cell_length_c 12.124895
_cell_angle_alpha 90.000000
_cell_angle_beta 119.966167
_cell_angle_gamma 90.000000
_cell_volume 1438.587743
_symmetry_space_group_name_H-M "P 2/M"
_symmetry_group_IT_number 10
_symmetry_cell_setting 'monoclinic'
loop_
_space_group_symop_operation_xyz
x,y,z
-x,y,-z
-x,-y,-z
x,-y,z
loop_
_atom_site_type_symbol
_atom_site_label
_atom_site_fract_x
_atom_site_fract_y
_atom_site_fract_z
Si Si1 0.298506 0.316014 0.138085
Si Si2 0.382651 0.820302 0.420034
Si Si3 0.014428 0.187137 0.681767
Si Si4 0.160573 0.813077 0.580883
Si Si5 0.361090 0.317863 0.642686
Si Si6 0.465137 0.815154 0.099689
Si Si7 0.082380 0.812803 0.964907
O O1 0.301876 0.500000 0.141690
O O2 0.343983 0.251961 0.281732
O O3 0.364569 0.255436 0.079506
O O4 0.187981 0.257102 0.056946
O O5 0.500000 0.812546 0.500000
O O6 0.347965 0.735159 0.507772
O O7 0.353065 0.000000 0.405473
O O8 0.097799 0.227072 0.647912
O O9 0.043166 0.240812 0.820742
O O10 0.909275 0.234569 0.566456
O O11 0.011188 0.000000 0.681273
O O12 0.263558 0.731195 0.642620
O O13 0.173876 0.000000 0.587059
O O14 0.378256 0.500000 0.658802
O O15 0.451967 0.232184 0.758548
O O16 0.455011 0.000000 0.091332
O O17 0.500000 0.764794 0.000000
O O18 0.092082 0.000000 0.970139
O O19 0.000000 0.772728 0.000000
#
# Coordination Sequence:
#
# PCOD9153674 Si02
#       7
#     4   4   4   4   4   4   4
#     4  12  26  43  65  95 132 168 203 261 332 382
#     4  11  23  42  68  91 118 162 214 255 297 364
#     4   8  17  36  61  88 116 157 214 264 303 353
#     4   9  18  36  62  88 118 160 210 259 304 363
#     4  12  25  39  61  96 132 162 199 254 323 381
#     4  11  25  45  68  93 124 169 222 264 302 370
#     4  10  22  40  63  91 123 167 219 262 306 371
#
# _framework density 19.463533000000002
#
# number of rings (size 3 to 8) (size 9 to 14) (size 15 to 20)
#    0.000    1.571    1.429    4.286    4.000    2.000 
#    0.000    2.143    0.000    0.000    0.000    0.000 
#    0.000    0.000    0.000    0.000    0.000    0.000 
#
# Total GULP energy -156491.427183 kJ/mol
# GULP energy per Si atom -5588.979542 kJ/mol
# Density = 1.941923 g / cm^3
# Si number density = 19.463533 Si / 1000 Ang^3
#
#
#
# Elastic Constant Matrix: (Units=GPa)
#
#
# Indices 1 2 3 4 5 6 
#
# 1 104.8789 26.1164 52.5914 0.0000 10.7485 0.0000
# 2 26.1164 53.4356 25.9527 0.0000 -1.2630 0.0000
# 3 52.5914 25.9527 120.3549 0.0000 -11.4669 0.0000
# 4 0.0000 0.0000 0.0000 5.1689 0.0000 -3.8353
# 5 10.7485 -1.2630 -11.4669 0.0000 28.1719 0.0000
# 6 0.0000 0.0000 0.0000 -3.8353 0.0000 -46.2081
#
#
#
# Elastic Compliance Matrix: (Units=1/GPa)
#
#
# Indices 1 2 3 4 5 6 
#
# 1 0.014581 -0.004294 -0.006236 0.000000 -0.008294 0.000000
# 2 -0.004294 0.022191 -0.002765 0.000000 0.001508 0.000000
# 3 -0.006236 -0.002765 0.012323 0.000000 0.007271 0.000000
# 4 0.000000 0.000000 0.000000 0.182241 0.000000 -0.015126
# 5 -0.008294 0.001508 0.007271 0.000000 0.041688 0.000000
# 6 0.000000 0.000000 0.000000 -0.015126 0.000000 -0.020386
#
#
# Mechanical properties :
#
#
# Convention : Reuss Voigt Hill
#
# Bulk Modulus (GPa) = 44.43415 54.22115 49.32765
# Shear Modulus (GPa) = 17.43806 9.02712 13.23259
#
# Velocity S-wave (km/s) = 2.99646 2.15593 2.61025
# Velocity P-wave (km/s) = 5.90345 5.84086 5.87224
#
# Compressibility (1/GPa) = 0.02250521
#
# Stress axis : x y z
#
# Youngs Moduli (GPa) = 68.58281 45.06246 81.15161
#
# Poissons Ratio (x) = 0.19349 0.50604
# Poissons Ratio (y) = 0.29448 0.22441
# Poissons Ratio (z) = 0.42766 0.12461
#
# Static dielectric constant tensor:
#      x y z
#    x 1.666060 0.000000 -0.016660 
#    y 0.000000 1.657070 0.000000 
#    z -0.016660 0.000000 1.669250 
# 
# From -- ./inp_files/50061.got.cif
#   From: 2010.05.17/outbox.cif.g08.bks.cpg/sg10_26_cif.got.tgz:50061.got - 2010.06.03 11:33:40.
