data_PCOD9153919
_publ_section_title
;
Structure prediction by ZEFSAII (Michael W. Deem and Ramdas Pophale) SiO2 
 PCOD9153919
Probable space group: P 2/M
;
_chemical_formula_sum "Si O2"
_cell_formula_units_Z 20
_cell_length_a 5.547448
_cell_length_b 21.884466
_cell_length_c 8.047347
_cell_angle_alpha 90.000000
_cell_angle_beta 59.840553
_cell_angle_gamma 90.000000
_cell_volume 844.719522
_symmetry_space_group_name_H-M "P 2/M"
_symmetry_group_IT_number 10
_symmetry_cell_setting 'monoclinic'
loop_
_space_group_symop_operation_xyz
x,y,z
-x,y,-z
-x,-y,-z
x,-y,z
loop_
_atom_site_type_symbol
_atom_site_label
_atom_site_fract_x
_atom_site_fract_y
_atom_site_fract_z
Si Si1 0.282644 0.677747 0.293827
Si Si2 0.836289 0.000000 0.378727
Si Si3 0.353827 0.817631 0.220322
Si Si4 0.500000 0.601838 0.500000
Si Si5 0.932607 0.565875 0.827686
Si Si6 0.146890 0.132188 0.773089
O O1 0.386304 0.744846 0.216063
O O2 0.496283 0.644733 0.341252
O O3 0.217612 0.628373 0.173729
O O4 0.000000 0.685068 0.500000
O O5 0.500000 0.000000 0.500000
O O6 0.903573 0.938094 0.256999
O O7 0.000000 0.000000 0.500000
O O8 0.530233 0.850158 0.305182
O O9 0.026903 0.830924 0.305379
O O10 0.500000 0.840703 0.000000
O O11 0.785059 0.565899 0.380392
O O12 0.791782 0.500000 0.840260
O O13 0.000000 0.567075 0.000000
O O14 0.000000 0.146580 0.000000
#
# Coordination Sequence:
#
# PCOD9153919 Si02
#       6
#     4   2   4   2   4   4
#     4  10  24  40  60  91 128 168 214 273 336 403
#     4  12  25  42  65 102 134 174 216 270 329 382
#     4  10  23  40  68  96 126 172 224 267 330 389
#     4  10  23  40  60  92 124 171 214 272 354 393
#     4  10  23  41  64  92 124 169 222 279 343 409
#     4  10  23  44  66  95 130 177 219 268 322 396
#
# _framework density 23.676499
#
# number of rings (size 3 to 8) (size 9 to 14) (size 15 to 20)
#    0.000    1.800    0.000    1.800    8.400    7.600 
#    0.000    6.000    0.000    0.000    0.000    0.000 
#    0.000    0.000    0.000    0.000    0.000    0.000 
#
# Total GULP energy -111749.934505 kJ/mol
# GULP energy per Si atom -5587.496725 kJ/mol
# Density = 2.362261 g / cm^3
# Si number density = 23.676499 Si / 1000 Ang^3
#
#
#
# Elastic Constant Matrix: (Units=GPa)
#
#
# Indices 1 2 3 4 5 6 
#
# 1 159.3214 56.5511 30.8737 0.0000 22.9814 0.0000
# 2 56.5511 160.4613 3.0196 0.0000 36.8260 0.0000
# 3 30.8737 3.0196 73.2744 0.0000 13.2382 0.0000
# 4 0.0000 0.0000 0.0000 69.2638 0.0000 62.6768
# 5 22.9814 36.8260 13.2382 0.0000 49.8859 0.0000
# 6 0.0000 0.0000 0.0000 62.6768 0.0000 129.3776
#
#
#
# Elastic Compliance Matrix: (Units=1/GPa)
#
#
# Indices 1 2 3 4 5 6 
#
# 1 0.007896 -0.002500 -0.003046 0.000000 -0.000984 0.000000
# 2 -0.002500 0.008332 0.001694 0.000000 -0.005448 0.000000
# 3 -0.003046 0.001694 0.015580 0.000000 -0.003982 0.000000
# 4 0.000000 0.000000 0.000000 0.025707 0.000000 -0.012454
# 5 -0.000984 -0.005448 -0.003982 0.000000 0.025578 0.000000
# 6 0.000000 0.000000 0.000000 -0.012454 0.000000 0.013762
#
#
# Mechanical properties :
#
#
# Convention : Reuss Voigt Hill
#
# Bulk Modulus (GPa) = 41.48559 63.77179 52.62869
# Shear Modulus (GPa) = 44.40757 69.87963 57.14360
#
# Velocity S-wave (km/s) = 4.33551 5.43860 4.91808
# Velocity P-wave (km/s) = 6.52856 8.15052 7.38421
#
# Compressibility (1/GPa) = 0.02410476
#
# Stress axis : x y z
#
# Youngs Moduli (GPa) = 126.64465 120.02608 64.18309
#
# Poissons Ratio (x) = 0.30003 0.19551
# Poissons Ratio (y) = 0.31657 -0.10874
# Poissons Ratio (z) = 0.38579 -0.20335
#
# Static dielectric constant tensor:
#      x y z
#    x 1.968600 0.000000 -0.040950 
#    y 0.000000 1.858280 0.000000 
#    z -0.040950 0.000000 1.939850 
# 
# From -- ./inp_files/15171.got.cif
#   From: 2010.05.17/outbox.cif.g08.bks.cpg/sg10_8_cif.got.tgz:15171.got - 2010.06.03 11:33:40.
