data_PCOD9153365
_publ_section_title
;
Structure prediction by ZEFSAII (Michael W. Deem and Ramdas Pophale) SiO2 
 PCOD9153365
Probable space group: P 2/M
;
_chemical_formula_sum "Si O2"
_cell_formula_units_Z 32
_cell_length_a 12.427834
_cell_length_b 17.469663
_cell_length_c 15.600146
_cell_angle_alpha 90.000000
_cell_angle_beta 151.111043
_cell_angle_gamma 90.000000
_cell_volume 1636.281172
_symmetry_space_group_name_H-M "P 2/M"
_symmetry_group_IT_number 10
_symmetry_cell_setting 'monoclinic'
loop_
_space_group_symop_operation_xyz
x,y,z
-x,y,-z
-x,-y,-z
x,-y,z
loop_
_atom_site_type_symbol
_atom_site_label
_atom_site_fract_x
_atom_site_fract_y
_atom_site_fract_z
Si Si1 0.889089 0.290607 0.510058
Si Si2 0.281899 0.767062 0.903281
Si Si3 0.547282 0.174771 0.320042
Si Si4 0.716987 0.908524 0.597959
Si Si5 0.919223 0.336362 0.088100
Si Si6 0.321442 0.681992 0.249406
Si Si7 0.751290 0.410563 0.553960
Si Si8 0.780105 0.090463 0.031271
O O1 0.697859 0.227004 0.362569
O O2 0.804239 0.362986 0.504652
O O3 0.000000 0.315111 0.500000
O O4 0.072665 0.250434 0.697345
O O5 0.226878 0.718211 0.951831
O O6 0.500000 0.746415 0.000000
O O7 0.285913 0.855140 0.935612
O O8 0.700866 0.129936 0.494058
O O9 0.412697 0.237466 0.280180
O O10 0.381480 0.117575 0.157232
O O11 0.500000 0.883132 0.500000
O O12 0.700755 0.000000 0.577640
O O13 0.959297 0.892329 0.806803
O O14 0.133036 0.300677 0.188220
O O15 0.043153 0.396412 0.236938
O O16 0.774867 0.359522 0.904091
O O17 0.522408 0.629999 0.423331
O O18 0.720143 0.500000 0.519083
O O19 0.759392 0.000000 0.032842
#
# Coordination Sequence:
#
# PCOD9153365 Si02
#       8
#     4   4   4   4   4   4   4   4
#     4  10  22  40  65  93 121 161 210 261 313 365
#     4  11  22  40  66  87 122 163 212 262 310 372
#     4  11  21  37  64  90 119 163 211 262 307 372
#     4  10  23  38  55  85 126 166 204 255 316 374
#     4  10  22  40  60  93 124 162 203 252 304 367
#     4  10  22  36  64  92 125 160 204 250 305 364
#     4  10  23  41  63  94 128 162 201 248 308 375
#     4  11  23  40  61  90 125 165 211 259 317 373
#
# _framework density 19.556540999999999
#
# number of rings (size 3 to 8) (size 9 to 14) (size 15 to 20)
#    0.000    1.625    2.500    1.500    3.500    2.500 
#    0.000    3.125    0.000    3.375    0.000    0.000 
#    0.000    0.000    0.000    0.000    0.000    0.000 
#
# Total GULP energy -178505.018019 kJ/mol
# GULP energy per Si atom -5578.281813 kJ/mol
# Density = 1.951203 g / cm^3
# Si number density = 19.556541 Si / 1000 Ang^3
#
#
#
# Elastic Constant Matrix: (Units=GPa)
#
#
# Indices 1 2 3 4 5 6 
#
# 1 132.1898 42.5353 35.7111 0.0000 14.4253 0.0000
# 2 42.5353 78.9642 37.0742 0.0000 0.4975 0.0000
# 3 35.7111 37.0742 102.3463 0.0000 3.3212 0.0000
# 4 0.0000 0.0000 0.0000 19.5687 0.0000 -4.9113
# 5 14.4253 0.4975 3.3212 0.0000 32.0043 0.0000
# 6 0.0000 0.0000 0.0000 -4.9113 0.0000 -12.7002
#
#
#
# Elastic Compliance Matrix: (Units=1/GPa)
#
#
# Indices 1 2 3 4 5 6 
#
# 1 0.009943 -0.004536 -0.001689 0.000000 -0.004236 0.000000
# 2 -0.004536 0.017333 -0.004769 0.000000 0.002270 0.000000
# 3 -0.001689 -0.004769 0.012101 0.000000 -0.000421 0.000000
# 4 0.000000 0.000000 0.000000 0.046581 0.000000 -0.018013
# 5 -0.004236 0.002270 -0.000421 0.000000 0.033163 0.000000
# 6 0.000000 0.000000 0.000000 -0.018013 0.000000 -0.071773
#
#
# Mechanical properties :
#
#
# Convention : Reuss Voigt Hill
#
# Bulk Modulus (GPa) = 57.51112 60.46017 58.98565
# Shear Modulus (GPa) = 66.54854 20.98655 43.76754
#
# Velocity S-wave (km/s) = 5.83975 3.27941 4.73588
# Velocity P-wave (km/s) = 8.65689 6.73216 7.75447
#
# Compressibility (1/GPa) = 0.01738794
#
# Stress axis : x y z
#
# Youngs Moduli (GPa) = 100.57310 57.69492 82.63600
#
# Poissons Ratio (x) = 0.26173 0.13954
# Poissons Ratio (y) = 0.45625 0.39412
# Poissons Ratio (z) = 0.16983 0.27517
#
# Static dielectric constant tensor:
#      x y z
#    x 1.702670 0.000000 0.001200 
#    y 0.000000 1.647440 0.000000 
#    z 0.001200 0.000000 1.734890 
# 
# From -- ./inp_files/51972.got.cif
#   From: 2010.05.17/outbox.cif.g08.bks.cpg/sg10_26_cif.got.tgz:51972.got - 2010.06.03 11:33:40.
