data_PCOD9153555
_publ_section_title
;
Structure prediction by ZEFSAII (Michael W. Deem and Ramdas Pophale) SiO2 
 PCOD9153555
Probable space group: P 2/M
;
_chemical_formula_sum "Si O2"
_cell_formula_units_Z 32
_cell_length_a 12.413498
_cell_length_b 8.213699
_cell_length_c 32.538222
_cell_angle_alpha 90.000000
_cell_angle_beta 28.084857
_cell_angle_gamma 90.000000
_cell_volume 1561.865409
_symmetry_space_group_name_H-M "P 2/M"
_symmetry_group_IT_number 10
_symmetry_cell_setting 'monoclinic'
loop_
_space_group_symop_operation_xyz
x,y,z
-x,y,-z
-x,-y,-z
x,-y,z
loop_
_atom_site_type_symbol
_atom_site_label
_atom_site_fract_x
_atom_site_fract_y
_atom_site_fract_z
Si Si1 0.138041 0.802399 0.176750
Si Si2 0.071371 0.190003 0.838773
Si Si3 0.289539 0.803089 0.516678
Si Si4 0.191125 0.801908 0.640413
Si Si5 0.528196 0.308174 0.239520
Si Si6 0.051596 0.304869 0.437159
Si Si7 0.633133 0.311682 0.031615
Si Si8 0.264968 0.192558 0.914948
O O1 0.394707 0.736848 0.091150
O O2 0.997978 0.752428 0.183382
O O3 0.003824 0.747553 0.262765
O O4 0.149233 0.000000 0.172722
O O5 0.276635 0.281881 0.791970
O O6 0.134569 0.000000 0.815219
O O7 0.843620 0.209333 0.942823
O O8 0.174180 0.750496 0.598679
O O9 0.555962 0.754749 0.429133
O O10 0.155343 0.734102 0.523505
O O11 0.282956 0.000000 0.517365
O O12 0.186702 0.000000 0.641811
O O13 0.506507 0.500000 0.238259
O O14 0.287938 0.243103 0.337772
O O15 0.608280 0.224932 0.170457
O O16 0.076995 0.500000 0.431891
O O17 0.000000 0.239957 0.500000
O O18 0.683429 0.500000 0.006887
O O19 0.621999 0.279295 0.084124
O O20 0.264526 0.000000 0.923581
O O21 0.000000 0.246997 0.000000
#
# Coordination Sequence:
#
# PCOD9153555 Si02
#       8
#     4   4   4   4   4   4   4   4
#     4  10  22  39  61  87 121 160 202 252 301 354
#     4  11  23  40  62  88 120 161 206 251 302 359
#     4   9  18  36  63  89 116 150 198 249 295 350
#     4   8  17  36  60  89 118 149 191 248 305 346
#     4  11  24  41  63  90 123 163 207 254 305 364
#     4  10  24  43  60  86 128 167 198 242 305 365
#     4  12  25  40  61  89 124 161 201 248 300 362
#     4  11  23  41  66  92 121 160 205 253 307 367
#
# _framework density 20.488320999999999
#
# number of rings (size 3 to 8) (size 9 to 14) (size 15 to 20)
#    0.000    1.750    1.250    3.375    3.500    4.250 
#    0.000    1.875    0.000    0.000    0.000    0.000 
#    0.000    0.000    0.000    0.000    0.000    0.000 
#
# Total GULP energy -178868.494372 kJ/mol
# GULP energy per Si atom -5589.640449 kJ/mol
# Density = 2.044169 g / cm^3
# Si number density = 20.488321 Si / 1000 Ang^3
#
#
#
# Elastic Constant Matrix: (Units=GPa)
#
#
# Indices 1 2 3 4 5 6 
#
# 1 81.1070 -12.1990 12.6719 0.0000 15.9572 0.0000
# 2 -12.1990 11.3171 -3.4138 0.0000 4.7638 0.0000
# 3 12.6719 -3.4138 70.8176 0.0000 11.9794 0.0000
# 4 0.0000 0.0000 0.0000 5.0398 0.0000 -6.0740
# 5 15.9572 4.7638 11.9794 0.0000 19.7582 0.0000
# 6 0.0000 0.0000 0.0000 -6.0740 0.0000 36.5283
#
#
#
# Elastic Compliance Matrix: (Units=1/GPa)
#
#
# Indices 1 2 3 4 5 6 
#
# 1 0.023760 0.039209 0.002768 0.000000 -0.030320 0.000000
# 2 0.039209 0.169486 0.014957 0.000000 -0.081599 0.000000
# 3 0.002768 0.014957 0.017087 0.000000 -0.016201 0.000000
# 4 0.000000 0.000000 0.000000 0.248149 0.000000 0.041263
# 5 -0.030320 -0.081599 -0.016201 0.000000 0.104596 0.000000
# 6 0.000000 0.000000 0.000000 0.041263 0.000000 0.034237
#
#
# Mechanical properties :
#
#
# Convention : Reuss Voigt Hill
#
# Bulk Modulus (GPa) = 3.08451 17.48443 10.28447
# Shear Modulus (GPa) = 8.45288 23.34410 15.89849
#
# Velocity S-wave (km/s) = 2.03339 3.37914 2.78866
# Velocity P-wave (km/s) = 2.64984 4.87618 3.92421
#
# Compressibility (1/GPa) = 0.32420020
#
# Stress axis : x y z
#
# Youngs Moduli (GPa) = 42.08836 5.90019 58.52336
#
# Poissons Ratio (x) = -0.23134 -0.16197
# Poissons Ratio (y) = -1.65023 -0.87536
# Poissons Ratio (z) = -0.11648 -0.08825
#
# Static dielectric constant tensor:
#      x y z
#    x 1.701620 0.000000 0.015390 
#    y 0.000000 1.712970 0.000000 
#    z 0.015390 0.000000 1.716970 
# 
# From -- ./inp_files/95002.got.cif
#   From: 2010.05.17/outbox.cif.g08.bks.cpg/sg10_48_cif.got.tgz:95002.got - 2010.06.03 11:33:40.
