data_PCOD9153993
_publ_section_title
;
Structure prediction by ZEFSAII (Michael W. Deem and Ramdas Pophale) SiO2 
 PCOD9153993
Probable space group: P 2/M
;
_chemical_formula_sum "Si O2"
_cell_formula_units_Z 17
_cell_length_a 5.120483
_cell_length_b 24.365760
_cell_length_c 5.110773
_cell_angle_alpha 90.000000
_cell_angle_beta 88.862674
_cell_angle_gamma 90.000000
_cell_volume 637.517213
_symmetry_space_group_name_H-M "P 2/M"
_symmetry_group_IT_number 10
_symmetry_cell_setting 'monoclinic'
loop_
_space_group_symop_operation_xyz
x,y,z
-x,y,-z
-x,-y,-z
x,-y,z
loop_
_atom_site_type_symbol
_atom_site_label
_atom_site_fract_x
_atom_site_fract_y
_atom_site_fract_z
Si Si1 0.185443 0.500000 0.746238
Si Si2 0.500000 0.707483 0.000000
Si Si3 0.760457 0.212213 0.320236
Si Si4 0.192832 0.620357 0.743449
Si Si5 0.249627 0.084410 0.824857
Si Si6 0.000000 0.000000 0.500000
O O1 0.318775 0.559256 0.742271
O O2 0.000000 0.500000 0.500000
O O3 0.000000 0.500000 0.000000
O O4 0.726378 0.751454 0.060926
O O5 0.576787 0.664141 0.224543
O O6 0.500000 0.219986 0.500000
O O7 0.774264 0.148494 0.242436
O O8 0.000000 0.227724 0.500000
O O9 0.000000 0.627320 0.500000
O O10 0.000000 0.625711 0.000000
O O11 0.214371 0.048079 0.571076
O O12 0.500000 0.075519 0.000000
O O13 0.000000 0.065864 0.000000
#
# Coordination Sequence:
#
# PCOD9153993 Si02
#       6
#     2   2   4   4   4   1
#     4   8  16  37  64  93 136 186 235 302 373 445
#     4  12  28  39  72  97 144 188 248 306 368 446
#     4  12  28  49  76 104 146 195 247 302 375 447
#     4  10  23  42  67 101 142 188 246 307 376 449
#     4  12  27  49  75 110 145 190 247 301 369 446
#     4  12  28  46  80 104 154 188 242 312 366 442
#
# _framework density 26.665948
#
# number of rings (size 3 to 8) (size 9 to 14) (size 15 to 20)
#    0.000    0.941    2.353    2.824    6.588    1.412 
#    0.000    0.000    0.000    8.471    0.000    0.000 
#    0.000    0.000    0.000    0.000    0.000    0.000 
#
# Total GULP energy -94898.290163 kJ/mol
# GULP energy per Si atom -5582.252363 kJ/mol
# Density = 2.660525 g / cm^3
# Si number density = 26.665948 Si / 1000 Ang^3
#
#
#
# Elastic Constant Matrix: (Units=GPa)
#
#
# Indices 1 2 3 4 5 6 
#
# 1 171.9173 23.2821 73.7010 0.0000 38.6842 0.0000
# 2 23.2821 265.4844 40.1262 0.0000 53.0430 0.0000
# 3 73.7010 40.1262 184.2789 0.0000 42.3777 0.0000
# 4 0.0000 0.0000 0.0000 21.5148 0.0000 55.0019
# 5 38.6842 53.0430 42.3777 0.0000 81.3793 0.0000
# 6 0.0000 0.0000 0.0000 55.0019 0.0000 -4.4962
#
#
#
# Elastic Compliance Matrix: (Units=1/GPa)
#
#
# Indices 1 2 3 4 5 6 
#
# 1 0.007370 0.000194 -0.002448 0.000000 -0.002355 0.000000
# 2 0.000194 0.004354 -0.000400 0.000000 -0.002722 0.000000
# 3 -0.002448 -0.000400 0.007004 0.000000 -0.002223 0.000000
# 4 0.000000 0.000000 0.000000 0.001440 0.000000 0.017618
# 5 -0.002355 -0.002722 -0.002223 0.000000 0.016339 0.000000
# 6 0.000000 0.000000 0.000000 0.017618 0.000000 -0.006891
#
#
# Mechanical properties :
#
#
# Convention : Reuss Voigt Hill
#
# Bulk Modulus (GPa) = 74.51418 99.54434 87.02926
# Shear Modulus (GPa) = 126.91325 51.98433 89.44879
#
# Velocity S-wave (km/s) = 6.90631 4.42006 5.79802
# Velocity P-wave (km/s) = 9.57081 7.96621 8.80514
#
# Compressibility (1/GPa) = 0.01342026
#
# Stress axis : x y z
#
# Youngs Moduli (GPa) = 135.68631 229.67671 142.77628
#
# Poissons Ratio (x) = -0.04461 0.34956
# Poissons Ratio (y) = -0.02636 0.05708
# Poissons Ratio (z) = 0.33220 0.09182
#
# Static dielectric constant tensor:
#      x y z
#    x 2.098070 0.000000 -0.167350 
#    y 0.000000 2.072410 0.000000 
#    z -0.167350 0.000000 2.220080 
# 
# From -- ./inp_files/1678.got.cif
#   From: 2010.05.17/outbox.cif.g08.bks.cpg/sg10_1_cif.got.tgz:1678.got - 2010.06.03 11:33:40.
