data_PCOD9153859
_publ_section_title
;
Structure prediction by ZEFSAII (Michael W. Deem and Ramdas Pophale) SiO2 
 PCOD9153859
Probable space group: P 2/M
;
_chemical_formula_sum "Si O2"
_cell_formula_units_Z 32
_cell_length_a 22.629257
_cell_length_b 15.197639
_cell_length_c 14.729898
_cell_angle_alpha 90.000000
_cell_angle_beta 162.014363
_cell_angle_gamma 90.000000
_cell_volume 1564.203716
_symmetry_space_group_name_H-M "P 2/M"
_symmetry_group_IT_number 10
_symmetry_cell_setting 'monoclinic'
loop_
_space_group_symop_operation_xyz
x,y,z
-x,y,-z
-x,-y,-z
x,-y,z
loop_
_atom_site_type_symbol
_atom_site_label
_atom_site_fract_x
_atom_site_fract_y
_atom_site_fract_z
Si Si1 0.008011 0.095268 0.370060
Si Si2 0.448482 0.098945 0.320733
Si Si3 0.537508 0.726217 0.758746
Si Si4 0.970621 0.291152 0.358236
Si Si5 0.419904 0.280541 0.780333
Si Si6 0.092901 0.398157 0.363916
Si Si7 0.821305 0.397223 0.803577
Si Si8 0.685612 0.094111 0.338055
O O1 0.045662 0.189541 0.470771
O O2 0.128322 0.097190 0.453435
O O3 0.062565 0.000000 0.493361
O O4 0.781838 0.094359 0.023238
O O5 0.500000 0.121896 0.500000
O O6 0.513436 0.174394 0.346436
O O7 0.522778 0.000000 0.410774
O O8 0.561783 0.713021 0.902882
O O9 0.364315 0.662448 0.479192
O O10 0.740964 0.708430 0.008645
O O11 0.068829 0.341491 0.419361
O O12 0.000000 0.331905 0.500000
O O13 0.323070 0.185390 0.622589
O O14 0.265800 0.357988 0.557633
O O15 0.500000 0.279929 0.000000
O O16 0.129365 0.500000 0.437798
O O17 0.904222 0.391349 0.026492
O O18 0.778908 0.500000 0.721453
O O19 0.000000 0.371140 0.000000
O O20 0.681372 0.000000 0.381644
O O21 0.500000 0.093626 0.000000
#
# Coordination Sequence:
#
# PCOD9153859 Si02
#       8
#     4   4   4   4   4   4   4   4
#     4   9  18  35  58  87 120 164 208 245 298 360
#     4   9  20  38  60  88 127 167 206 252 306 368
#     4  11  24  37  66  95 120 163 208 258 309 365
#     4  11  24  41  61  92 130 164 206 255 302 368
#     4  11  22  39  61  90 127 166 205 249 307 377
#     4  11  24  43  65  88 121 163 203 255 316 373
#     4  10  22  43  68  93 119 150 202 263 314 370
#     4   9  18  32  56  85 118 158 201 248 291 343
#
# _framework density 20.457694
#
# number of rings (size 3 to 8) (size 9 to 14) (size 15 to 20)
#    0.000    1.875    2.500    0.750    5.250    1.750 
#    0.000    2.500    0.000    0.375    0.000    0.000 
#    0.000    0.000    0.000    0.000    0.000    0.000 
#
# Total GULP energy -178450.924007 kJ/mol
# GULP energy per Si atom -5576.591375 kJ/mol
# Density = 2.041113 g / cm^3
# Si number density = 20.457694 Si / 1000 Ang^3
#
#
#
# Elastic Constant Matrix: (Units=GPa)
#
#
# Indices 1 2 3 4 5 6 
#
# 1 78.2577 36.1224 5.7811 0.0000 2.1814 0.0000
# 2 36.1224 118.2167 42.7878 0.0000 7.5718 0.0000
# 3 5.7811 42.7878 45.8286 0.0000 8.4026 0.0000
# 4 0.0000 0.0000 0.0000 32.6805 0.0000 13.3926
# 5 2.1814 7.5718 8.4026 0.0000 29.4085 0.0000
# 6 0.0000 0.0000 0.0000 13.3926 0.0000 9.9400
#
#
#
# Elastic Compliance Matrix: (Units=1/GPa)
#
#
# Indices 1 2 3 4 5 6 
#
# 1 0.015288 -0.006004 0.003800 0.000000 -0.000674 0.000000
# 2 -0.006004 0.015135 -0.013445 0.000000 0.000390 0.000000
# 3 0.003800 -0.013445 0.035152 0.000000 -0.006864 0.000000
# 4 0.000000 0.000000 0.000000 0.068325 0.000000 -0.092057
# 5 -0.000674 0.000390 -0.006864 0.000000 0.035914 0.000000
# 6 0.000000 0.000000 0.000000 -0.092057 0.000000 0.224636
#
#
# Mechanical properties :
#
#
# Convention : Reuss Voigt Hill
#
# Bulk Modulus (GPa) = 29.17277 45.74285 37.45781
# Shear Modulus (GPa) = 11.43715 24.91325 18.17520
#
# Velocity S-wave (km/s) = 2.36702 3.49348 2.98389
# Velocity P-wave (km/s) = 4.66491 6.21939 5.49737
#
# Compressibility (1/GPa) = 0.03427855
#
# Stress axis : x y z
#
# Youngs Moduli (GPa) = 65.41287 66.07296 28.44777
#
# Poissons Ratio (x) = 0.39668 -0.10811
# Poissons Ratio (y) = 0.39272 0.38247
# Poissons Ratio (z) = -0.24860 0.88833
#
# Static dielectric constant tensor:
#      x y z
#    x 1.739560 0.000000 -0.023160 
#    y 0.000000 1.758420 0.000000 
#    z -0.023160 0.000000 1.728970 
# 
# From -- ./inp_files/70784.got.cif
#   From: 2010.05.17/outbox.cif.g08.bks.cpg/sg10_36_cif.got.tgz:70784.got - 2010.06.03 11:33:40.
