data_PCOD9153956
_publ_section_title
;
Structure prediction by ZEFSAII (Michael W. Deem and Ramdas Pophale) SiO2 
 PCOD9153956
Probable space group: P 2/M
;
_chemical_formula_sum "Si O2"
_cell_formula_units_Z 17
_cell_length_a 5.019522
_cell_length_b 24.625175
_cell_length_c 5.139081
_cell_angle_alpha 90.000000
_cell_angle_beta 91.699702
_cell_angle_gamma 90.000000
_cell_volume 634.944879
_symmetry_space_group_name_H-M "P 2/M"
_symmetry_group_IT_number 10
_symmetry_cell_setting 'monoclinic'
loop_
_space_group_symop_operation_xyz
x,y,z
-x,y,-z
-x,-y,-z
x,-y,z
loop_
_atom_site_type_symbol
_atom_site_label
_atom_site_fract_x
_atom_site_fract_y
_atom_site_fract_z
Si Si1 0.187720 0.590077 0.258606
Si Si2 0.000000 0.205136 0.500000
Si Si3 0.312476 0.000000 0.244741
Si Si4 0.500000 0.500000 0.000000
Si Si5 0.695138 0.119081 0.758268
Si Si6 0.733324 0.714502 0.815280
O O1 0.416766 0.547410 0.209086
O O2 0.292255 0.651673 0.264605
O O3 0.000000 0.579763 0.500000
O O4 0.000000 0.583440 0.000000
O O5 0.070630 0.162530 0.274009
O O6 0.227870 0.248779 0.437572
O O7 0.500000 0.000000 0.500000
O O8 0.176426 0.941364 0.240880
O O9 0.500000 0.000000 0.000000
O O10 0.500000 0.124566 0.500000
O O11 0.500000 0.125594 0.000000
O O12 0.500000 0.731981 0.000000
O O13 0.000000 0.718881 0.000000
#
# Coordination Sequence:
#
# PCOD9153956 Si02
#       6
#     4   2   2   1   4   4
#     4  11  25  47  70 105 141 184 237 292 357 425
#     4  12  26  39  70  97 140 186 234 298 346 434
#     4   8  16  37  62  89 128 176 221 288 351 419
#     4  12  24  46  76 104 140 186 236 304 346 426
#     4  10  23  41  65  96 135 177 234 289 356 420
#     4  11  26  48  71 103 145 193 239 294 360 430
#
# _framework density 26.773978
#
# number of rings (size 3 to 8) (size 9 to 14) (size 15 to 20)
#    0.000    1.412    2.353    1.412    6.588    2.353 
#    0.000    0.000    0.000    8.471    0.000    0.000 
#    0.000    0.000    0.000    0.000    0.000    0.000 
#
# Total GULP energy -94899.073886 kJ/mol
# GULP energy per Si atom -5582.298464 kJ/mol
# Density = 2.671304 g / cm^3
# Si number density = 26.773978 Si / 1000 Ang^3
#
#
#
# Elastic Constant Matrix: (Units=GPa)
#
#
# Indices 1 2 3 4 5 6 
#
# 1 116.1512 39.7711 71.6678 0.0000 -21.5485 0.0000
# 2 39.7711 254.9828 54.7612 0.0000 -50.8554 0.0000
# 3 71.6678 54.7612 251.4177 0.0000 -43.7493 0.0000
# 4 0.0000 0.0000 0.0000 40.0452 0.0000 -39.0112
# 5 -21.5485 -50.8554 -43.7493 0.0000 80.2634 0.0000
# 6 0.0000 0.0000 0.0000 -39.0112 0.0000 5.6047
#
#
#
# Elastic Compliance Matrix: (Units=1/GPa)
#
#
# Indices 1 2 3 4 5 6 
#
# 1 0.010759 -0.000931 -0.002722 0.000000 0.000815 0.000000
# 2 -0.000931 0.004635 -0.000306 0.000000 0.002520 0.000000
# 3 -0.002722 -0.000306 0.005147 0.000000 0.001881 0.000000
# 4 0.000000 0.000000 0.000000 -0.004320 0.000000 -0.030068
# 5 0.000815 0.002520 0.001881 0.000000 0.015300 0.000000
# 6 0.000000 0.000000 0.000000 -0.030068 0.000000 -0.030865
#
#
# Mechanical properties :
#
#
# Convention : Reuss Voigt Hill
#
# Bulk Modulus (GPa) = 79.21521 106.10578 92.66049
# Shear Modulus (GPa) = 391.13708 55.60610 223.37159
#
# Velocity S-wave (km/s) = 12.09982 4.56221 9.14384
# Velocity P-wave (km/s) = 14.99528 8.21389 12.08980
#
# Compressibility (1/GPa) = 0.01262384
#
# Stress axis : x y z
#
# Youngs Moduli (GPa) = 92.94391 215.73178 194.27309
#
# Poissons Ratio (x) = 0.20084 0.52889
# Poissons Ratio (y) = 0.08653 0.05938
# Poissons Ratio (z) = 0.25303 0.06594
#
# Static dielectric constant tensor:
#      x y z
#    x 2.202020 0.000000 0.156050 
#    y 0.000000 2.080920 0.000000 
#    z 0.156050 0.000000 2.094850 
# 
# From -- ./inp_files/1679.got.cif
#   From: 2010.05.17/outbox.cif.g08.bks.cpg/sg10_1_cif.got.tgz:1679.got - 2010.06.03 11:33:40.
