data_PCOD9153474
_publ_section_title
;
Structure prediction by ZEFSAII (Michael W. Deem and Ramdas Pophale) SiO2 
 PCOD9153474
Probable space group: P 2/M
;
_chemical_formula_sum "Si O2"
_cell_formula_units_Z 22
_cell_length_a 5.098998
_cell_length_b 8.472626
_cell_length_c 25.707601
_cell_angle_alpha 90.000000
_cell_angle_beta 118.680452
_cell_angle_gamma 90.000000
_cell_volume 974.355599
_symmetry_space_group_name_H-M "P 2/M"
_symmetry_group_IT_number 10
_symmetry_cell_setting 'monoclinic'
loop_
_space_group_symop_operation_xyz
x,y,z
-x,y,-z
-x,-y,-z
x,-y,z
loop_
_atom_site_type_symbol
_atom_site_label
_atom_site_fract_x
_atom_site_fract_y
_atom_site_fract_z
Si Si1 0.851782 0.680416 0.822432
Si Si2 0.912232 0.687332 0.630804
Si Si3 0.642810 0.000000 0.957159
Si Si4 0.741910 0.811266 0.434510
Si Si5 0.193762 0.183154 0.760539
Si Si6 0.235663 0.324968 0.069523
O O1 0.901415 0.500000 0.811001
O O2 0.500215 0.719593 0.787207
O O3 0.927758 0.695653 0.890752
O O4 0.027072 0.787604 0.798906
O O5 0.948891 0.500000 0.635971
O O6 0.574024 0.731680 0.583496
O O7 0.139946 0.759820 0.610655
O O8 0.982348 0.760319 0.693687
O O9 0.577393 0.165105 0.921992
O O10 0.500000 0.000000 0.000000
O O11 0.000000 0.000000 0.000000
O O12 0.000000 0.766664 0.500000
O O13 0.702927 0.000000 0.432802
O O14 0.266721 0.000000 0.761147
O O15 0.385882 0.500000 0.085472
O O16 0.000000 0.332014 0.000000
#
# Coordination Sequence:
#
# PCOD9153474 Si02
#       6
#     4   4   2   4   4   4
#     4  11  24  44  68  96 131 171 220 275 331 400
#     4  12  25  43  67  96 134 175 221 273 326 388
#     4  10  22  38  60  90 122 160 206 256 307 386
#     4  11  24  43  68  99 136 176 219 268 325 388
#     4  12  26  44  68  96 131 174 222 274 331 394
#     4   9  21  42  67  95 131 172 214 269 337 401
#
# _framework density 22.579025000000001
#
# number of rings (size 3 to 8) (size 9 to 14) (size 15 to 20)
#    0.000    1.091    0.000    6.000    2.545    6.909 
#    0.000    5.455    0.000    0.000    0.000    0.000 
#    0.000    0.000    0.000    0.000    0.000    0.000 
#
# Total GULP energy -123204.230904 kJ/mol
# GULP energy per Si atom -5600.192314 kJ/mol
# Density = 2.252763 g / cm^3
# Si number density = 22.579025 Si / 1000 Ang^3
#
#
#
# Elastic Constant Matrix: (Units=GPa)
#
#
# Indices 1 2 3 4 5 6 
#
# 1 75.3121 -7.6689 -7.2464 0.0000 -0.9952 0.0000
# 2 -7.6689 115.4747 15.1711 0.0000 -10.4290 0.0000
# 3 -7.2464 15.1711 80.2149 0.0000 -2.0483 0.0000
# 4 0.0000 0.0000 0.0000 -15.0630 0.0000 11.1514
# 5 -0.9952 -10.4290 -2.0483 0.0000 32.8857 0.0000
# 6 0.0000 0.0000 0.0000 11.1514 0.0000 27.4408
#
#
#
# Elastic Compliance Matrix: (Units=1/GPa)
#
#
# Indices 1 2 3 4 5 6 
#
# 1 0.013475 0.000819 0.001081 0.000000 0.000735 0.000000
# 2 0.000819 0.009179 -0.001590 0.000000 0.002837 0.000000
# 3 0.001081 -0.001590 0.012873 0.000000 0.000330 0.000000
# 4 0.000000 0.000000 0.000000 -0.051034 0.000000 0.020739
# 5 0.000735 0.002837 0.000330 0.000000 0.031351 0.000000
# 6 0.000000 0.000000 0.000000 0.020739 0.000000 0.028014
#
#
# Mechanical properties :
#
#
# Convention : Reuss Voigt Hill
#
# Bulk Modulus (GPa) = 27.66303 30.16816 28.91559
# Shear Modulus (GPa) = 90.43755 27.10243 58.76999
#
# Velocity S-wave (km/s) = 6.33567 3.46835 5.10736
# Velocity P-wave (km/s) = 8.11167 5.42489 6.90031
#
# Compressibility (1/GPa) = 0.03614933
#
# Stress axis : x y z
#
# Youngs Moduli (GPa) = 74.21020 108.93997 77.68030
#
# Poissons Ratio (x) = -0.08925 -0.08398
# Poissons Ratio (y) = -0.06080 0.12349
# Poissons Ratio (z) = -0.08023 0.17318
#
# Static dielectric constant tensor:
#      x y z
#    x 1.779350 0.000000 0.021030 
#    y 0.000000 1.835830 0.000000 
#    z 0.021030 0.000000 1.836750 
# 
# From -- ./inp_files/87358.got.cif
#   From: 2010.05.17/outbox.cif.g08.bks.cpg/sg10_44_cif.got.tgz:87358.got - 2010.06.03 11:33:40.
