data_PCOD9153022
_publ_section_title
;
Structure prediction by ZEFSAII (Michael W. Deem and Ramdas Pophale) SiO2 
 PCOD9153022
Probable space group: P 2/M
;
_chemical_formula_sum "Si O2"
_cell_formula_units_Z 26
_cell_length_a 15.758865
_cell_length_b 14.803008
_cell_length_c 8.855086
_cell_angle_alpha 90.000000
_cell_angle_beta 38.038928
_cell_angle_gamma 90.000000
_cell_volume 1272.878872
_symmetry_space_group_name_H-M "P 2/M"
_symmetry_group_IT_number 10
_symmetry_cell_setting 'monoclinic'
loop_
_space_group_symop_operation_xyz
x,y,z
-x,y,-z
-x,-y,-z
x,-y,z
loop_
_atom_site_type_symbol
_atom_site_label
_atom_site_fract_x
_atom_site_fract_y
_atom_site_fract_z
Si Si1 0.352595 0.638874 0.685992
Si Si2 0.240980 0.105345 0.807214
Si Si3 0.000000 0.776548 0.000000
Si Si4 0.278786 0.231494 0.044448
Si Si5 0.860490 0.500000 0.103438
Si Si6 0.410351 0.788637 0.361172
Si Si7 0.825331 0.698499 0.511537
Si Si8 0.073669 0.500000 0.555812
O O1 0.500000 0.591756 0.500000
O O2 0.291432 0.675903 0.928327
O O3 0.240487 0.584680 0.747773
O O4 0.393358 0.724052 0.529480
O O5 0.118220 0.159663 0.899149
O O6 0.256882 0.154008 0.948608
O O7 0.360896 0.119087 0.511684
O O8 0.214925 0.000000 0.865156
O O9 0.943564 0.720055 0.222029
O O10 0.429675 0.211806 0.903470
O O11 0.172441 0.249437 0.329801
O O12 0.000000 0.500000 0.000000
O O13 0.930506 0.500000 0.845847
O O14 0.310791 0.741166 0.378390
O O15 0.839061 0.591139 0.527796
O O16 0.000000 0.500000 0.500000
#
# Coordination Sequence:
#
# PCOD9153022 Si02
#       8
#     4   4   2   4   2   4   4   2
#     4   9  19  37  57  82 117 161 205 251 315 380
#     4  10  21  40  67  98 128 162 210 260 317 385
#     4  10  25  41  66  88 128 178 210 255 321 390
#     4  10  21  39  64  87 125 161 209 256 317 382
#     4  12  23  33  56  85 117 153 212 260 305 373
#     4   9  20  39  63  91 120 166 204 255 317 380
#     4  11  24  42  61  91 129 171 215 263 317 375
#     4  12  28  37  59  93 130 164 218 274 311 360
#
# _framework density 20.426138999999999
#
# number of rings (size 3 to 8) (size 9 to 14) (size 15 to 20)
#    0.000    1.846    0.000    4.154    9.692    1.231 
#    0.000    7.692    0.000    4.615    0.000    0.000 
#    0.000    0.000    0.000    0.000    0.000    0.000 
#
# Total GULP energy -144765.484050 kJ/mol
# GULP energy per Si atom -5567.903233 kJ/mol
# Density = 2.037965 g / cm^3
# Si number density = 20.426139 Si / 1000 Ang^3
#
#
#
# Elastic Constant Matrix: (Units=GPa)
#
#
# Indices 1 2 3 4 5 6 
#
# 1 103.9646 53.2282 39.5008 0.0000 3.8069 0.0000
# 2 53.2282 123.7553 34.8632 0.0000 9.9918 0.0000
# 3 39.5008 34.8632 105.6045 0.0000 22.2169 0.0000
# 4 0.0000 0.0000 0.0000 4.5148 0.0000 8.2448
# 5 3.8069 9.9918 22.2169 0.0000 39.4673 0.0000
# 6 0.0000 0.0000 0.0000 8.2448 0.0000 13.3331
#
#
#
# Elastic Compliance Matrix: (Units=1/GPa)
#
#
# Indices 1 2 3 4 5 6 
#
# 1 0.013524 -0.004892 -0.003890 0.000000 0.002124 0.000000
# 2 -0.004892 0.010695 -0.001396 0.000000 -0.001450 0.000000
# 3 -0.003890 -0.001396 0.012741 0.000000 -0.006443 0.000000
# 4 0.000000 0.000000 0.000000 -1.713888 0.000000 1.059813
# 5 0.002124 -0.001450 -0.006443 0.000000 0.029127 0.000000
# 6 0.000000 0.000000 0.000000 1.059813 0.000000 -0.580352
#
#
# Mechanical properties :
#
#
# Convention : Reuss Voigt Hill
#
# Bulk Modulus (GPa) = 60.23026 65.38986 62.81006
# Shear Modulus (GPa) = -2.27039 25.17853 11.45407
#
# Velocity S-wave (km/s) = -1.05543 3.51474 2.37060
# Velocity P-wave (km/s) = 5.29770 6.96803 6.18947
#
# Compressibility (1/GPa) = 0.01660295
#
# Stress axis : x y z
#
# Youngs Moduli (GPa) = 73.94427 93.50242 78.48832
#
# Poissons Ratio (x) = 0.45743 0.30534
# Poissons Ratio (y) = 0.36175 0.10955
# Poissons Ratio (z) = 0.28766 0.13051
#
# Static dielectric constant tensor:
#      x y z
#    x 1.762780 0.000000 -0.059720 
#    y 0.000000 1.729830 0.000000 
#    z -0.059720 0.000000 1.788290 
# 
# From -- ./inp_files/29803.got.cif
#   From: 2010.05.17/outbox.cif.g08.bks.cpg/sg10_15_cif.got.tgz:29803.got - 2010.06.03 11:33:40.
