data_PCOD9153485
_publ_section_title
;
Structure prediction by ZEFSAII (Michael W. Deem and Ramdas Pophale) SiO2 
 PCOD9153485
Probable space group: P 2/M
;
_chemical_formula_sum "Si O2"
_cell_formula_units_Z 32
_cell_length_a 14.537375
_cell_length_b 14.445931
_cell_length_c 7.872574
_cell_angle_alpha 90.000000
_cell_angle_beta 66.147577
_cell_angle_gamma 90.000000
_cell_volume 1512.079961
_symmetry_space_group_name_H-M "P 2/M"
_symmetry_group_IT_number 10
_symmetry_cell_setting 'monoclinic'
loop_
_space_group_symop_operation_xyz
x,y,z
-x,y,-z
-x,-y,-z
x,-y,z
loop_
_atom_site_type_symbol
_atom_site_label
_atom_site_fract_x
_atom_site_fract_y
_atom_site_fract_z
Si Si1 0.066712 0.262653 0.592274
Si Si2 0.383326 0.195095 0.025984
Si Si3 0.919001 0.844584 0.938890
Si Si4 0.609384 0.607586 0.464730
Si Si5 0.384983 0.891374 0.647199
Si Si6 0.189552 0.102073 0.312070
Si Si7 0.617881 0.397178 0.864833
Si Si8 0.235506 0.744222 0.699499
O O1 0.118073 0.171702 0.469069
O O2 0.163302 0.303079 0.613314
O O3 0.000000 0.312925 0.500000
O O4 0.987260 0.230638 0.791375
O O5 0.379282 0.152962 0.839867
O O6 0.500000 0.189186 0.000000
O O7 0.302697 0.138117 0.197686
O O8 0.347866 0.302372 0.071014
O O9 0.861600 0.899846 0.836629
O O10 0.836289 0.792104 0.111584
O O11 0.000000 0.894217 0.000000
O O12 0.500000 0.645416 0.500000
O O13 0.611585 0.500000 0.418932
O O14 0.625128 0.616903 0.655552
O O15 0.690961 0.663557 0.299738
O O16 0.500000 0.885502 0.500000
O O17 0.310437 0.827970 0.589658
O O18 0.355861 0.000000 0.671361
O O19 0.188950 0.000000 0.388674
O O20 0.661032 0.500000 0.873523
O O21 0.500000 0.402699 0.000000
#
# Coordination Sequence:
#
# PCOD9153485 Si02
#       8
#     4   4   4   4   4   4   4   4
#     4   9  21  39  60  87 115 153 206 265 323 371
#     4  11  24  39  60  87 124 171 206 255 308 370
#     4   9  20  38  58  82 111 150 199 263 319 365
#     4  10  22  38  62  98 135 167 207 258 311 374
#     4  11  26  42  57  85 126 172 217 257 302 370
#     4  11  22  37  57  85 118 158 208 254 306 378
#     4   9  20  37  57  86 122 160 205 253 306 360
#     4  11  21  38  66  87 118 166 208 253 314 377
#
# _framework density 21.162901999999999
#
# number of rings (size 3 to 8) (size 9 to 14) (size 15 to 20)
#    0.000    1.875    1.250    1.500    8.750    4.000 
#    0.000    3.750    0.000    4.125    0.000    3.500 
#    0.000    0.000    0.000    0.000    0.000    0.000 
#
# Total GULP energy -178506.738849 kJ/mol
# GULP energy per Si atom -5578.335589 kJ/mol
# Density = 2.111473 g / cm^3
# Si number density = 21.162902 Si / 1000 Ang^3
#
#
#
# Elastic Constant Matrix: (Units=GPa)
#
#
# Indices 1 2 3 4 5 6 
#
# 1 111.2779 14.5921 17.6355 0.0000 -16.4006 0.0000
# 2 14.5921 61.4826 6.8208 0.0000 -9.7426 0.0000
# 3 17.6355 6.8208 63.1213 0.0000 -17.1232 0.0000
# 4 0.0000 0.0000 0.0000 14.3408 0.0000 53.1182
# 5 -16.4006 -9.7426 -17.1232 0.0000 33.4667 0.0000
# 6 0.0000 0.0000 0.0000 53.1182 0.0000 108.7168
#
#
#
# Elastic Compliance Matrix: (Units=1/GPa)
#
#
# Indices 1 2 3 4 5 6 
#
# 1 0.009987 -0.001620 -0.001644 0.000000 0.003582 0.000000
# 2 -0.001620 0.017332 -0.000310 0.000000 0.004093 0.000000
# 3 -0.001644 -0.000310 0.018686 0.000000 0.008665 0.000000
# 4 0.000000 0.000000 0.000000 -0.086115 0.000000 0.042075
# 5 0.003582 0.004093 0.008665 0.000000 0.037261 0.000000
# 6 0.000000 0.000000 0.000000 0.042075 0.000000 -0.011359
#
#
# Mechanical properties :
#
#
# Convention : Reuss Voigt Hill
#
# Bulk Modulus (GPa) = 25.73504 34.88651 30.31077
# Shear Modulus (GPa) = 848.57126 44.42708 446.49917
#
# Velocity S-wave (km/s) = 20.04599 4.58677 14.54098
# Velocity P-wave (km/s) = 23.40888 6.67621 17.21260
#
# Compressibility (1/GPa) = 0.03885752
#
# Stress axis : x y z
#
# Youngs Moduli (GPa) = 100.12638 57.69572 53.51662
#
# Poissons Ratio (x) = 0.09349 0.08796
# Poissons Ratio (y) = 0.16225 0.01658
# Poissons Ratio (z) = 0.16457 0.01788
#
# Static dielectric constant tensor:
#      x y z
#    x 1.847660 0.000000 0.061710 
#    y 0.000000 1.747070 0.000000 
#    z 0.061710 0.000000 1.797790 
# 
# From -- ./inp_files/29468.got.cif
#   From: 2010.05.17/outbox.cif.g08.bks.cpg/sg10_15_cif.got.tgz:29468.got - 2010.06.03 11:33:40.
