data_PCOD9153385
_publ_section_title
;
Structure prediction by ZEFSAII (Michael W. Deem and Ramdas Pophale) SiO2 
 PCOD9153385
Probable space group: P 2/M
;
_chemical_formula_sum "Si O2"
_cell_formula_units_Z 28
_cell_length_a 10.510681
_cell_length_b 14.024212
_cell_length_c 23.497023
_cell_angle_alpha 90.000000
_cell_angle_beta 26.537871
_cell_angle_gamma 90.000000
_cell_volume 1547.479394
_symmetry_space_group_name_H-M "P 2/M"
_symmetry_group_IT_number 10
_symmetry_cell_setting 'monoclinic'
loop_
_space_group_symop_operation_xyz
x,y,z
-x,y,-z
-x,-y,-z
x,-y,z
loop_
_atom_site_type_symbol
_atom_site_label
_atom_site_fract_x
_atom_site_fract_y
_atom_site_fract_z
Si Si1 0.255537 0.250000 0.250000
Si Si2 0.606529 0.885137 0.394709
Si Si3 0.185365 0.385137 0.105291
Si Si4 0.230329 0.611438 0.957610
Si Si5 0.939229 0.111438 0.457611
Si Si6 0.258342 0.887788 0.144127
Si Si7 0.165148 0.387788 0.644128
O O1 0.515045 0.318702 0.159846
O O2 0.326835 0.180039 0.169216
O O3 0.154427 0.181298 0.340155
O O4 0.003702 0.319961 0.330782
O O5 0.500000 0.851364 0.500000
O O6 0.376222 0.859324 0.438696
O O7 0.937334 0.861083 0.252622
O O8 0.600927 0.000000 0.399365
O O9 0.198386 0.500000 0.100635
O O10 0.947821 0.361083 0.247378
O O11 0.500000 0.351364 0.000000
O O12 0.131009 0.359324 0.061303
O O13 0.322244 0.500000 0.924778
O O14 0.000000 0.617134 0.000000
O O15 0.000000 0.117134 0.500000
O O16 0.978643 0.000000 0.424779
O O17 0.249281 0.000000 0.164569
O O18 0.500000 0.877981 0.000000
O O19 0.500000 0.377981 0.500000
O O20 0.092445 0.500000 0.664569
#
# Coordination Sequence:
#
# PCOD9153385 Si02
#       7
#     4   4   4   4   4   4   4
#     4  12  22  36  62  90 116 160 200 258 290 368
#     4   9  16  34  62  84 109 152 201 239 287 354
#     4   9  16  34  62  84 109 152 201 239 287 354
#     4  10  22  41  63  87 120 163 205 249 300 362
#     4  10  22  41  63  87 120 163 205 249 300 362
#     4  10  22  37  57  91 127 155 193 253 310 351
#     4  10  22  37  57  91 127 155 193 253 310 351
#
# _framework density 18.09394
#
# number of rings (size 3 to 8) (size 9 to 14) (size 15 to 20)
#    0.000    2.000    2.857    0.857    4.000    0.000 
#    5.143    0.000    0.000    1.714    0.000    0.000 
#    0.000    0.000    0.000    0.000    0.000    0.000 
#
# Total GULP energy -156213.244288 kJ/mol
# GULP energy per Si atom -5579.044439 kJ/mol
# Density = 1.805276 g / cm^3
# Si number density = 18.093940 Si / 1000 Ang^3
#
#
#
# Elastic Constant Matrix: (Units=GPa)
#
#
# Indices 1 2 3 4 5 6 
#
# 1 112.4702 46.4562 63.8219 0.0000 -0.0293 0.0000
# 2 46.4562 116.8469 47.3133 0.0000 0.0081 0.0000
# 3 63.8219 47.3133 141.4651 0.0000 0.3065 0.0000
# 4 0.0000 0.0000 0.0000 16.6279 0.0000 -0.0055
# 5 -0.0293 0.0081 0.3065 0.0000 22.8082 0.0000
# 6 0.0000 0.0000 0.0000 -0.0055 0.0000 17.2061
#
#
#
# Elastic Compliance Matrix: (Units=1/GPa)
#
#
# Indices 1 2 3 4 5 6 
#
# 1 0.012914 -0.003210 -0.004753 0.000000 0.000082 0.000000
# 2 -0.003210 0.010697 -0.002129 0.000000 0.000021 0.000000
# 3 -0.004753 -0.002129 0.009926 0.000000 -0.000139 0.000000
# 4 0.000000 0.000000 0.000000 0.060140 0.000000 0.000019
# 5 0.000082 0.000021 -0.000139 0.000000 0.043846 0.000000
# 6 0.000000 0.000000 0.000000 0.000019 0.000000 0.058119
#
#
# Mechanical properties :
#
#
# Convention : Reuss Voigt Hill
#
# Bulk Modulus (GPa) = 74.89465 76.21831 75.55648
# Shear Modulus (GPa) = 22.69880 25.54117 24.11999
#
# Velocity S-wave (km/s) = 3.54573 3.76119 3.65505
# Velocity P-wave (km/s) = 7.63184 7.81519 7.72406
#
# Compressibility (1/GPa) = 0.01335209
#
# Stress axis : x y z
#
# Youngs Moduli (GPa) = 77.43437 93.48724 100.74966
#
# Poissons Ratio (x) = 0.30009 0.47885
# Poissons Ratio (y) = 0.24856 0.21454
# Poissons Ratio (z) = 0.36803 0.19907
#
# Static dielectric constant tensor:
#      x y z
#    x 1.603460 0.000000 0.000220 
#    y 0.000000 1.644560 0.000000 
#    z 0.000220 0.000000 1.626910 
# 
# From -- ./inp_files/82878.got.cif
#   From: 2010.05.17/outbox.cif.g08.bks.cpg/sg10_42_cif.got.tgz:82878.got - 2010.06.03 11:33:40.
