data_PCOD9153270
_publ_section_title
;
Structure prediction by ZEFSAII (Michael W. Deem and Ramdas Pophale) SiO2 
 PCOD9153270
Probable space group: P 2/M
;
_chemical_formula_sum "Si O2"
_cell_formula_units_Z 24
_cell_length_a 19.224218
_cell_length_b 15.661214
_cell_length_c 10.817450
_cell_angle_alpha 90.000000
_cell_angle_beta 22.860323
_cell_angle_gamma 90.000000
_cell_volume 1265.244069
_symmetry_space_group_name_H-M "P 2/M"
_symmetry_group_IT_number 10
_symmetry_cell_setting 'monoclinic'
loop_
_space_group_symop_operation_xyz
x,y,z
-x,y,-z
-x,-y,-z
x,-y,z
loop_
_atom_site_type_symbol
_atom_site_label
_atom_site_fract_x
_atom_site_fract_y
_atom_site_fract_z
Si Si1 0.257519 0.763447 0.130701
Si Si2 0.440092 0.340723 0.231562
Si Si3 0.506781 0.100447 0.637546
Si Si4 0.474942 0.500000 0.349377
Si Si5 0.905420 0.690676 0.832002
Si Si6 0.812608 0.500000 0.959084
Si Si7 0.177377 0.780298 0.773907
O O1 0.251341 0.715643 0.007959
O O2 0.073046 0.743460 0.502645
O O3 0.406229 0.721569 0.971932
O O4 0.325216 0.858471 0.991049
O O5 0.432741 0.417849 0.337821
O O6 0.262521 0.283991 0.533175
O O7 0.500000 0.371498 0.000000
O O8 0.500000 0.113194 0.500000
O O9 0.675536 0.151098 0.420453
O O10 0.520053 0.000000 0.640170
O O11 0.683371 0.500000 0.050353
O O12 0.336564 0.500000 0.689047
O O13 0.923728 0.588016 0.789455
O O14 0.865531 0.723240 0.034376
O O15 0.000000 0.817536 0.000000
#
# Coordination Sequence:
#
# PCOD9153270 Si02
#       7
#     4   4   4   2   4   2   4
#     4  10  22  37  63  89 123 164 210 255 311 379
#     4  11  22  38  58  85 125 171 216 259 317 370
#     4  10  21  41  69  97 125 161 204 257 324 392
#     4  11  21  35  58  91 122 168 220 275 304 372
#     4  11  21  39  60  92 126 167 215 264 306 358
#     4  11  22  36  63  92 127 168 226 267 309 357
#     4  11  23  40  65  91 127 168 210 262 318 377
#
# _framework density 18.968672000000002
#
# number of rings (size 3 to 8) (size 9 to 14) (size 15 to 20)
#    0.000    1.333    5.000    1.250    0.000    2.333 
#    0.000    5.833    0.000   17.000    0.000    0.000 
#    0.000    0.000    0.000    0.000    0.000    0.000 
#
# Total GULP energy -133867.392522 kJ/mol
# GULP energy per Si atom -5577.808022 kJ/mol
# Density = 1.892550 g / cm^3
# Si number density = 18.968672 Si / 1000 Ang^3
#
#
#
# Elastic Constant Matrix: (Units=GPa)
#
#
# Indices 1 2 3 4 5 6 
#
# 1 67.2115 20.8569 24.3464 0.0000 1.1308 0.0000
# 2 20.8569 132.8248 45.0162 0.0000 -0.5252 0.0000
# 3 24.3464 45.0162 82.7292 0.0000 3.1252 0.0000
# 4 0.0000 0.0000 0.0000 19.1476 0.0000 9.5379
# 5 1.1308 -0.5252 3.1252 0.0000 23.3959 0.0000
# 6 0.0000 0.0000 0.0000 9.5379 0.0000 10.5972
#
#
#
# Elastic Compliance Matrix: (Units=1/GPa)
#
#
# Indices 1 2 3 4 5 6 
#
# 1 0.016805 -0.001186 -0.004290 0.000000 -0.000266 0.000000
# 2 -0.001186 0.009333 -0.004764 0.000000 0.000903 0.000000
# 3 -0.004290 -0.004764 0.016019 0.000000 -0.002039 0.000000
# 4 0.000000 0.000000 0.000000 0.094670 0.000000 -0.085207
# 5 -0.000266 0.000903 -0.002039 0.000000 0.043048 0.000000
# 6 0.000000 0.000000 0.000000 -0.085207 0.000000 0.171055
#
#
# Mechanical properties :
#
#
# Convention : Reuss Voigt Hill
#
# Bulk Modulus (GPa) = 46.12994 51.46720 48.79857
# Shear Modulus (GPa) = 13.20533 23.46452 18.33493
#
# Velocity S-wave (km/s) = 2.64136 3.52094 3.11238
# Velocity P-wave (km/s) = 5.80294 6.61218 6.22074
#
# Compressibility (1/GPa) = 0.02167790
#
# Stress axis : x y z
#
# Youngs Moduli (GPa) = 59.50634 107.14754 62.42478
#
# Poissons Ratio (x) = 0.12706 0.26782
# Poissons Ratio (y) = 0.07057 0.29736
# Poissons Ratio (z) = 0.25530 0.51040
#
# Static dielectric constant tensor:
#      x y z
#    x 1.665780 0.000000 -0.002790 
#    y 0.000000 1.777380 0.000000 
#    z -0.002790 0.000000 1.721400 
# 
# From -- ./inp_files/56034.got.cif
#   From: 2010.05.17/outbox.cif.g08.bks.cpg/sg10_29_cif.got.tgz:56034.got - 2010.06.03 11:33:40.
