data_PCOD9153114
_publ_section_title
;
Structure prediction by ZEFSAII (Michael W. Deem and Ramdas Pophale) SiO2 
 PCOD9153114
Probable space group: P 2/M
;
_chemical_formula_sum "Si O2"
_cell_formula_units_Z 24
_cell_length_a 16.488280
_cell_length_b 14.686819
_cell_length_c 9.986798
_cell_angle_alpha 90.000000
_cell_angle_beta 34.360407
_cell_angle_gamma 90.000000
_cell_volume 1364.940819
_symmetry_space_group_name_H-M "P 2/M"
_symmetry_group_IT_number 10
_symmetry_cell_setting 'monoclinic'
loop_
_space_group_symop_operation_xyz
x,y,z
-x,y,-z
-x,-y,-z
x,-y,z
loop_
_atom_site_type_symbol
_atom_site_label
_atom_site_fract_x
_atom_site_fract_y
_atom_site_fract_z
Si Si1 0.648389 0.106949 0.216427
Si Si2 0.946547 0.392326 0.223391
Si Si3 0.830063 0.892326 0.223391
Si Si4 0.366074 0.750000 1.000000
Si Si5 0.305414 0.750000 0.389172
Si Si6 0.864816 0.606949 0.783573
O O1 0.500000 0.120420 0.500000
O O2 0.772244 0.130921 0.154263
O O3 0.650270 0.168072 0.082575
O O4 0.659336 0.000000 0.167889
O O5 0.915184 0.500000 0.284508
O O6 0.807148 0.332148 0.442406
O O7 0.073493 0.369079 0.154263
O O8 0.000000 0.377276 0.000000
O O9 0.750446 0.832148 0.442406
O O10 0.800308 0.000000 0.284508
O O11 0.000000 0.877276 0.000000
O O12 0.534130 0.724508 0.782070
O O13 0.316200 0.775492 0.217930
O O14 0.267155 0.668072 0.082575
O O15 0.827226 0.500000 0.832111
O O16 0.000000 0.620420 0.500000
#
# Coordination Sequence:
#
# PCOD9153114 Si02
#       6
#     4   4   4   4   4   4
#     4  10  21  40  61  84 118 158 197 239 293 354
#     4  10  22  40  62  86 115 157 201 242 293 350
#     4  10  22  40  62  86 115 157 201 242 293 350
#     4  11  24  36  59  92 118 158 197 240 300 355
#     4  11  23  38  56  88 125 153 194 246 298 349
#     4  10  21  40  61  84 118 158 197 239 293 354
#
# _framework density 17.583179999999999
#
# number of rings (size 3 to 8) (size 9 to 14) (size 15 to 20)
#    0.000    1.667    3.333    0.500    4.667    1.333 
#    0.000    3.333    0.000    7.000    0.000    0.000 
#    0.000    0.000    0.000    0.000    0.000    0.000 
#
# Total GULP energy -134030.845570 kJ/mol
# GULP energy per Si atom -5584.618565 kJ/mol
# Density = 1.754316 g / cm^3
# Si number density = 17.583180 Si / 1000 Ang^3
#
#
#
# Elastic Constant Matrix: (Units=GPa)
#
#
# Indices 1 2 3 4 5 6 
#
# 1 179.7667 79.7995 76.6140 0.0000 2.5913 0.0000
# 2 79.7995 89.0268 66.2355 0.0000 0.7550 0.0000
# 3 76.6140 66.2355 95.1684 0.0000 2.1177 0.0000
# 4 0.0000 0.0000 0.0000 24.7505 0.0000 -0.2286
# 5 2.5913 0.7550 2.1177 0.0000 28.3259 0.0000
# 6 0.0000 0.0000 0.0000 -0.2286 0.0000 20.6444
#
#
#
# Elastic Compliance Matrix: (Units=1/GPa)
#
#
# Indices 1 2 3 4 5 6 
#
# 1 0.009833 -0.006073 -0.003679 0.000000 -0.000463 0.000000
# 2 -0.006073 0.027055 -0.013961 0.000000 0.000878 0.000000
# 3 -0.003679 -0.013961 0.023209 0.000000 -0.001026 0.000000
# 4 0.000000 0.000000 0.000000 0.040407 0.000000 0.000447
# 5 -0.000463 0.000878 -0.001026 0.000000 0.035399 0.000000
# 6 0.000000 0.000000 0.000000 0.000447 0.000000 0.048444
#
#
# Mechanical properties :
#
#
# Convention : Reuss Voigt Hill
#
# Bulk Modulus (GPa) = 78.91509 89.91775 84.41642
# Shear Modulus (GPa) = 21.18671 24.16501 22.67586
#
# Velocity S-wave (km/s) = 3.47499 3.71121 3.59504
# Velocity P-wave (km/s) = 7.81532 8.34348 8.08371
#
# Compressibility (1/GPa) = 0.01267185
#
# Stress axis : x y z
#
# Youngs Moduli (GPa) = 101.69603 36.96166 43.08710
#
# Poissons Ratio (x) = 0.22446 0.15853
# Poissons Ratio (y) = 0.61757 0.60152
# Poissons Ratio (z) = 0.37417 0.51601
#
# Static dielectric constant tensor:
#      x y z
#    x 1.603660 0.000000 0.001770 
#    y 0.000000 1.582350 0.000000 
#    z 0.001770 0.000000 1.571870 
# 
# From -- ./inp_files/29303.got.cif
#   From: 2010.05.17/outbox.cif.g08.bks.cpg/sg10_15_cif.got.tgz:29303.got - 2010.06.03 11:33:40.
