data_PCOD9153704
_publ_section_title
;
Structure prediction by ZEFSAII (Michael W. Deem and Ramdas Pophale) SiO2 
 PCOD9153704
Probable space group: P 2/M
;
_chemical_formula_sum "Si O2"
_cell_formula_units_Z 16
_cell_length_a 10.161735
_cell_length_b 10.803591
_cell_length_c 7.332193
_cell_angle_alpha 90.000000
_cell_angle_beta 60.622051
_cell_angle_gamma 90.000000
_cell_volume 701.437172
_symmetry_space_group_name_H-M "P 2/M"
_symmetry_group_IT_number 10
_symmetry_cell_setting 'monoclinic'
loop_
_space_group_symop_operation_xyz
x,y,z
-x,y,-z
-x,-y,-z
x,-y,z
loop_
_atom_site_type_symbol
_atom_site_label
_atom_site_fract_x
_atom_site_fract_y
_atom_site_fract_z
Si Si1 0.243090 0.189849 0.338322
Si Si2 0.247604 0.360992 0.043378
Si Si3 0.560843 0.863503 0.253910
Si Si4 0.004873 0.187009 0.200096
O O1 0.406985 0.133453 0.241344
O O2 0.153299 0.181803 0.588336
O O3 0.129388 0.136925 0.260593
O O4 0.270115 0.328624 0.242545
O O5 0.286874 0.500000 0.970034
O O6 0.339444 0.253569 0.874513
O O7 0.071702 0.326276 0.135224
O O8 0.500000 0.846033 0.500000
O O9 0.634596 0.000000 0.193099
O O10 0.000000 0.135507 0.000000
#
# Coordination Sequence:
#
# PCOD9153704 Si02
#       4
#     4   4   4   4
#     4   9  21  38  63  94 130 170 209 267 320 385
#     4  10  22  40  65  97 133 171 214 267 325 387
#     4  11  24  43  67  95 130 174 222 270 325 388
#     4   9  19  39  63  95 134 170 211 264 328 385
#
# _framework density 22.810310000000001
#
# number of rings (size 3 to 8) (size 9 to 14) (size 15 to 20)
#    1.500    0.750    0.000    2.250    0.000    7.000 
#    0.000    6.250    0.000    6.750    0.000    0.000 
#    0.000    0.000    0.000    0.000    0.000    0.000 
#
# Total GULP energy -89073.618891 kJ/mol
# GULP energy per Si atom -5567.101181 kJ/mol
# Density = 2.275839 g / cm^3
# Si number density = 22.810310 Si / 1000 Ang^3
#
#
#
# Elastic Constant Matrix: (Units=GPa)
#
#
# Indices 1 2 3 4 5 6 
#
# 1 54.8830 3.3527 26.2815 0.0000 15.1600 0.0000
# 2 3.3527 174.2152 61.6375 0.0000 -7.9858 0.0000
# 3 26.2815 61.6375 183.4932 0.0000 9.7175 0.0000
# 4 0.0000 0.0000 0.0000 -45.8090 0.0000 24.1559
# 5 15.1600 -7.9858 9.7175 0.0000 37.6374 0.0000
# 6 0.0000 0.0000 0.0000 24.1559 0.0000 0.5696
#
#
#
# Elastic Compliance Matrix: (Units=1/GPa)
#
#
# Indices 1 2 3 4 5 6 
#
# 1 0.021739 0.000189 -0.002753 0.000000 -0.008005 0.000000
# 2 0.000189 0.006664 -0.002369 0.000000 0.001949 0.000000
# 3 -0.002753 -0.002369 0.006699 0.000000 -0.001123 0.000000
# 4 0.000000 0.000000 0.000000 -0.000934 0.000000 0.039626
# 5 -0.008005 0.001949 -0.001123 0.000000 0.030497 0.000000
# 6 0.000000 0.000000 0.000000 0.039626 0.000000 0.075146
#
#
# Mechanical properties :
#
#
# Convention : Reuss Voigt Hill
#
# Bulk Modulus (GPa) = 39.62647 66.12608 52.87628
# Shear Modulus (GPa) = 31.62775 19.90091 25.76433
#
# Velocity S-wave (km/s) = 3.72769 2.95693 3.36446
# Velocity P-wave (km/s) = 5.99478 6.38047 6.19063
#
# Compressibility (1/GPa) = 0.02523566
#
# Stress axis : x y z
#
# Youngs Moduli (GPa) = 46.00100 150.06422 149.26977
#
# Poissons Ratio (x) = -0.02832 0.41095
# Poissons Ratio (y) = -0.00868 0.35358
# Poissons Ratio (z) = 0.12664 0.35546
#
# Static dielectric constant tensor:
#      x y z
#    x 1.946810 0.000000 0.027670 
#    y 0.000000 1.843840 0.000000 
#    z 0.027670 0.000000 1.881810 
# 
# From -- ./inp_files/23211.got.cif
#   From: 2010.05.17/outbox.cif.g08.bks.cpg/sg10_12_cif.got.tgz:23211.got - 2010.06.03 11:33:40.
