data_PCOD9153252
_publ_section_title
;
Structure prediction by ZEFSAII (Michael W. Deem and Ramdas Pophale) SiO2 
 PCOD9153252
Probable space group: P 2/M
;
_chemical_formula_sum "Si O2"
_cell_formula_units_Z 32
_cell_length_a 20.010962
_cell_length_b 8.864290
_cell_length_c 13.223609
_cell_angle_alpha 90.000000
_cell_angle_beta 45.285175
_cell_angle_gamma 90.000000
_cell_volume 1666.854878
_symmetry_space_group_name_H-M "P 2/M"
_symmetry_group_IT_number 10
_symmetry_cell_setting 'monoclinic'
loop_
_space_group_symop_operation_xyz
x,y,z
-x,y,-z
-x,-y,-z
x,-y,z
loop_
_atom_site_type_symbol
_atom_site_label
_atom_site_fract_x
_atom_site_fract_y
_atom_site_fract_z
Si Si1 0.417733 0.178382 0.356852
Si Si2 0.431178 0.679667 0.668800
Si Si3 0.109956 0.819740 0.174301
Si Si4 0.793728 0.319202 0.733390
Si Si5 0.599646 0.324870 0.838796
Si Si6 0.226092 0.818997 0.851237
Si Si7 0.227631 0.680942 0.638921
Si Si8 0.903667 0.681546 0.411848
O O1 0.513468 0.253884 0.294406
O O2 0.401061 0.220532 0.258233
O O3 0.330661 0.250741 0.509940
O O4 0.420559 0.000000 0.369879
O O5 0.500000 0.707972 0.500000
O O6 0.418607 0.500000 0.691741
O O7 0.331085 0.757554 0.759506
O O8 0.169597 0.760343 0.205707
O O9 0.005749 0.752743 0.292424
O O10 0.105208 0.000000 0.183217
O O11 0.160633 0.776528 0.015542
O O12 0.803341 0.500000 0.736005
O O13 0.685442 0.286605 0.821583
O O14 0.854468 0.274702 0.569907
O O15 0.615306 0.500000 0.788810
O O16 0.500000 0.316419 0.000000
O O17 0.191608 0.746977 0.782938
O O18 0.228447 0.000000 0.839867
O O19 0.234594 0.500000 0.637231
O O20 0.162446 0.721785 0.612816
O O21 0.912053 0.500000 0.403713
#
# Coordination Sequence:
#
# PCOD9153252 Si02
#       8
#     4   4   4   4   4   4   4   4
#     4  12  24  38  61  92 128 166 202 253 314 373
#     4  11  23  39  63  90 119 162 211 252 293 359
#     4  11  26  43  61  91 130 164 204 258 318 382
#     4  10  21  41  66  93 125 163 210 259 305 365
#     4  10  22  41  64  93 127 166 209 252 304 366
#     4  11  25  43  61  91 131 167 205 258 318 372
#     4  11  22  41  67  94 124 162 214 263 304 370
#     4  10  22  42  68  93 120 157 209 266 313 367
#
# _framework density 19.197831000000001
#
# number of rings (size 3 to 8) (size 9 to 14) (size 15 to 20)
#    0.000    1.250    2.500    3.000    1.750    6.750 
#    0.000    2.500    0.000    0.000    0.000    0.000 
#    0.000    0.000    0.000    0.000    0.000    0.000 
#
# Total GULP energy -178969.613488 kJ/mol
# GULP energy per Si atom -5592.800421 kJ/mol
# Density = 1.915414 g / cm^3
# Si number density = 19.197831 Si / 1000 Ang^3
#
#
#
# Elastic Constant Matrix: (Units=GPa)
#
#
# Indices 1 2 3 4 5 6 
#
# 1 35.6206 11.0042 19.5645 0.0000 14.2145 0.0000
# 2 11.0042 36.8546 29.4775 0.0000 4.4023 0.0000
# 3 19.5645 29.4775 99.6201 0.0000 8.1491 0.0000
# 4 0.0000 0.0000 0.0000 23.3290 0.0000 20.6008
# 5 14.2145 4.4023 8.1491 0.0000 34.8154 0.0000
# 6 0.0000 0.0000 0.0000 20.6008 0.0000 -9.8897
#
#
#
# Elastic Compliance Matrix: (Units=1/GPa)
#
#
# Indices 1 2 3 4 5 6 
#
# 1 0.037875 -0.006056 -0.004531 0.000000 -0.013637 0.000000
# 2 -0.006056 0.036662 -0.009667 0.000000 0.000099 0.000000
# 3 -0.004531 -0.009667 0.013801 0.000000 -0.000158 0.000000
# 4 0.000000 0.000000 0.000000 0.015096 0.000000 0.031446
# 5 -0.013637 0.000099 -0.000158 0.000000 0.034315 0.000000
# 6 0.000000 0.000000 0.000000 0.031446 0.000000 -0.035611
#
#
# Mechanical properties :
#
#
# Convention : Reuss Voigt Hill
#
# Bulk Modulus (GPa) = 20.90703 32.46528 26.68616
# Shear Modulus (GPa) = 31.52772 17.12088 24.32430
#
# Velocity S-wave (km/s) = 4.05687 2.98956 3.56340
# Velocity P-wave (km/s) = 5.73221 5.37255 5.55529
#
# Compressibility (1/GPa) = 0.04783079
#
# Stress axis : x y z
#
# Youngs Moduli (GPa) = 26.40256 27.27615 72.45657
#
# Poissons Ratio (x) = 0.16518 0.32829
# Poissons Ratio (y) = 0.15989 0.70044
# Poissons Ratio (z) = 0.11963 0.26368
#
# Static dielectric constant tensor:
#      x y z
#    x 1.650250 0.000000 0.011230 
#    y 0.000000 1.645380 0.000000 
#    z 0.011230 0.000000 1.659260 
# 
# From -- ./inp_files/55179.got.cif
#   From: 2010.05.17/outbox.cif.g08.bks.cpg/sg10_28_cif.got.tgz:55179.got - 2010.06.03 11:33:40.
