data_PCOD9153469
_publ_section_title
;
Structure prediction by ZEFSAII (Michael W. Deem and Ramdas Pophale) SiO2 
 PCOD9153469
Probable space group: P 2/M
;
_chemical_formula_sum "Si O2"
_cell_formula_units_Z 28
_cell_length_a 8.470255
_cell_length_b 13.977824
_cell_length_c 16.116571
_cell_angle_alpha 90.000000
_cell_angle_beta 47.509914
_cell_angle_gamma 90.000000
_cell_volume 1407.046436
_symmetry_space_group_name_H-M "P 2/M"
_symmetry_group_IT_number 10
_symmetry_cell_setting 'monoclinic'
loop_
_space_group_symop_operation_xyz
x,y,z
-x,y,-z
-x,-y,-z
x,-y,z
loop_
_atom_site_type_symbol
_atom_site_label
_atom_site_fract_x
_atom_site_fract_y
_atom_site_fract_z
Si Si1 0.666267 0.725388 0.513191
Si Si2 0.412347 0.387688 0.300391
Si Si3 0.405587 0.888261 0.330553
Si Si4 0.851782 0.770437 0.700630
Si Si5 0.267635 0.256342 0.076549
Si Si6 0.249184 0.890457 0.933826
Si Si7 0.916603 0.611786 0.123373
O O1 0.500000 0.702956 0.500000
O O2 0.677348 0.641630 0.577670
O O3 0.590947 0.819099 0.591610
O O4 0.900356 0.745339 0.394495
O O5 0.389045 0.500000 0.291167
O O6 0.289306 0.320757 0.278926
O O7 0.665504 0.363649 0.213352
O O8 0.208350 0.853568 0.343017
O O9 0.609518 0.871133 0.198025
O O10 0.394638 0.000000 0.355245
O O11 0.786415 0.793970 0.817325
O O12 0.070864 0.325849 0.125771
O O13 0.500000 0.306673 0.000000
O O14 0.291620 0.181541 0.993274
O O15 0.295863 0.000000 0.942189
O O16 0.000000 0.882838 0.000000
O O17 0.934914 0.500000 0.139164
O O18 0.000000 0.624230 0.000000
#
# Coordination Sequence:
#
# PCOD9153469 Si02
#       7
#     4   4   4   4   4   4   4
#     4  11  25  41  62  94 125 156 206 255 303 367
#     4  10  22  43  66  88 122 165 205 252 305 357
#     4  10  22  43  64  87 124 165 205 250 304 361
#     4  11  24  39  61  96 123 158 206 252 303 362
#     4  12  23  37  63  91 127 166 195 252 312 354
#     4  10  23  40  63  93 122 163 212 250 296 366
#     4  10  22  38  60  89 121 161 205 247 299 365
#
# _framework density 19.899839
#
# number of rings (size 3 to 8) (size 9 to 14) (size 15 to 20)
#    0.000    1.429    1.429    3.857    8.000    4.571 
#    0.000    0.000    0.000    0.000    0.000    0.000 
#    0.000    0.000    0.000    0.000    0.000    0.000 
#
# Total GULP energy -156525.700088 kJ/mol
# GULP energy per Si atom -5590.203575 kJ/mol
# Density = 1.985455 g / cm^3
# Si number density = 19.899839 Si / 1000 Ang^3
#
#
#
# Elastic Constant Matrix: (Units=GPa)
#
#
# Indices 1 2 3 4 5 6 
#
# 1 61.2119 15.6192 15.3432 0.0000 -8.3487 0.0000
# 2 15.6192 90.2310 4.4960 0.0000 5.6308 0.0000
# 3 15.3432 4.4960 75.7335 0.0000 -18.1014 0.0000
# 4 0.0000 0.0000 0.0000 22.2777 0.0000 -9.1740
# 5 -8.3487 5.6308 -18.1014 0.0000 37.1295 0.0000
# 6 0.0000 0.0000 0.0000 -9.1740 0.0000 4.7229
#
#
#
# Elastic Compliance Matrix: (Units=1/GPa)
#
#
# Indices 1 2 3 4 5 6 
#
# 1 0.018293 -0.003235 -0.002732 0.000000 0.003272 0.000000
# 2 -0.003235 0.011859 -0.000738 0.000000 -0.002886 0.000000
# 3 -0.002732 -0.000738 0.015486 0.000000 0.007047 0.000000
# 4 0.000000 0.000000 0.000000 0.224330 0.000000 0.435749
# 5 0.003272 -0.002886 0.007047 0.000000 0.031542 0.000000
# 6 0.000000 0.000000 0.000000 0.435749 0.000000 1.058153
#
#
# Mechanical properties :
#
#
# Convention : Reuss Voigt Hill
#
# Bulk Modulus (GPa) = 31.02870 33.12148 32.07509
# Shear Modulus (GPa) = 3.61320 25.60722 14.61021
#
# Velocity S-wave (km/s) = 1.34894 3.59110 2.71253
# Velocity P-wave (km/s) = 4.24882 5.82021 5.09546
#
# Compressibility (1/GPa) = 0.03222822
#
# Stress axis : x y z
#
# Youngs Moduli (GPa) = 54.66541 84.32075 64.57455
#
# Poissons Ratio (x) = 0.27275 0.17642
# Poissons Ratio (y) = 0.17682 0.04769
# Poissons Ratio (z) = 0.14935 0.06227
#
# Static dielectric constant tensor:
#      x y z
#    x 1.692160 0.000000 -0.022840 
#    y 0.000000 1.694440 0.000000 
#    z -0.022840 0.000000 1.704890 
# 
# From -- ./inp_files/61756.got.cif
#   From: 2010.05.17/outbox.cif.g08.bks.cpg/sg10_31_cif.got.tgz:61756.got - 2010.06.03 11:33:40.
