data_PCOD9153369
_publ_section_title
;
Structure prediction by ZEFSAII (Michael W. Deem and Ramdas Pophale) SiO2 
 PCOD9153369
Probable space group: P 2/M
;
_chemical_formula_sum "Si O2"
_cell_formula_units_Z 24
_cell_length_a 11.930550
_cell_length_b 16.153334
_cell_length_c 14.304757
_cell_angle_alpha 90.000000
_cell_angle_beta 149.528284
_cell_angle_gamma 90.000000
_cell_volume 1398.002125
_symmetry_space_group_name_H-M "P 2/M"
_symmetry_group_IT_number 10
_symmetry_cell_setting 'monoclinic'
loop_
_space_group_symop_operation_xyz
x,y,z
-x,y,-z
-x,-y,-z
x,-y,z
loop_
_atom_site_type_symbol
_atom_site_label
_atom_site_fract_x
_atom_site_fract_y
_atom_site_fract_z
Si Si1 0.366603 0.000000 0.228380
Si Si2 0.853104 0.313510 0.607608
Si Si3 0.570255 0.598592 0.776732
Si Si4 0.281464 0.403205 0.905375
Si Si5 0.245694 0.406454 0.280458
Si Si6 0.052569 0.000000 0.184894
Si Si7 0.658612 0.139445 0.522862
O O1 0.200289 0.000000 0.197039
O O2 0.514232 0.918045 0.349425
O O3 0.205134 0.000000 0.024074
O O4 0.665077 0.361831 0.415290
O O5 0.864144 0.349194 0.721704
O O6 0.762101 0.220950 0.552363
O O7 0.090823 0.339256 0.738480
O O8 0.549737 0.500000 0.749379
O O9 0.736310 0.625326 0.812626
O O10 0.649687 0.614053 0.938061
O O11 0.203451 0.500000 0.843770
O O12 0.500000 0.396620 0.000000
O O13 0.500000 0.411331 0.500000
O O14 0.152289 0.500000 0.215487
O O15 0.139894 0.918810 0.299780
O O16 0.500000 0.157808 0.500000
#
# Coordination Sequence:
#
# PCOD9153369 Si02
#       7
#     2   4   4   4   4   2   4
#     4   8  15  29  46  65  95 135 168 187 221 289
#     4  11  19  30  49  73 101 129 159 205 252 286
#     4   9  18  32  49  69  95 128 163 200 246 297
#     4  10  22  37  50  67  93 131 179 216 244 287
#     4   8  14  26  44  67  96 127 155 187 237 296
#     4   8  15  29  46  65  99 138 159 184 229 285
#     4   9  17  28  45  72 101 129 162 194 233 293
#
# _framework density 17.167355000000001
#
# number of rings (size 3 to 8) (size 9 to 14) (size 15 to 20)
#    0.000    2.833    0.000    5.000    0.000    2.667 
#    0.000    8.333    0.000    0.000    0.000    2.333 
#    0.000    6.667    0.000    0.000    0.000    0.000 
#
# Total GULP energy -133733.451253 kJ/mol
# GULP energy per Si atom -5572.227136 kJ/mol
# Density = 1.712828 g / cm^3
# Si number density = 17.167355 Si / 1000 Ang^3
#
#
#
# Elastic Constant Matrix: (Units=GPa)
#
#
# Indices 1 2 3 4 5 6 
#
# 1 35.9386 23.1952 27.6070 0.0000 9.4415 0.0000
# 2 23.1952 66.4393 56.0992 0.0000 14.7895 0.0000
# 3 27.6070 56.0992 116.1048 0.0000 9.8934 0.0000
# 4 0.0000 0.0000 0.0000 5.1758 0.0000 6.0375
# 5 9.4415 14.7895 9.8934 0.0000 21.2404 0.0000
# 6 0.0000 0.0000 0.0000 6.0375 0.0000 15.3306
#
#
#
# Elastic Compliance Matrix: (Units=1/GPa)
#
#
# Indices 1 2 3 4 5 6 
#
# 1 0.038867 -0.007201 -0.004912 0.000000 -0.009974 0.000000
# 2 -0.007201 0.030385 -0.011912 0.000000 -0.012408 0.000000
# 3 -0.004912 -0.011912 0.015249 0.000000 0.003375 0.000000
# 4 0.000000 0.000000 0.000000 0.357392 0.000000 -0.140749
# 5 -0.009974 -0.012408 0.003375 0.000000 0.058581 0.000000
# 6 0.000000 0.000000 0.000000 -0.140749 0.000000 0.120659
#
#
# Mechanical properties :
#
#
# Convention : Reuss Voigt Hill
#
# Bulk Modulus (GPa) = 27.43447 48.03171 37.73309
# Shear Modulus (GPa) = 7.33855 15.78811 11.56333
#
# Velocity S-wave (km/s) = 2.06978 3.03588 2.59813
# Velocity P-wave (km/s) = 4.66125 6.35043 5.57025
#
# Compressibility (1/GPa) = 0.03645050
#
# Stress axis : x y z
#
# Youngs Moduli (GPa) = 25.72894 32.91044 65.57816
#
# Poissons Ratio (x) = 0.23699 0.32214
# Poissons Ratio (y) = 0.18527 0.78117
# Poissons Ratio (z) = 0.12639 0.39203
#
# Static dielectric constant tensor:
#      x y z
#    x 1.606880 0.000000 0.003350 
#    y 0.000000 1.576930 0.000000 
#    z 0.003350 0.000000 1.634000 
# 
# From -- ./inp_files/65194.got.cif
#   From: 2010.05.17/outbox.cif.g08.bks.cpg/sg10_33_cif.got.tgz:65194.got - 2010.06.03 11:33:40.
