data_PCOD9153120
_publ_section_title
;
Structure prediction by ZEFSAII (Michael W. Deem and Ramdas Pophale) SiO2 
 PCOD9153120
Probable space group: P 2/M
;
_chemical_formula_sum "Si O2"
_cell_formula_units_Z 28
_cell_length_a 11.506063
_cell_length_b 9.632023
_cell_length_c 15.017429
_cell_angle_alpha 90.000000
_cell_angle_beta 57.133762
_cell_angle_gamma 90.000000
_cell_volume 1397.938290
_symmetry_space_group_name_H-M "P 2/M"
_symmetry_group_IT_number 10
_symmetry_cell_setting 'monoclinic'
loop_
_space_group_symop_operation_xyz
x,y,z
-x,y,-z
-x,-y,-z
x,-y,z
loop_
_atom_site_type_symbol
_atom_site_label
_atom_site_fract_x
_atom_site_fract_y
_atom_site_fract_z
Si Si1 0.137023 0.343624 0.819528
Si Si2 0.424038 0.157151 0.937739
Si Si3 0.593880 0.334679 0.725577
Si Si4 0.080762 0.337956 0.373089
Si Si5 0.585724 0.161165 0.553885
Si Si6 0.121295 0.838988 0.659174
Si Si7 0.188717 0.656168 0.001884
O O1 0.172893 0.500000 0.774435
O O2 0.167849 0.232184 0.731786
O O3 0.201938 0.322126 0.889854
O O4 0.972035 0.339406 0.906016
O O5 0.505576 0.257308 0.837077
O O6 0.274399 0.225161 0.013316
O O7 0.415585 0.000000 0.906284
O O8 0.500000 0.154626 0.000000
O O9 0.569647 0.500000 0.734485
O O10 0.757029 0.311006 0.678711
O O11 0.557992 0.265013 0.645989
O O12 0.064877 0.500000 0.353898
O O13 0.000000 0.317860 0.500000
O O14 0.006929 0.243139 0.330409
O O15 0.500000 0.192835 0.500000
O O16 0.747793 0.170167 0.461323
O O17 0.555156 0.000000 0.590945
O O18 0.087574 0.000000 0.686858
O O19 0.238978 0.500000 0.002014
#
# Coordination Sequence:
#
# PCOD9153120 Si02
#       7
#     4   4   4   4   4   4   4
#     4   9  20  39  63  90 122 155 195 253 305 352
#     4  11  26  44  62  88 125 163 202 252 308 366
#     4  11  24  42  66  92 118 159 209 256 306 361
#     4  10  21  40  62  86 118 153 196 247 297 351
#     4  10  23  42  61  88 129 168 202 246 303 365
#     4  11  23  36  59  92 123 159 201 243 298 363
#     4   9  20  41  65  89 117 156 204 250 303 359
#
# _framework density 20.029496000000002
#
# number of rings (size 3 to 8) (size 9 to 14) (size 15 to 20)
#    0.000    1.857    1.429    2.143    4.000    4.571 
#    0.000    1.429    0.000    0.000    0.000    0.000 
#    0.000    0.000    0.000    0.000    0.000    0.000 
#
# Total GULP energy -156495.611914 kJ/mol
# GULP energy per Si atom -5589.128997 kJ/mol
# Density = 1.998391 g / cm^3
# Si number density = 20.029496 Si / 1000 Ang^3
#
#
#
# Elastic Constant Matrix: (Units=GPa)
#
#
# Indices 1 2 3 4 5 6 
#
# 1 69.8637 40.7340 -10.5329 0.0000 1.8036 0.0000
# 2 40.7340 105.8283 28.3247 0.0000 14.1699 0.0000
# 3 -10.5329 28.3247 41.2974 0.0000 5.6469 0.0000
# 4 0.0000 0.0000 0.0000 1.4667 0.0000 25.7487
# 5 1.8036 14.1699 5.6469 0.0000 22.2247 0.0000
# 6 0.0000 0.0000 0.0000 25.7487 0.0000 10.0305
#
#
#
# Elastic Compliance Matrix: (Units=1/GPa)
#
#
# Indices 1 2 3 4 5 6 
#
# 1 0.024841 -0.014150 0.015626 0.000000 0.003036 0.000000
# 2 -0.014150 0.020337 -0.016515 0.000000 -0.007622 0.000000
# 3 0.015626 -0.016515 0.039638 0.000000 -0.000810 0.000000
# 4 0.000000 0.000000 0.000000 -0.015472 0.000000 0.039718
# 5 0.003036 -0.007622 -0.000810 0.000000 0.049814 0.000000
# 6 0.000000 0.000000 0.000000 0.039718 0.000000 -0.002262
#
#
# Mechanical properties :
#
#
# Convention : Reuss Voigt Hill
#
# Bulk Modulus (GPa) = 18.26916 37.11567 27.69241
# Shear Modulus (GPa) = 30.26275 17.30861 23.78568
#
# Velocity S-wave (km/s) = 3.89126 2.94284 3.44980
# Velocity P-wave (km/s) = 5.41573 5.48797 5.45197
#
# Compressibility (1/GPa) = 0.05473704
#
# Stress axis : x y z
#
# Youngs Moduli (GPa) = 40.25535 49.17248 25.22828
#
# Poissons Ratio (x) = 0.69581 -0.39422
# Poissons Ratio (y) = 0.56963 0.41665
# Poissons Ratio (z) = -0.62903 0.81209
#
# Static dielectric constant tensor:
#      x y z
#    x 1.714090 0.000000 -0.014460 
#    y 0.000000 1.680570 0.000000 
#    z -0.014460 0.000000 1.699340 
# 
# From -- ./inp_files/63389.got.cif
#   From: 2010.05.17/outbox.cif.g08.bks.cpg/sg10_32_cif.got.tgz:63389.got - 2010.06.03 11:33:40.
