data_PCOD9153773
_publ_section_title
;
Structure prediction by ZEFSAII (Michael W. Deem and Ramdas Pophale) SiO2 
 PCOD9153773
Probable space group: P 2/M
;
_chemical_formula_sum "Si O2"
_cell_formula_units_Z 16
_cell_length_a 8.573335
_cell_length_b 17.696154
_cell_length_c 8.280545
_cell_angle_alpha 90.000000
_cell_angle_beta 32.880238
_cell_angle_gamma 90.000000
_cell_volume 682.017165
_symmetry_space_group_name_H-M "P 2/M"
_symmetry_group_IT_number 10
_symmetry_cell_setting 'monoclinic'
loop_
_space_group_symop_operation_xyz
x,y,z
-x,y,-z
-x,-y,-z
x,-y,z
loop_
_atom_site_type_symbol
_atom_site_label
_atom_site_fract_x
_atom_site_fract_y
_atom_site_fract_z
Si Si1 0.359811 0.087292 0.793029
Si Si2 0.713412 0.584688 0.165654
Si Si3 0.116957 0.162140 0.577602
Si Si4 0.307666 0.689523 0.309907
O O1 0.500000 0.111972 0.500000
O O2 0.639147 0.099270 0.657744
O O3 0.274284 0.000000 0.855338
O O4 0.107127 0.135250 0.092696
O O5 0.500000 0.577527 0.500000
O O6 0.792992 0.500000 0.036262
O O7 0.526071 0.628459 0.195224
O O8 0.000000 0.619054 0.000000
O O9 0.243508 0.245788 0.498122
O O10 0.000000 0.172018 0.500000
O O11 0.000000 0.663039 0.500000
O O12 0.500000 0.725393 0.000000
#
# Coordination Sequence:
#
# PCOD9153773 Si02
#       4
#     4   4   4   4
#     4  11  24  42  65  94 128 167 216 275 336 399
#     4  10  22  41  66  98 134 172 220 275 329 393
#     4  11  23  41  63  92 129 169 219 271 329 399
#     4  11  23  41  65  95 134 177 223 275 331 398
#
# _framework density 23.459821000000002
#
# number of rings (size 3 to 8) (size 9 to 14) (size 15 to 20)
#    0.000    1.250    0.000    6.750    0.000    7.000 
#    0.000    5.000    0.000    0.000    0.000    0.000 
#    0.000    0.000    0.000    0.000    0.000    0.000 
#
# Total GULP energy -89258.718114 kJ/mol
# GULP energy per Si atom -5578.669882 kJ/mol
# Density = 2.340643 g / cm^3
# Si number density = 23.459821 Si / 1000 Ang^3
#
#
#
# Elastic Constant Matrix: (Units=GPa)
#
#
# Indices 1 2 3 4 5 6 
#
# 1 87.6461 55.6025 44.3167 0.0000 -30.8330 0.0000
# 2 55.6025 102.0780 56.9331 0.0000 -2.1206 0.0000
# 3 44.3167 56.9331 172.9452 0.0000 -10.7698 0.0000
# 4 0.0000 0.0000 0.0000 43.5026 0.0000 17.8724
# 5 -30.8330 -2.1206 -10.7698 0.0000 48.0808 0.0000
# 6 0.0000 0.0000 0.0000 17.8724 0.0000 11.9185
#
#
#
# Elastic Compliance Matrix: (Units=1/GPa)
#
#
# Indices 1 2 3 4 5 6 
#
# 1 0.025885 -0.013008 -0.001372 0.000000 0.015718 0.000000
# 2 -0.013008 0.018543 -0.003285 0.000000 -0.008260 0.000000
# 3 -0.001372 -0.003285 0.007253 0.000000 0.000600 0.000000
# 4 0.000000 0.000000 0.000000 0.059874 0.000000 -0.089785
# 5 0.015718 -0.008260 0.000600 0.000000 0.030648 0.000000
# 6 0.000000 0.000000 0.000000 -0.089785 0.000000 0.218541
#
#
# Mechanical properties :
#
#
# Convention : Reuss Voigt Hill
#
# Bulk Modulus (GPa) = 61.16256 75.15265 68.15760
# Shear Modulus (GPa) = 12.45255 34.42149 23.43702
#
# Velocity S-wave (km/s) = 2.30642 3.83463 3.16417
# Velocity P-wave (km/s) = 5.76373 7.19097 6.51654
#
# Compressibility (1/GPa) = 0.01634987
#
# Stress axis : x y z
#
# Youngs Moduli (GPa) = 38.63229 53.92947 137.88158
#
# Poissons Ratio (x) = 0.70152 0.18916
# Poissons Ratio (y) = 0.50253 0.45298
# Poissons Ratio (z) = 0.05300 0.17717
#
# Static dielectric constant tensor:
#      x y z
#    x 2.064290 0.000000 -0.050360 
#    y 0.000000 1.955380 0.000000 
#    z -0.050360 0.000000 1.886490 
# 
# From -- ./inp_files/19452.got.cif
#   From: 2010.05.17/outbox.cif.g08.bks.cpg/sg10_10_cif.got.tgz:19452.got - 2010.06.03 11:33:40.
