data_PCOD9153105
_publ_section_title
;
Structure prediction by ZEFSAII (Michael W. Deem and Ramdas Pophale) SiO2 
 PCOD9153105
Probable space group: P 2/M
;
_chemical_formula_sum "Si O2"
_cell_formula_units_Z 32
_cell_length_a 33.106076
_cell_length_b 8.848212
_cell_length_c 12.344356
_cell_angle_alpha 90.000000
_cell_angle_beta 149.664359
_cell_angle_gamma 90.000000
_cell_volume 1826.327247
_symmetry_space_group_name_H-M "P 2/M"
_symmetry_group_IT_number 10
_symmetry_cell_setting 'monoclinic'
loop_
_space_group_symop_operation_xyz
x,y,z
-x,y,-z
-x,-y,-z
x,-y,z
loop_
_atom_site_type_symbol
_atom_site_label
_atom_site_fract_x
_atom_site_fract_y
_atom_site_fract_z
Si Si1 0.693050 0.816797 0.510015
Si Si2 0.176830 0.321669 0.037346
Si Si3 0.219678 0.679747 0.683924
Si Si4 0.647016 0.183466 0.157143
Si Si5 0.060733 0.823731 0.232776
Si Si6 0.832167 0.180742 0.209225
Si Si7 0.523877 0.174608 0.182700
Si Si8 0.009193 0.174226 0.687748
O O1 0.681788 0.778642 0.357186
O O2 0.613248 0.760948 0.389227
O O3 0.695161 0.000000 0.521156
O O4 0.770639 0.748656 0.744944
O O5 0.187409 0.500000 0.057415
O O6 0.200828 0.246771 0.978490
O O7 0.084325 0.279037 0.841496
O O8 0.223097 0.500000 0.697556
O O9 0.297368 0.746721 0.805387
O O10 0.142087 0.731680 0.435073
O O11 0.206629 0.748286 0.773403
O O12 0.646930 0.000000 0.149570
O O13 0.554500 0.238262 0.939951
O O14 0.016005 0.820227 0.244584
O O15 0.081226 0.000000 0.257236
O O16 0.000000 0.770073 0.000000
O O17 0.927704 0.214182 0.436332
O O18 0.824036 0.000000 0.194874
O O19 0.530834 0.000000 0.234115
O O20 0.500000 0.171870 0.000000
O O21 0.030999 0.000000 0.711369
#
# Coordination Sequence:
#
# PCOD9153105 Si02
#       8
#     4   4   4   4   4   4   4   4
#     4   9  18  33  54  79 107 139 175 214 256 303
#     4  12  24  34  50  78 111 139 168 213 267 316
#     4  11  22  34  51  78 109 137 169 211 264 316
#     4   9  17  32  56  81 106 138 177 215 251 304
#     4   9  19  35  53  72  99 139 181 218 255 298
#     4  10  21  40  60  74  94 133 185 226 259 302
#     4   7  12  27  52  79 102 130 173 219 254 290
#     4   9  19  35  54  75  97 131 179 222 258 303
#
# _framework density 17.521502999999999
#
# number of rings (size 3 to 8) (size 9 to 14) (size 15 to 20)
#    0.000    2.500    0.000    5.250    1.750    4.750 
#    0.000    0.625    0.000    3.000    0.000    5.250 
#    0.000    0.000    0.000    0.000    0.000    0.000 
#
# Total GULP energy -178457.957099 kJ/mol
# GULP energy per Si atom -5576.811159 kJ/mol
# Density = 1.748162 g / cm^3
# Si number density = 17.521503 Si / 1000 Ang^3
#
#
#
# Elastic Constant Matrix: (Units=GPa)
#
#
# Indices 1 2 3 4 5 6 
#
# 1 59.3049 29.8764 22.4192 0.0000 24.9888 0.0000
# 2 29.8764 52.6183 23.2846 0.0000 11.6770 0.0000
# 3 22.4192 23.2846 28.6906 0.0000 6.9593 0.0000
# 4 0.0000 0.0000 0.0000 -11.0738 0.0000 -8.7375
# 5 24.9888 11.6770 6.9593 0.0000 25.4049 0.0000
# 6 0.0000 0.0000 0.0000 -8.7375 0.0000 1.0003
#
#
#
# Elastic Compliance Matrix: (Units=1/GPa)
#
#
# Indices 1 2 3 4 5 6 
#
# 1 0.041202 -0.008591 -0.017515 0.000000 -0.031781 0.000000
# 2 -0.008591 0.032858 -0.019646 0.000000 -0.001271 0.000000
# 3 -0.017515 -0.019646 0.062252 0.000000 0.009205 0.000000
# 4 0.000000 0.000000 0.000000 -0.011443 0.000000 -0.099947
# 5 -0.031781 -0.001271 0.009205 0.000000 0.068685 0.000000
# 6 0.000000 0.000000 0.000000 -0.099947 0.000000 0.126673
#
#
# Mechanical properties :
#
#
# Convention : Reuss Voigt Hill
#
# Bulk Modulus (GPa) = 22.31657 32.41937 27.36797
# Shear Modulus (GPa) = 11.71870 7.40185 9.56028
#
# Velocity S-wave (km/s) = 2.58896 2.05757 2.33841
# Velocity P-wave (km/s) = 4.65846 4.91809 4.79003
#
# Compressibility (1/GPa) = 0.04480975
#
# Stress axis : x y z
#
# Youngs Moduli (GPa) = 24.27043 30.43359 16.06366
#
# Poissons Ratio (x) = 0.26146 0.28135
# Poissons Ratio (y) = 0.20851 0.31558
# Poissons Ratio (z) = 0.42509 0.59789
#
# Static dielectric constant tensor:
#      x y z
#    x 1.602070 0.000000 0.014790 
#    y 0.000000 1.581880 0.000000 
#    z 0.014790 0.000000 1.593840 
# 
# From -- ./inp_files/55301.got.cif
#   From: 2010.05.17/outbox.cif.g08.bks.cpg/sg10_28_cif.got.tgz:55301.got - 2010.06.03 11:33:40.
