data_PCOD9153535
_publ_section_title
;
Structure prediction by ZEFSAII (Michael W. Deem and Ramdas Pophale) SiO2 
 PCOD9153535
Probable space group: P 2/M
;
_chemical_formula_sum "Si O2"
_cell_formula_units_Z 28
_cell_length_a 22.967973
_cell_length_b 8.706611
_cell_length_c 9.127046
_cell_angle_alpha 90.000000
_cell_angle_beta 126.668669
_cell_angle_gamma 90.000000
_cell_volume 1463.968809
_symmetry_space_group_name_H-M "P 2/M"
_symmetry_group_IT_number 10
_symmetry_cell_setting 'monoclinic'
loop_
_space_group_symop_operation_xyz
x,y,z
-x,y,-z
-x,-y,-z
x,-y,z
loop_
_atom_site_type_symbol
_atom_site_label
_atom_site_fract_x
_atom_site_fract_y
_atom_site_fract_z
Si Si1 0.072179 0.814689 0.194927
Si Si2 0.354754 0.315891 0.618360
Si Si3 0.217447 0.815458 0.238418
Si Si4 0.927997 0.314720 0.478467
Si Si5 0.504809 0.315504 0.678705
Si Si6 0.781448 0.315340 0.087200
Si Si7 0.643529 0.817077 0.052169
O O1 0.144254 0.769307 0.214404
O O2 0.073281 0.749953 0.360014
O O3 0.071112 0.000000 0.201251
O O4 0.000000 0.764340 0.000000
O O5 0.346862 0.500000 0.608297
O O6 0.286964 0.243165 0.431974
O O7 0.429377 0.278729 0.645905
O O8 0.358187 0.254094 0.788330
O O9 0.217660 0.745357 0.076829
O O10 0.219185 0.000000 0.231348
O O11 0.929482 0.500000 0.488496
O O12 0.000000 0.263610 0.500000
O O13 0.855685 0.270260 0.281355
O O14 0.500000 0.275597 0.500000
O O15 0.516171 0.500000 0.706212
O O16 0.571472 0.232897 0.857200
O O17 0.776276 0.500000 0.078743
O O18 0.713059 0.247141 0.070393
O O19 0.647885 0.000000 0.068674
#
# Coordination Sequence:
#
# PCOD9153535 Si02
#       7
#     4   4   4   4   4   4   4
#     4  10  22  39  59  86 120 158 197 239 294 357
#     4  11  23  40  63  89 121 160 200 243 294 355
#     4  11  23  39  61  90 122 155 198 248 296 350
#     4  10  22  39  60  88 118 152 199 250 295 344
#     4  10  22  41  64  89 118 155 199 244 295 357
#     4  11  23  40  62  87 119 158 199 243 298 360
#     4  12  25  40  61  89 122 157 198 249 298 348
#
# _framework density 19.126090999999999
#
# number of rings (size 3 to 8) (size 9 to 14) (size 15 to 20)
#    0.000    1.286    0.000    5.571    0.000    9.429 
#    0.000    0.000    0.000    0.000    0.000    0.000 
#    0.000    0.000    0.000    0.000    0.000    0.000 
#
# Total GULP energy -156669.455608 kJ/mol
# GULP energy per Si atom -5595.337700 kJ/mol
# Density = 1.908256 g / cm^3
# Si number density = 19.126091 Si / 1000 Ang^3
#
#
#
# Elastic Constant Matrix: (Units=GPa)
#
#
# Indices 1 2 3 4 5 6 
#
# 1 191.8140 48.0191 90.3360 0.0000 -3.4429 0.0000
# 2 48.0191 38.3785 35.1214 0.0000 6.2643 0.0000
# 3 90.3360 35.1214 158.9404 0.0000 -1.4723 0.0000
# 4 0.0000 0.0000 0.0000 53.1056 0.0000 -13.0700
# 5 -3.4429 6.2643 -1.4723 0.0000 45.1858 0.0000
# 6 0.0000 0.0000 0.0000 -13.0700 0.0000 33.7079
#
#
#
# Elastic Compliance Matrix: (Units=1/GPa)
#
#
# Indices 1 2 3 4 5 6 
#
# 1 0.008846 -0.008482 -0.003137 0.000000 0.001748 0.000000
# 2 -0.008482 0.041853 -0.004489 0.000000 -0.006595 0.000000
# 3 -0.003137 -0.004489 0.009073 0.000000 0.000679 0.000000
# 4 0.000000 0.000000 0.000000 0.020817 0.000000 0.008072
# 5 0.001748 -0.006595 0.000679 0.000000 0.023200 0.000000
# 6 0.000000 0.000000 0.000000 0.008072 0.000000 0.032796
#
#
# Mechanical properties :
#
#
# Convention : Reuss Voigt Hill
#
# Bulk Modulus (GPa) = 36.28955 81.78731 59.03843
# Shear Modulus (GPa) = 28.09216 40.77696 34.43456
#
# Velocity S-wave (km/s) = 3.83663 4.62238 4.24771
# Velocity P-wave (km/s) = 6.21622 8.44651 7.41569
#
# Compressibility (1/GPa) = 0.02755614
#
# Stress axis : x y z
#
# Youngs Moduli (GPa) = 113.05118 23.89314 110.21988
#
# Poissons Ratio (x) = 0.20266 0.34576
# Poissons Ratio (y) = 0.95890 0.49473
# Poissons Ratio (z) = 0.35464 0.10725
#
# Static dielectric constant tensor:
#      x y z
#    x 1.633530 0.000000 0.012320 
#    y 0.000000 1.645610 0.000000 
#    z 0.012320 0.000000 1.620970 
# 
# From -- ./inp_files/34295.got.cif
#   From: 2010.05.17/outbox.cif.g08.bks.cpg/sg10_18_cif.got.tgz:34295.got - 2010.06.03 11:33:40.
