data_PCOD9153581
_publ_section_title
;
Structure prediction by ZEFSAII (Michael W. Deem and Ramdas Pophale) SiO2 
 PCOD9153581
Probable space group: P 2/M
;
_chemical_formula_sum "Si O2"
_cell_formula_units_Z 32
_cell_length_a 12.413074
_cell_length_b 8.833209
_cell_length_c 29.370634
_cell_angle_alpha 90.000000
_cell_angle_beta 147.704919
_cell_angle_gamma 90.000000
_cell_volume 1720.599966
_symmetry_space_group_name_H-M "P 2/M"
_symmetry_group_IT_number 10
_symmetry_cell_setting 'monoclinic'
loop_
_space_group_symop_operation_xyz
x,y,z
-x,y,-z
-x,-y,-z
x,-y,z
loop_
_atom_site_type_symbol
_atom_site_label
_atom_site_fract_x
_atom_site_fract_y
_atom_site_fract_z
Si Si1 0.587739 0.682272 0.655801
Si Si2 0.473939 0.318094 0.850383
Si Si3 0.964425 0.682269 0.344174
Si Si4 0.704235 0.826736 0.602098
Si Si5 0.372654 0.818016 0.999986
Si Si6 0.124151 0.315198 0.499987
Si Si7 0.072481 0.318095 0.149634
Si Si8 0.203919 0.826867 0.101949
O O1 0.582374 0.500000 0.652036
O O2 0.657756 0.744813 0.632536
O O3 0.358636 0.733101 0.584588
O O4 0.755184 0.725287 0.752622
O O5 0.484928 0.500000 0.858105
O O6 0.255331 0.274608 0.752649
O O7 0.634564 0.259240 0.871120
O O8 0.522969 0.247069 0.917125
O O9 0.973888 0.500000 0.347889
O O10 0.127660 0.744618 0.367499
O O11 0.020185 0.733148 0.415382
O O12 0.500000 0.825637 0.500000
O O13 0.764329 0.000000 0.632098
O O14 0.145469 0.752910 0.917093
O O15 0.362752 0.000000 0.999978
O O16 0.500000 0.779156 0.000000
O O17 0.123036 0.500000 0.499979
O O18 0.000000 0.264995 0.500000
O O19 0.052580 0.500000 0.141877
O O20 0.150139 0.259134 0.128902
O O21 0.268628 0.000000 0.134279
O O22 0.000000 0.833001 0.000000
#
# Coordination Sequence:
#
# PCOD9153581 Si02
#       8
#     4   4   4   4   4   4   4   4
#     4  10  22  39  63  92 121 157 203 251 302 357
#     4  11  24  40  64  95 123 156 205 260 304 355
#     4  10  22  39  63  92 121 157 203 251 302 357
#     4  11  23  39  61  88 123 162 205 253 300 358
#     4  11  25  44  63  86 123 167 203 245 308 377
#     4   9  18  35  61  88 120 157 194 241 296 355
#     4  11  24  40  64  95 123 156 205 260 304 355
#     4  11  23  41  65  90 122 163 205 247 305 375
#
# _framework density 18.598165000000002
#
# number of rings (size 3 to 8) (size 9 to 14) (size 15 to 20)
#    0.000    1.500    2.500    1.875    3.500    4.000 
#    0.000    0.000    0.000    0.750    0.000    0.000 
#    0.000    0.000    0.000    0.000    0.000    0.000 
#
# Total GULP energy -178769.421669 kJ/mol
# GULP energy per Si atom -5586.544427 kJ/mol
# Density = 1.855584 g / cm^3
# Si number density = 18.598165 Si / 1000 Ang^3
#
#
#
# Elastic Constant Matrix: (Units=GPa)
#
#
# Indices 1 2 3 4 5 6 
#
# 1 209.7209 45.3212 111.9468 0.0000 3.5682 0.0000
# 2 45.3212 33.5054 52.0838 0.0000 -0.6439 0.0000
# 3 111.9468 52.0838 172.0580 0.0000 -1.9002 0.0000
# 4 0.0000 0.0000 0.0000 10.0451 0.0000 2.5331
# 5 3.5682 -0.6439 -1.9002 0.0000 18.4451 0.0000
# 6 0.0000 0.0000 0.0000 2.5331 0.0000 49.1921
#
#
#
# Elastic Compliance Matrix: (Units=1/GPa)
#
#
# Indices 1 2 3 4 5 6 
#
# 1 0.007798 -0.005034 -0.003572 0.000000 -0.002052 0.000000
# 2 -0.005034 0.059624 -0.014756 0.000000 0.001535 0.000000
# 3 -0.003572 -0.014756 0.012620 0.000000 0.001476 0.000000
# 4 0.000000 0.000000 0.000000 0.100861 0.000000 -0.005194
# 5 -0.002052 0.001535 0.001476 0.000000 0.054817 0.000000
# 6 0.000000 0.000000 0.000000 -0.005194 0.000000 0.020596
#
#
# Mechanical properties :
#
#
# Convention : Reuss Voigt Hill
#
# Bulk Modulus (GPa) = 30.01625 92.66534 61.34080
# Shear Modulus (GPa) = 15.91617 29.26530 22.59074
#
# Velocity S-wave (km/s) = 2.92857 3.97111 3.48900
# Velocity P-wave (km/s) = 5.25450 8.42375 7.02030
#
# Compressibility (1/GPa) = 0.03331529
#
# Stress axis : x y z
#
# Youngs Moduli (GPa) = 128.23878 16.77188 79.24222
#
# Poissons Ratio (x) = 0.08443 0.28308
# Poissons Ratio (y) = 0.64557 1.16933
# Poissons Ratio (z) = 0.45812 0.24749
#
# Static dielectric constant tensor:
#      x y z
#    x 1.519100 0.000000 -0.008350 
#    y 0.000000 1.628150 0.000000 
#    z -0.008350 0.000000 1.645720 
# 
# From -- ./inp_files/95081.got.cif
#   From: 2010.05.17/outbox.cif.g08.bks.cpg/sg10_48_cif.got.tgz:95081.got - 2010.06.03 11:33:40.
