data_PCOD9153325
_publ_section_title
;
Structure prediction by ZEFSAII (Michael W. Deem and Ramdas Pophale) SiO2 
 PCOD9153325
Probable space group: P 2/M
;
_chemical_formula_sum "Si O2"
_cell_formula_units_Z 19
_cell_length_a 5.238685
_cell_length_b 26.667926
_cell_length_c 5.055909
_cell_angle_alpha 90.000000
_cell_angle_beta 91.754018
_cell_angle_gamma 90.000000
_cell_volume 706.004123
_symmetry_space_group_name_H-M "P 2/M"
_symmetry_group_IT_number 10
_symmetry_cell_setting 'monoclinic'
loop_
_space_group_symop_operation_xyz
x,y,z
-x,y,-z
-x,-y,-z
x,-y,z
loop_
_atom_site_type_symbol
_atom_site_label
_atom_site_fract_x
_atom_site_fract_y
_atom_site_fract_z
Si Si1 0.241668 0.707653 0.311553
Si Si2 0.000000 0.000000 0.500000
Si Si3 0.745069 0.929862 0.846935
Si Si4 0.500000 0.629867 0.000000
Si Si5 0.755338 0.819479 0.679616
Si Si6 0.177246 0.441400 0.268421
O O1 0.500000 0.702095 0.500000
O O2 0.236862 0.764177 0.196282
O O3 0.000000 0.700915 0.500000
O O4 0.276691 0.669017 0.071475
O O5 0.788077 0.044484 0.567182
O O6 0.750588 0.869702 0.847654
O O7 0.500000 0.945700 0.000000
O O8 0.000000 0.948521 0.000000
O O9 0.565564 0.589603 0.773808
O O10 0.500000 0.821009 0.500000
O O11 0.000000 0.822907 0.500000
O O12 0.234584 0.500000 0.313193
O O13 0.000000 0.422403 0.500000
O O14 0.000000 0.437563 0.000000
#
# Coordination Sequence:
#
# PCOD9153325 Si02
#       6
#     4   1   4   2   4   4
#     4  10  25  44  67 102 144 185 239 291 358 435
#     4  12  28  50  68 100 142 180 226 306 348 430
#     4  12  27  45  73 103 134 181 235 288 357 427
#     4  12  25  38  70 100 142 189 234 310 356 436
#     4  10  21  46  71  98 139 186 227 288 353 423
#     4  10  24  45  70 102 143 192 248 305 370 443
#
# _framework density 26.912023000000001
#
# number of rings (size 3 to 8) (size 9 to 14) (size 15 to 20)
#    0.000    1.263    1.053    2.842    7.368    0.842 
#    0.000    3.158    0.000    0.000    0.000    0.000 
#    0.000    0.000    0.000    0.000    0.000    0.000 
#
# Total GULP energy -106099.138979 kJ/mol
# GULP energy per Si atom -5584.165209 kJ/mol
# Density = 2.685077 g / cm^3
# Si number density = 26.912023 Si / 1000 Ang^3
#
#
#
# Elastic Constant Matrix: (Units=GPa)
#
#
# Indices 1 2 3 4 5 6 
#
# 1 221.7523 44.0135 75.3603 0.0000 -46.6873 0.0000
# 2 44.0135 235.2569 40.9192 0.0000 -46.4289 0.0000
# 3 75.3603 40.9192 125.1950 0.0000 -44.4716 0.0000
# 4 0.0000 0.0000 0.0000 106.5648 0.0000 -16.2111
# 5 -46.6873 -46.4289 -44.4716 0.0000 78.1350 0.0000
# 6 0.0000 0.0000 0.0000 -16.2111 0.0000 39.8040
#
#
#
# Elastic Compliance Matrix: (Units=1/GPa)
#
#
# Indices 1 2 3 4 5 6 
#
# 1 0.005896 -0.000264 -0.002841 0.000000 0.001749 0.000000
# 2 -0.000264 0.004876 -0.000579 0.000000 0.002411 0.000000
# 3 -0.002841 -0.000579 0.011484 0.000000 0.004494 0.000000
# 4 0.000000 0.000000 0.000000 0.010004 0.000000 0.004074
# 5 0.001749 0.002411 0.004494 0.000000 0.017834 0.000000
# 6 0.000000 0.000000 0.000000 0.004074 0.000000 0.026782
#
#
# Mechanical properties :
#
#
# Convention : Reuss Voigt Hill
#
# Bulk Modulus (GPa) = 67.16882 100.31001 83.73941
# Shear Modulus (GPa) = 56.04989 73.02816 64.53902
#
# Velocity S-wave (km/s) = 4.56862 5.21486 4.90240
# Velocity P-wave (km/s) = 7.26929 8.57986 7.95162
#
# Compressibility (1/GPa) = 0.01488786
#
# Stress axis : x y z
#
# Youngs Moduli (GPa) = 169.61462 205.06817 87.08086
#
# Poissons Ratio (x) = 0.05406 0.24744
# Poissons Ratio (y) = 0.04472 0.05040
# Poissons Ratio (z) = 0.48196 0.11870
#
# Static dielectric constant tensor:
#      x y z
#    x 2.338940 0.000000 0.374440 
#    y 0.000000 2.089240 0.000000 
#    z 0.374440 0.000000 2.558140 
# 
# From -- ./inp_files/2054.got.cif
#   From: 2010.05.17/outbox.cif.g08.bks.cpg/sg10_2_cif.got.tgz:2054.got - 2010.06.03 11:33:40.
