data_PCOD9153314
_publ_section_title
;
Structure prediction by ZEFSAII (Michael W. Deem and Ramdas Pophale) SiO2 
 PCOD9153314
Probable space group: P 2/M
;
_chemical_formula_sum "Si O2"
_cell_formula_units_Z 18
_cell_length_a 6.672717
_cell_length_b 12.630710
_cell_length_c 10.755558
_cell_angle_alpha 90.000000
_cell_angle_beta 99.920106
_cell_angle_gamma 90.000000
_cell_volume 892.937828
_symmetry_space_group_name_H-M "P 2/M"
_symmetry_group_IT_number 10
_symmetry_cell_setting 'monoclinic'
loop_
_space_group_symop_operation_xyz
x,y,z
-x,y,-z
-x,-y,-z
x,-y,z
loop_
_atom_site_type_symbol
_atom_site_label
_atom_site_fract_x
_atom_site_fract_y
_atom_site_fract_z
Si Si1 0.500000 0.817752 0.500000
Si Si2 0.016286 0.500000 0.654637
Si Si3 0.550187 0.500000 0.155816
Si Si4 0.770658 0.879617 0.310765
Si Si5 0.149102 0.729929 0.297628
Si Si6 0.557081 0.736052 0.862171
O O1 0.658929 0.881008 0.432309
O O2 0.354061 0.748782 0.397693
O O3 0.917515 0.609602 0.689409
O O4 0.000000 0.500000 0.500000
O O5 0.229968 0.500000 0.753168
O O6 0.467207 0.614499 0.186225
O O7 0.500000 0.500000 0.000000
O O8 0.603843 0.818638 0.210439
O O9 0.971405 0.807258 0.326921
O O10 0.812544 0.000000 0.276399
O O11 0.216710 0.760762 0.164190
O O12 0.500000 0.734958 0.000000
#
# Coordination Sequence:
#
# PCOD9153314 Si02
#       6
#     2   2   2   4   4   4
#     4  10  23  41  64  92 130 171 207 266 336 396
#     4  12  23  39  70 102 140 170 214 275 335 393
#     4  10  21  44  68  95 135 176 218 268 328 399
#     4  11  23  41  64  93 127 168 219 268 325 391
#     4  11  24  40  64  97 130 169 217 268 329 395
#     4  10  23  44  65  91 129 171 218 271 327 387
#
# _framework density 20.158179000000001
#
# number of rings (size 3 to 8) (size 9 to 14) (size 15 to 20)
#    0.000    1.333    2.222    3.000    3.111    7.111 
#    0.000    3.333    0.000    0.000    0.000    0.000 
#    0.000    0.000    0.000    0.000    0.000    0.000 
#
# Total GULP energy -100216.102200 kJ/mol
# GULP energy per Si atom -5567.561233 kJ/mol
# Density = 2.011230 g / cm^3
# Si number density = 20.158179 Si / 1000 Ang^3
#
#
#
# Elastic Constant Matrix: (Units=GPa)
#
#
# Indices 1 2 3 4 5 6 
#
# 1 143.6789 58.7621 54.9341 0.0000 -22.7998 0.0000
# 2 58.7621 155.0494 36.2977 0.0000 -5.8946 0.0000
# 3 54.9341 36.2977 92.9001 0.0000 -18.5834 0.0000
# 4 0.0000 0.0000 0.0000 -177.4074 0.0000 -579.6406
# 5 -22.7998 -5.8946 -18.5834 0.0000 31.3920 0.0000
# 6 0.0000 0.0000 0.0000 -579.6406 0.0000-1682.8706
#
#
#
# Elastic Compliance Matrix: (Units=1/GPa)
#
#
# Indices 1 2 3 4 5 6 
#
# 1 0.010421 -0.002804 -0.004149 0.000000 0.004586 0.000000
# 2 -0.002804 0.007857 -0.001729 0.000000 -0.001584 0.000000
# 3 -0.004149 -0.001729 0.015002 0.000000 0.005543 0.000000
# 4 0.000000 0.000000 0.000000 0.044961 0.000000 -0.015486
# 5 0.004586 -0.001584 0.005543 0.000000 0.038170 0.000000
# 6 0.000000 0.000000 0.000000 -0.015486 0.000000 0.004740
#
#
# Mechanical properties :
#
#
# Convention : Reuss Voigt Hill
#
# Bulk Modulus (GPa) = 62.83010 76.84623 69.83817
# Shear Modulus (GPa) = 34.76607 -349.66823 -157.45108
#
# Velocity S-wave (km/s) = 4.15741 -13.18479 -8.84745
# Velocity P-wave (km/s) = 7.36761 13.91333 8.34563
#
# Compressibility (1/GPa) = 0.01591594
#
# Stress axis : x y z
#
# Youngs Moduli (GPa) = 95.96245 127.28178 66.65762
#
# Poissons Ratio (x) = 0.35685 0.27658
# Poissons Ratio (y) = 0.26904 0.11524
# Poissons Ratio (z) = 0.39818 0.22004
#
# Static dielectric constant tensor:
#      x y z
#    x 1.751490 0.000000 -0.032860 
#    y 0.000000 1.681300 0.000000 
#    z -0.032860 0.000000 1.880440 
# 
# From -- ./inp_files/6286.got.cif
#   From: 2010.05.17/outbox.cif.g08.bks.cpg/sg10_4_cif.got.tgz:6286.got - 2010.06.03 11:33:40.
