data_PCOD9153711
_publ_section_title
;
Structure prediction by ZEFSAII (Michael W. Deem and Ramdas Pophale) SiO2 
 PCOD9153711
Probable space group: P 2/M
;
_chemical_formula_sum "Si O2"
_cell_formula_units_Z 17
_cell_length_a 16.497313
_cell_length_b 10.627114
_cell_length_c 11.847252
_cell_angle_alpha 90.000000
_cell_angle_beta 157.792152
_cell_angle_gamma 90.000000
_cell_volume 785.056216
_symmetry_space_group_name_H-M "P 2/M"
_symmetry_group_IT_number 10
_symmetry_cell_setting 'monoclinic'
loop_
_space_group_symop_operation_xyz
x,y,z
-x,y,-z
-x,-y,-z
x,-y,z
loop_
_atom_site_type_symbol
_atom_site_label
_atom_site_fract_x
_atom_site_fract_y
_atom_site_fract_z
Si Si1 0.722447 0.143439 0.324597
Si Si2 0.619147 0.854999 0.452204
Si Si3 0.746980 0.360641 0.779235
Si Si4 0.844819 0.278140 0.148834
Si Si5 0.000000 0.500000 0.500000
O O1 0.715864 0.144483 0.451583
O O2 0.939422 0.199522 0.557815
O O3 0.714912 0.000000 0.273508
O O4 0.500000 0.207770 0.000000
O O5 0.749953 0.756049 0.697336
O O6 0.621568 0.000000 0.497847
O O7 0.373352 0.803590 0.128757
O O8 0.500000 0.364664 0.500000
O O9 0.796143 0.500000 0.796423
O O10 0.868226 0.334687 0.052103
O O11 0.853177 0.390536 0.248259
#
# Coordination Sequence:
#
# PCOD9153711 Si02
#       5
#     4   4   4   4   1
#     4  10  22  41  61  91 128 163 210 263 308 367
#     4  10  22  40  67  97 125 163 209 255 315 376
#     4   9  19  38  62  90 129 164 203 257 312 368
#     4  11  22  40  64  89 125 168 209 259 308 369
#     4  12  24  40  62  90 124 168 218 246 306 380
#
# _framework density 21.654499999999999
#
# number of rings (size 3 to 8) (size 9 to 14) (size 15 to 20)
#    0.000    1.882    1.176    2.118    1.647    6.118 
#    2.118   10.000    0.000    0.000    0.000    0.000 
#    0.000    0.000    0.000    0.000    0.000    0.000 
#
# Total GULP energy -94641.062065 kJ/mol
# GULP energy per Si atom -5567.121298 kJ/mol
# Density = 2.160521 g / cm^3
# Si number density = 21.654500 Si / 1000 Ang^3
#
#
#
# Elastic Constant Matrix: (Units=GPa)
#
#
# Indices 1 2 3 4 5 6 
#
# 1 52.5472 33.0786 14.4485 0.0000 12.7793 0.0000
# 2 33.0786 168.6179 42.2154 0.0000 0.1022 0.0000
# 3 14.4485 42.2154 77.4996 0.0000 5.4750 0.0000
# 4 0.0000 0.0000 0.0000 -450.7763 0.0000 -83.3180
# 5 12.7793 0.1022 5.4750 0.0000 42.5732 0.0000
# 6 0.0000 0.0000 0.0000 -83.3180 0.0000 -3.2939
#
#
#
# Elastic Compliance Matrix: (Units=1/GPa)
#
#
# Indices 1 2 3 4 5 6 
#
# 1 0.023853 -0.004266 -0.001633 0.000000 -0.006940 0.000000
# 2 -0.004266 0.007639 -0.003487 0.000000 0.001711 0.000000
# 3 -0.001633 -0.003487 0.015210 0.000000 -0.001458 0.000000
# 4 0.000000 0.000000 0.000000 0.000604 0.000000 -0.015268
# 5 -0.006940 0.001711 -0.001458 0.000000 0.025755 0.000000
# 6 0.000000 0.000000 0.000000 -0.015268 0.000000 0.082604
#
#
# Mechanical properties :
#
#
# Convention : Reuss Voigt Hill
#
# Bulk Modulus (GPa) = 35.80316 53.12775 44.46545
# Shear Modulus (GPa) = 27.21125 -68.37127 -20.58001
#
# Velocity S-wave (km/s) = 3.54871 -5.62514 -3.08617
# Velocity P-wave (km/s) = 5.77589 4.19549 2.80702
#
# Compressibility (1/GPa) = 0.02793050
#
# Stress axis : x y z
#
# Youngs Moduli (GPa) = 41.92363 130.89962 65.74630
#
# Poissons Ratio (x) = 0.55846 0.10735
# Poissons Ratio (y) = 0.17886 0.22924
# Poissons Ratio (z) = 0.06845 0.45642
#
# Static dielectric constant tensor:
#      x y z
#    x 1.802180 0.000000 -0.037240 
#    y 0.000000 1.791510 0.000000 
#    z -0.037240 0.000000 1.833660 
# 
# From -- ./inp_files/44555.got.cif
#   From: 2010.05.17/outbox.cif.g08.bks.cpg/sg10_23_cif.got.tgz:44555.got - 2010.06.03 11:33:40.
