data_PCOD9153281
_publ_section_title
;
Structure prediction by ZEFSAII (Michael W. Deem and Ramdas Pophale) SiO2 
 PCOD9153281
Probable space group: P 2/M
;
_chemical_formula_sum "Si O2"
_cell_formula_units_Z 28
_cell_length_a 9.988015
_cell_length_b 7.975685
_cell_length_c 29.336504
_cell_angle_alpha 90.000000
_cell_angle_beta 140.167853
_cell_angle_gamma 90.000000
_cell_volume 1496.932579
_symmetry_space_group_name_H-M "P 2/M"
_symmetry_group_IT_number 10
_symmetry_cell_setting 'monoclinic'
loop_
_space_group_symop_operation_xyz
x,y,z
-x,y,-z
-x,-y,-z
x,-y,z
loop_
_atom_site_type_symbol
_atom_site_label
_atom_site_fract_x
_atom_site_fract_y
_atom_site_fract_z
Si Si1 0.722604 0.193675 0.688532
Si Si2 0.806779 0.308464 0.179691
Si Si3 0.587537 0.699556 0.473672
Si Si4 0.574781 0.000000 0.071705
Si Si5 0.032063 0.804608 0.559347
Si Si6 0.478961 0.303002 0.172928
Si Si7 0.466123 0.693285 0.707220
Si Si8 0.753264 0.000000 0.934355
O O1 0.572211 0.258935 0.608940
O O2 0.597529 0.209741 0.703434
O O3 0.945075 0.285452 0.750073
O O4 0.768007 0.000000 0.691137
O O5 0.762519 0.500000 0.152710
O O6 0.709590 0.164851 0.121521
O O7 0.690946 0.286904 0.198358
O O8 0.500000 0.748322 0.500000
O O9 0.622600 0.500000 0.482564
O O10 0.809340 0.786941 0.524541
O O11 0.367883 0.000000 0.049180
O O12 0.500000 0.000000 0.000000
O O13 0.221451 0.711600 0.632623
O O14 0.000000 0.737698 0.500000
O O15 0.092739 0.000000 0.572085
O O16 0.416248 0.500000 0.153282
O O17 0.503217 0.258578 0.232300
O O18 0.322931 0.168742 0.110670
O O19 0.529213 0.500000 0.718723
O O20 0.000000 0.000000 0.000000
#
# Coordination Sequence:
#
# PCOD9153281 Si02
#       8
#     4   4   4   2   4   4   4   2
#     4  12  24  39  60  89 122 159 208 260 308 366
#     4  10  21  42  65  91 127 168 206 251 304 362
#     4  11  25  42  59  83 116 159 210 261 313 370
#     4  10  22  42  64  98 130 160 206 245 298 364
#     4  11  23  39  58  84 117 156 202 256 313 361
#     4   9  22  41  64  93 126 162 207 248 298 365
#     4  11  23  39  61  88 118 161 205 253 311 366
#     4  10  22  40  66  96 128 164 196 242 302 356
#
# _framework density 18.704916999999998
#
# number of rings (size 3 to 8) (size 9 to 14) (size 15 to 20)
#    0.000    1.429    2.143    2.571    4.000    3.429 
#    0.000    0.000    0.000    0.000    0.000    0.000 
#    0.000    0.000    0.000    0.000    0.000    0.000 
#
# Total GULP energy -156364.237854 kJ/mol
# GULP energy per Si atom -5584.437066 kJ/mol
# Density = 1.866234 g / cm^3
# Si number density = 18.704917 Si / 1000 Ang^3
#
#
#
# Elastic Constant Matrix: (Units=GPa)
#
#
# Indices 1 2 3 4 5 6 
#
# 1 103.3422 35.8174 76.3111 0.0000 -3.7814 0.0000
# 2 35.8174 67.4608 38.8370 0.0000 -5.9662 0.0000
# 3 76.3111 38.8370 112.0802 0.0000 1.2722 0.0000
# 4 0.0000 0.0000 0.0000 29.9239 0.0000 5.3227
# 5 -3.7814 -5.9662 1.2722 0.0000 39.8387 0.0000
# 6 0.0000 0.0000 0.0000 5.3227 0.0000 33.0447
#
#
#
# Elastic Compliance Matrix: (Units=1/GPa)
#
#
# Indices 1 2 3 4 5 6 
#
# 1 0.020228 -0.003294 -0.012651 0.000000 0.001831 0.000000
# 2 -0.003294 0.019414 -0.004515 0.000000 0.002739 0.000000
# 3 -0.012651 -0.004515 0.019129 0.000000 -0.002488 0.000000
# 4 0.000000 0.000000 0.000000 0.034404 0.000000 -0.005542
# 5 0.001831 0.002739 -0.002488 0.000000 0.025765 0.000000
# 6 0.000000 0.000000 0.000000 -0.005542 0.000000 0.031155
#
#
# Mechanical properties :
#
#
# Convention : Reuss Voigt Hill
#
# Bulk Modulus (GPa) = 56.02709 64.97937 60.50323
# Shear Modulus (GPa) = 25.38517 29.35598 27.37058
#
# Velocity S-wave (km/s) = 3.68793 3.96590 3.82944
# Velocity P-wave (km/s) = 6.93921 7.46898 7.20896
#
# Compressibility (1/GPa) = 0.01784851
#
# Stress axis : x y z
#
# Youngs Moduli (GPa) = 49.43749 51.50874 52.27684
#
# Poissons Ratio (x) = 0.16968 0.66138
# Poissons Ratio (y) = 0.16286 0.23605
# Poissons Ratio (z) = 0.62546 0.23258
#
# Static dielectric constant tensor:
#      x y z
#    x 1.631060 0.000000 -0.019740 
#    y 0.000000 1.654490 0.000000 
#    z -0.019740 0.000000 1.599160 
# 
# From -- ./inp_files/92126.got.cif
#   From: 2010.05.17/outbox.cif.g08.bks.cpg/sg10_47_cif.got.tgz:92126.got - 2010.06.03 11:33:40.
