data_PCOD9153250
_publ_section_title
;
Structure prediction by ZEFSAII (Michael W. Deem and Ramdas Pophale) SiO2 
 PCOD9153250
Probable space group: P 2/M
;
_chemical_formula_sum "Si O2"
_cell_formula_units_Z 24
_cell_length_a 10.032192
_cell_length_b 16.884506
_cell_length_c 10.243331
_cell_angle_alpha 90.000000
_cell_angle_beta 136.660123
_cell_angle_gamma 90.000000
_cell_volume 1190.844439
_symmetry_space_group_name_H-M "P 2/M"
_symmetry_group_IT_number 10
_symmetry_cell_setting 'monoclinic'
loop_
_space_group_symop_operation_xyz
x,y,z
-x,y,-z
-x,-y,-z
x,-y,z
loop_
_atom_site_type_symbol
_atom_site_label
_atom_site_fract_x
_atom_site_fract_y
_atom_site_fract_z
Si Si1 0.072488 0.409121 0.913531
Si Si2 0.517167 0.636598 0.862596
Si Si3 0.984269 0.091202 0.142142
Si Si4 0.355841 0.834984 0.516632
Si Si5 0.130297 0.317530 0.465396
Si Si6 0.399249 0.825250 0.063096
O O1 0.004986 0.500000 0.855282
O O2 0.994355 0.360676 0.734126
O O3 0.304955 0.406352 0.078463
O O4 0.000000 0.375304 0.000000
O O5 0.310855 0.629898 0.645132
O O6 0.575848 0.730182 0.907147
O O7 0.500000 0.610206 0.000000
O O8 0.195312 0.103151 0.354948
O O9 0.921911 0.000000 0.110220
O O10 0.822808 0.147749 0.090244
O O11 0.000000 0.110898 0.000000
O O12 0.500000 0.814989 0.500000
O O13 0.231501 0.759433 0.475605
O O14 0.487505 0.861029 0.732320
O O15 0.000000 0.298140 0.500000
O O16 0.500000 0.848942 0.000000
#
# Coordination Sequence:
#
# PCOD9153250 Si02
#       6
#     4   4   4   4   4   4
#     4  11  26  43  62  92 132 169 206 255 309 373
#     4  10  21  41  66  93 121 165 207 260 309 365
#     4  11  24  41  63  91 129 172 208 253 312 378
#     4  11  24  40  66  98 121 164 212 262 311 365
#     4  11  24  42  67  96 125 161 211 262 313 369
#     4  10  23  41  65  93 126 160 209 264 312 365
#
# _framework density 20.153766000000001
#
# number of rings (size 3 to 8) (size 9 to 14) (size 15 to 20)
#    0.000    1.333    3.333    1.000    9.333    4.000 
#    0.000    2.500    0.000    0.000    0.000    0.000 
#    0.000    0.000    0.000    0.000    0.000    0.000 
#
# Total GULP energy -134133.895908 kJ/mol
# GULP energy per Si atom -5588.912329 kJ/mol
# Density = 2.010790 g / cm^3
# Si number density = 20.153766 Si / 1000 Ang^3
#
#
#
# Elastic Constant Matrix: (Units=GPa)
#
#
# Indices 1 2 3 4 5 6 
#
# 1 157.1551 28.0856 54.2235 0.0000 -7.8840 0.0000
# 2 28.0856 22.1076 7.4321 0.0000 -4.0669 0.0000
# 3 54.2235 7.4321 105.0326 0.0000 -0.9892 0.0000
# 4 0.0000 0.0000 0.0000 7.7605 0.0000 -0.6191
# 5 -7.8840 -4.0669 -0.9892 0.0000 39.4632 0.0000
# 6 0.0000 0.0000 0.0000 -0.6191 0.0000 26.5990
#
#
#
# Elastic Compliance Matrix: (Units=1/GPa)
#
#
# Indices 1 2 3 4 5 6 
#
# 1 0.009833 -0.010912 -0.004297 0.000000 0.000732 0.000000
# 2 -0.010912 0.059332 0.001473 0.000000 0.003971 0.000000
# 3 -0.004297 0.001473 0.011631 0.000000 -0.000415 0.000000
# 4 0.000000 0.000000 0.000000 0.129097 0.000000 0.003005
# 5 0.000732 0.003971 -0.000415 0.000000 0.025885 0.000000
# 6 0.000000 0.000000 0.000000 0.003005 0.000000 0.037665
#
#
# Mechanical properties :
#
#
# Convention : Reuss Voigt Hill
#
# Bulk Modulus (GPa) = 18.75395 51.53086 35.14241
# Shear Modulus (GPa) = 15.68922 27.73482 21.71202
#
# Velocity S-wave (km/s) = 2.79314 3.71369 3.28581
# Velocity P-wave (km/s) = 4.44160 6.63423 5.64539
#
# Compressibility (1/GPa) = 0.05332209
#
# Stress axis : x y z
#
# Youngs Moduli (GPa) = 101.70187 16.85439 85.97607
#
# Poissons Ratio (x) = 0.18392 0.36945
# Poissons Ratio (y) = 1.10979 -0.12661
# Poissons Ratio (z) = 0.43702 -0.02482
#
# Static dielectric constant tensor:
#      x y z
#    x 1.687650 0.000000 0.005510 
#    y 0.000000 1.713590 0.000000 
#    z 0.005510 0.000000 1.715510 
# 
# From -- ./inp_files/20257.got.cif
#   From: 2010.05.17/outbox.cif.g08.bks.cpg/sg10_11_cif.got.tgz:20257.got - 2010.06.03 11:33:40.
