data_PCOD9153293
_publ_section_title
;
Structure prediction by ZEFSAII (Michael W. Deem and Ramdas Pophale) SiO2 
 PCOD9153293
Probable space group: P 2/M
;
_chemical_formula_sum "Si O2"
_cell_formula_units_Z 20
_cell_length_a 13.760897
_cell_length_b 11.955054
_cell_length_c 10.790795
_cell_angle_alpha 90.000000
_cell_angle_beta 146.926257
_cell_angle_gamma 90.000000
_cell_volume 968.768498
_symmetry_space_group_name_H-M "P 2/M"
_symmetry_group_IT_number 10
_symmetry_cell_setting 'monoclinic'
loop_
_space_group_symop_operation_xyz
x,y,z
-x,y,-z
-x,-y,-z
x,-y,z
loop_
_atom_site_type_symbol
_atom_site_label
_atom_site_fract_x
_atom_site_fract_y
_atom_site_fract_z
Si Si1 0.714196 0.627310 0.724510
Si Si2 0.896036 0.370527 0.188836
Si Si3 0.745019 0.000000 0.128149
Si Si4 0.772862 0.757915 0.551348
Si Si5 0.415147 0.763299 0.044171
Si Si6 0.151984 0.000000 0.473718
O O1 0.500000 0.638282 0.500000
O O2 0.754613 0.500000 0.722969
O O3 0.793239 0.717266 0.713951
O O4 0.798811 0.638531 0.950684
O O5 0.924266 0.500000 0.247385
O O6 0.080253 0.305110 0.373844
O O7 0.759070 0.312934 0.136152
O O8 0.759869 0.000000 0.294632
O O9 0.941470 0.000000 0.279215
O O10 0.644684 0.112198 0.982591
O O11 0.573627 0.722337 0.301047
O O12 0.795531 0.888657 0.544735
O O13 0.500000 0.767644 0.000000
#
# Coordination Sequence:
#
# PCOD9153293 Si02
#       6
#     4   4   2   4   4   2
#     4  10  21  42  70  95 127 176 221 261 321 391
#     4  11  25  44  66  96 134 175 219 266 322 389
#     4  11  22  45  67  93 130 177 221 265 317 401
#     4  12  23  41  68 100 128 172 218 271 320 386
#     4  12  24  41  69  97 130 172 221 269 323 384
#     4  11  23  40  72  95 128 173 222 264 330 386
#
# _framework density 20.644767000000002
#
# number of rings (size 3 to 8) (size 9 to 14) (size 15 to 20)
#    0.000    0.800    6.000    2.100    0.000    3.600 
#    0.000    4.500    0.000    0.000    0.000    0.000 
#    0.000    0.000    0.000    0.000    0.000    0.000 
#
# Total GULP energy -111894.002480 kJ/mol
# GULP energy per Si atom -5594.700124 kJ/mol
# Density = 2.059778 g / cm^3
# Si number density = 20.644767 Si / 1000 Ang^3
#
#
#
# Elastic Constant Matrix: (Units=GPa)
#
#
# Indices 1 2 3 4 5 6 
#
# 1 62.2599 25.8589 3.8921 0.0000 25.5386 0.0000
# 2 25.8589 104.3009 15.1695 0.0000 30.7128 0.0000
# 3 3.8921 15.1695 70.0994 0.0000 24.3976 0.0000
# 4 0.0000 0.0000 0.0000 19.8703 0.0000 6.2483
# 5 25.5386 30.7128 24.3976 0.0000 34.2133 0.0000
# 6 0.0000 0.0000 0.0000 6.2483 0.0000 40.9357
#
#
#
# Elastic Compliance Matrix: (Units=1/GPa)
#
#
# Indices 1 2 3 4 5 6 
#
# 1 0.025452 -0.000370 0.006868 0.000000 -0.023564 0.000000
# 2 -0.000370 0.013186 0.001584 0.000000 -0.012690 0.000000
# 3 0.006868 0.001584 0.021043 0.000000 -0.021555 0.000000
# 4 0.000000 0.000000 0.000000 0.052864 0.000000 -0.008069
# 5 -0.023564 -0.012690 -0.021555 0.000000 0.073580 0.000000
# 6 0.000000 0.000000 0.000000 -0.008069 0.000000 0.025660
#
#
# Mechanical properties :
#
#
# Convention : Reuss Voigt Hill
#
# Bulk Modulus (GPa) = 13.18491 36.27789 24.73140
# Shear Modulus (GPa) = 22.63436 31.78649 27.21043
#
# Velocity S-wave (km/s) = 3.31474 3.92814 3.63441
# Velocity P-wave (km/s) = 4.58808 6.17935 5.44219
#
# Compressibility (1/GPa) = 0.07584425
#
# Stress axis : x y z
#
# Youngs Moduli (GPa) = 39.28966 75.83947 47.52094
#
# Poissons Ratio (x) = 0.02809 -0.32639
# Poissons Ratio (y) = 0.01455 -0.07526
# Poissons Ratio (z) = -0.26985 -0.12011
#
# Static dielectric constant tensor:
#      x y z
#    x 1.730930 0.000000 -0.012160 
#    y 0.000000 1.705300 0.000000 
#    z -0.012160 0.000000 1.767670 
# 
# From -- ./inp_files/50988.got.cif
#   From: 2010.05.17/outbox.cif.g08.bks.cpg/sg10_26_cif.got.tgz:50988.got - 2010.06.03 11:33:40.
