data_PCOD9153780
_publ_section_title
;
Structure prediction by ZEFSAII (Michael W. Deem and Ramdas Pophale) SiO2 
 PCOD9153780
Probable space group: P 2/M
;
_chemical_formula_sum "Si O2"
_cell_formula_units_Z 14
_cell_length_a 5.097239
_cell_length_b 19.708413
_cell_length_c 7.021163
_cell_angle_alpha 90.000000
_cell_angle_beta 75.953481
_cell_angle_gamma 90.000000
_cell_volume 684.245199
_symmetry_space_group_name_H-M "P 2/M"
_symmetry_group_IT_number 10
_symmetry_cell_setting 'monoclinic'
loop_
_space_group_symop_operation_xyz
x,y,z
-x,y,-z
-x,-y,-z
x,-y,z
loop_
_atom_site_type_symbol
_atom_site_label
_atom_site_fract_x
_atom_site_fract_y
_atom_site_fract_z
Si Si1 0.000000 0.727625 0.500000
Si Si2 0.296060 0.500000 0.357636
Si Si3 0.500000 0.823972 0.500000
Si Si4 0.218172 0.366442 0.127739
Si Si5 0.289001 0.922214 0.865016
O O1 0.743816 0.775502 0.516100
O O2 0.934424 0.680828 0.693335
O O3 0.500000 0.500000 0.500000
O O4 0.315310 0.433684 0.222719
O O5 0.000000 0.500000 0.500000
O O6 0.395106 0.872240 0.686227
O O7 0.500000 0.334907 0.000000
O O8 0.000000 0.381773 0.000000
O O9 0.260915 0.000000 0.797582
O O10 0.500000 0.922747 0.000000
O O11 0.000000 0.900884 0.000000
#
# Coordination Sequence:
#
# PCOD9153780 Si02
#       5
#     2   2   2   4   4
#     4  12  28  43  65  96 136 178 220 272 318 398
#     4  12  24  44  76  99 133 166 218 289 334 386
#     4  12  25  42  66  95 132 178 220 264 332 389
#     4  12  26  46  70  97 133 176 222 272 339 396
#     4  10  22  41  67  97 130 168 218 276 327 383
#
# _framework density 20.460501000000001
#
# number of rings (size 3 to 8) (size 9 to 14) (size 15 to 20)
#    0.000    0.571    1.429    6.429    2.000    6.857 
#    0.000    5.714    0.000    0.000    0.000    0.000 
#    0.000    0.000    0.000    0.000    0.000    0.000 
#
# Total GULP energy -78364.599184 kJ/mol
# GULP energy per Si atom -5597.471370 kJ/mol
# Density = 2.041393 g / cm^3
# Si number density = 20.460501 Si / 1000 Ang^3
#
#
#
# Elastic Constant Matrix: (Units=GPa)
#
#
# Indices 1 2 3 4 5 6 
#
# 1 180.3381 48.7612 76.4691 0.0000 1.1703 0.0000
# 2 48.7612 127.2002 91.8028 0.0000 -1.9985 0.0000
# 3 76.4691 91.8028 152.2140 0.0000 -1.5076 0.0000
# 4 0.0000 0.0000 0.0000 21.0514 0.0000 -6.2930
# 5 1.1703 -1.9985 -1.5076 0.0000 46.8319 0.0000
# 6 0.0000 0.0000 0.0000 -6.2930 0.0000 41.6522
#
#
#
# Elastic Compliance Matrix: (Units=1/GPa)
#
#
# Indices 1 2 3 4 5 6 
#
# 1 0.007055 -0.000264 -0.003388 0.000000 -0.000297 0.000000
# 2 -0.000264 0.013936 -0.008269 0.000000 0.000335 0.000000
# 3 -0.003388 -0.008269 0.013261 0.000000 0.000159 0.000000
# 4 0.000000 0.000000 0.000000 0.049750 0.000000 0.007516
# 5 -0.000297 0.000335 0.000159 0.000000 0.021380 0.000000
# 6 0.000000 0.000000 0.000000 0.007516 0.000000 0.025144
#
#
# Mechanical properties :
#
#
# Convention : Reuss Voigt Hill
#
# Bulk Modulus (GPa) = 96.06660 99.31316 97.68988
# Shear Modulus (GPa) = 31.67818 38.08839 34.88329
#
# Velocity S-wave (km/s) = 3.93906 4.31926 4.13353
# Velocity P-wave (km/s) = 8.23058 8.57432 8.40421
#
# Compressibility (1/GPa) = 0.01040944
#
# Stress axis : x y z
#
# Youngs Moduli (GPa) = 141.74184 71.75613 75.41105
#
# Poissons Ratio (x) = 0.01894 0.25550
# Poissons Ratio (y) = 0.03741 0.62359
# Poissons Ratio (z) = 0.48023 0.59336
#
# Static dielectric constant tensor:
#      x y z
#    x 1.690450 0.000000 -0.015690 
#    y 0.000000 1.743850 0.000000 
#    z -0.015690 0.000000 1.706330 
# 
# From -- ./inp_files/787.got.cif
#   From: 2010.05.17/outbox.cif.g08.bks.cpg/sg10_1_cif.got.tgz:787.got - 2010.06.03 11:33:40.
