data_PCOD9153568
_publ_section_title
;
Structure prediction by ZEFSAII (Michael W. Deem and Ramdas Pophale) SiO2 
 PCOD9153568
Probable space group: P 2/M
;
_chemical_formula_sum "Si O2"
_cell_formula_units_Z 32
_cell_length_a 27.091789
_cell_length_b 8.953370
_cell_length_c 21.097956
_cell_angle_alpha 90.000000
_cell_angle_beta 160.316912
_cell_angle_gamma 90.000000
_cell_volume 1723.689568
_symmetry_space_group_name_H-M "P 2/M"
_symmetry_group_IT_number 10
_symmetry_cell_setting 'monoclinic'
loop_
_space_group_symop_operation_xyz
x,y,z
-x,y,-z
-x,-y,-z
x,-y,z
loop_
_atom_site_type_symbol
_atom_site_label
_atom_site_fract_x
_atom_site_fract_y
_atom_site_fract_z
Si Si1 0.143087 0.175466 0.841073
Si Si2 0.995317 0.176132 0.187586
Si Si3 0.488873 0.822362 0.251217
Si Si4 0.298424 0.678161 0.591270
Si Si5 0.739249 0.678888 0.805147
Si Si6 0.543340 0.320837 0.449936
Si Si7 0.068151 0.322887 0.514466
Si Si8 0.661484 0.822440 0.222192
O O1 0.089286 0.197897 0.847843
O O2 0.046615 0.275243 0.678159
O O3 0.119126 0.000000 0.796754
O O4 0.314831 0.207936 0.041840
O O5 0.148156 0.261945 0.378526
O O6 0.022163 0.000000 0.211882
O O7 0.886804 0.238359 0.002903
O O8 0.568772 0.739254 0.290628
O O9 0.550981 0.764071 0.393190
O O10 0.510261 0.000000 0.271120
O O11 0.298077 0.500000 0.592885
O O12 0.311397 0.743250 0.677808
O O13 0.761093 0.500000 0.834050
O O14 0.609512 0.714445 0.698689
O O15 0.672302 0.716108 0.655465
O O16 0.545546 0.500000 0.442209
O O17 0.094773 0.500000 0.544346
O O18 0.217468 0.236572 0.680247
O O19 0.000000 0.284493 0.500000
O O20 0.677837 0.000000 0.250869
O O21 0.500000 0.791831 0.000000
#
# Coordination Sequence:
#
# PCOD9153568 Si02
#       8
#     4   4   4   4   4   4   4   4
#     4  10  22  39  62  89 121 160 202 249 303 356
#     4  11  21  38  62  91 121 158 204 250 299 360
#     4  11  23  40  61  90 124 160 203 252 302 359
#     4  12  26  43  64  89 121 162 202 249 303 359
#     4   9  18  33  57  88 123 161 201 247 301 359
#     4   9  18  34  56  87 124 161 201 247 301 359
#     4  11  25  42  63  95 127 158 201 251 300 353
#     4  11  25  45  67  91 121 162 204 245 300 363
#
# _framework density 18.564827000000001
#
# number of rings (size 3 to 8) (size 9 to 14) (size 15 to 20)
#    0.000    1.500    2.500    3.375    1.750    4.000 
#    0.000    1.875    0.000    3.750    0.000    0.000 
#    0.000    0.000    0.000    0.000    0.000    0.000 
#
# Total GULP energy -178871.527100 kJ/mol
# GULP energy per Si atom -5589.735222 kJ/mol
# Density = 1.852257 g / cm^3
# Si number density = 18.564827 Si / 1000 Ang^3
#
#
#
# Elastic Constant Matrix: (Units=GPa)
#
#
# Indices 1 2 3 4 5 6 
#
# 1 60.6251 37.3060 27.3611 0.0000 9.5345 0.0000
# 2 37.3060 70.7494 56.2225 0.0000 3.5112 0.0000
# 3 27.3611 56.2225 92.0031 0.0000 1.4758 0.0000
# 4 0.0000 0.0000 0.0000 27.4447 0.0000 2.6421
# 5 9.5345 3.5112 1.4758 0.0000 26.8051 0.0000
# 6 0.0000 0.0000 0.0000 2.6421 0.0000 30.1203
#
#
#
# Elastic Compliance Matrix: (Units=1/GPa)
#
#
# Indices 1 2 3 4 5 6 
#
# 1 0.025866 -0.014100 0.001043 0.000000 -0.007411 0.000000
# 2 -0.014100 0.035358 -0.017435 0.000000 0.001344 0.000000
# 3 0.001043 -0.017435 0.021202 0.000000 0.000746 0.000000
# 4 0.000000 0.000000 0.000000 0.036747 0.000000 -0.003223
# 5 -0.007411 0.001344 0.000746 0.000000 0.039725 0.000000
# 6 0.000000 0.000000 0.000000 -0.003223 0.000000 0.033483
#
#
# Mechanical properties :
#
#
# Convention : Reuss Voigt Hill
#
# Bulk Modulus (GPa) = 46.63994 51.68411 49.16203
# Shear Modulus (GPa) = 19.19280 23.70653 21.44966
#
# Velocity S-wave (km/s) = 3.21880 3.57733 3.40279
# Velocity P-wave (km/s) = 6.24432 6.70547 6.47900
#
# Compressibility (1/GPa) = 0.02144085
#
# Stress axis : x y z
#
# Youngs Moduli (GPa) = 38.66025 28.28195 47.16595
#
# Poissons Ratio (x) = 0.39879 -0.04920
# Poissons Ratio (y) = 0.54512 0.82236
# Poissons Ratio (z) = -0.04032 0.49311
#
# Static dielectric constant tensor:
#      x y z
#    x 1.621320 0.000000 0.003510 
#    y 0.000000 1.619480 0.000000 
#    z 0.003510 0.000000 1.622960 
# 
# From -- ./inp_files/86972.got.cif
#   From: 2010.05.17/outbox.cif.g08.bks.cpg/sg10_44_cif.got.tgz:86972.got - 2010.06.03 11:33:40.
