data_PCOD9153117
_publ_section_title
;
Structure prediction by ZEFSAII (Michael W. Deem and Ramdas Pophale) SiO2 
 PCOD9153117
Probable space group: P 2/M
;
_chemical_formula_sum "Si O2"
_cell_formula_units_Z 28
_cell_length_a 18.167543
_cell_length_b 13.804193
_cell_length_c 9.398972
_cell_angle_alpha 90.000000
_cell_angle_beta 36.919492
_cell_angle_gamma 90.000000
_cell_volume 1415.922878
_symmetry_space_group_name_H-M "P 2/M"
_symmetry_group_IT_number 10
_symmetry_cell_setting 'monoclinic'
loop_
_space_group_symop_operation_xyz
x,y,z
-x,y,-z
-x,-y,-z
x,-y,z
loop_
_atom_site_type_symbol
_atom_site_label
_atom_site_fract_x
_atom_site_fract_y
_atom_site_fract_z
Si Si1 0.236979 0.289045 0.259222
Si Si2 0.082759 0.388862 0.702316
Si Si3 0.483949 0.612676 0.855049
Si Si4 0.740296 0.386728 0.333502
Si Si5 0.150643 0.296048 0.083022
Si Si6 0.856558 0.108894 0.066700
Si Si7 0.153708 0.888776 0.586620
O O1 0.199361 0.378210 0.419146
O O2 0.155532 0.293711 0.243521
O O3 0.210539 0.192149 0.393723
O O4 0.374012 0.312672 0.997603
O O5 0.040933 0.500000 0.777845
O O6 0.138612 0.351658 0.765773
O O7 0.980594 0.326376 0.779814
O O8 0.460677 0.500000 0.844404
O O9 0.610948 0.649627 0.590176
O O10 0.500000 0.610148 0.000000
O O11 0.740054 0.500000 0.366698
O O12 0.759233 0.369242 0.138040
O O13 0.190416 0.191811 0.962837
O O14 0.817355 0.126946 0.290753
O O15 0.819290 0.000000 0.086813
O O16 0.004809 0.113534 0.819718
O O17 0.188573 0.000000 0.494721
#
# Coordination Sequence:
#
# PCOD9153117 Si02
#       7
#     4   4   4   4   4   4   4
#     4  12  23  36  57  88 122 153 186 239 297 346
#     4  11  22  37  56  82 119 157 192 234 287 348
#     4  10  21  40  62  82 109 156 211 245 273 327
#     4  10  22  40  61  81 109 158 209 243 273 331
#     4  12  24  34  55  91 124 152 183 233 305 354
#     4   9  19  36  58  84 116 154 193 232 279 348
#     4   9  19  37  61  86 114 152 196 237 282 345
#
# _framework density 19.775086999999999
#
# number of rings (size 3 to 8) (size 9 to 14) (size 15 to 20)
#    0.000    1.571    2.857    3.429    2.000    5.143 
#    0.000    2.857    0.000    1.286    0.000    2.000 
#    0.000    0.000    0.000    0.000    0.000    0.000 
#
# Total GULP energy -156136.338869 kJ/mol
# GULP energy per Si atom -5576.297817 kJ/mol
# Density = 1.973008 g / cm^3
# Si number density = 19.775087 Si / 1000 Ang^3
#
#
#
# Elastic Constant Matrix: (Units=GPa)
#
#
# Indices 1 2 3 4 5 6 
#
# 1 65.2590 35.8797 32.8965 0.0000 12.0473 0.0000
# 2 35.8797 105.8666 24.3395 0.0000 0.4793 0.0000
# 3 32.8965 24.3395 98.6707 0.0000 -1.6708 0.0000
# 4 0.0000 0.0000 0.0000 15.4485 0.0000 -9.4504
# 5 12.0473 0.4793 -1.6708 0.0000 31.9506 0.0000
# 6 0.0000 0.0000 0.0000 -9.4504 0.0000 -0.0953
#
#
#
# Elastic Compliance Matrix: (Units=1/GPa)
#
#
# Indices 1 2 3 4 5 6 
#
# 1 0.023930 -0.006571 -0.006514 0.000000 -0.009265 0.000000
# 2 -0.006571 0.011820 -0.000687 0.000000 0.002264 0.000000
# 3 -0.006514 -0.000687 0.012529 0.000000 0.003122 0.000000
# 4 0.000000 0.000000 0.000000 0.001050 0.000000 -0.104099
# 5 -0.009265 0.002264 0.003122 0.000000 0.034921 0.000000
# 6 0.000000 0.000000 0.000000 -0.104099 0.000000 -0.170171
#
#
# Mechanical properties :
#
#
# Convention : Reuss Voigt Hill
#
# Bulk Modulus (GPa) = 48.22548 50.66974 49.44761
# Shear Modulus (GPa) = -97.15507 21.23947 -37.95780
#
# Velocity S-wave (km/s) = -7.01689 3.28083 -4.38593
# Velocity P-wave (km/s) = 6.41942 6.32696 0.76765
#
# Compressibility (1/GPa) = 0.02073593
#
# Stress axis : x y z
#
# Youngs Moduli (GPa) = 41.78778 84.59953 79.81562
#
# Poissons Ratio (x) = 0.55588 0.51995
# Poissons Ratio (y) = 0.27458 0.05482
# Poissons Ratio (z) = 0.27222 0.05810
#
# Static dielectric constant tensor:
#      x y z
#    x 1.733020 0.000000 -0.029970 
#    y 0.000000 1.714110 0.000000 
#    z -0.029970 0.000000 1.731270 
# 
# From -- ./inp_files/32763.got.cif
#   From: 2010.05.17/outbox.cif.g08.bks.cpg/sg10_17_cif.got.tgz:32763.got - 2010.06.03 11:33:40.
