data_PCOD9153432
_publ_section_title
;
Structure prediction by ZEFSAII (Michael W. Deem and Ramdas Pophale) SiO2 
 PCOD9153432
Probable space group: P 2/M
;
_chemical_formula_sum "Si O2"
_cell_formula_units_Z 32
_cell_length_a 26.152849
_cell_length_b 9.095515
_cell_length_c 16.894941
_cell_angle_alpha 90.000000
_cell_angle_beta 23.929553
_cell_angle_gamma 90.000000
_cell_volume 1630.102659
_symmetry_space_group_name_H-M "P 2/M"
_symmetry_group_IT_number 10
_symmetry_cell_setting 'monoclinic'
loop_
_space_group_symop_operation_xyz
x,y,z
-x,y,-z
-x,-y,-z
x,-y,z
loop_
_atom_site_type_symbol
_atom_site_label
_atom_site_fract_x
_atom_site_fract_y
_atom_site_fract_z
Si Si1 0.600966 0.832957 0.795095
Si Si2 0.851346 0.834912 0.545600
Si Si3 0.270165 0.175451 0.808886
Si Si4 0.411419 0.675198 0.471261
Si Si5 0.016873 0.822526 0.794846
Si Si6 0.747233 0.674865 0.455568
Si Si7 0.323081 0.824535 0.918087
Si Si8 0.849145 0.328733 0.708761
O O1 0.729184 0.844962 0.663285
O O2 0.637345 0.736044 0.668733
O O3 0.561700 0.000000 0.827463
O O4 0.500000 0.772382 0.000000
O O5 0.955875 0.779372 0.335517
O O6 0.819004 0.734766 0.665099
O O7 0.886001 0.000000 0.523982
O O8 0.368984 0.261728 0.615651
O O9 0.284686 0.206807 0.881434
O O10 0.288782 0.000000 0.771998
O O11 0.127833 0.212622 0.982934
O O12 0.428814 0.500000 0.449336
O O13 0.300149 0.707986 0.565676
O O14 0.540493 0.751938 0.261964
O O15 0.121842 0.749704 0.702388
O O16 0.032822 0.000000 0.775516
O O17 0.759206 0.500000 0.448048
O O18 0.330535 0.000000 0.917038
O O19 0.222636 0.759568 0.121617
O O20 0.816142 0.500000 0.761903
O O21 0.000000 0.313337 0.500000
#
# Coordination Sequence:
#
# PCOD9153432 Si02
#       8
#     4   4   4   4   4   4   4   4
#     4   9  19  35  56  82 112 148 192 236 283 341
#     4   9  18  34  56  84 115 151 193 238 286 337
#     4  10  22  41  65  91 115 150 202 253 302 354
#     4  11  25  42  60  88 125 160 196 244 300 358
#     4   9  19  38  63  89 119 154 198 250 297 349
#     4  10  22  38  56  85 122 158 197 240 293 354
#     4  11  24  42  65  89 117 155 202 252 297 350
#     4  11  24  39  57  86 123 159 194 236 291 353
#
# _framework density 19.630666999999999
#
# number of rings (size 3 to 8) (size 9 to 14) (size 15 to 20)
#    0.000    2.000    0.000    3.375    1.750    9.750 
#    0.000    2.500    0.000    0.000    0.000    0.000 
#    0.000    0.000    0.000    0.000    0.000    0.000 
#
# Total GULP energy -178679.846495 kJ/mol
# GULP energy per Si atom -5583.745203 kJ/mol
# Density = 1.958599 g / cm^3
# Si number density = 19.630667 Si / 1000 Ang^3
#
#
#
# Elastic Constant Matrix: (Units=GPa)
#
#
# Indices 1 2 3 4 5 6 
#
# 1 82.4321 53.2884 29.8800 0.0000 11.0049 0.0000
# 2 53.2884 67.2943 45.0928 0.0000 9.3176 0.0000
# 3 29.8800 45.0928 83.3276 0.0000 9.9873 0.0000
# 4 0.0000 0.0000 0.0000 12.1526 0.0000 9.0157
# 5 11.0049 9.3176 9.9873 0.0000 25.1304 0.0000
# 6 0.0000 0.0000 0.0000 9.0157 0.0000 26.7294
#
#
#
# Elastic Compliance Matrix: (Units=1/GPa)
#
#
# Indices 1 2 3 4 5 6 
#
# 1 0.025705 -0.021843 0.003131 0.000000 -0.004402 0.000000
# 2 -0.021843 0.042229 -0.015004 0.000000 -0.000129 0.000000
# 3 0.003131 -0.015004 0.019420 0.000000 -0.003526 0.000000
# 4 0.000000 0.000000 0.000000 0.109750 0.000000 -0.037018
# 5 -0.004402 -0.000129 -0.003526 0.000000 0.043169 0.000000
# 6 0.000000 0.000000 0.000000 -0.037018 0.000000 0.049898
#
#
# Mechanical properties :
#
#
# Convention : Reuss Voigt Hill
#
# Bulk Modulus (GPa) = 50.19901 54.39740 52.29821
# Shear Modulus (GPa) = 13.72706 19.78865 16.75786
#
# Velocity S-wave (km/s) = 2.64723 3.17842 2.92491
# Velocity P-wave (km/s) = 5.91363 6.42187 6.17298
#
# Compressibility (1/GPa) = 0.01992071
#
# Stress axis : x y z
#
# Youngs Moduli (GPa) = 38.90367 23.68048 51.49241
#
# Poissons Ratio (x) = 0.51725 -0.16121
# Poissons Ratio (y) = 0.84977 0.77260
# Poissons Ratio (z) = -0.12180 0.35531
#
# Static dielectric constant tensor:
#      x y z
#    x 1.730690 0.000000 -0.026640 
#    y 0.000000 1.667730 0.000000 
#    z -0.026640 0.000000 1.707720 
# 
# From -- ./inp_files/71462.got.cif
#   From: 2010.05.17/outbox.cif.g08.bks.cpg/sg10_36_cif.got.tgz:71462.got - 2010.06.03 11:33:40.
