data_PCOD9153225
_publ_section_title
;
Structure prediction by ZEFSAII (Michael W. Deem and Ramdas Pophale) SiO2 
 PCOD9153225
Probable space group: P 2/M
;
_chemical_formula_sum "Si O2"
_cell_formula_units_Z 32
_cell_length_a 11.822220
_cell_length_b 18.299225
_cell_length_c 14.880360
_cell_angle_alpha 90.000000
_cell_angle_beta 30.381665
_cell_angle_gamma 90.000000
_cell_volume 1628.124832
_symmetry_space_group_name_H-M "P 2/M"
_symmetry_group_IT_number 10
_symmetry_cell_setting 'monoclinic'
loop_
_space_group_symop_operation_xyz
x,y,z
-x,y,-z
-x,-y,-z
x,-y,z
loop_
_atom_site_type_symbol
_atom_site_label
_atom_site_fract_x
_atom_site_fract_y
_atom_site_fract_z
Si Si1 0.225421 0.828117 0.805844
Si Si2 0.036667 0.799394 0.739509
Si Si3 0.415582 0.307547 0.793248
Si Si4 0.344582 0.917256 0.449413
Si Si5 0.487599 0.223489 0.912274
Si Si6 0.961831 0.583654 0.918117
Si Si7 0.684678 0.338130 0.445777
Si Si8 0.736259 0.080984 0.700619
O O1 0.145591 0.805441 0.762890
O O2 0.299559 0.757816 0.814642
O O3 0.436119 0.881152 0.658656
O O4 0.000000 0.863209 0.000000
O O5 0.134191 0.866315 0.615983
O O6 0.146077 0.723548 0.633315
O O7 0.771167 0.797927 0.925950
O O8 0.554198 0.269214 0.778106
O O9 0.546974 0.356799 0.630304
O O10 0.228955 0.356857 0.968624
O O11 0.378143 0.917725 0.319212
O O12 0.307980 0.000000 0.504926
O O13 0.638903 0.151011 0.816957
O O14 0.500000 0.263112 0.000000
O O15 0.897922 0.500000 0.944741
O O16 0.172638 0.604592 0.710780
O O17 0.000000 0.590659 0.000000
O O18 0.500000 0.310329 0.500000
O O19 0.000000 0.087601 0.500000
O O20 0.699644 0.000000 0.766535
#
# Coordination Sequence:
#
# PCOD9153225 Si02
#       8
#     4   4   4   4   4   4   4   4
#     4  12  20  35  60  83 117 166 209 255 323 384
#     4  12  21  36  60  87 121 164 213 263 316 393
#     4  12  22  40  64  94 129 169 214 267 321 388
#     4  11  23  37  54  87 125 161 211 269 324 386
#     4  12  25  40  64  92 123 162 225 280 329 382
#     4  11  23  38  62 102 143 171 208 261 317 386
#     4  12  20  35  65  95 129 177 214 247 318 390
#     4  10  21  41  62  83 121 166 213 275 339 390
#
# _framework density 19.654513000000001
#
# number of rings (size 3 to 8) (size 9 to 14) (size 15 to 20)
#    0.000    0.500    7.500    1.500    0.000    2.750 
#    0.000    0.000    0.000    0.375    0.000    0.875 
#    0.000    0.000    0.000    0.000    0.000    0.000 
#
# Total GULP energy -178623.293365 kJ/mol
# GULP energy per Si atom -5581.977918 kJ/mol
# Density = 1.960978 g / cm^3
# Si number density = 19.654513 Si / 1000 Ang^3
#
#
#
# Elastic Constant Matrix: (Units=GPa)
#
#
# Indices 1 2 3 4 5 6 
#
# 1 73.9918 5.2587 6.6046 0.0000 14.7208 0.0000
# 2 5.2587 82.7547 12.1990 0.0000 1.2379 0.0000
# 3 6.6046 12.1990 74.6532 0.0000 10.3575 0.0000
# 4 0.0000 0.0000 0.0000 24.8668 0.0000 1.4357
# 5 14.7208 1.2379 10.3575 0.0000 32.3178 0.0000
# 6 0.0000 0.0000 0.0000 1.4357 0.0000 9.1756
#
#
#
# Elastic Compliance Matrix: (Units=1/GPa)
#
#
# Indices 1 2 3 4 5 6 
#
# 1 0.014926 -0.000810 -0.000261 0.000000 -0.006684 0.000000
# 2 -0.000810 0.012427 -0.002035 0.000000 0.000545 0.000000
# 3 -0.000261 -0.002035 0.014362 0.000000 -0.004406 0.000000
# 4 0.000000 0.000000 0.000000 0.040581 0.000000 -0.006350
# 5 -0.006684 0.000545 -0.004406 0.000000 0.035379 0.000000
# 6 0.000000 0.000000 0.000000 -0.006350 0.000000 0.109978
#
#
# Mechanical properties :
#
#
# Convention : Reuss Voigt Hill
#
# Bulk Modulus (GPa) = 28.16578 31.05823 29.61201
# Shear Modulus (GPa) = 20.35019 27.09452 23.72235
#
# Velocity S-wave (km/s) = 3.22125 3.71690 3.47791
# Velocity P-wave (km/s) = 5.31006 5.85293 5.58809
#
# Compressibility (1/GPa) = 0.03550408
#
# Stress axis : x y z
#
# Youngs Moduli (GPa) = 66.99867 80.46887 69.62746
#
# Poissons Ratio (x) = 0.06518 0.01816
# Poissons Ratio (y) = 0.05427 0.14167
# Poissons Ratio (z) = 0.01747 0.16373
#
# Static dielectric constant tensor:
#      x y z
#    x 1.716460 0.000000 0.022440 
#    y 0.000000 1.711320 0.000000 
#    z 0.022440 0.000000 1.745810 
# 
# From -- ./inp_files/51988.got.cif
#   From: 2010.05.17/outbox.cif.g08.bks.cpg/sg10_26_cif.got.tgz:51988.got - 2010.06.03 11:33:40.
