data_PCOD9153536
_publ_section_title
;
Structure prediction by ZEFSAII (Michael W. Deem and Ramdas Pophale) SiO2 
 PCOD9153536
Probable space group: P 2/M
;
_chemical_formula_sum "Si O2"
_cell_formula_units_Z 24
_cell_length_a 14.873134
_cell_length_b 9.327824
_cell_length_c 9.507625
_cell_angle_alpha 90.000000
_cell_angle_beta 81.835587
_cell_angle_gamma 90.000000
_cell_volume 1305.661756
_symmetry_space_group_name_H-M "P 2/M"
_symmetry_group_IT_number 10
_symmetry_cell_setting 'monoclinic'
loop_
_space_group_symop_operation_xyz
x,y,z
-x,y,-z
-x,-y,-z
x,-y,z
loop_
_atom_site_type_symbol
_atom_site_label
_atom_site_fract_x
_atom_site_fract_y
_atom_site_fract_z
Si Si1 0.593401 0.330610 0.894402
Si Si2 0.039880 0.836044 0.647111
Si Si3 0.591249 0.672245 0.564196
Si Si4 0.250494 0.828445 0.638603
Si Si5 0.747925 0.828693 0.032241
Si Si6 0.925634 0.662862 0.893584
O O1 0.617174 0.500000 0.897682
O O2 0.583259 0.293843 0.731765
O O3 0.500000 0.310638 0.000000
O O4 0.669498 0.237010 0.953315
O O5 0.145560 0.791691 0.627737
O O6 0.000000 0.838026 0.500000
O O7 0.976761 0.733842 0.751983
O O8 0.036501 0.000000 0.704763
O O9 0.500000 0.714291 0.500000
O O10 0.600622 0.500000 0.549231
O O11 0.677943 0.747484 0.475005
O O12 0.267423 0.794638 0.799329
O O13 0.260270 0.000000 0.617335
O O14 0.752260 0.000000 0.017658
O O15 0.841716 0.757957 0.962261
O O16 0.895863 0.500000 0.870397
O O17 0.000000 0.659451 0.000000
#
# Coordination Sequence:
#
# PCOD9153536 Si02
#       6
#     4   4   4   4   4   4
#     4  10  22  41  64  91 122 154 195 247 299 356
#     4  10  22  40  61  86 121 162 202 244 296 351
#     4  10  22  40  63  89 118 156 195 239 298 356
#     4  10  22  39  59  87 120 157 199 244 294 350
#     4  11  23  39  62  88 120 160 202 246 296 355
#     4  11  23  39  61  90 121 158 203 248 298 350
#
# _framework density 18.381484
#
# number of rings (size 3 to 8) (size 9 to 14) (size 15 to 20)
#    0.000    1.667    1.667    2.000    2.333    5.667 
#    0.000    0.000    0.000    0.000    0.000    0.000 
#    0.000    0.000    0.000    0.000    0.000    0.000 
#
# Total GULP energy -134084.163614 kJ/mol
# GULP energy per Si atom -5586.840151 kJ/mol
# Density = 1.833965 g / cm^3
# Si number density = 18.381484 Si / 1000 Ang^3
#
#
#
# Elastic Constant Matrix: (Units=GPa)
#
#
# Indices 1 2 3 4 5 6 
#
# 1 112.1500 60.4797 81.6014 0.0000 -2.1465 0.0000
# 2 60.4797 72.1791 73.1727 0.0000 -7.7647 0.0000
# 3 81.6014 73.1727 155.0678 0.0000 -10.4024 0.0000
# 4 0.0000 0.0000 0.0000 49.9328 0.0000 4.4077
# 5 -2.1465 -7.7647 -10.4024 0.0000 35.8516 0.0000
# 6 0.0000 0.0000 0.0000 4.4077 0.0000 44.6657
#
#
#
# Elastic Compliance Matrix: (Units=1/GPa)
#
#
# Indices 1 2 3 4 5 6 
#
# 1 0.017963 -0.010678 -0.004586 0.000000 -0.002568 0.000000
# 2 -0.010678 0.033073 -0.009739 0.000000 0.003698 0.000000
# 3 -0.004586 -0.009739 0.013562 0.000000 0.001551 0.000000
# 4 0.000000 0.000000 0.000000 0.020203 0.000000 -0.001994
# 5 -0.002568 0.003698 0.001551 0.000000 0.028990 0.000000
# 6 0.000000 0.000000 0.000000 -0.001994 0.000000 0.022585
#
#
# Mechanical properties :
#
#
# Convention : Reuss Voigt Hill
#
# Bulk Modulus (GPa) = 68.53662 85.54496 77.04079
# Shear Modulus (GPa) = 26.14440 34.36621 30.25531
#
# Velocity S-wave (km/s) = 3.77546 4.32859 4.06145
# Velocity P-wave (km/s) = 7.50814 8.46297 7.99981
#
# Compressibility (1/GPa) = 0.01459074
#
# Stress axis : x y z
#
# Youngs Moduli (GPa) = 55.67024 30.23640 73.73730
#
# Poissons Ratio (x) = 0.32288 0.33816
# Poissons Ratio (y) = 0.59447 0.71811
# Poissons Ratio (z) = 0.25530 0.29447
#
# Static dielectric constant tensor:
#      x y z
#    x 1.608170 0.000000 0.021100 
#    y 0.000000 1.625220 0.000000 
#    z 0.021100 0.000000 1.609690 
# 
# From -- ./inp_files/27013.got.cif
#   From: 2010.05.17/outbox.cif.g08.bks.cpg/sg10_14_cif.got.tgz:27013.got - 2010.06.03 11:33:40.
