data_PCOD9153588
_publ_section_title
;
Structure prediction by ZEFSAII (Michael W. Deem and Ramdas Pophale) SiO2 
 PCOD9153588
Probable space group: P 2/M
;
_chemical_formula_sum "Si O2"
_cell_formula_units_Z 20
_cell_length_a 9.984487
_cell_length_b 18.007740
_cell_length_c 12.206249
_cell_angle_alpha 90.000000
_cell_angle_beta 25.592985
_cell_angle_gamma 90.000000
_cell_volume 948.038856
_symmetry_space_group_name_H-M "P 2/M"
_symmetry_group_IT_number 10
_symmetry_cell_setting 'monoclinic'
loop_
_space_group_symop_operation_xyz
x,y,z
-x,y,-z
-x,-y,-z
x,-y,z
loop_
_atom_site_type_symbol
_atom_site_label
_atom_site_fract_x
_atom_site_fract_y
_atom_site_fract_z
Si Si1 0.701441 0.794146 0.153382
Si Si2 0.277720 0.329976 0.467016
Si Si3 0.824749 0.913382 0.511957
Si Si4 0.179585 0.210398 0.176247
Si Si5 0.325630 0.411476 0.012852
O O1 0.529007 0.724650 0.339687
O O2 0.475883 0.862951 0.290056
O O3 0.800776 0.762784 0.962043
O O4 0.000000 0.818174 0.000000
O O5 0.461889 0.376973 0.240324
O O6 0.057857 0.263221 0.584156
O O7 0.027909 0.380830 0.714963
O O8 0.000000 0.903536 0.500000
O O9 0.070818 0.874659 0.250346
O O10 0.768876 0.000000 0.537220
O O11 0.500000 0.214412 0.000000
O O12 0.314733 0.500000 0.006883
O O13 0.500000 0.395422 0.000000
#
# Coordination Sequence:
#
# PCOD9153588 Si02
#       5
#     4   4   4   4   4
#     4  11  25  43  66  97 134 177 228 278 334 395
#     4  11  23  39  64  93 136 174 221 268 335 394
#     4  10  22  39  64  98 135 177 224 278 338 402
#     4  11  22  39  67  98 129 177 226 280 331 393
#     4  11  23  38  63 101 139 171 216 278 340 394
#
# _framework density 21.09618
#
# number of rings (size 3 to 8) (size 9 to 14) (size 15 to 20)
#    0.000    1.200    4.000    1.800    2.800    6.400 
#    0.000    1.000    0.000    3.600    0.000    0.000 
#    0.000    0.000    0.000    0.000    0.000    0.000 
#
# Total GULP energy -111454.904975 kJ/mol
# GULP energy per Si atom -5572.745249 kJ/mol
# Density = 2.104816 g / cm^3
# Si number density = 21.096180 Si / 1000 Ang^3
#
#
#
# Elastic Constant Matrix: (Units=GPa)
#
#
# Indices 1 2 3 4 5 6 
#
# 1 75.7484 31.8559 50.4999 0.0000 -17.4047 0.0000
# 2 31.8559 172.2895 80.9506 0.0000 -10.6842 0.0000
# 3 50.4999 80.9506 135.7878 0.0000 -5.9965 0.0000
# 4 0.0000 0.0000 0.0000 67.9948 0.0000 -3.2938
# 5 -17.4047 -10.6842 -5.9965 0.0000 35.9776 0.0000
# 6 0.0000 0.0000 0.0000 -3.2938 0.0000 17.6941
#
#
#
# Elastic Compliance Matrix: (Units=1/GPa)
#
#
# Indices 1 2 3 4 5 6 
#
# 1 0.019799 0.000205 -0.007112 0.000000 0.008454 0.000000
# 2 0.000205 0.008158 -0.004864 0.000000 0.001711 0.000000
# 3 -0.007112 -0.004864 0.012788 0.000000 -0.002754 0.000000
# 4 0.000000 0.000000 0.000000 0.014841 0.000000 0.002763
# 5 0.008454 0.001711 -0.002754 0.000000 0.031934 0.000000
# 6 0.000000 0.000000 0.000000 0.002763 0.000000 0.057030
#
#
# Mechanical properties :
#
#
# Convention : Reuss Voigt Hill
#
# Bulk Modulus (GPa) = 58.13195 78.93761 68.53478
# Shear Modulus (GPa) = 28.76434 39.03460 33.89947
#
# Velocity S-wave (km/s) = 3.69655 4.30620 4.01297
# Velocity P-wave (km/s) = 6.77014 7.88820 7.35046
#
# Compressibility (1/GPa) = 0.01720224
#
# Stress axis : x y z
#
# Youngs Moduli (GPa) = 50.50648 122.58317 78.20035
#
# Poissons Ratio (x) = -0.02515 0.55620
# Poissons Ratio (y) = -0.01036 0.38037
# Poissons Ratio (z) = 0.35923 0.59625
#
# Static dielectric constant tensor:
#      x y z
#    x 1.761040 0.000000 0.027690 
#    y 0.000000 1.777640 0.000000 
#    z 0.027690 0.000000 1.875330 
# 
# From -- ./inp_files/65308.got.cif
#   From: 2010.05.17/outbox.cif.g08.bks.cpg/sg10_33_cif.got.tgz:65308.got - 2010.06.03 11:33:40.
