data_PCOD9153254
_publ_section_title
;
Structure prediction by ZEFSAII (Michael W. Deem and Ramdas Pophale) SiO2 
 PCOD9153254
Probable space group: P 2/M
;
_chemical_formula_sum "Si O2"
_cell_formula_units_Z 25
_cell_length_a 14.862964
_cell_length_b 7.488062
_cell_length_c 16.761424
_cell_angle_alpha 90.000000
_cell_angle_beta 137.192704
_cell_angle_gamma 90.000000
_cell_volume 1267.644360
_symmetry_space_group_name_H-M "P 2/M"
_symmetry_group_IT_number 10
_symmetry_cell_setting 'monoclinic'
loop_
_space_group_symop_operation_xyz
x,y,z
-x,y,-z
-x,-y,-z
x,-y,z
loop_
_atom_site_type_symbol
_atom_site_label
_atom_site_fract_x
_atom_site_fract_y
_atom_site_fract_z
Si Si1 0.605332 0.000000 0.451971
Si Si2 0.156078 0.286479 0.110779
Si Si3 0.614675 0.706716 0.326617
Si Si4 0.299163 0.000000 0.308137
Si Si5 0.701232 0.707212 0.128205
Si Si6 0.331581 0.284555 0.074077
Si Si7 0.139047 0.785649 0.625860
Si Si8 0.500000 0.000000 0.000000
O O1 0.636032 0.828931 0.417417
O O2 0.448679 0.000000 0.370576
O O3 0.684681 0.000000 0.586277
O O4 0.175180 0.500000 0.134830
O O5 0.230484 0.231437 0.077506
O O6 0.221796 0.171770 0.223608
O O7 0.000000 0.252925 0.000000
O O8 0.594125 0.500000 0.335527
O O9 0.479100 0.770400 0.195447
O O10 0.738925 0.719719 0.348530
O O11 0.659801 0.500000 0.103391
O O12 0.833517 0.724787 0.265857
O O13 0.706885 0.773089 0.040107
O O14 0.596797 0.842001 0.098491
O O15 0.330064 0.500000 0.070256
O O16 0.000000 0.722601 0.500000
O O17 0.139206 0.000000 0.623943
#
# Coordination Sequence:
#
# PCOD9153254 Si02
#       8
#     2   4   4   2   4   4   4   1
#     4  11  24  41  63  97 128 162 212 262 308 383
#     4  10  21  41  66  95 129 164 205 257 316 376
#     4  11  22  41  67  90 124 171 212 265 317 364
#     4  11  23  41  66  92 130 169 201 258 324 376
#     4  11  23  39  61  93 128 164 211 257 312 380
#     4   9  20  38  62  93 125 157 205 262 309 365
#     4  11  24  44  64  90 132 175 215 261 315 380
#     4  12  22  36  58  94 122 158 198 264 320 346
#
# _framework density 19.721620000000001
#
# number of rings (size 3 to 8) (size 9 to 14) (size 15 to 20)
#    0.000    1.440    3.200    1.920    0.000    4.480 
#    2.880    1.600    0.000    0.000    0.000    0.000 
#    0.000    0.000    0.000    0.000    0.000    0.000 
#
# Total GULP energy -139435.476224 kJ/mol
# GULP energy per Si atom -5577.419049 kJ/mol
# Density = 1.967673 g / cm^3
# Si number density = 19.721620 Si / 1000 Ang^3
#
#
#
# Elastic Constant Matrix: (Units=GPa)
#
#
# Indices 1 2 3 4 5 6 
#
# 1 111.7878 25.9832 81.6198 0.0000 -3.8409 0.0000
# 2 25.9832 120.8970 51.8175 0.0000 -8.5899 0.0000
# 3 81.6198 51.8175 189.5964 0.0000 -11.2621 0.0000
# 4 0.0000 0.0000 0.0000 16.7386 0.0000 6.6652
# 5 -3.8409 -8.5899 -11.2621 0.0000 39.1230 0.0000
# 6 0.0000 0.0000 0.0000 6.6652 0.0000 9.2540
#
#
#
# Elastic Compliance Matrix: (Units=1/GPa)
#
#
# Indices 1 2 3 4 5 6 
#
# 1 0.013074 -0.000471 -0.005524 0.000000 -0.000410 0.000000
# 2 -0.000471 0.009456 -0.002300 0.000000 0.001368 0.000000
# 3 -0.005524 -0.002300 0.008362 0.000000 0.001360 0.000000
# 4 0.000000 0.000000 0.000000 0.083766 0.000000 -0.060332
# 5 -0.000410 0.001368 0.001360 0.000000 0.026212 0.000000
# 6 0.000000 0.000000 0.000000 -0.060332 0.000000 0.151515
#
#
# Mechanical properties :
#
#
# Convention : Reuss Voigt Hill
#
# Bulk Modulus (GPa) = 69.92568 82.34692 76.13630
# Shear Modulus (GPa) = 15.93665 30.54717 23.24191
#
# Velocity S-wave (km/s) = 2.84576 3.93990 3.43665
# Velocity P-wave (km/s) = 6.80670 7.90837 7.37813
#
# Compressibility (1/GPa) = 0.01430090
#
# Stress axis : x y z
#
# Youngs Moduli (GPa) = 76.48688 105.75452 119.59258
#
# Poissons Ratio (x) = 0.04986 0.66061
# Poissons Ratio (y) = 0.03606 0.27508
# Poissons Ratio (z) = 0.42250 0.24325
#
# Static dielectric constant tensor:
#      x y z
#    x 1.710960 0.000000 -0.006440 
#    y 0.000000 1.704820 0.000000 
#    z -0.006440 0.000000 1.706440 
# 
# From -- ./inp_files/66758.got.cif
#   From: 2010.05.17/outbox.cif.g08.bks.cpg/sg10_34_cif.got.tgz:66758.got - 2010.06.03 11:33:40.
