data_PCOD9153954
_publ_section_title
;
Structure prediction by ZEFSAII (Michael W. Deem and Ramdas Pophale) SiO2 
 PCOD9153954
Probable space group: P 2/M
;
_chemical_formula_sum "Si O2"
_cell_formula_units_Z 22
_cell_length_a 5.070203
_cell_length_b 28.801992
_cell_length_c 6.591487
_cell_angle_alpha 90.000000
_cell_angle_beta 94.640459
_cell_angle_gamma 90.000000
_cell_volume 959.412377
_symmetry_space_group_name_H-M "P 2/M"
_symmetry_group_IT_number 10
_symmetry_cell_setting 'monoclinic'
loop_
_space_group_symop_operation_xyz
x,y,z
-x,y,-z
-x,-y,-z
x,-y,z
loop_
_atom_site_type_symbol
_atom_site_label
_atom_site_fract_x
_atom_site_fract_y
_atom_site_fract_z
Si Si1 0.110390 0.208927 0.209757
Si Si2 0.764829 0.347983 0.150065
Si Si3 0.000000 0.282546 0.500000
Si Si4 0.735329 0.050847 0.351748
Si Si5 0.600426 0.851502 0.273688
Si Si6 0.235061 0.549400 0.850930
O O1 0.349326 0.175104 0.165704
O O2 0.826183 0.312432 0.334024
O O3 0.179242 0.248301 0.374348
O O4 0.000000 0.232394 0.000000
O O5 0.762752 0.399955 0.248900
O O6 0.500000 0.340160 0.000000
O O7 0.000000 0.346723 0.000000
O O8 0.866680 0.178269 0.276676
O O9 0.500000 0.047378 0.500000
O O10 0.672458 0.096001 0.214245
O O11 0.000000 0.059517 0.500000
O O12 0.760849 0.000000 0.251899
O O13 0.500000 0.854847 0.500000
O O14 0.220378 0.500000 0.733413
O O15 0.500000 0.548554 0.000000
O O16 0.000000 0.549508 0.000000
#
# Coordination Sequence:
#
# PCOD9153954 Si02
#       6
#     4   4   2   4   4   4
#     4  12  26  42  63  89 122 165 212 263 318 372
#     4  10  23  41  64  94 127 166 212 264 322 383
#     4  12  26  46  65  90 125 170 218 276 324 382
#     4   9  17  30  57  94 125 155 196 244 302 374
#     4  11  20  41  64  90 123 161 205 257 308 372
#     4   8  14  29  55  86 121 160 200 248 311 378
#
# _framework density 22.930705
#
# number of rings (size 3 to 8) (size 9 to 14) (size 15 to 20)
#    0.000    1.818    1.818    3.273    0.000    5.091 
#    0.000    0.455    0.000    3.273    0.000   12.727 
#    0.000    0.000    0.000    0.000    0.000    0.000 
#
# Total GULP energy -122808.677426 kJ/mol
# GULP energy per Si atom -5582.212610 kJ/mol
# Density = 2.287851 g / cm^3
# Si number density = 22.930705 Si / 1000 Ang^3
#
#
#
# Elastic Constant Matrix: (Units=GPa)
#
#
# Indices 1 2 3 4 5 6 
#
# 1 160.8578 42.4233 25.6699 0.0000 25.3182 0.0000
# 2 42.4233 218.9239 68.7910 0.0000 14.2102 0.0000
# 3 25.6699 68.7910 88.5021 0.0000 15.7193 0.0000
# 4 0.0000 0.0000 0.0000 1.8643 0.0000 26.3096
# 5 25.3182 14.2102 15.7193 0.0000 27.4057 0.0000
# 6 0.0000 0.0000 0.0000 26.3096 0.0000 9.8463
#
#
#
# Elastic Compliance Matrix: (Units=1/GPa)
#
#
# Indices 1 2 3 4 5 6 
#
# 1 0.007502 -0.000944 -0.000332 0.000000 -0.006251 0.000000
# 2 -0.000944 0.006169 -0.004574 0.000000 0.000297 0.000000
# 3 -0.000332 -0.004574 0.016117 0.000000 -0.006566 0.000000
# 4 0.000000 0.000000 0.000000 -0.014612 0.000000 0.039044
# 5 -0.006251 0.000297 -0.006566 0.000000 0.045876 0.000000
# 6 0.000000 0.000000 0.000000 0.039044 0.000000 -0.002767
#
#
# Mechanical properties :
#
#
# Convention : Reuss Voigt Hill
#
# Bulk Modulus (GPa) = 55.28377 82.45024 68.86700
# Shear Modulus (GPa) = 65.77781 29.91658 47.84719
#
# Velocity S-wave (km/s) = 5.36169 3.61591 4.57289
# Velocity P-wave (km/s) = 7.90517 7.31214 7.61443
#
# Compressibility (1/GPa) = 0.01808849
#
# Stress axis : x y z
#
# Youngs Moduli (GPa) = 133.28952 162.11219 62.04713
#
# Poissons Ratio (x) = 0.15298 0.02062
# Poissons Ratio (y) = 0.12578 0.28379
# Poissons Ratio (z) = 0.04429 0.74145
#
# Static dielectric constant tensor:
#      x y z
#    x 1.818230 0.000000 -0.027100 
#    y 0.000000 1.961720 0.000000 
#    z -0.027100 0.000000 1.930990 
# 
# From -- ./inp_files/15678.got.cif
#   From: 2010.05.17/outbox.cif.g08.bks.cpg/sg10_8_cif.got.tgz:15678.got - 2010.06.03 11:33:40.
