data_PCOD9153065
_publ_section_title
;
Structure prediction by ZEFSAII (Michael W. Deem and Ramdas Pophale) SiO2 
 PCOD9153065
Probable space group: P 2/M
;
_chemical_formula_sum "Si O2"
_cell_formula_units_Z 18
_cell_length_a 18.148870
_cell_length_b 8.587723
_cell_length_c 18.704925
_cell_angle_alpha 90.000000
_cell_angle_beta 15.849214
_cell_angle_gamma 90.000000
_cell_volume 796.188404
_symmetry_space_group_name_H-M "P 2/M"
_symmetry_group_IT_number 10
_symmetry_cell_setting 'monoclinic'
loop_
_space_group_symop_operation_xyz
x,y,z
-x,y,-z
-x,-y,-z
x,-y,z
loop_
_atom_site_type_symbol
_atom_site_label
_atom_site_fract_x
_atom_site_fract_y
_atom_site_fract_z
Si Si1 0.656826 0.826877 0.928985
Si Si2 0.988968 0.319876 0.801069
Si Si3 0.786791 0.183691 0.262754
Si Si4 0.573573 0.177504 0.704023
Si Si5 0.799943 0.500000 0.752763
O O1 0.822718 0.664783 0.772541
O O2 0.790652 0.000000 0.811627
O O3 0.500000 0.831795 0.000000
O O4 0.449581 0.811726 0.188545
O O5 0.030995 0.500000 0.747016
O O6 0.114882 0.273798 0.759526
O O7 0.148218 0.222904 0.592387
O O8 0.672590 0.280716 0.095429
O O9 0.500000 0.237185 0.500000
O O10 0.762934 0.000000 0.304070
O O11 0.000000 0.198037 0.000000
O O12 0.510490 0.000000 0.743155
O O13 0.000000 0.500000 0.500000
O O14 0.500000 0.500000 0.000000
#
# Coordination Sequence:
#
# PCOD9153065 Si02
#       5
#     4   4   4   4   2
#     4   9  21  42  67  95 128 172 226 278 333 398
#     4  12  26  42  66 100 137 172 215 275 332 393
#     4  10  21  39  65  94 127 170 216 262 317 391
#     4  11  24  44  68  93 131 180 223 273 331 399
#     4  10  22  38  60  90 122 160 202 266 330 380
#
# _framework density 22.607714000000001
#
# number of rings (size 3 to 8) (size 9 to 14) (size 15 to 20)
#    0.000    1.556    0.000    4.000    3.111    6.667 
#    0.000    6.667    0.000    0.000    0.000    0.000 
#    0.000    0.000    0.000    0.000    0.000    0.000 
#
# Total GULP energy -100717.552638 kJ/mol
# GULP energy per Si atom -5595.419591 kJ/mol
# Density = 2.255626 g / cm^3
# Si number density = 22.607714 Si / 1000 Ang^3
#
#
#
# Elastic Constant Matrix: (Units=GPa)
#
#
# Indices 1 2 3 4 5 6 
#
# 1 97.1226 14.6321 -5.5283 0.0000 -6.0599 0.0000
# 2 14.6321 148.4202 6.2969 0.0000 19.3546 0.0000
# 3 -5.5283 6.2969 58.5803 0.0000 -5.8272 0.0000
# 4 0.0000 0.0000 0.0000 21.5577 0.0000 10.1460
# 5 -6.0599 19.3546 -5.8272 0.0000 32.4318 0.0000
# 6 0.0000 0.0000 0.0000 10.1460 0.0000 32.9747
#
#
#
# Elastic Compliance Matrix: (Units=1/GPa)
#
#
# Indices 1 2 3 4 5 6 
#
# 1 0.010816 -0.001550 0.001507 0.000000 0.003217 0.000000
# 2 -0.001550 0.007618 -0.001472 0.000000 -0.005100 0.000000
# 3 0.001507 -0.001472 0.017805 0.000000 0.004359 0.000000
# 4 0.000000 0.000000 0.000000 0.054242 0.000000 -0.016690
# 5 0.003217 -0.005100 0.004359 0.000000 0.035262 0.000000
# 6 0.000000 0.000000 0.000000 -0.016690 0.000000 0.035462
#
#
# Mechanical properties :
#
#
# Convention : Reuss Voigt Hill
#
# Bulk Modulus (GPa) = 30.11218 37.21384 33.66301
# Shear Modulus (GPa) = 28.52185 36.64102 32.58144
#
# Velocity S-wave (km/s) = 3.55575 4.03020 3.80039
# Velocity P-wave (km/s) = 5.49601 6.17682 5.84633
#
# Compressibility (1/GPa) = 0.03320915
#
# Stress axis : x y z
#
# Youngs Moduli (GPa) = 92.45351 131.26816 56.16476
#
# Poissons Ratio (x) = 0.20343 -0.08466
# Poissons Ratio (y) = 0.14328 0.08270
# Poissons Ratio (z) = -0.13935 0.19329
#
# Static dielectric constant tensor:
#      x y z
#    x 1.821120 0.000000 -0.018270 
#    y 0.000000 1.840720 0.000000 
#    z -0.018270 0.000000 1.769580 
# 
# From -- ./inp_files/10623.got.cif
#   From: 2010.05.17/outbox.cif.g08.bks.cpg/sg10_6_cif.got.tgz:10623.got - 2010.06.03 11:33:40.
