data_PCOD9153280
_publ_section_title
;
Structure prediction by ZEFSAII (Michael W. Deem and Ramdas Pophale) SiO2 
 PCOD9153280
Probable space group: P 2/M
;
_chemical_formula_sum "Si O2"
_cell_formula_units_Z 17
_cell_length_a 5.177376
_cell_length_b 24.063843
_cell_length_c 5.189893
_cell_angle_alpha 90.000000
_cell_angle_beta 93.860330
_cell_angle_gamma 90.000000
_cell_volume 645.129081
_symmetry_space_group_name_H-M "P 2/M"
_symmetry_group_IT_number 10
_symmetry_cell_setting 'monoclinic'
loop_
_space_group_symop_operation_xyz
x,y,z
-x,y,-z
-x,-y,-z
x,-y,z
loop_
_atom_site_type_symbol
_atom_site_label
_atom_site_fract_x
_atom_site_fract_y
_atom_site_fract_z
Si Si1 0.270001 0.701301 0.170892
Si Si2 0.500000 0.500000 0.000000
Si Si3 0.829233 0.415328 0.723288
Si Si4 0.817889 0.822171 0.737068
Si Si5 0.814947 0.940746 0.738945
O O1 0.237203 0.648449 0.351351
O O2 0.327820 0.763575 0.270166
O O3 0.500000 0.685045 0.000000
O O4 0.000000 0.705759 0.000000
O O5 0.588689 0.451784 0.796076
O O6 0.000000 0.437968 0.500000
O O7 0.000000 0.416397 0.000000
O O8 0.000000 0.821228 0.500000
O O9 0.670341 0.881412 0.734584
O O10 0.000000 0.822884 0.000000
O O11 0.000000 0.940580 0.500000
O O12 0.669200 0.000000 0.735004
O O13 0.000000 0.940942 0.000000
#
# Coordination Sequence:
#
# PCOD9153280 Si02
#       5
#     4   1   4   4   4
#     4  10  21  42  64  94 127 167 214 266 322 384
#     4  12  24  46  68 100 128 178 214 270 322 394
#     4  11  25  44  66  97 132 170 218 269 324 388
#     4   9  17  31  52  80 114 155 201 252 311 373
#     4   8  13  22  40  69 105 145 191 243 300 364
#
# _framework density 26.351317000000002
#
# number of rings (size 3 to 8) (size 9 to 14) (size 15 to 20)
#    0.000    2.353    1.176    1.412    0.000    1.882 
#    0.000   11.765    0.000    0.706    0.000    0.000 
#    0.000   41.412    0.000    0.000    0.000    9.882 
#
# Total GULP energy -94786.544190 kJ/mol
# GULP energy per Si atom -5575.679070 kJ/mol
# Density = 2.629134 g / cm^3
# Si number density = 26.351317 Si / 1000 Ang^3
#
#
#
# Elastic Constant Matrix: (Units=GPa)
#
#
# Indices 1 2 3 4 5 6 
#
# 1 92.0161 -7.7993 37.3252 0.0000 20.8595 0.0000
# 2 -7.7993 292.8961 23.7474 0.0000 -23.5501 0.0000
# 3 37.3252 23.7474 205.7262 0.0000 -10.0611 0.0000
# 4 0.0000 0.0000 0.0000 16.8146 0.0000 -21.5344
# 5 20.8595 -23.5501 -10.0611 0.0000 66.1226 0.0000
# 6 0.0000 0.0000 0.0000 -21.5344 0.0000 -31.7659
#
#
#
# Elastic Compliance Matrix: (Units=1/GPa)
#
#
# Indices 1 2 3 4 5 6 
#
# 1 0.012931 0.000200 -0.002584 0.000000 -0.004401 0.000000
# 2 0.000200 0.003543 -0.000389 0.000000 0.001139 0.000000
# 3 -0.002584 -0.000389 0.005448 0.000000 0.001506 0.000000
# 4 0.000000 0.000000 0.000000 0.031834 0.000000 -0.021581
# 5 -0.004401 0.001139 0.001506 0.000000 0.017147 0.000000
# 6 0.000000 0.000000 0.000000 -0.021581 0.000000 -0.016851
#
#
# Mechanical properties :
#
#
# Convention : Reuss Voigt Hill
#
# Bulk Modulus (GPa) = 61.07280 77.46500 69.26890
# Shear Modulus (GPa) = 76.85512 46.05860 61.45686
#
# Velocity S-wave (km/s) = 5.40637 4.18529 4.83454
# Velocity P-wave (km/s) = 7.88661 7.26748 7.58337
#
# Compressibility (1/GPa) = 0.01637390
#
# Stress axis : x y z
#
# Youngs Moduli (GPa) = 77.33561 282.27075 183.54333
#
# Poissons Ratio (x) = -0.05645 0.47434
# Poissons Ratio (y) = -0.01547 0.07149
# Poissons Ratio (z) = 0.19986 0.10994
#
# Static dielectric constant tensor:
#      x y z
#    x 2.223080 0.000000 0.038900 
#    y 0.000000 2.149830 0.000000 
#    z 0.038900 0.000000 2.007610 
# 
# From -- ./inp_files/1949.got.cif
#   From: 2010.05.17/outbox.cif.g08.bks.cpg/sg10_1_cif.got.tgz:1949.got - 2010.06.03 11:33:40.
