data_PCOD9153864
_publ_section_title
;
Structure prediction by ZEFSAII (Michael W. Deem and Ramdas Pophale) SiO2 
 PCOD9153864
Probable space group: P 2/M
;
_chemical_formula_sum "Si O2"
_cell_formula_units_Z 28
_cell_length_a 10.086047
_cell_length_b 15.750791
_cell_length_c 22.840480
_cell_angle_alpha 90.000000
_cell_angle_beta 25.312756
_cell_angle_gamma 90.000000
_cell_volume 1551.403512
_symmetry_space_group_name_H-M "P 2/M"
_symmetry_group_IT_number 10
_symmetry_cell_setting 'monoclinic'
loop_
_space_group_symop_operation_xyz
x,y,z
-x,y,-z
-x,-y,-z
x,-y,z
loop_
_atom_site_type_symbol
_atom_site_label
_atom_site_fract_x
_atom_site_fract_y
_atom_site_fract_z
Si Si1 0.391003 0.820606 0.183467
Si Si2 0.771105 0.097882 0.437847
Si Si3 0.662411 0.258327 0.666873
Si Si4 0.762454 0.705713 0.942433
Si Si5 0.970580 0.000000 0.814426
Si Si6 0.682319 0.827499 0.295816
Si Si7 0.154337 0.600547 0.875100
Si Si8 0.523523 0.000000 0.886098
O O1 0.345756 0.773820 0.263025
O O2 0.589349 0.767967 0.057824
O O3 0.528455 0.915968 0.131246
O O4 0.048255 0.847411 0.299598
O O5 0.500000 0.087395 0.500000
O O6 0.631653 0.161412 0.541982
O O7 0.849702 0.000000 0.428252
O O8 0.440990 0.193577 0.719476
O O9 0.473862 0.347158 0.740414
O O10 0.000000 0.262697 0.500000
O O11 0.500000 0.681122 0.000000
O O12 0.051277 0.757380 0.798455
O O13 0.918728 0.631675 0.918448
O O14 0.841873 0.000000 0.799285
O O15 0.162939 0.917061 0.752660
O O16 0.705544 0.000000 0.968238
O O17 0.203938 0.500000 0.852489
O O18 0.000000 0.621155 0.000000
#
# Coordination Sequence:
#
# PCOD9153864 Si02
#       8
#     4   4   4   4   2   4   4   2
#     4  12  22  37  55  86 118 162 201 250 287 340
#     4  11  21  33  51  78 113 160 211 251 286 329
#     4  11  24  42  59  86 121 157 195 241 295 354
#     4  11  22  38  64  93 121 151 191 247 300 349
#     4  11  20  36  53  80 116 163 206 253 292 347
#     4  11  22  35  55  81 116 157 206 245 286 339
#     4  10  22  43  70  94 117 150 189 235 298 374
#     4  11  22  34  55  80 120 159 208 249 300 331
#
# _framework density 18.048173999999999
#
# number of rings (size 3 to 8) (size 9 to 14) (size 15 to 20)
#    0.000    1.000    5.714    2.571    0.000    1.143 
#    0.000    2.143    0.000    0.000    0.000    1.000 
#    0.000    0.000    0.000    0.000    0.000    0.000 
#
# Total GULP energy -155888.248404 kJ/mol
# GULP energy per Si atom -5567.437443 kJ/mol
# Density = 1.800710 g / cm^3
# Si number density = 18.048174 Si / 1000 Ang^3
#
#
#
# Elastic Constant Matrix: (Units=GPa)
#
#
# Indices 1 2 3 4 5 6 
#
# 1 84.1770 46.9432 21.1063 0.0000 -4.7515 0.0000
# 2 46.9432 87.6009 32.1340 0.0000 4.3133 0.0000
# 3 21.1063 32.1340 88.2267 0.0000 4.3838 0.0000
# 4 0.0000 0.0000 0.0000 26.2117 0.0000 0.7839
# 5 -4.7515 4.3133 4.3838 0.0000 27.6365 0.0000
# 6 0.0000 0.0000 0.0000 0.7839 0.0000 20.9407
#
#
#
# Elastic Compliance Matrix: (Units=1/GPa)
#
#
# Indices 1 2 3 4 5 6 
#
# 1 0.017567 -0.009252 -0.001063 0.000000 0.004633 0.000000
# 2 -0.009252 0.018095 -0.004191 0.000000 -0.003750 0.000000
# 3 -0.001063 -0.004191 0.013196 0.000000 -0.001622 0.000000
# 4 0.000000 0.000000 0.000000 0.038194 0.000000 -0.001430
# 5 0.004633 -0.003750 -0.001622 0.000000 0.037823 0.000000
# 6 0.000000 0.000000 0.000000 -0.001430 0.000000 0.047807
#
#
# Mechanical properties :
#
#
# Convention : Reuss Voigt Hill
#
# Bulk Modulus (GPa) = 50.38724 51.15241 50.76982
# Shear Modulus (GPa) = 24.00261 25.61252 24.80757
#
# Velocity S-wave (km/s) = 3.65076 3.77121 3.71147
# Velocity P-wave (km/s) = 6.76384 6.88232 6.82334
#
# Compressibility (1/GPa) = 0.01984630
#
# Stress axis : x y z
#
# Youngs Moduli (GPa) = 56.92345 55.26255 75.78182
#
# Poissons Ratio (x) = 0.51130 0.08056
# Poissons Ratio (y) = 0.52666 0.31760
# Poissons Ratio (z) = 0.06051 0.23161
#
# Static dielectric constant tensor:
#      x y z
#    x 1.628940 0.000000 0.006760 
#    y 0.000000 1.608430 0.000000 
#    z 0.006760 0.000000 1.769050 
# 
# From -- ./inp_files/82914.got.cif
#   From: 2010.05.17/outbox.cif.g08.bks.cpg/sg10_42_cif.got.tgz:82914.got - 2010.06.03 11:33:40.
