data_PCOD9153580
_publ_section_title
;
Structure prediction by ZEFSAII (Michael W. Deem and Ramdas Pophale) SiO2 
 PCOD9153580
Probable space group: P 2/M
;
_chemical_formula_sum "Si O2"
_cell_formula_units_Z 28
_cell_length_a 19.424671
_cell_length_b 8.639946
_cell_length_c 14.524776
_cell_angle_alpha 90.000000
_cell_angle_beta 146.749270
_cell_angle_gamma 90.000000
_cell_volume 1336.581563
_symmetry_space_group_name_H-M "P 2/M"
_symmetry_group_IT_number 10
_symmetry_cell_setting 'monoclinic'
loop_
_space_group_symop_operation_xyz
x,y,z
-x,y,-z
-x,-y,-z
x,-y,z
loop_
_atom_site_type_symbol
_atom_site_label
_atom_site_fract_x
_atom_site_fract_y
_atom_site_fract_z
Si Si1 0.033172 0.185599 0.298462
Si Si2 0.409984 0.814675 0.487323
Si Si3 0.792587 0.815694 0.129440
Si Si4 0.619671 0.169429 0.197589
Si Si5 0.878943 0.188288 0.804369
Si Si6 0.483328 0.680914 0.209022
Si Si7 0.846790 0.322655 0.382715
O O1 0.095310 0.239564 0.272590
O O2 0.095034 0.253598 0.459277
O O3 0.885322 0.219978 0.147927
O O4 0.044367 0.000000 0.313248
O O5 0.500000 0.791655 0.500000
O O6 0.261123 0.769964 0.316119
O O7 0.474576 0.720822 0.641364
O O8 0.412241 0.000000 0.510156
O O9 0.860723 0.764492 0.300878
O O10 0.771566 0.000000 0.110450
O O11 0.659823 0.732374 0.969721
O O12 0.574492 0.218175 0.246765
O O13 0.700986 0.301029 0.242087
O O14 0.684199 0.000000 0.270742
O O15 0.500000 0.154441 0.000000
O O16 0.881971 0.000000 0.808025
O O17 0.000000 0.239196 0.000000
O O18 0.497088 0.500000 0.204048
O O19 0.880643 0.500000 0.410267
#
# Coordination Sequence:
#
# PCOD9153580 Si02
#       7
#     4   4   4   4   4   4   4
#     4  10  22  39  63  89 122 167 215 265 317 379
#     4  10  22  40  68 100 129 165 214 267 321 385
#     4  11  23  39  61  90 123 167 220 266 313 377
#     4  11  22  38  62  87 118 162 210 260 308 372
#     4   9  19  38  66  97 125 157 206 268 321 369
#     4  12  25  40  62  92 130 168 209 263 332 392
#     4  12  24  38  60  90 128 167 208 259 323 386
#
# _framework density 20.948964
#
# number of rings (size 3 to 8) (size 9 to 14) (size 15 to 20)
#    0.000    1.286    1.429    4.714    2.000    4.857 
#    0.000    0.000    0.000    0.857    0.000    0.000 
#    0.000    0.000    0.000    0.000    0.000    0.000 
#
# Total GULP energy -156341.992598 kJ/mol
# GULP energy per Si atom -5583.642593 kJ/mol
# Density = 2.090128 g / cm^3
# Si number density = 20.948964 Si / 1000 Ang^3
#
#
#
# Elastic Constant Matrix: (Units=GPa)
#
#
# Indices 1 2 3 4 5 6 
#
# 1 126.5167 29.4768 50.9736 0.0000 16.2608 0.0000
# 2 29.4768 49.1641 15.6800 0.0000 -2.3973 0.0000
# 3 50.9736 15.6800 104.6359 0.0000 0.9440 0.0000
# 4 0.0000 0.0000 0.0000 13.2408 0.0000 -2.1344
# 5 16.2608 -2.3973 0.9440 0.0000 23.3261 0.0000
# 6 0.0000 0.0000 0.0000 -2.1344 0.0000 0.7994
#
#
#
# Elastic Compliance Matrix: (Units=1/GPa)
#
#
# Indices 1 2 3 4 5 6 
#
# 1 0.012650 -0.006404 -0.005119 0.000000 -0.009269 0.000000
# 2 -0.006404 0.024730 -0.000650 0.000000 0.007032 0.000000
# 3 -0.005119 -0.000650 0.012121 0.000000 0.003011 0.000000
# 4 0.000000 0.000000 0.000000 0.132592 0.000000 0.354028
# 5 -0.009269 0.007032 0.003011 0.000000 0.049933 0.000000
# 6 0.000000 0.000000 0.000000 0.354028 0.000000 2.196240
#
#
# Mechanical properties :
#
#
# Convention : Reuss Voigt Hill
#
# Bulk Modulus (GPa) = 39.75305 52.50861 46.13083
# Shear Modulus (GPa) = 2.03170 19.75233 10.89201
#
# Velocity S-wave (km/s) = 0.98587 3.07396 2.28267
# Velocity P-wave (km/s) = 4.50702 6.14153 5.38664
#
# Compressibility (1/GPa) = 0.02515530
#
# Stress axis : x y z
#
# Youngs Moduli (GPa) = 79.05150 40.43747 82.50157
#
# Poissons Ratio (x) = 0.25895 0.42234
# Poissons Ratio (y) = 0.50622 0.05360
# Poissons Ratio (z) = 0.40468 0.02627
#
# Static dielectric constant tensor:
#      x y z
#    x 1.759160 0.000000 0.051340 
#    y 0.000000 1.718250 0.000000 
#    z 0.051340 0.000000 1.780330 
# 
# From -- ./inp_files/70308.got.cif
#   From: 2010.05.17/outbox.cif.g08.bks.cpg/sg10_36_cif.got.tgz:70308.got - 2010.06.03 11:33:40.
