data_PCOD9153627
_publ_section_title
;
Structure prediction by ZEFSAII (Michael W. Deem and Ramdas Pophale) SiO2 
 PCOD9153627
Probable space group: P 2/M
;
_chemical_formula_sum "Si O2"
_cell_formula_units_Z 28
_cell_length_a 12.092412
_cell_length_b 8.729367
_cell_length_c 16.055271
_cell_angle_alpha 90.000000
_cell_angle_beta 56.001825
_cell_angle_gamma 90.000000
_cell_volume 1405.066478
_symmetry_space_group_name_H-M "P 2/M"
_symmetry_group_IT_number 10
_symmetry_cell_setting 'monoclinic'
loop_
_space_group_symop_operation_xyz
x,y,z
-x,y,-z
-x,-y,-z
x,-y,z
loop_
_atom_site_type_symbol
_atom_site_label
_atom_site_fract_x
_atom_site_fract_y
_atom_site_fract_z
Si Si1 0.862775 0.683978 0.822936
Si Si2 0.410220 0.816255 0.616987
Si Si3 0.136874 0.686480 0.984150
Si Si4 0.157751 0.320212 0.452596
Si Si5 0.140971 0.816665 0.640047
Si Si6 0.581345 0.683244 0.207387
Si Si7 0.670876 0.181849 0.769123
O O1 0.864351 0.500000 0.816976
O O2 0.855078 0.730805 0.922629
O O3 0.740396 0.746979 0.820786
O O4 0.000249 0.746807 0.726493
O O5 0.500000 0.771271 0.500000
O O6 0.257372 0.780623 0.657032
O O7 0.450141 0.736806 0.685769
O O8 0.423631 0.000000 0.621439
O O9 0.134265 0.500000 0.983135
O O10 0.269172 0.734430 0.879343
O O11 0.000000 0.741500 0.000000
O O12 0.193180 0.500000 0.435498
O O13 0.181602 0.250878 0.533503
O O14 0.238855 0.232784 0.347563
O O15 0.000000 0.306890 0.500000
O O16 0.130062 0.000000 0.637793
O O17 0.574456 0.500000 0.205648
O O18 0.475213 0.753777 0.188640
O O19 0.668752 0.000000 0.776341
#
# Coordination Sequence:
#
# PCOD9153627 Si02
#       7
#     4   4   4   4   4   4   4
#     4  11  22  39  63  90 121 158 208 259 303 361
#     4  10  22  40  60  87 124 164 203 244 301 370
#     4   9  20  40  66  94 122 156 201 256 312 362
#     4  11  22  37  60  90 123 161 208 256 300 356
#     4  11  22  36  59  91 127 165 204 251 310 368
#     4  11  23  41  66  93 122 160 208 258 310 363
#     4  12  25  41  61  88 127 166 204 251 312 376
#
# _framework density 19.927883999999999
#
# number of rings (size 3 to 8) (size 9 to 14) (size 15 to 20)
#    0.000    1.286    1.429    4.714    0.000    4.857 
#    0.000    5.714    0.000    5.143    0.000    0.000 
#    0.000    0.000    0.000    0.000    0.000    0.000 
#
# Total GULP energy -156650.748905 kJ/mol
# GULP energy per Si atom -5594.669604 kJ/mol
# Density = 1.988253 g / cm^3
# Si number density = 19.927884 Si / 1000 Ang^3
#
#
#
# Elastic Constant Matrix: (Units=GPa)
#
#
# Indices 1 2 3 4 5 6 
#
# 1 157.8749 50.2334 54.8960 0.0000 6.4073 0.0000
# 2 50.2334 67.4991 13.9339 0.0000 6.6043 0.0000
# 3 54.8960 13.9339 92.8157 0.0000 9.4908 0.0000
# 4 0.0000 0.0000 0.0000 69.7226 0.0000 6.0815
# 5 6.4073 6.6043 9.4908 0.0000 35.3589 0.0000
# 6 0.0000 0.0000 0.0000 6.0815 0.0000 32.1912
#
#
#
# Elastic Compliance Matrix: (Units=1/GPa)
#
#
# Indices 1 2 3 4 5 6 
#
# 1 0.010177 -0.006594 -0.005107 0.000000 0.000758 0.000000
# 2 -0.006594 0.019746 0.001224 0.000000 -0.002822 0.000000
# 3 -0.005107 0.001224 0.013922 0.000000 -0.003040 0.000000
# 4 0.000000 0.000000 0.000000 0.014583 0.000000 -0.002755
# 5 0.000758 -0.002822 -0.003040 0.000000 0.029487 0.000000
# 6 0.000000 0.000000 0.000000 -0.002755 0.000000 0.031585
#
#
# Mechanical properties :
#
#
# Convention : Reuss Voigt Hill
#
# Bulk Modulus (GPa) = 43.68494 61.81293 52.74894
# Shear Modulus (GPa) = 33.76483 40.72962 37.24723
#
# Velocity S-wave (km/s) = 4.12072 4.52580 4.32800
# Velocity P-wave (km/s) = 6.67903 7.64174 7.17655
#
# Compressibility (1/GPa) = 0.02289119
#
# Stress axis : x y z
#
# Youngs Moduli (GPa) = 98.25852 50.64404 71.83062
#
# Poissons Ratio (x) = 0.33394 0.36684
# Poissons Ratio (y) = 0.64791 -0.08794
# Poissons Ratio (z) = 0.50180 -0.06200
#
# Static dielectric constant tensor:
#      x y z
#    x 1.698910 0.000000 -0.012220 
#    y 0.000000 1.667060 0.000000 
#    z -0.012220 0.000000 1.674830 
# 
# From -- ./inp_files/63673.got.cif
#   From: 2010.05.17/outbox.cif.g08.bks.cpg/sg10_32_cif.got.tgz:63673.got - 2010.06.03 11:33:40.
