data_PCOD9153834
_publ_section_title
;
Structure prediction by ZEFSAII (Michael W. Deem and Ramdas Pophale) SiO2 
 PCOD9153834
Probable space group: P 2/M
;
_chemical_formula_sum "Si O2"
_cell_formula_units_Z 16
_cell_length_a 5.068822
_cell_length_b 20.073487
_cell_length_c 8.346904
_cell_angle_alpha 90.000000
_cell_angle_beta 62.626747
_cell_angle_gamma 90.000000
_cell_volume 754.193833
_symmetry_space_group_name_H-M "P 2/M"
_symmetry_group_IT_number 10
_symmetry_cell_setting 'monoclinic'
loop_
_space_group_symop_operation_xyz
x,y,z
-x,y,-z
-x,-y,-z
x,-y,z
loop_
_atom_site_type_symbol
_atom_site_label
_atom_site_fract_x
_atom_site_fract_y
_atom_site_fract_z
Si Si1 0.500000 0.259863 0.500000
Si Si2 0.000000 0.650908 0.500000
Si Si3 0.224189 0.843293 0.811984
Si Si4 0.807935 0.076056 0.716297
Si Si5 0.149476 0.420672 0.123473
O O1 0.291931 0.304377 0.445872
O O2 0.706175 0.210923 0.340679
O O3 0.957438 0.610656 0.678455
O O4 0.532596 0.873330 0.789590
O O5 0.036283 0.904084 0.790446
O O6 0.000000 0.811478 0.000000
O O7 0.000000 0.082000 0.500000
O O8 0.703968 0.000000 0.759676
O O9 0.088870 0.500000 0.150689
O O10 0.500000 0.411027 0.000000
O O11 0.000000 0.395394 0.000000
#
# Coordination Sequence:
#
# PCOD9153834 Si02
#       5
#     2   2   4   4   4
#     4  12  26  44  62  92 132 176 226 270 312 386
#     4  12  25  42  70  94 133 182 224 268 322 392
#     4  12  25  43  65  90 126 169 214 268 329 390
#     4  11  22  41  68  94 125 160 205 272 339 399
#     4  10  22  42  69 103 138 169 214 274 331 387
#
# _framework density 21.214706
#
# number of rings (size 3 to 8) (size 9 to 14) (size 15 to 20)
#    0.000    0.750    2.500    4.875    0.000    8.000 
#    0.000    5.000    0.000    0.000    0.000    0.000 
#    0.000    0.000    0.000    0.000    0.000    0.000 
#
# Total GULP energy -89482.871310 kJ/mol
# GULP energy per Si atom -5592.679457 kJ/mol
# Density = 2.116642 g / cm^3
# Si number density = 21.214706 Si / 1000 Ang^3
#
#
#
# Elastic Constant Matrix: (Units=GPa)
#
#
# Indices 1 2 3 4 5 6 
#
# 1 115.6769 30.7328 19.3206 0.0000 12.4120 0.0000
# 2 30.7328 64.4355 45.1069 0.0000 5.3802 0.0000
# 3 19.3206 45.1069 159.9355 0.0000 13.7498 0.0000
# 4 0.0000 0.0000 0.0000 26.5161 0.0000 0.3874
# 5 12.4120 5.3802 13.7498 0.0000 29.3685 0.0000
# 6 0.0000 0.0000 0.0000 0.3874 0.0000 38.2056
#
#
#
# Elastic Compliance Matrix: (Units=1/GPa)
#
#
# Indices 1 2 3 4 5 6 
#
# 1 0.010265 -0.004913 0.000460 0.000000 -0.003654 0.000000
# 2 -0.004913 0.021718 -0.005593 0.000000 0.000716 0.000000
# 3 0.000460 -0.005593 0.008026 0.000000 -0.002927 0.000000
# 4 0.000000 0.000000 0.000000 0.037719 0.000000 -0.000382
# 5 -0.003654 0.000716 -0.002927 0.000000 0.036833 0.000000
# 6 0.000000 0.000000 0.000000 -0.000382 0.000000 0.026178
#
#
# Mechanical properties :
#
#
# Convention : Reuss Voigt Hill
#
# Bulk Modulus (GPa) = 50.20917 58.92984 54.56950
# Shear Modulus (GPa) = 29.85584 35.14389 32.49986
#
# Velocity S-wave (km/s) = 3.75549 4.07453 3.91826
# Velocity P-wave (km/s) = 6.52101 7.06922 6.80064
#
# Compressibility (1/GPa) = 0.01991668
#
# Stress axis : x y z
#
# Youngs Moduli (GPa) = 97.41626 46.04428 124.59260
#
# Poissons Ratio (x) = 0.22620 -0.05726
# Poissons Ratio (y) = 0.47858 0.69689
# Poissons Ratio (z) = -0.04477 0.25754
#
# Static dielectric constant tensor:
#      x y z
#    x 1.549490 0.000000 -0.010270 
#    y 0.000000 1.731150 0.000000 
#    z -0.010270 0.000000 1.562020 
# 
# From -- ./inp_files/14634.got.cif
#   From: 2010.05.17/outbox.cif.g08.bks.cpg/sg10_8_cif.got.tgz:14634.got - 2010.06.03 11:33:40.
