data_PCOD9153430
_publ_section_title
;
Structure prediction by ZEFSAII (Michael W. Deem and Ramdas Pophale) SiO2 
 PCOD9153430
Probable space group: P 2/M
;
_chemical_formula_sum "Si O2"
_cell_formula_units_Z 19
_cell_length_a 5.320842
_cell_length_b 7.779367
_cell_length_c 19.244612
_cell_angle_alpha 90.000000
_cell_angle_beta 83.342833
_cell_angle_gamma 90.000000
_cell_volume 791.217121
_symmetry_space_group_name_H-M "P 2/M"
_symmetry_group_IT_number 10
_symmetry_cell_setting 'monoclinic'
loop_
_space_group_symop_operation_xyz
x,y,z
-x,y,-z
-x,-y,-z
x,-y,z
loop_
_atom_site_type_symbol
_atom_site_label
_atom_site_fract_x
_atom_site_fract_y
_atom_site_fract_z
Si Si1 0.238496 0.000000 0.547684
Si Si2 0.008962 0.686391 0.416574
Si Si3 0.397307 0.707856 0.296304
Si Si4 0.841115 0.300273 0.933843
Si Si5 0.076493 0.291581 0.781811
Si Si6 0.500000 0.000000 0.000000
O O1 0.500000 0.000000 0.500000
O O2 0.192396 0.169148 0.593397
O O3 0.000000 0.000000 0.500000
O O4 0.940267 0.500000 0.389024
O O5 0.000000 0.668739 0.500000
O O6 0.279358 0.739413 0.376856
O O7 0.414887 0.500000 0.291450
O O8 0.662044 0.774682 0.258920
O O9 0.167459 0.765754 0.254067
O O10 0.749891 0.500000 0.926844
O O11 0.025315 0.254295 0.863990
O O12 0.630773 0.154199 0.947897
O O13 0.000000 0.294662 0.000000
O O14 0.081733 0.500000 0.777399
#
# Coordination Sequence:
#
# PCOD9153430 Si02
#       6
#     2   4   4   4   4   1
#     4  10  22  38  56  84 118 154 197 251 308 362
#     4   9  19  37  62  91 122 161 208 259 311 370
#     4   9  18  34  57  87 123 161 204 256 314 368
#     4  10  23  42  66  94 127 172 218 263 324 390
#     4   9  19  36  60  89 123 163 208 257 309 375
#     4  12  24  40  64 100 132 160 214 278 322 382
#
# _framework density 24.013632999999999
#
# number of rings (size 3 to 8) (size 9 to 14) (size 15 to 20)
#    0.000    2.526    0.000    0.632    2.947    3.789 
#    0.000    8.421    0.000    0.000    0.000    0.000 
#    0.000    0.000    0.000    0.000    0.000    0.000 
#
# Total GULP energy -105811.187930 kJ/mol
# GULP energy per Si atom -5569.009891 kJ/mol
# Density = 2.395898 g / cm^3
# Si number density = 24.013633 Si / 1000 Ang^3
#
#
#
# Elastic Constant Matrix: (Units=GPa)
#
#
# Indices 1 2 3 4 5 6 
#
# 1 132.7411 25.9606 91.3069 0.0000 -42.3520 0.0000
# 2 25.9606 136.5104 29.6426 0.0000 -35.8254 0.0000
# 3 91.3069 29.6426 236.8770 0.0000 -38.4631 0.0000
# 4 0.0000 0.0000 0.0000-1406.0542 0.0000 787.5832
# 5 -42.3520 -35.8254 -38.4631 0.0000 50.4216 0.0000
# 6 0.0000 0.0000 0.0000 787.5832 0.0000 -448.3830
#
#
#
# Elastic Compliance Matrix: (Units=1/GPa)
#
#
# Indices 1 2 3 4 5 6 
#
# 1 0.012471 0.000538 -0.003551 0.000000 0.008148 0.000000
# 2 0.000538 0.009030 -0.000254 0.000000 0.006674 0.000000
# 3 -0.003551 -0.000254 0.005831 0.000000 0.001285 0.000000
# 4 0.000000 0.000000 0.000000 -0.044117 0.000000 -0.077491
# 5 0.008148 0.006674 0.001285 0.000000 0.032399 0.000000
# 6 0.000000 0.000000 0.000000 -0.077491 0.000000 -0.138343
#
#
# Mechanical properties :
#
#
# Convention : Reuss Voigt Hill
#
# Bulk Modulus (GPa) = 48.08284 88.88319 68.48301
# Shear Modulus (GPa) = -45.76086 -336.85523 -191.30805
#
# Velocity S-wave (km/s) = -4.37008 -11.85669 -8.93529
# Velocity P-wave (km/s) = 2.32310 12.26163 8.82452
#
# Compressibility (1/GPa) = 0.02079744
#
# Stress axis : x y z
#
# Youngs Moduli (GPa) = 80.18786 110.74476 171.50216
#
# Poissons Ratio (x) = -0.05957 0.60905
# Poissons Ratio (y) = -0.04313 0.04349
# Poissons Ratio (z) = 0.28477 0.02808
#
# Static dielectric constant tensor:
#      x y z
#    x 1.998430 0.000000 0.090570 
#    y 0.000000 0.889270 0.000000 
#    z 0.090570 0.000000 1.980740 
# 
# From -- ./inp_files/80882.got.cif
#   From: 2010.05.17/outbox.cif.g08.bks.cpg/sg10_41_cif.got.tgz:80882.got - 2010.06.03 11:33:40.
