data_PCOD9153582
_publ_section_title
;
Structure prediction by ZEFSAII (Michael W. Deem and Ramdas Pophale) SiO2 
 PCOD9153582
Probable space group: P 2/M
;
_chemical_formula_sum "Si O2"
_cell_formula_units_Z 26
_cell_length_a 15.266751
_cell_length_b 8.019126
_cell_length_c 15.392693
_cell_angle_alpha 90.000000
_cell_angle_beta 141.615298
_cell_angle_gamma 90.000000
_cell_volume 1170.137409
_symmetry_space_group_name_H-M "P 2/M"
_symmetry_group_IT_number 10
_symmetry_cell_setting 'monoclinic'
loop_
_space_group_symop_operation_xyz
x,y,z
-x,y,-z
-x,-y,-z
x,-y,z
loop_
_atom_site_type_symbol
_atom_site_label
_atom_site_fract_x
_atom_site_fract_y
_atom_site_fract_z
Si Si1 0.632480 0.814979 0.167845
Si Si2 0.716100 0.500000 0.917628
Si Si3 0.332969 0.813311 0.381850
Si Si4 0.940670 0.797263 0.360693
Si Si5 0.376925 0.500000 0.330879
Si Si6 0.132239 0.192802 0.358323
Si Si7 0.079330 0.807439 0.969679
Si Si8 0.494821 0.500000 0.888940
O O1 0.774296 0.759850 0.227983
O O2 0.588884 0.668778 0.198857
O O3 0.658520 0.000000 0.226298
O O4 0.500000 0.831669 0.000000
O O5 0.594101 0.500000 0.748303
O O6 0.642724 0.500000 0.954328
O O7 0.809781 0.664589 0.971953
O O8 0.500000 0.828581 0.500000
O O9 0.290677 0.667298 0.284300
O O10 0.283518 0.753128 0.438669
O O11 0.276370 0.000000 0.321656
O O12 0.000000 0.746578 0.500000
O O13 0.042330 0.727269 0.365234
O O14 0.945194 0.000000 0.359071
O O15 0.500000 0.500000 0.500000
O O16 0.035392 0.199328 0.197204
O O17 0.154326 0.000000 0.400967
O O18 0.135917 0.000000 0.014223
O O19 0.000000 0.780053 0.000000
O O20 0.500000 0.500000 0.000000
#
# Coordination Sequence:
#
# PCOD9153582 Si02
#       8
#     4   2   4   4   2   4   4   2
#     4   9  19  38  64  86 120 167 208 259 319 364
#     4  12  25  40  64  93 123 167 208 252 318 379
#     4   9  18  36  61  86 118 160 201 243 297 361
#     4   9  18  35  60  92 127 163 210 261 308 372
#     4  10  22  41  60  83 120 156 193 249 302 357
#     4   9  18  33  58  89 122 161 203 250 307 366
#     4  10  22  39  63  94 126 158 206 262 311 372
#     4  10  24  41  59  90 128 160 211 264 302 370
#
# _framework density 22.219612000000001
#
# number of rings (size 3 to 8) (size 9 to 14) (size 15 to 20)
#    0.000    2.462    0.000    1.154    4.308    3.077 
#    5.538    1.154    0.000    0.000    0.000    0.000 
#    0.000    0.000    0.000    0.000    0.000    0.000 
#
# Total GULP energy -144753.279673 kJ/mol
# GULP energy per Si atom -5567.433834 kJ/mol
# Density = 2.216904 g / cm^3
# Si number density = 22.219612 Si / 1000 Ang^3
#
#
#
# Elastic Constant Matrix: (Units=GPa)
#
#
# Indices 1 2 3 4 5 6 
#
# 1 211.7039 50.9292 51.4032 0.0000 15.8516 0.0000
# 2 50.9292 137.5473 -3.3631 0.0000 6.7983 0.0000
# 3 51.4032 -3.3631 62.6104 0.0000 12.3264 0.0000
# 4 0.0000 0.0000 0.0000 -3.8283 0.0000 5.0448
# 5 15.8516 6.7983 12.3264 0.0000 30.3427 0.0000
# 6 0.0000 0.0000 0.0000 5.0448 0.0000 32.0514
#
#
#
# Elastic Compliance Matrix: (Units=1/GPa)
#
#
# Indices 1 2 3 4 5 6 
#
# 1 0.006746 -0.002599 -0.005542 0.000000 -0.000690 0.000000
# 2 -0.002599 0.008389 0.002921 0.000000 -0.001708 0.000000
# 3 -0.005542 0.002921 0.021997 0.000000 -0.006695 0.000000
# 4 0.000000 0.000000 0.000000 -0.216342 0.000000 0.034052
# 5 -0.000690 -0.001708 -0.006695 0.000000 0.036420 0.000000
# 6 0.000000 0.000000 0.000000 0.034052 0.000000 0.025840
#
#
# Mechanical properties :
#
#
# Convention : Reuss Voigt Hill
#
# Bulk Modulus (GPa) = 37.46678 67.75558 52.61118
# Shear Modulus (GPa) = -51.22340 32.57266 -9.32537
#
# Velocity S-wave (km/s) = -4.80659 3.83292 -2.05086
# Velocity P-wave (km/s) = 3.72904 7.08153 4.25690
#
# Compressibility (1/GPa) = 0.02669031
#
# Stress axis : x y z
#
# Youngs Moduli (GPa) = 148.22854 119.21060 45.46046
#
# Poissons Ratio (x) = 0.30987 0.25196
# Poissons Ratio (y) = 0.38530 -0.13279
# Poissons Ratio (z) = 0.82155 -0.34821
#
# Static dielectric constant tensor:
#      x y z
#    x 1.849740 0.000000 0.013620 
#    y 0.000000 1.869840 0.000000 
#    z 0.013620 0.000000 1.870190 
# 
# From -- ./inp_files/66908.got.cif
#   From: 2010.05.17/outbox.cif.g08.bks.cpg/sg10_34_cif.got.tgz:66908.got - 2010.06.03 11:33:40.
