data_PCOD9153355
_publ_section_title
;
Structure prediction by ZEFSAII (Michael W. Deem and Ramdas Pophale) SiO2 
 PCOD9153355
Probable space group: P 2/M
;
_chemical_formula_sum "Si O2"
_cell_formula_units_Z 22
_cell_length_a 13.178566
_cell_length_b 17.030282
_cell_length_c 5.128132
_cell_angle_alpha 90.000000
_cell_angle_beta 69.097557
_cell_angle_gamma 90.000000
_cell_volume 1075.187142
_symmetry_space_group_name_H-M "P 2/M"
_symmetry_group_IT_number 10
_symmetry_cell_setting 'monoclinic'
loop_
_space_group_symop_operation_xyz
x,y,z
-x,y,-z
-x,-y,-z
x,-y,z
loop_
_atom_site_type_symbol
_atom_site_label
_atom_site_fract_x
_atom_site_fract_y
_atom_site_fract_z
Si Si1 0.342819 0.591673 0.706112
Si Si2 0.000000 0.709714 0.500000
Si Si3 0.616339 0.694960 0.820666
Si Si4 0.891237 0.415695 0.934576
Si Si5 0.183993 0.186663 0.448947
Si Si6 0.126068 0.908443 0.977709
O O1 0.375049 0.500000 0.681528
O O2 0.394298 0.641666 0.427788
O O3 0.212332 0.594457 0.787941
O O4 0.358007 0.634690 0.967982
O O5 0.923045 0.761260 0.386942
O O6 0.912953 0.655481 0.724271
O O7 0.711451 0.758448 0.692474
O O8 0.500000 0.732054 0.000000
O O9 0.875978 0.500000 0.808527
O O10 0.000000 0.419671 0.000000
O O11 0.196355 0.127333 0.677111
O O12 0.150750 0.141078 0.215209
O O13 0.149808 0.000000 0.003689
O O14 0.000000 0.904602 0.000000
#
# Coordination Sequence:
#
# PCOD9153355 Si02
#       6
#     4   2   4   4   4   4
#     4  11  24  42  63  89 123 170 222 272 319 365
#     4  12  21  34  61  86 126 160 204 254 305 372
#     4  12  26  44  64  90 126 167 218 272 316 362
#     4  10  22  36  55  84 126 171 210 257 313 374
#     4  12  24  39  67  96 127 163 204 256 312 373
#     4  11  23  42  66 100 134 162 192 241 314 391
#
# _framework density 20.461555000000001
#
# number of rings (size 3 to 8) (size 9 to 14) (size 15 to 20)
#    0.000    0.727    3.636    4.091    2.545    3.636 
#    0.000    0.000    0.000    3.273    0.000    0.000 
#    0.000    0.000    0.000    0.000    0.000    0.000 
#
# Total GULP energy -122999.242720 kJ/mol
# GULP energy per Si atom -5590.874669 kJ/mol
# Density = 2.041498 g / cm^3
# Si number density = 20.461555 Si / 1000 Ang^3
#
#
#
# Elastic Constant Matrix: (Units=GPa)
#
#
# Indices 1 2 3 4 5 6 
#
# 1 70.1033 33.7037 33.7882 0.0000 -16.4207 0.0000
# 2 33.7037 129.4676 55.8611 0.0000 -1.4968 0.0000
# 3 33.7882 55.8611 115.4854 0.0000 2.9697 0.0000
# 4 0.0000 0.0000 0.0000 16.7694 0.0000 -42.5575
# 5 -16.4207 -1.4968 2.9697 0.0000 49.0555 0.0000
# 6 0.0000 0.0000 0.0000 -42.5575 0.0000 -214.3011
#
#
#
# Elastic Compliance Matrix: (Units=1/GPa)
#
#
# Indices 1 2 3 4 5 6 
#
# 1 0.019414 -0.003099 -0.004353 0.000000 0.006668 0.000000
# 2 -0.003099 0.010273 -0.004050 0.000000 -0.000479 0.000000
# 3 -0.004353 -0.004050 0.011951 0.000000 -0.002304 0.000000
# 4 0.000000 0.000000 0.000000 0.039650 0.000000 -0.007874
# 5 0.006668 -0.000479 -0.002304 0.000000 0.022742 0.000000
# 6 0.000000 0.000000 0.000000 -0.007874 0.000000 -0.003103
#
#
# Mechanical properties :
#
#
# Convention : Reuss Voigt Hill
#
# Bulk Modulus (GPa) = 53.66355 62.41805 58.04080
# Shear Modulus (GPa) = 38.41990 -16.91502 10.75244
#
# Velocity S-wave (km/s) = 4.33790 -2.87831 2.29485
# Velocity P-wave (km/s) = 7.16752 4.41871 5.95392
#
# Compressibility (1/GPa) = 0.01863462
#
# Stress axis : x y z
#
# Youngs Moduli (GPa) = 51.50877 97.34691 83.67643
#
# Poissons Ratio (x) = 0.30167 0.36421
# Poissons Ratio (y) = 0.15962 0.33888
# Poissons Ratio (z) = 0.22420 0.39425
#
# Static dielectric constant tensor:
#      x y z
#    x 1.757290 0.000000 0.008320 
#    y 0.000000 1.765560 0.000000 
#    z 0.008320 0.000000 1.768030 
# 
# From -- ./inp_files/9167.got.cif
#   From: 2010.05.17/outbox.cif.g08.bks.cpg/sg10_5_cif.got.tgz:9167.got - 2010.06.03 11:33:40.
