data_PCOD9153415
_publ_section_title
;
Structure prediction by ZEFSAII (Michael W. Deem and Ramdas Pophale) SiO2 
 PCOD9153415
Probable space group: P 2/M
;
_chemical_formula_sum "Si O2"
_cell_formula_units_Z 28
_cell_length_a 7.795965
_cell_length_b 11.594534
_cell_length_c 15.945983
_cell_angle_alpha 90.000000
_cell_angle_beta 108.660234
_cell_angle_gamma 90.000000
_cell_volume 1365.597731
_symmetry_space_group_name_H-M "P 2/M"
_symmetry_group_IT_number 10
_symmetry_cell_setting 'monoclinic'
loop_
_space_group_symop_operation_xyz
x,y,z
-x,y,-z
-x,-y,-z
x,-y,z
loop_
_atom_site_type_symbol
_atom_site_label
_atom_site_fract_x
_atom_site_fract_y
_atom_site_fract_z
Si Si1 0.143048 0.363070 0.596806
Si Si2 0.804362 0.132801 0.960420
Si Si3 0.474317 0.701335 0.153468
Si Si4 0.938276 0.281402 0.728273
Si Si5 0.215520 0.869327 0.846994
Si Si6 0.697585 0.500000 0.961857
Si Si7 0.450972 0.632873 0.338900
Si Si8 0.004760 0.500000 0.141162
O O1 0.155232 0.500000 0.619297
O O2 0.347679 0.328938 0.601670
O O3 0.000000 0.349092 0.500000
O O4 0.059895 0.300064 0.664513
O O5 0.679857 0.202186 0.879059
O O6 0.824473 0.000000 0.936078
O O7 0.740789 0.131712 0.046905
O O8 0.000000 0.190429 0.000000
O O9 0.657417 0.771125 0.170668
O O10 0.424763 0.610956 0.073977
O O11 0.468570 0.637483 0.240738
O O12 0.726349 0.290856 0.669798
O O13 0.013232 0.169885 0.789790
O O14 0.970250 0.388624 0.796623
O O15 0.251091 0.000000 0.823415
O O16 0.845808 0.500000 0.909205
O O17 0.811478 0.500000 0.064655
O O18 0.417819 0.500000 0.361127
#
# Coordination Sequence:
#
# PCOD9153415 Si02
#       8
#     4   4   4   4   4   2   4   2
#     4  10  22  39  63  96 130 159 194 242 306 384
#     4  10  22  38  55  77 114 164 218 264 300 343
#     4  12  20  37  57  83 122 161 203 257 302 352
#     4  12  20  40  65  88 127 165 201 253 312 361
#     4  11  25  40  58  85 117 162 216 262 303 355
#     4  11  24  35  55  90 127 168 214 249 296 372
#     4  11  21  38  61  95 128 158 198 243 301 375
#     4  11  22  35  58  91 125 169 208 245 303 362
#
# _framework density 20.503841999999999
#
# number of rings (size 3 to 8) (size 9 to 14) (size 15 to 20)
#    0.000    1.000    5.000    2.571    2.000    2.286 
#    0.000    5.000    0.000    0.429    0.000    1.000 
#    0.000    0.000    0.000    0.000    0.000    0.000 
#
# Total GULP energy -156477.761868 kJ/mol
# GULP energy per Si atom -5588.491495 kJ/mol
# Density = 2.045717 g / cm^3
# Si number density = 20.503842 Si / 1000 Ang^3
#
#
#
# Elastic Constant Matrix: (Units=GPa)
#
#
# Indices 1 2 3 4 5 6 
#
# 1 115.8251 24.3351 16.7715 0.0000 34.6278 0.0000
# 2 24.3351 64.1138 11.2359 0.0000 10.8129 0.0000
# 3 16.7715 11.2359 50.5286 0.0000 24.6973 0.0000
# 4 0.0000 0.0000 0.0000 18.2427 0.0000 11.3328
# 5 34.6278 10.8129 24.6973 0.0000 39.8226 0.0000
# 6 0.0000 0.0000 0.0000 11.3328 0.0000 27.9191
#
#
#
# Elastic Compliance Matrix: (Units=1/GPa)
#
#
# Indices 1 2 3 4 5 6 
#
# 1 0.012330 -0.003162 0.002054 0.000000 -0.011137 0.000000
# 2 -0.003162 0.017314 -0.002650 0.000000 -0.000309 0.000000
# 3 0.002054 -0.002650 0.029015 0.000000 -0.019061 0.000000
# 4 0.000000 0.000000 0.000000 0.073300 0.000000 -0.029754
# 5 -0.011137 -0.000309 -0.019061 0.000000 0.046701 0.000000
# 6 0.000000 0.000000 0.000000 -0.029754 0.000000 0.047895
#
#
# Mechanical properties :
#
#
# Convention : Reuss Voigt Hill
#
# Bulk Modulus (GPa) = 19.55268 37.23918 28.39593
# Shear Modulus (GPa) = 19.91096 29.07186 24.49141
#
# Velocity S-wave (km/s) = 3.11960 3.76955 3.45987
# Velocity P-wave (km/s) = 4.74686 6.09488 5.46261
#
# Compressibility (1/GPa) = 0.05114390
#
# Stress axis : x y z
#
# Youngs Moduli (GPa) = 81.10173 57.75757 34.46500
#
# Poissons Ratio (x) = 0.18261 -0.07079
# Poissons Ratio (y) = 0.25642 0.09132
# Poissons Ratio (z) = -0.16658 0.15304
#
# Static dielectric constant tensor:
#      x y z
#    x 1.839100 0.000000 0.010450 
#    y 0.000000 1.725410 0.000000 
#    z 0.010450 0.000000 1.723040 
# 
# From -- ./inp_files/61041.got.cif
#   From: 2010.05.17/outbox.cif.g08.bks.cpg/sg10_31_cif.got.tgz:61041.got - 2010.06.03 11:33:40.
