data_PCOD9153377
_publ_section_title
;
Structure prediction by ZEFSAII (Michael W. Deem and Ramdas Pophale) SiO2 
 PCOD9153377
Probable space group: P 2/M
;
_chemical_formula_sum "Si O2"
_cell_formula_units_Z 32
_cell_length_a 14.979424
_cell_length_b 14.798715
_cell_length_c 11.124625
_cell_angle_alpha 90.000000
_cell_angle_beta 42.379341
_cell_angle_gamma 90.000000
_cell_volume 1662.216715
_symmetry_space_group_name_H-M "P 2/M"
_symmetry_group_IT_number 10
_symmetry_cell_setting 'monoclinic'
loop_
_space_group_symop_operation_xyz
x,y,z
-x,y,-z
-x,-y,-z
x,-y,z
loop_
_atom_site_type_symbol
_atom_site_label
_atom_site_fract_x
_atom_site_fract_y
_atom_site_fract_z
Si Si1 0.688516 0.396617 0.191172
Si Si2 0.975240 0.598603 0.798381
Si Si3 0.659517 0.892930 0.347394
Si Si4 0.035495 0.224618 0.326775
Si Si5 0.456141 0.898341 0.180164
Si Si6 0.312168 0.791378 0.919769
Si Si7 0.268291 0.396702 0.577616
Si Si8 0.759795 0.203139 0.488395
O O1 0.645327 0.500000 0.203674
O O2 0.641964 0.311417 0.158438
O O3 0.668080 0.383569 0.354103
O O4 0.846282 0.391943 0.008890
O O5 0.973173 0.500000 0.745902
O O6 0.972434 0.668895 0.693436
O O7 0.107947 0.605751 0.744862
O O8 0.500000 0.880833 0.500000
O O9 0.719756 0.839756 0.174509
O O10 0.716160 0.847782 0.411003
O O11 0.686482 0.000000 0.315799
O O12 0.000000 0.203408 0.500000
O O13 0.915200 0.191404 0.361112
O O14 0.182598 0.201075 0.133641
O O15 0.566939 0.844968 0.142951
O O16 0.320095 0.844890 0.326507
O O17 0.442506 0.000000 0.243301
O O18 0.500000 0.903354 0.000000
O O19 0.302080 0.500000 0.503471
O O20 0.288249 0.307732 0.476643
#
# Coordination Sequence:
#
# PCOD9153377 Si02
#       8
#     4   4   4   4   4   4   4   4
#     4   9  16  28  49  82 120 155 189 227 282 351
#     4   8  15  27  48  76 111 155 201 239 275 327
#     4  11  22  39  64  90 115 146 193 253 309 359
#     4  10  22  37  56  85 122 160 197 239 292 347
#     4  11  24  43  66  85 106 151 209 252 292 352
#     4  11  21  38  62  89 122 154 193 244 299 351
#     4   9  16  28  49  82 120 155 189 227 282 351
#     4  11  21  38  62  89 122 154 193 244 299 351
#
# _framework density 19.251401000000001
#
# number of rings (size 3 to 8) (size 9 to 14) (size 15 to 20)
#    0.000    2.000    2.500    1.875    0.000    2.250 
#    0.000    3.750    0.000    9.750    0.000    0.000 
#    0.000    0.000    0.000    0.000    0.000    0.000 
#
# Total GULP energy -178352.743325 kJ/mol
# GULP energy per Si atom -5573.523229 kJ/mol
# Density = 1.920758 g / cm^3
# Si number density = 19.251401 Si / 1000 Ang^3
#
#
#
# Elastic Constant Matrix: (Units=GPa)
#
#
# Indices 1 2 3 4 5 6 
#
# 1 42.3246 16.3596 -4.1324 0.0000 0.5147 0.0000
# 2 16.3596 119.3077 19.2785 0.0000 -1.0201 0.0000
# 3 -4.1324 19.2785 41.9492 0.0000 4.4287 0.0000
# 4 0.0000 0.0000 0.0000 27.4883 0.0000 2.4851
# 5 0.5147 -1.0201 4.4287 0.0000 29.1176 0.0000
# 6 0.0000 0.0000 0.0000 2.4851 0.0000 18.6229
#
#
#
# Elastic Compliance Matrix: (Units=1/GPa)
#
#
# Indices 1 2 3 4 5 6 
#
# 1 0.025757 -0.004294 0.004649 0.000000 -0.001313 0.000000
# 2 -0.004294 0.009797 -0.005051 0.000000 0.001187 0.000000
# 3 0.004649 -0.005051 0.027080 0.000000 -0.004378 0.000000
# 4 0.000000 0.000000 0.000000 0.036823 0.000000 -0.004914
# 5 -0.001313 0.001187 -0.004378 0.000000 0.035074 0.000000
# 6 0.000000 0.000000 0.000000 -0.004914 0.000000 0.054353
#
#
# Mechanical properties :
#
#
# Convention : Reuss Voigt Hill
#
# Bulk Modulus (GPa) = 18.78214 29.62142 24.20178
# Shear Modulus (GPa) = 23.14576 26.51747 24.83162
#
# Velocity S-wave (km/s) = 3.47117 3.71540 3.59536
# Velocity P-wave (km/s) = 5.08358 5.81598 5.46207
#
# Compressibility (1/GPa) = 0.05324206
#
# Stress axis : x y z
#
# Youngs Moduli (GPa) = 38.82489 102.07424 36.92805
#
# Poissons Ratio (x) = 0.43834 -0.17169
# Poissons Ratio (y) = 0.16673 0.18651
# Poissons Ratio (z) = -0.18051 0.51554
#
# Static dielectric constant tensor:
#      x y z
#    x 1.661260 0.000000 -0.014160 
#    y 0.000000 1.709490 0.000000 
#    z -0.014160 0.000000 1.700070 
# 
# From -- ./inp_files/51618.got.cif
#   From: 2010.05.17/outbox.cif.g08.bks.cpg/sg10_26_cif.got.tgz:51618.got - 2010.06.03 11:33:40.
