data_PCOD9153109
_publ_section_title
;
Structure prediction by ZEFSAII (Michael W. Deem and Ramdas Pophale) SiO2 
 PCOD9153109
Probable space group: P 2/M
;
_chemical_formula_sum "Si O2"
_cell_formula_units_Z 24
_cell_length_a 10.352657
_cell_length_b 8.306049
_cell_length_c 22.030472
_cell_angle_alpha 90.000000
_cell_angle_beta 45.571639
_cell_angle_gamma 90.000000
_cell_volume 1352.835907
_symmetry_space_group_name_H-M "P 2/M"
_symmetry_group_IT_number 10
_symmetry_cell_setting 'monoclinic'
loop_
_space_group_symop_operation_xyz
x,y,z
-x,y,-z
-x,-y,-z
x,-y,z
loop_
_atom_site_type_symbol
_atom_site_label
_atom_site_fract_x
_atom_site_fract_y
_atom_site_fract_z
Si Si1 0.695273 0.500000 0.094556
Si Si2 0.458549 0.192221 0.205796
Si Si3 0.042755 0.186944 0.306490
Si Si4 0.158463 0.677945 0.741549
Si Si5 0.006695 0.500000 0.896904
Si Si6 0.120143 0.687867 0.517012
Si Si7 0.529614 0.183662 0.653484
O O1 0.580993 0.333928 0.136861
O O2 0.833240 0.500000 0.106326
O O3 0.819082 0.500000 0.993832
O O4 0.253567 0.217925 0.250671
O O5 0.464625 0.218898 0.276541
O O6 0.505457 0.000000 0.179858
O O7 0.962935 0.282232 0.275985
O O8 0.932920 0.225275 0.403722
O O9 0.023252 0.000000 0.298218
O O10 0.241976 0.500000 0.705297
O O11 0.325453 0.794584 0.697785
O O12 0.038100 0.651971 0.841730
O O13 0.076323 0.500000 0.539607
O O14 0.327462 0.709554 0.429743
O O15 0.000000 0.749886 0.500000
O O16 0.589083 0.000000 0.625615
#
# Coordination Sequence:
#
# PCOD9153109 Si02
#       7
#     2   4   4   4   2   4   4
#     4  11  20  41  71  92 124 153 200 255 312 370
#     4  10  22  37  62  94 122 159 204 250 301 362
#     4  11  23  39  58  87 125 164 200 247 300 356
#     4  10  21  40  60  85 119 152 204 239 303 365
#     4   9  22  39  65  96 117 154 196 253 309 365
#     4  11  23  35  57  88 120 157 210 254 292 346
#     4  11  21  37  59  85 122 162 198 251 300 349
#
# _framework density 17.740511000000001
#
# number of rings (size 3 to 8) (size 9 to 14) (size 15 to 20)
#    0.500    1.000    3.333    2.000    3.500    1.333 
#    0.000    8.333    0.000    2.000    0.000    0.000 
#    0.000    0.000    0.000    0.000    0.000    0.000 
#
# Total GULP energy -133816.971292 kJ/mol
# GULP energy per Si atom -5575.707137 kJ/mol
# Density = 1.770013 g / cm^3
# Si number density = 17.740511 Si / 1000 Ang^3
#
#
#
# Elastic Constant Matrix: (Units=GPa)
#
#
# Indices 1 2 3 4 5 6 
#
# 1 86.1536 11.4432 40.6388 0.0000 5.6970 0.0000
# 2 11.4432 44.9649 35.3997 0.0000 -8.2416 0.0000
# 3 40.6388 35.3997 109.9207 0.0000 -3.5879 0.0000
# 4 0.0000 0.0000 0.0000 6.3634 0.0000 -8.3274
# 5 5.6970 -8.2416 -3.5879 0.0000 21.2899 0.0000
# 6 0.0000 0.0000 0.0000 -8.3274 0.0000 14.1032
#
#
#
# Elastic Compliance Matrix: (Units=1/GPa)
#
#
# Indices 1 2 3 4 5 6 
#
# 1 0.014538 -0.000329 -0.005430 0.000000 -0.004933 0.000000
# 2 -0.000329 0.032066 -0.009851 0.000000 0.010841 0.000000
# 3 -0.005430 -0.009851 0.014279 0.000000 0.000046 0.000000
# 4 0.000000 0.000000 0.000000 0.691367 0.000000 0.408227
# 5 -0.004933 0.010841 0.000046 0.000000 0.052495 0.000000
# 6 0.000000 0.000000 0.000000 0.408227 0.000000 0.311950
#
#
# Mechanical properties :
#
#
# Convention : Reuss Voigt Hill
#
# Bulk Modulus (GPa) = 33.71234 46.22252 39.96743
# Shear Modulus (GPa) = 4.31852 18.58847 11.45350
#
# Velocity S-wave (km/s) = 1.56191 3.24048 2.54365
# Velocity P-wave (km/s) = 4.72197 6.33343 5.58611
#
# Compressibility (1/GPa) = 0.02966273
#
# Stress axis : x y z
#
# Youngs Moduli (GPa) = 68.78320 31.18563 70.03254
#
# Poissons Ratio (x) = 0.01026 0.38028
# Poissons Ratio (y) = 0.02264 0.68991
# Poissons Ratio (z) = 0.37349 0.30722
#
# Static dielectric constant tensor:
#      x y z
#    x 1.588530 0.000000 0.000320 
#    y 0.000000 1.602590 0.000000 
#    z 0.000320 0.000000 1.579230 
# 
# From -- ./inp_files/81938.got.cif
#   From: 2010.05.17/outbox.cif.g08.bks.cpg/sg10_41_cif.got.tgz:81938.got - 2010.06.03 11:33:40.
