data_PCOD9153261
_publ_section_title
;
Structure prediction by ZEFSAII (Michael W. Deem and Ramdas Pophale) SiO2 
 PCOD9153261
Probable space group: P 2/M
;
_chemical_formula_sum "Si O2"
_cell_formula_units_Z 28
_cell_length_a 12.269820
_cell_length_b 7.880462
_cell_length_c 15.636696
_cell_angle_alpha 90.000000
_cell_angle_beta 123.588398
_cell_angle_gamma 90.000000
_cell_volume 1259.497230
_symmetry_space_group_name_H-M "P 2/M"
_symmetry_group_IT_number 10
_symmetry_cell_setting 'monoclinic'
loop_
_space_group_symop_operation_xyz
x,y,z
-x,y,-z
-x,-y,-z
x,-y,z
loop_
_atom_site_type_symbol
_atom_site_label
_atom_site_fract_x
_atom_site_fract_y
_atom_site_fract_z
Si Si1 0.670892 0.197273 0.713874
Si Si2 0.418402 0.208511 0.696556
Si Si3 0.406743 0.207002 0.883076
Si Si4 0.855713 0.202403 0.143691
Si Si5 0.133761 0.193642 0.523402
Si Si6 0.872223 0.310816 0.663453
Si Si7 0.151742 0.702908 0.052066
O O1 0.528610 0.265824 0.677900
O O2 0.750090 0.285722 0.672914
O O3 0.757866 0.212427 0.837577
O O4 0.659272 0.000000 0.685044
O O5 0.449582 0.260292 0.807309
O O6 0.272647 0.268107 0.611397
O O7 0.420857 0.000000 0.694751
O O8 0.257940 0.256876 0.840409
O O9 0.409437 0.000000 0.885188
O O10 0.500000 0.266071 0.000000
O O11 0.995324 0.282914 0.225382
O O12 0.870652 0.000000 0.156261
O O13 0.812611 0.247332 0.028921
O O14 0.129153 0.191414 0.419086
O O15 0.000000 0.274035 0.500000
O O16 0.135416 0.000000 0.558593
O O17 0.871798 0.500000 0.628113
O O18 0.161031 0.500000 0.066649
O O19 0.000000 0.752684 0.000000
#
# Coordination Sequence:
#
# PCOD9153261 Si02
#       7
#     4   4   4   4   4   4   4
#     4  11  22  38  62  89 118 156 203 246 291 353
#     4   9  19  36  60  91 122 151 192 251 302 342
#     4   9  17  32  57  91 123 148 185 241 299 348
#     4  11  21  35  61  90 116 154 203 248 293 353
#     4  10  21  41  68  92 116 151 199 249 296 351
#     4  12  25  40  58  85 122 157 195 246 301 355
#     4  11  22  36  55  83 123 163 196 241 296 349
#
# _framework density 22.231092
#
# number of rings (size 3 to 8) (size 9 to 14) (size 15 to 20)
#    0.000    1.571    1.429    4.286    0.000    6.000 
#    0.000    4.286    0.000   11.143    0.000    0.000 
#    0.000    0.000    0.000    0.000    0.000    0.000 
#
# Total GULP energy -156572.164909 kJ/mol
# GULP energy per Si atom -5591.863032 kJ/mol
# Density = 2.218049 g / cm^3
# Si number density = 22.231092 Si / 1000 Ang^3
#
#
#
# Elastic Constant Matrix: (Units=GPa)
#
#
# Indices 1 2 3 4 5 6 
#
# 1 168.3611 8.6684 36.1281 0.0000 7.4021 0.0000
# 2 8.6684 42.7960 -11.2762 0.0000 5.8058 0.0000
# 3 36.1281 -11.2762 75.1492 0.0000 1.6147 0.0000
# 4 0.0000 0.0000 0.0000 -23.7074 0.0000 -13.1988
# 5 7.4021 5.8058 1.6147 0.0000 37.4859 0.0000
# 6 0.0000 0.0000 0.0000 -13.1988 0.0000 44.8841
#
#
#
# Elastic Compliance Matrix: (Units=1/GPa)
#
#
# Indices 1 2 3 4 5 6 
#
# 1 0.006868 -0.002228 -0.003618 0.000000 -0.000855 0.000000
# 2 -0.002228 0.025644 0.005000 0.000000 -0.003747 0.000000
# 3 -0.003618 0.005000 0.015812 0.000000 -0.000741 0.000000
# 4 0.000000 0.000000 0.000000 -0.036247 0.000000 -0.010659
# 5 -0.000855 -0.003747 -0.000741 0.000000 0.027458 0.000000
# 6 0.000000 0.000000 0.000000 -0.010659 0.000000 0.019145
#
#
# Mechanical properties :
#
#
# Convention : Reuss Voigt Hill
#
# Bulk Modulus (GPa) = 21.44500 39.26077 30.35289
# Shear Modulus (GPa) = 65.86077 28.58492 47.22285
#
# Velocity S-wave (km/s) = 5.44884 3.58971 4.61388
# Velocity P-wave (km/s) = 7.01810 5.90593 6.48590
#
# Compressibility (1/GPa) = 0.04663091
#
# Stress axis : x y z
#
# Youngs Moduli (GPa) = 145.59600 38.99593 63.24180
#
# Poissons Ratio (x) = 0.08690 0.22881
# Poissons Ratio (y) = 0.32445 -0.31619
# Poissons Ratio (z) = 0.52676 -0.19497
#
# Static dielectric constant tensor:
#      x y z
#    x 1.810870 0.000000 0.017600 
#    y 0.000000 1.806740 0.000000 
#    z 0.017600 0.000000 1.776370 
# 
# From -- ./inp_files/63907.got.cif
#   From: 2010.05.17/outbox.cif.g08.bks.cpg/sg10_32_cif.got.tgz:63907.got - 2010.06.03 11:33:40.
