data_PCOD9153027
_publ_section_title
;
Structure prediction by ZEFSAII (Michael W. Deem and Ramdas Pophale) SiO2 
 PCOD9153027
Probable space group: P 2/M
;
_chemical_formula_sum "Si O2"
_cell_formula_units_Z 32
_cell_length_a 13.059978
_cell_length_b 9.215296
_cell_length_c 28.709249
_cell_angle_alpha 90.000000
_cell_angle_beta 150.309534
_cell_angle_gamma 90.000000
_cell_volume 1711.410834
_symmetry_space_group_name_H-M "P 2/M"
_symmetry_group_IT_number 10
_symmetry_cell_setting 'monoclinic'
loop_
_space_group_symop_operation_xyz
x,y,z
-x,y,-z
-x,-y,-z
x,-y,z
loop_
_atom_site_type_symbol
_atom_site_label
_atom_site_fract_x
_atom_site_fract_y
_atom_site_fract_z
Si Si1 0.598643 0.327419 0.403884
Si Si2 0.490410 0.328036 0.940533
Si Si3 0.149833 0.669725 0.103114
Si Si4 0.011743 0.827161 0.602687
Si Si5 0.910064 0.829412 0.088091
Si Si6 0.610735 0.671382 0.297822
Si Si7 0.914457 0.826731 0.259195
Si Si8 0.204980 0.828438 0.291739
O O1 0.608716 0.500000 0.415058
O O2 0.805324 0.251149 0.503722
O O3 0.583366 0.302058 0.342200
O O4 0.400762 0.261546 0.351863
O O5 0.489219 0.500000 0.931725
O O6 0.286606 0.256207 0.838634
O O7 0.500000 0.302988 0.000000
O O8 0.696447 0.256905 0.001141
O O9 0.144166 0.500000 0.115780
O O10 0.388731 0.702896 0.186788
O O11 0.065788 0.769107 0.111029
O O12 0.000000 0.686358 0.000000
O O13 0.206341 0.765094 0.651237
O O14 0.045653 0.798086 0.670897
O O15 0.994235 0.000000 0.589210
O O16 0.020059 0.807710 0.181426
O O17 0.872804 0.000000 0.067165
O O18 0.657893 0.500000 0.310261
O O19 0.111014 0.787828 0.304662
O O20 0.881460 0.000000 0.240016
O O21 0.258111 0.000000 0.312854
#
# Coordination Sequence:
#
# PCOD9153027 Si02
#       8
#     4   4   4   4   4   4   4   4
#     4  11  23  41  66  91 119 156 202 255 309 365
#     4  11  23  37  59  89 121 159 202 246 293 353
#     4  10  22  40  61  89 126 164 198 243 305 363
#     4  11  25  42  63  90 122 159 203 254 306 363
#     4  11  22  37  61  89 121 161 203 249 297 358
#     4  10  22  41  63  89 124 162 200 247 304 366
#     4  10  23  43  62  88 126 165 202 247 306 364
#     4  10  21  39  64  90 121 160 202 248 301 360
#
# _framework density 18.698022000000002
#
# number of rings (size 3 to 8) (size 9 to 14) (size 15 to 20)
#    0.000    1.500    2.500    1.875    1.750    6.250 
#    0.000    2.500    0.000    0.000    0.000    0.000 
#    0.000    0.000    0.000    0.000    0.000    0.000 
#
# Total GULP energy -178869.361944 kJ/mol
# GULP energy per Si atom -5589.667561 kJ/mol
# Density = 1.865546 g / cm^3
# Si number density = 18.698022 Si / 1000 Ang^3
#
#
#
# Elastic Constant Matrix: (Units=GPa)
#
#
# Indices 1 2 3 4 5 6 
#
# 1 86.4207 56.5301 56.2723 0.0000 25.9827 0.0000
# 2 56.5301 66.2474 75.0744 0.0000 7.0316 0.0000
# 3 56.2723 75.0744 143.3076 0.0000 16.0031 0.0000
# 4 0.0000 0.0000 0.0000 29.3129 0.0000 21.8247
# 5 25.9827 7.0316 16.0031 0.0000 26.2483 0.0000
# 6 0.0000 0.0000 0.0000 21.8247 0.0000 -10.9950
#
#
#
# Elastic Compliance Matrix: (Units=1/GPa)
#
#
# Indices 1 2 3 4 5 6 
#
# 1 0.052735 -0.055282 0.013336 0.000000 -0.045524 0.000000
# 2 -0.055282 0.095204 -0.033726 0.000000 0.049781 0.000000
# 3 0.013336 -0.033726 0.021327 0.000000 -0.017169 0.000000
# 4 0.000000 0.000000 0.000000 0.013768 0.000000 0.027328
# 5 -0.045524 0.049781 -0.017169 0.000000 0.080293 0.000000
# 6 0.000000 0.000000 0.000000 0.027328 0.000000 -0.036705
#
#
# Mechanical properties :
#
#
# Convention : Reuss Voigt Hill
#
# Bulk Modulus (GPa) = 55.79317 74.63659 65.21488
# Shear Modulus (GPa) = 13.02291 16.11983 14.57137
#
# Velocity S-wave (km/s) = 2.64197 2.93936 2.79462
# Velocity P-wave (km/s) = 6.26183 7.17797 6.73550
#
# Compressibility (1/GPa) = 0.01792334
#
# Stress axis : x y z
#
# Youngs Moduli (GPa) = 18.96256 10.50377 46.88998
#
# Poissons Ratio (x) = 0.58067 -0.62535
# Poissons Ratio (y) = 1.04828 1.58141
# Poissons Ratio (z) = -0.25289 0.35425
#
# Static dielectric constant tensor:
#      x y z
#    x 1.632620 0.000000 -0.009310 
#    y 0.000000 1.622370 0.000000 
#    z -0.009310 0.000000 1.622130 
# 
# From -- ./inp_files/95053.got.cif
#   From: 2010.05.17/outbox.cif.g08.bks.cpg/sg10_48_cif.got.tgz:95053.got - 2010.06.03 11:33:40.
