data_PCOD9153277
_publ_section_title
;
Structure prediction by ZEFSAII (Michael W. Deem and Ramdas Pophale) SiO2 
 PCOD9153277
Probable space group: P 2/M
;
_chemical_formula_sum "Si O2"
_cell_formula_units_Z 16
_cell_length_a 11.846011
_cell_length_b 11.046434
_cell_length_c 7.969036
_cell_angle_alpha 90.000000
_cell_angle_beta 141.688563
_cell_angle_gamma 90.000000
_cell_volume 646.467429
_symmetry_space_group_name_H-M "P 2/M"
_symmetry_group_IT_number 10
_symmetry_cell_setting 'monoclinic'
loop_
_space_group_symop_operation_xyz
x,y,z
-x,y,-z
-x,-y,-z
x,-y,z
loop_
_atom_site_type_symbol
_atom_site_label
_atom_site_fract_x
_atom_site_fract_y
_atom_site_fract_z
Si Si1 0.995841 0.500000 0.695893
Si Si2 0.447647 0.760377 0.696160
Si Si3 0.758699 0.136924 0.853406
Si Si4 0.420816 0.500000 0.221682
Si Si5 0.095832 0.764949 0.430273
O O1 0.904886 0.625982 0.636671
O O2 0.000000 0.500000 0.500000
O O3 0.204518 0.500000 0.991874
O O4 0.317230 0.774045 0.378305
O O5 0.621927 0.839634 0.849512
O O6 0.517812 0.623200 0.797561
O O7 0.307035 0.801394 0.675137
O O8 0.738981 0.000000 0.769833
O O9 0.962202 0.161379 0.152838
O O10 0.500000 0.500000 0.500000
O O11 0.000000 0.768442 0.500000
#
# Coordination Sequence:
#
# PCOD9153277 Si02
#       5
#     2   4   4   2   4
#     4  10  21  42  61  93 138 166 203 260 326 394
#     4  11  22  40  67  95 125 164 209 268 320 377
#     4  11  24  43  65  91 125 168 217 267 321 374
#     4  12  19  38  70 100 128 163 217 271 320 382
#     4  11  24  42  63  94 130 168 208 258 320 391
#
# _framework density 24.749894999999999
#
# number of rings (size 3 to 8) (size 9 to 14) (size 15 to 20)
#    0.000    1.000    5.000    3.000    0.000    4.500 
#    0.000    7.500    0.000    0.000    0.000    0.000 
#    0.000    0.000    0.000    0.000    0.000    0.000 
#
# Total GULP energy -89570.459352 kJ/mol
# GULP energy per Si atom -5598.153710 kJ/mol
# Density = 2.469356 g / cm^3
# Si number density = 24.749895 Si / 1000 Ang^3
#
#
#
# Elastic Constant Matrix: (Units=GPa)
#
#
# Indices 1 2 3 4 5 6 
#
# 1 114.5451 1.7770 -5.3955 0.0000 24.4518 0.0000
# 2 1.7770 98.9054 -5.3130 0.0000 -3.2475 0.0000
# 3 -5.3955 -5.3130 57.4939 0.0000 12.1847 0.0000
# 4 0.0000 0.0000 0.0000 21.2510 0.0000 7.4721
# 5 24.4518 -3.2475 12.1847 0.0000 50.6659 0.0000
# 6 0.0000 0.0000 0.0000 7.4721 0.0000 2.1734
#
#
#
# Elastic Compliance Matrix: (Units=1/GPa)
#
#
# Indices 1 2 3 4 5 6 
#
# 1 0.009965 -0.000244 0.002039 0.000000 -0.005315 0.000000
# 2 -0.000244 0.010177 0.000795 0.000000 0.000579 0.000000
# 3 0.002039 0.000795 0.018815 0.000000 -0.005458 0.000000
# 4 0.000000 0.000000 0.000000 -0.225288 0.000000 0.774557
# 5 -0.005315 0.000579 -0.005458 0.000000 0.023652 0.000000
# 6 0.000000 0.000000 0.000000 0.774557 0.000000 -2.202863
#
#
# Mechanical properties :
#
#
# Convention : Reuss Voigt Hill
#
# Bulk Modulus (GPa) = 22.65747 28.12017 25.38882
# Shear Modulus (GPa) = -2.12223 33.47646 15.67711
#
# Velocity S-wave (km/s) = -0.92700 3.68175 2.51952
# Velocity P-wave (km/s) = 2.83349 5.42771 4.32948
#
# Compressibility (1/GPa) = 0.04413556
#
# Stress axis : x y z
#
# Youngs Moduli (GPa) = 100.35529 98.26311 53.15021
#
# Poissons Ratio (x) = 0.02398 -0.10837
# Poissons Ratio (y) = 0.02449 -0.04225
# Poissons Ratio (z) = -0.20462 -0.07810
#
# Static dielectric constant tensor:
#      x y z
#    x 2.084310 0.000000 -0.026240 
#    y 0.000000 1.908090 0.000000 
#    z -0.026240 0.000000 1.926400 
# 
# From -- ./inp_files/23786.got.cif
#   From: 2010.05.17/outbox.cif.g08.bks.cpg/sg10_12_cif.got.tgz:23786.got - 2010.06.03 11:33:40.
