data_PCOD9153078
_publ_section_title
;
Structure prediction by ZEFSAII (Michael W. Deem and Ramdas Pophale) SiO2 
 PCOD9153078
Probable space group: P 2/M
;
_chemical_formula_sum "Si O2"
_cell_formula_units_Z 32
_cell_length_a 9.744204
_cell_length_b 23.902011
_cell_length_c 14.229892
_cell_angle_alpha 90.000000
_cell_angle_beta 28.933902
_cell_angle_gamma 90.000000
_cell_volume 1603.424657
_symmetry_space_group_name_H-M "P 2/M"
_symmetry_group_IT_number 10
_symmetry_cell_setting 'monoclinic'
loop_
_space_group_symop_operation_xyz
x,y,z
-x,y,-z
-x,-y,-z
x,-y,z
loop_
_atom_site_type_symbol
_atom_site_label
_atom_site_fract_x
_atom_site_fract_y
_atom_site_fract_z
Si Si1 0.306358 0.643343 0.361902
Si Si2 0.376468 0.933196 0.970685
Si Si3 0.735809 0.870419 0.598991
Si Si4 0.177587 0.873011 0.657206
Si Si5 0.443686 0.755974 0.736097
Si Si6 0.033013 0.248966 0.815630
Si Si7 0.743229 0.359810 0.932516
Si Si8 0.745943 0.565156 0.429897
O O1 0.330048 0.708261 0.376993
O O2 0.335614 0.602781 0.432434
O O3 0.000000 0.632821 0.500000
O O4 0.568315 0.634366 0.133846
O O5 0.566578 0.909480 0.771873
O O6 0.372442 0.000000 0.971188
O O7 0.500000 0.915572 0.000000
O O8 0.062450 0.907952 0.145145
O O9 0.836827 0.896419 0.440571
O O10 0.557482 0.818304 0.668491
O O11 0.000000 0.848131 0.500000
O O12 0.500000 0.878625 0.500000
O O13 0.081828 0.807760 0.727486
O O14 0.305599 0.741616 0.718458
O O15 0.214157 0.757382 0.957856
O O16 0.934164 0.303392 0.818105
O O17 0.957735 0.410432 0.786144
O O18 0.500000 0.355832 0.000000
O O19 0.500000 0.570498 0.500000
O O20 0.774776 0.500000 0.437858
#
# Coordination Sequence:
#
# PCOD9153078 Si02
#       8
#     4   4   4   4   4   4   4   4
#     4  11  23  43  66 102 137 177 225 283 338 397
#     4  11  26  49  71  96 136 179 230 289 335 398
#     4  12  24  40  70 104 131 177 226 277 335 407
#     4  12  25  42  70 103 137 179 224 272 345 405
#     4  10  21  39  65  98 139 176 219 272 337 408
#     4  10  22  39  65  96 140 180 212 274 339 406
#     4  11  24  43  68 103 138 180 229 280 339 410
#     4  11  26  46  70  98 135 182 234 284 342 408
#
# _framework density 19.957284000000001
#
# number of rings (size 3 to 8) (size 9 to 14) (size 15 to 20)
#    0.000    1.000    5.000    1.125    1.750    7.000 
#    0.000    1.875    0.000    0.000    0.000    0.000 
#    0.000    0.000    0.000    0.000    0.000    0.000 
#
# Total GULP energy -178769.840438 kJ/mol
# GULP energy per Si atom -5586.557514 kJ/mol
# Density = 1.991186 g / cm^3
# Si number density = 19.957284 Si / 1000 Ang^3
#
#
#
# Elastic Constant Matrix: (Units=GPa)
#
#
# Indices 1 2 3 4 5 6 
#
# 1 67.4207 22.1792 31.8889 0.0000 0.2812 0.0000
# 2 22.1792 87.9296 34.6033 0.0000 1.4534 0.0000
# 3 31.8889 34.6033 84.2510 0.0000 9.3663 0.0000
# 4 0.0000 0.0000 0.0000 21.3675 0.0000 -7.2474
# 5 0.2812 1.4534 9.3663 0.0000 42.0897 0.0000
# 6 0.0000 0.0000 0.0000 -7.2474 0.0000 23.4664
#
#
#
# Elastic Compliance Matrix: (Units=1/GPa)
#
#
# Indices 1 2 3 4 5 6 
#
# 1 0.018513 -0.002237 -0.006237 0.000000 0.001342 0.000000
# 2 -0.002237 0.013861 -0.004916 0.000000 0.000630 0.000000
# 3 -0.006237 -0.004916 0.016637 0.000000 -0.003491 0.000000
# 4 0.000000 0.000000 0.000000 0.052276 0.000000 0.016145
# 5 0.001342 0.000630 -0.003491 0.000000 0.024505 0.000000
# 6 0.000000 0.000000 0.000000 0.016145 0.000000 0.047600
#
#
# Mechanical properties :
#
#
# Convention : Reuss Voigt Hill
#
# Bulk Modulus (GPa) = 44.98483 46.32714 45.65599
# Shear Modulus (GPa) = 24.08654 27.44670 25.76662
#
# Velocity S-wave (km/s) = 3.47782 3.71249 3.59707
# Velocity P-wave (km/s) = 6.22226 6.45293 6.33864
#
# Compressibility (1/GPa) = 0.02222971
#
# Stress axis : x y z
#
# Youngs Moduli (GPa) = 54.01676 72.14287 60.10532
#
# Poissons Ratio (x) = 0.16140 0.37490
# Poissons Ratio (y) = 0.12085 0.29550
# Poissons Ratio (z) = 0.33692 0.35468
#
# Static dielectric constant tensor:
#      x y z
#    x 1.721140 0.000000 0.033790 
#    y 0.000000 1.671430 0.000000 
#    z 0.033790 0.000000 1.738440 
# 
# From -- ./inp_files/62680.got.cif
#   From: 2010.05.17/outbox.cif.g08.bks.cpg/sg10_32_cif.got.tgz:62680.got - 2010.06.03 11:33:40.
