data_PCOD9153629
_publ_section_title
;
Structure prediction by ZEFSAII (Michael W. Deem and Ramdas Pophale) SiO2 
 PCOD9153629
Probable space group: P 2/M
;
_chemical_formula_sum "Si O2"
_cell_formula_units_Z 24
_cell_length_a 9.261160
_cell_length_b 19.853973
_cell_length_c 9.946811
_cell_angle_alpha 90.000000
_cell_angle_beta 43.963331
_cell_angle_gamma 90.000000
_cell_volume 1269.638102
_symmetry_space_group_name_H-M "P 2/M"
_symmetry_group_IT_number 10
_symmetry_cell_setting 'monoclinic'
loop_
_space_group_symop_operation_xyz
x,y,z
-x,y,-z
-x,-y,-z
x,-y,z
loop_
_atom_site_type_symbol
_atom_site_label
_atom_site_fract_x
_atom_site_fract_y
_atom_site_fract_z
Si Si1 0.812039 0.135904 0.021419
Si Si2 0.340040 0.000000 0.979621
Si Si3 0.099666 0.000000 0.581359
Si Si4 0.893709 0.144125 0.427436
Si Si5 0.358207 0.500000 0.958351
Si Si6 0.516786 0.240932 0.648999
Si Si7 0.556805 0.397621 0.620012
Si Si8 0.925178 0.500000 0.397590
O O1 0.662252 0.070724 0.099168
O O2 0.675868 0.199472 0.160193
O O3 0.000000 0.121021 0.000000
O O4 0.929760 0.152932 0.803493
O O5 0.500000 0.000000 0.000000
O O6 0.103730 0.000000 0.190976
O O7 0.210330 0.929284 0.530009
O O8 0.000000 0.000000 0.500000
O O9 0.725915 0.201817 0.544012
O O10 0.000000 0.140240 0.500000
O O11 0.414829 0.437745 0.822353
O O12 0.500000 0.500000 0.000000
O O13 0.121095 0.500000 0.166962
O O14 0.500000 0.237350 0.500000
O O15 0.539310 0.319296 0.669172
O O16 0.500000 0.405031 0.500000
O O17 0.780327 0.434147 0.478561
O O18 0.000000 0.500000 0.500000
#
# Coordination Sequence:
#
# PCOD9153629 Si02
#       8
#     4   2   2   4   2   4   4   2
#     4  11  23  42  64  89 128 171 218 265 325 383
#     4  10  23  37  62  93 121 159 218 284 326 369
#     4   8  18  35  56  80 119 151 206 263 315 370
#     4  10  22  40  60  92 123 163 216 272 321 377
#     4  11  21  43  70 101 128 161 207 254 309 369
#     4  11  24  43  64  90 132 171 209 259 316 382
#     4  10  24  43  64  99 131 165 214 255 303 384
#     4  11  21  41  72  95 132 165 199 264 313 355
#
# _framework density 18.903025
#
# number of rings (size 3 to 8) (size 9 to 14) (size 15 to 20)
#    0.000    1.667    3.333    1.250    7.000    3.333 
#    3.000    0.833    0.000    0.000    0.000    0.000 
#    0.000    0.000    0.000    0.000    0.000    0.000 
#
# Total GULP energy -133818.471841 kJ/mol
# GULP energy per Si atom -5575.769660 kJ/mol
# Density = 1.886000 g / cm^3
# Si number density = 18.903025 Si / 1000 Ang^3
#
#
#
# Elastic Constant Matrix: (Units=GPa)
#
#
# Indices 1 2 3 4 5 6 
#
# 1 97.0502 80.7276 41.5869 0.0000 -5.7968 0.0000
# 2 80.7276 199.8993 78.0079 0.0000 -3.2189 0.0000
# 3 41.5869 78.0079 158.8809 0.0000 -7.1999 0.0000
# 4 0.0000 0.0000 0.0000 19.9254 0.0000 8.2111
# 5 -5.7968 -3.2189 -7.1999 0.0000 30.6137 0.0000
# 6 0.0000 0.0000 0.0000 8.2111 0.0000 13.7397
#
#
#
# Elastic Compliance Matrix: (Units=1/GPa)
#
#
# Indices 1 2 3 4 5 6 
#
# 1 0.015843 -0.005917 -0.001146 0.000000 0.002108 0.000000
# 2 -0.005917 0.008398 -0.002613 0.000000 -0.000852 0.000000
# 3 -0.001146 -0.002613 0.007939 0.000000 0.001375 0.000000
# 4 0.000000 0.000000 0.000000 0.066585 0.000000 -0.039792
# 5 0.002108 -0.000852 0.001375 0.000000 0.033298 0.000000
# 6 0.000000 0.000000 0.000000 -0.039792 0.000000 0.096562
#
#
# Mechanical properties :
#
#
# Convention : Reuss Voigt Hill
#
# Bulk Modulus (GPa) = 77.95597 95.16394 86.55995
# Shear Modulus (GPa) = 19.82130 29.88962 24.85546
#
# Velocity S-wave (km/s) = 3.24169 3.98076 3.63008
# Velocity P-wave (km/s) = 7.43914 8.46056 7.96624
#
# Compressibility (1/GPa) = 0.01282775
#
# Stress axis : x y z
#
# Youngs Moduli (GPa) = 63.12106 119.07693 125.95380
#
# Poissons Ratio (x) = 0.70453 0.14438
# Poissons Ratio (y) = 0.37346 0.32914
# Poissons Ratio (z) = 0.07235 0.31117
#
# Static dielectric constant tensor:
#      x y z
#    x 1.670910 0.000000 0.000020 
#    y 0.000000 1.709290 0.000000 
#    z 0.000020 0.000000 1.645500 
# 
# From -- ./inp_files/20195.got.cif
#   From: 2010.05.17/outbox.cif.g08.bks.cpg/sg10_11_cif.got.tgz:20195.got - 2010.06.03 11:33:40.
