data_PCOD9153947
_publ_section_title
;
Structure prediction by ZEFSAII (Michael W. Deem and Ramdas Pophale) SiO2 
 PCOD9153947
Probable space group: P 2/M
;
_chemical_formula_sum "Si O2"
_cell_formula_units_Z 17
_cell_length_a 5.225624
_cell_length_b 7.234413
_cell_length_c 20.447749
_cell_angle_alpha 90.000000
_cell_angle_beta 114.002758
_cell_angle_gamma 90.000000
_cell_volume 706.167646
_symmetry_space_group_name_H-M "P 2/M"
_symmetry_group_IT_number 10
_symmetry_cell_setting 'monoclinic'
loop_
_space_group_symop_operation_xyz
x,y,z
-x,y,-z
-x,-y,-z
x,-y,z
loop_
_atom_site_type_symbol
_atom_site_label
_atom_site_fract_x
_atom_site_fract_y
_atom_site_fract_z
Si Si1 0.280953 0.787646 0.572739
Si Si2 0.817644 0.774846 0.043193
Si Si3 0.160440 0.224956 0.205528
Si Si4 0.500000 0.500000 0.500000
Si Si5 0.791770 0.775700 0.286593
O O1 0.494208 0.660200 0.556683
O O2 0.200463 0.721297 0.636747
O O3 0.000000 0.777616 0.500000
O O4 0.379646 0.000000 0.586797
O O5 0.962592 0.715941 0.125566
O O6 0.815295 0.000000 0.044464
O O7 0.500000 0.714769 0.000000
O O8 0.000000 0.719266 0.000000
O O9 0.482591 0.279137 0.229700
O O10 0.030741 0.285333 0.261346
O O11 0.160163 0.000000 0.205833
O O12 0.804667 0.000000 0.288190
#
# Coordination Sequence:
#
# PCOD9153947 Si02
#       5
#     4   4   4   1   4
#     4  10  23  41  62  88 121 162 209 257 311 373
#     4   9  15  22  35  58  93 137 183 230 282 345
#     4   9  16  27  43  67  99 141 192 238 290 352
#     4  12  24  40  64  92 120 156 208 262 314 374
#     4   9  18  31  50  73 102 144 194 244 292 353
#
# _framework density 24.073606000000002
#
# number of rings (size 3 to 8) (size 9 to 14) (size 15 to 20)
#    0.000    2.588    0.000    2.118    3.294    5.647 
#    0.000    0.000    0.000    0.000    0.000    0.000 
#    0.000    0.000    0.000   21.176    0.000   51.765 
#
# Total GULP energy -94871.928210 kJ/mol
# GULP energy per Si atom -5580.701659 kJ/mol
# Density = 2.401881 g / cm^3
# Si number density = 24.073606 Si / 1000 Ang^3
#
#
#
# Elastic Constant Matrix: (Units=GPa)
#
#
# Indices 1 2 3 4 5 6 
#
# 1 88.0812 2.8564 -1.4910 0.0000 -15.1787 0.0000
# 2 2.8564 117.5473 8.8162 0.0000 -4.4331 0.0000
# 3 -1.4910 8.8162 89.6732 0.0000 -22.6588 0.0000
# 4 0.0000 0.0000 0.0000 -14.0206 0.0000 -40.6192
# 5 -15.1787 -4.4331 -22.6588 0.0000 41.0084 0.0000
# 6 0.0000 0.0000 0.0000 -40.6192 0.0000 57.2607
#
#
#
# Elastic Compliance Matrix: (Units=1/GPa)
#
#
# Indices 1 2 3 4 5 6 
#
# 1 0.012321 -0.000215 0.001595 0.000000 0.005419 0.000000
# 2 -0.000215 0.008584 -0.000736 0.000000 0.000442 0.000000
# 3 0.001595 -0.000736 0.013226 0.000000 0.007819 0.000000
# 4 0.000000 0.000000 0.000000 -0.023346 0.000000 -0.016561
# 5 0.005419 0.000442 0.007819 0.000000 0.030759 0.000000
# 6 0.000000 0.000000 0.000000 -0.016561 0.000000 0.005716
#
#
# Mechanical properties :
#
#
# Convention : Reuss Voigt Hill
#
# Bulk Modulus (GPa) = 28.23222 35.07387 31.65305
# Shear Modulus (GPa) = 86.53720 35.85770 61.19745
#
# Velocity S-wave (km/s) = 6.00208 3.86359 5.04739
# Velocity P-wave (km/s) = 7.73215 5.87403 6.86624
#
# Compressibility (1/GPa) = 0.03542052
#
# Stress axis : x y z
#
# Youngs Moduli (GPa) = 81.16298 116.49185 75.60776
#
# Poissons Ratio (x) = 0.02501 -0.12061
# Poissons Ratio (y) = 0.01742 0.05564
# Poissons Ratio (z) = -0.12947 0.08572
#
# Static dielectric constant tensor:
#      x y z
#    x 1.874080 0.000000 0.030780 
#    y 0.000000 1.959570 0.000000 
#    z 0.030780 0.000000 1.872120 
# 
# From -- ./inp_files/10374.got.cif
#   From: 2010.05.17/outbox.cif.g08.bks.cpg/sg10_6_cif.got.tgz:10374.got - 2010.06.03 11:33:40.
