data_PCOD9153025
_publ_section_title
;
Structure prediction by ZEFSAII (Michael W. Deem and Ramdas Pophale) SiO2 
 PCOD9153025
Probable space group: P 2/M
;
_chemical_formula_sum "Si O2"
_cell_formula_units_Z 28
_cell_length_a 20.888155
_cell_length_b 9.066376
_cell_length_c 14.442698
_cell_angle_alpha 90.000000
_cell_angle_beta 149.506509
_cell_angle_gamma 90.000000
_cell_volume 1387.928978
_symmetry_space_group_name_H-M "P 2/M"
_symmetry_group_IT_number 10
_symmetry_cell_setting 'monoclinic'
loop_
_space_group_symop_operation_xyz
x,y,z
-x,y,-z
-x,-y,-z
x,-y,z
loop_
_atom_site_type_symbol
_atom_site_label
_atom_site_fract_x
_atom_site_fract_y
_atom_site_fract_z
Si Si1 0.453423 0.675307 0.754346
Si Si2 0.355443 0.173093 0.292727
Si Si3 0.047111 0.169817 0.246671
Si Si4 0.279725 0.169834 0.679143
Si Si5 0.723956 0.824402 0.111777
Si Si6 0.742228 0.175541 0.627716
Si Si7 0.820882 0.673462 0.062208
O O1 0.466358 0.500000 0.765185
O O2 0.382141 0.724967 0.759577
O O3 0.588124 0.753894 0.920730
O O4 0.364286 0.736157 0.561066
O O5 0.500000 0.201241 0.500000
O O6 0.273494 0.198486 0.283156
O O7 0.304524 0.272954 0.147350
O O8 0.345245 0.000000 0.253849
O O9 0.155650 0.174789 0.460692
O O10 0.121704 0.211942 0.246181
O O11 0.002257 0.000000 0.182205
O O12 0.935159 0.272180 0.140461
O O13 0.327571 0.000000 0.735866
O O14 0.249513 0.206467 0.747295
O O15 0.822167 0.754681 0.162512
O O16 0.719908 0.000000 0.093814
O O17 0.722340 0.000000 0.584789
O O18 0.821999 0.500000 0.076134
#
# Coordination Sequence:
#
# PCOD9153025 Si02
#       7
#     4   4   4   4   4   4   4
#     4  11  21  33  55  89 125 153 182 230 291 346
#     4  10  21  39  64  90 114 146 188 233 282 336
#     4   9  19  39  61  82 111 148 195 240 279 331
#     4   9  20  38  61  85 110 150 199 240 278 330
#     4  11  22  38  59  81 111 153 199 241 282 334
#     4   9  19  37  62  87 113 152 198 238 277 330
#     4  12  26  40  56  83 118 151 186 234 293 349
#
# _framework density 20.173943000000001
#
# number of rings (size 3 to 8) (size 9 to 14) (size 15 to 20)
#    0.000    1.857    0.000    5.143    0.000    8.286 
#    0.000    5.714    0.000    0.000    0.000    0.000 
#    0.000    0.000    0.000    0.000    0.000    0.000 
#
# Total GULP energy -156552.613029 kJ/mol
# GULP energy per Si atom -5591.164751 kJ/mol
# Density = 2.012803 g / cm^3
# Si number density = 20.173943 Si / 1000 Ang^3
#
#
#
# Elastic Constant Matrix: (Units=GPa)
#
#
# Indices 1 2 3 4 5 6 
#
# 1 109.5445 43.4994 16.2559 0.0000 -4.6981 0.0000
# 2 43.4994 79.5039 14.3087 0.0000 -1.8120 0.0000
# 3 16.2559 14.3087 24.3499 0.0000 3.7515 0.0000
# 4 0.0000 0.0000 0.0000 -55.4829 0.0000 -93.7035
# 5 -4.6981 -1.8120 3.7515 0.0000 24.2965 0.0000
# 6 0.0000 0.0000 0.0000 -93.7035 0.0000 -132.0687
#
#
#
# Elastic Compliance Matrix: (Units=1/GPa)
#
#
# Indices 1 2 3 4 5 6 
#
# 1 0.012301 -0.005717 -0.005279 0.000000 0.002767 0.000000
# 2 -0.005717 0.016859 -0.006262 0.000000 0.001119 0.000000
# 3 -0.005279 -0.006262 0.049683 0.000000 -0.009159 0.000000
# 4 0.000000 0.000000 0.000000 0.090907 0.000000 -0.064499
# 5 0.002767 0.001119 -0.009159 0.000000 0.043191 0.000000
# 6 0.000000 0.000000 0.000000 -0.064499 0.000000 0.038191
#
#
# Mechanical properties :
#
#
# Convention : Reuss Voigt Hill
#
# Bulk Modulus (GPa) = 22.56005 40.16961 31.36483
# Shear Modulus (GPa) = 16.64316 -23.36207 -3.35946
#
# Velocity S-wave (km/s) = 2.87537 -3.40668 -1.29184
# Velocity P-wave (km/s) = 4.71494 2.11682 3.65456
#
# Compressibility (1/GPa) = 0.04432614
#
# Stress axis : x y z
#
# Youngs Moduli (GPa) = 81.29411 59.31682 20.12759
#
# Poissons Ratio (x) = 0.33913 0.10625
# Poissons Ratio (y) = 0.46477 0.12604
# Poissons Ratio (z) = 0.42914 0.37145
#
# Static dielectric constant tensor:
#      x y z
#    x 1.742040 0.000000 0.004500 
#    y 0.000000 1.669070 0.000000 
#    z 0.004500 0.000000 1.708580 
# 
# From -- ./inp_files/49624.got.cif
#   From: 2010.05.17/outbox.cif.g08.bks.cpg/sg10_25_cif.got.tgz:49624.got - 2010.06.03 11:33:40.
