data_PCOD9153090
_publ_section_title
;
Structure prediction by ZEFSAII (Michael W. Deem and Ramdas Pophale) SiO2 
 PCOD9153090
Probable space group: P 2/M
;
_chemical_formula_sum "Si O2"
_cell_formula_units_Z 19
_cell_length_a 12.271269
_cell_length_b 9.647456
_cell_length_c 16.619897
_cell_angle_alpha 90.000000
_cell_angle_beta 153.429872
_cell_angle_gamma 90.000000
_cell_volume 880.080835
_symmetry_space_group_name_H-M "P 2/M"
_symmetry_group_IT_number 10
_symmetry_cell_setting 'monoclinic'
loop_
_space_group_symop_operation_xyz
x,y,z
-x,y,-z
-x,-y,-z
x,-y,z
loop_
_atom_site_type_symbol
_atom_site_label
_atom_site_fract_x
_atom_site_fract_y
_atom_site_fract_z
Si Si1 0.287332 0.000000 0.743429
Si Si2 0.140352 0.000000 0.826798
Si Si3 0.828554 0.500000 0.521285
Si Si4 0.792777 0.500000 0.686642
Si Si5 0.000000 0.000000 0.000000
Si Si6 0.380014 0.500000 0.835603
Si Si7 0.977111 0.788934 0.116894
Si Si8 0.574996 0.738383 0.256862
O O1 0.268695 0.865750 0.673954
O O2 0.133368 0.000000 0.724959
O O3 0.571497 0.000000 0.960309
O O4 0.027648 0.132734 0.799236
O O5 0.857350 0.500000 0.635087
O O6 0.691714 0.639052 0.400913
O O7 0.090164 0.500000 0.651651
O O8 0.500000 0.500000 0.500000
O O9 0.910128 0.637646 0.801926
O O10 0.901495 0.881057 0.871091
O O11 0.461088 0.635011 0.841796
O O12 0.500000 0.500000 0.000000
O O13 0.694338 0.790177 0.901415
#
# Coordination Sequence:
#
# PCOD9153090 Si02
#       8
#     2   2   2   2   1   2   4   4
#     4   9  18  32  63  99 134 165 208 256 319 398
#     4   8  18  36  61  98 133 163 218 263 317 400
#     4  11  25  44  61  95 140 168 213 275 322 394
#     4  12  28  44  66  95 133 172 230 276 330 389
#     4  10  24  44  78  90 134 162 238 280 332 394
#     4  11  23  39  66  92 130 178 208 259 325 402
#     4  10  22  44  70 100 120 178 222 276 337 388
#     4  10  21  39  66  99 131 168 217 264 332 386
#
# _framework density 21.588926000000001
#
# number of rings (size 3 to 8) (size 9 to 14) (size 15 to 20)
#    0.000    1.895    0.000    4.421   11.789    0.421 
#    0.000    6.316    0.000    0.000    0.000    0.000 
#    0.000    0.000    0.000    0.000    0.000    0.000 
#
# Total GULP energy -105868.456911 kJ/mol
# GULP energy per Si atom -5572.024048 kJ/mol
# Density = 2.153979 g / cm^3
# Si number density = 21.588926 Si / 1000 Ang^3
#
#
#
# Elastic Constant Matrix: (Units=GPa)
#
#
# Indices 1 2 3 4 5 6 
#
# 1 93.1713 55.5133 6.8712 0.0000 -13.3341 0.0000
# 2 55.5133 184.1090 14.9789 0.0000 -21.3046 0.0000
# 3 6.8712 14.9789 52.9317 0.0000 -2.6596 0.0000
# 4 0.0000 0.0000 0.0000 -10.1758 0.0000 6.3289
# 5 -13.3341 -21.3046 -2.6596 0.0000 36.8379 0.0000
# 6 0.0000 0.0000 0.0000 6.3289 0.0000 5.4591
#
#
#
# Elastic Compliance Matrix: (Units=1/GPa)
#
#
# Indices 1 2 3 4 5 6 
#
# 1 0.013342 -0.003669 -0.000560 0.000000 0.002667 0.000000
# 2 -0.003669 0.006948 -0.001360 0.000000 0.002592 0.000000
# 3 -0.000560 -0.001360 0.019370 0.000000 0.000409 0.000000
# 4 0.000000 0.000000 0.000000 -0.057101 0.000000 0.066198
# 5 0.002667 0.002592 0.000409 0.000000 0.029640 0.000000
# 6 0.000000 0.000000 0.000000 0.066198 0.000000 0.106435
#
#
# Mechanical properties :
#
#
# Convention : Reuss Voigt Hill
#
# Bulk Modulus (GPa) = 35.10740 53.88209 44.49475
# Shear Modulus (GPa) = 35.89223 23.28084 29.58653
#
# Velocity S-wave (km/s) = 4.08184 3.28742 3.70597
# Velocity P-wave (km/s) = 6.20582 6.27868 6.24236
#
# Compressibility (1/GPa) = 0.02848402
#
# Stress axis : x y z
#
# Youngs Moduli (GPa) = 74.95253 143.91846 51.62540
#
# Poissons Ratio (x) = 0.52799 0.02890
# Poissons Ratio (y) = 0.27498 0.07020
# Poissons Ratio (z) = 0.04195 0.19570
#
# Static dielectric constant tensor:
#      x y z
#    x 1.828830 0.000000 0.099530 
#    y 0.000000 1.017530 0.000000 
#    z 0.099530 0.000000 1.910110 
# 
# From -- ./inp_files/76296.got.cif
#   From: 2010.05.17/outbox.cif.g08.bks.cpg/sg10_39_cif.got.tgz:76296.got - 2010.06.03 11:33:40.
