data_PCOD9153313
_publ_section_title
;
Structure prediction by ZEFSAII (Michael W. Deem and Ramdas Pophale) SiO2 
 PCOD9153313
Probable space group: P 2/M
;
_chemical_formula_sum "Si O2"
_cell_formula_units_Z 26
_cell_length_a 9.456138
_cell_length_b 19.336654
_cell_length_c 9.662206
_cell_angle_alpha 90.000000
_cell_angle_beta 45.678235
_cell_angle_gamma 90.000000
_cell_volume 1263.970604
_symmetry_space_group_name_H-M "P 2/M"
_symmetry_group_IT_number 10
_symmetry_cell_setting 'monoclinic'
loop_
_space_group_symop_operation_xyz
x,y,z
-x,y,-z
-x,-y,-z
x,-y,z
loop_
_atom_site_type_symbol
_atom_site_label
_atom_site_fract_x
_atom_site_fract_y
_atom_site_fract_z
Si Si1 0.515352 0.875957 0.143560
Si Si2 0.500000 0.333475 0.500000
Si Si3 0.568510 0.282782 0.754970
Si Si4 0.103240 0.420089 0.779665
Si Si5 0.048604 0.177172 0.123038
Si Si6 0.170041 0.684245 0.187410
Si Si7 0.692895 0.079002 0.451215
O O1 0.432045 0.797592 0.203605
O O2 0.382977 0.917946 0.340189
O O3 0.500000 0.903868 0.000000
O O4 0.745626 0.865347 0.024367
O O5 0.548864 0.290093 0.604315
O O6 0.310869 0.381530 0.652641
O O7 0.757125 0.315109 0.703659
O O8 0.372363 0.316116 0.957567
O O9 0.127994 0.500000 0.722359
O O10 0.968787 0.377855 0.763911
O O11 0.000000 0.417480 0.000000
O O12 0.072625 0.243015 0.206871
O O13 0.875779 0.128014 0.295213
O O14 0.000000 0.201635 0.000000
O O15 0.500000 0.104036 0.500000
O O16 0.736402 0.000000 0.379924
#
# Coordination Sequence:
#
# PCOD9153313 Si02
#       7
#     4   2   4   4   4   4   4
#     4  11  23  44  65  95 135 171 215 279 331 382
#     4  12  25  40  68  98 131 174 220 270 325 392
#     4  10  22  41  68  99 130 166 221 274 327 386
#     4  11  24  43  66  97 137 177 218 269 327 389
#     4  11  22  40  72  98 128 172 222 271 333 390
#     4  10  21  44  66  97 132 170 217 274 327 384
#     4  11  26  43  65 100 133 171 223 267 325 400
#
# _framework density 20.570098000000002
#
# number of rings (size 3 to 8) (size 9 to 14) (size 15 to 20)
#    0.000    1.231    6.154    0.692    5.385    2.462 
#    0.000    4.615    0.000    0.000    0.000    0.000 
#    0.000    0.000    0.000    0.000    0.000    0.000 
#
# Total GULP energy -145406.449406 kJ/mol
# GULP energy per Si atom -5592.555746 kJ/mol
# Density = 2.052328 g / cm^3
# Si number density = 20.570098 Si / 1000 Ang^3
#
#
#
# Elastic Constant Matrix: (Units=GPa)
#
#
# Indices 1 2 3 4 5 6 
#
# 1 131.0192 32.6377 26.2564 0.0000 17.3259 0.0000
# 2 32.6377 61.4066 18.1990 0.0000 -6.0160 0.0000
# 3 26.2564 18.1990 60.3887 0.0000 18.0005 0.0000
# 4 0.0000 0.0000 0.0000 29.9120 0.0000 6.2915
# 5 17.3259 -6.0160 18.0005 0.0000 38.5901 0.0000
# 6 0.0000 0.0000 0.0000 6.2915 0.0000 -5.3713
#
#
#
# Elastic Compliance Matrix: (Units=1/GPa)
#
#
# Indices 1 2 3 4 5 6 
#
# 1 0.009822 -0.005290 -0.001296 0.000000 -0.004630 0.000000
# 2 -0.005290 0.022086 -0.007074 0.000000 0.009118 0.000000
# 3 -0.001296 -0.007074 0.022545 0.000000 -0.011037 0.000000
# 4 0.000000 0.000000 0.000000 0.026823 0.000000 0.031418
# 5 -0.004630 0.009118 -0.011037 0.000000 0.034562 0.000000
# 6 0.000000 0.000000 0.000000 0.031418 0.000000 -0.149374
#
#
# Mechanical properties :
#
#
# Convention : Reuss Voigt Hill
#
# Bulk Modulus (GPa) = 36.85552 45.22231 41.03892
# Shear Modulus (GPa) = 1767.88448 24.34092 896.11270
#
# Velocity S-wave (km/s) = 29.34808 3.44367 20.89460
# Velocity P-wave (km/s) = 34.15214 6.15175 24.53786
#
# Compressibility (1/GPa) = 0.02713298
#
# Stress axis : x y z
#
# Youngs Moduli (GPa) = 101.80929 45.27707 44.35648
#
# Poissons Ratio (x) = 0.23951 0.05750
# Poissons Ratio (y) = 0.53857 0.31377
# Poissons Ratio (z) = 0.13198 0.32028
#
# Static dielectric constant tensor:
#      x y z
#    x 1.746910 0.000000 0.023270 
#    y 0.000000 1.696420 0.000000 
#    z 0.023270 0.000000 1.765340 
# 
# From -- ./inp_files/20433.got.cif
#   From: 2010.05.17/outbox.cif.g08.bks.cpg/sg10_11_cif.got.tgz:20433.got - 2010.06.03 11:33:40.
