data_PCOD9153093
_publ_section_title
;
Structure prediction by ZEFSAII (Michael W. Deem and Ramdas Pophale) SiO2 
 PCOD9153093
Probable space group: P 2/M
;
_chemical_formula_sum "Si O2"
_cell_formula_units_Z 28
_cell_length_a 4.958266
_cell_length_b 21.615977
_cell_length_c 12.255427
_cell_angle_alpha 90.000000
_cell_angle_beta 68.064347
_cell_angle_gamma 90.000000
_cell_volume 1218.416415
_symmetry_space_group_name_H-M "P 2/M"
_symmetry_group_IT_number 10
_symmetry_cell_setting 'monoclinic'
loop_
_space_group_symop_operation_xyz
x,y,z
-x,y,-z
-x,-y,-z
x,-y,z
loop_
_atom_site_type_symbol
_atom_site_label
_atom_site_fract_x
_atom_site_fract_y
_atom_site_fract_z
Si Si1 0.831187 0.431490 0.414672
Si Si2 0.200258 0.758213 0.372582
Si Si3 0.463519 0.000000 0.137269
Si Si4 0.330895 0.736133 0.923490
Si Si5 0.077810 0.000000 0.616774
Si Si6 0.204156 0.309434 0.717891
Si Si7 0.260788 0.866331 0.871629
Si Si8 0.223254 0.138981 0.618988
O O1 0.500000 0.436882 0.500000
O O2 0.934015 0.500000 0.362252
O O3 0.829862 0.376503 0.328446
O O4 0.000000 0.415140 0.500000
O O5 0.520440 0.734478 0.356608
O O6 0.000000 0.732483 0.500000
O O7 0.085577 0.725516 0.278947
O O8 0.077012 0.828448 0.377404
O O9 0.599202 0.065895 0.149720
O O10 0.163445 0.000000 0.250163
O O11 0.500000 0.000000 0.000000
O O12 0.279109 0.688944 0.833391
O O13 0.448615 0.805686 0.878416
O O14 0.500000 0.710306 0.000000
O O15 0.000000 0.751880 0.000000
O O16 0.000000 0.000000 0.500000
O O17 0.230868 0.934719 0.609205
O O18 0.209305 0.850258 0.752000
O O19 0.000000 0.873465 0.000000
O O20 0.500000 0.159592 0.500000
#
# Coordination Sequence:
#
# PCOD9153093 Si02
#       8
#     4   4   2   4   2   4   4   4
#     4  10  21  39  67 106 149 189 228 278 346 421
#     4  12  25  39  65  98 136 177 228 286 350 415
#     4  12  24  40  66  96 124 174 241 308 363 451
#     4  11  25  43  65  94 132 181 234 295 354 420
#     4  12  26  40  64  90 130 184 229 290 377 451
#     4  12  23  41  67  97 138 181 235 279 350 412
#     4  11  24  43  66  92 130 180 232 300 370 443
#     4  12  25  45  64  95 133 181 235 300 368 446
#
# _framework density 22.980650000000001
#
# number of rings (size 3 to 8) (size 9 to 14) (size 15 to 20)
#    0.000    0.571    1.429    7.714    4.000    0.000 
#    0.000    0.000    0.000    0.857    0.000    0.000 
#    0.000    0.000    0.000    0.000    0.000    0.000 
#
# Total GULP energy -156186.799202 kJ/mol
# GULP energy per Si atom -5578.099972 kJ/mol
# Density = 2.292835 g / cm^3
# Si number density = 22.980650 Si / 1000 Ang^3
#
#
#
# Elastic Constant Matrix: (Units=GPa)
#
#
# Indices 1 2 3 4 5 6 
#
# 1 107.8654 42.0530 45.6848 0.0000 13.3571 0.0000
# 2 42.0530 192.5755 50.5930 0.0000 17.4447 0.0000
# 3 45.6848 50.5930 150.1055 0.0000 22.5999 0.0000
# 4 0.0000 0.0000 0.0000 54.2485 0.0000 21.1691
# 5 13.3571 17.4447 22.5999 0.0000 58.3343 0.0000
# 6 0.0000 0.0000 0.0000 21.1691 0.0000 30.6609
#
#
#
# Elastic Compliance Matrix: (Units=1/GPa)
#
#
# Indices 1 2 3 4 5 6 
#
# 1 0.011179 -0.001640 -0.002695 0.000000 -0.001025 0.000000
# 2 -0.001640 0.005996 -0.001389 0.000000 -0.000879 0.000000
# 3 -0.002695 -0.001389 0.008278 0.000000 -0.002174 0.000000
# 4 0.000000 0.000000 0.000000 0.025232 0.000000 -0.017421
# 5 -0.001025 -0.000879 -0.002174 0.000000 0.018483 0.000000
# 6 0.000000 0.000000 0.000000 -0.017421 0.000000 0.044642
#
#
# Mechanical properties :
#
#
# Convention : Reuss Voigt Hill
#
# Bulk Modulus (GPa) = 71.41303 80.80086 76.10695
# Shear Modulus (GPa) = 38.48362 49.46312 43.97337
#
# Velocity S-wave (km/s) = 4.09664 4.64441 4.37910
# Velocity P-wave (km/s) = 7.31569 7.99984 7.66540
#
# Compressibility (1/GPa) = 0.01400305
#
# Stress axis : x y z
#
# Youngs Moduli (GPa) = 89.45612 166.79013 120.80411
#
# Poissons Ratio (x) = 0.27357 0.32558
# Poissons Ratio (y) = 0.14673 0.16783
# Poissons Ratio (z) = 0.24109 0.23171
#
# Static dielectric constant tensor:
#      x y z
#    x 1.882330 0.000000 0.144460 
#    y 0.000000 1.931040 0.000000 
#    z 0.144460 0.000000 1.467960 
# 
# From -- ./inp_files/39727.got.cif
#   From: 2010.05.17/outbox.cif.g08.bks.cpg/sg10_20_cif.got.tgz:39727.got - 2010.06.03 11:33:40.
