data_PCOD9153888
_publ_section_title
;
Structure prediction by ZEFSAII (Michael W. Deem and Ramdas Pophale) SiO2 
 PCOD9153888
Probable space group: P 2/M
;
_chemical_formula_sum "Si O2"
_cell_formula_units_Z 21
_cell_length_a 10.793317
_cell_length_b 10.872270
_cell_length_c 13.891746
_cell_angle_alpha 90.000000
_cell_angle_beta 31.734754
_cell_angle_gamma 90.000000
_cell_volume 857.447480
_symmetry_space_group_name_H-M "P 2/M"
_symmetry_group_IT_number 10
_symmetry_cell_setting 'monoclinic'
loop_
_space_group_symop_operation_xyz
x,y,z
-x,y,-z
-x,-y,-z
x,-y,z
loop_
_atom_site_type_symbol
_atom_site_label
_atom_site_fract_x
_atom_site_fract_y
_atom_site_fract_z
Si Si1 0.087013 0.733225 0.656017
Si Si2 0.663562 0.792204 0.805380
Si Si3 0.774886 0.000000 0.078825
Si Si4 0.436017 0.640251 0.646886
Si Si5 0.243025 0.732087 0.964956
Si Si6 0.000000 0.000000 0.500000
Si Si7 0.661475 0.000000 0.489432
O O1 0.305117 0.652709 0.478716
O O2 0.873509 0.726019 0.723328
O O3 0.181306 0.876066 0.602394
O O4 0.981036 0.684812 0.827975
O O5 0.486866 0.708339 0.859672
O O6 0.797462 0.893483 0.654152
O O7 0.500000 0.845447 0.000000
O O8 0.783043 0.878661 0.011204
O O9 0.536149 0.000000 0.297584
O O10 0.000000 0.000000 0.000000
O O11 0.500000 0.698371 0.500000
O O12 0.365086 0.500000 0.679929
O O13 0.267515 0.701759 0.836382
O O14 0.500000 0.000000 0.500000
#
# Coordination Sequence:
#
# PCOD9153888 Si02
#       7
#     4   4   2   4   4   1   2
#     4  11  23  42  67  95 135 173 217 273 322 392
#     4  10  23  38  58  95 131 174 219 263 325 390
#     4  12  25  37  62  99 134 176 215 259 321 387
#     4  11  26  46  68  95 126 168 224 279 331 393
#     4  11  24  43  66  95 137 174 215 266 332 396
#     4  12  18  28  60  82 134 178 210 248 308 376
#     4  12  23  39  60  97 137 173 217 266 325 379
#
# _framework density 24.491294
#
# number of rings (size 3 to 8) (size 9 to 14) (size 15 to 20)
#    0.000    0.952    1.905    4.857    5.333    3.810 
#    0.000    3.810    0.000    3.429    0.000    0.000 
#    0.000    0.000    0.000    0.000    0.000    0.000 
#
# Total GULP energy -117160.363394 kJ/mol
# GULP energy per Si atom -5579.064924 kJ/mol
# Density = 2.443555 g / cm^3
# Si number density = 24.491294 Si / 1000 Ang^3
#
#
#
# Elastic Constant Matrix: (Units=GPa)
#
#
# Indices 1 2 3 4 5 6 
#
# 1 112.2099 -0.9976 26.4289 0.0000 -6.7188 0.0000
# 2 -0.9976 50.9748 7.4542 0.0000 7.1348 0.0000
# 3 26.4289 7.4542 193.4120 0.0000 8.4433 0.0000
# 4 0.0000 0.0000 0.0000 -4.1622 0.0000 1.0732
# 5 -6.7188 7.1348 8.4433 0.0000 45.7533 0.0000
# 6 0.0000 0.0000 0.0000 1.0732 0.0000 -4.5558
#
#
#
# Elastic Compliance Matrix: (Units=1/GPa)
#
#
# Indices 1 2 3 4 5 6 
#
# 1 0.009327 0.000157 -0.001350 0.000000 0.001594 0.000000
# 2 0.000157 0.020137 -0.000667 0.000000 -0.002994 0.000000
# 3 -0.001350 -0.000667 0.005428 0.000000 -0.001096 0.000000
# 4 0.000000 0.000000 0.000000 -0.255791 0.000000 -0.060256
# 5 0.001594 -0.002994 -0.001096 0.000000 0.022760 0.000000
# 6 0.000000 0.000000 0.000000 -0.060256 0.000000 -0.233697
#
#
# Mechanical properties :
#
#
# Convention : Reuss Voigt Hill
#
# Bulk Modulus (GPa) = 32.08002 46.92974 39.50488
# Shear Modulus (GPa) = -11.96958 28.98781 8.50911
#
# Velocity S-wave (km/s) = -2.21312 3.44408 1.86598
# Velocity P-wave (km/s) = 2.56836 5.91768 4.56155
#
# Compressibility (1/GPa) = 0.03117205
#
# Stress axis : x y z
#
# Youngs Moduli (GPa) = 107.21886 49.65932 184.21840
#
# Poissons Ratio (x) = -0.00779 0.24871
# Poissons Ratio (y) = -0.01681 0.12284
# Poissons Ratio (z) = 0.14476 0.03311
#
# Static dielectric constant tensor:
#      x y z
#    x 2.107080 0.000000 0.018350 
#    y 0.000000 1.894900 0.000000 
#    z 0.018350 0.000000 1.933190 
# 
# From -- ./inp_files/64630.got.cif
#   From: 2010.05.17/outbox.cif.g08.bks.cpg/sg10_33_cif.got.tgz:64630.got - 2010.06.03 11:33:40.
