data_PCOD9153824
_publ_section_title
;
Structure prediction by ZEFSAII (Michael W. Deem and Ramdas Pophale) SiO2 
 PCOD9153824
Probable space group: P 2/M
;
_chemical_formula_sum "Si O2"
_cell_formula_units_Z 24
_cell_length_a 14.681848
_cell_length_b 7.694289
_cell_length_c 14.637715
_cell_angle_alpha 90.000000
_cell_angle_beta 42.516599
_cell_angle_gamma 90.000000
_cell_volume 1117.488642
_symmetry_space_group_name_H-M "P 2/M"
_symmetry_group_IT_number 10
_symmetry_cell_setting 'monoclinic'
loop_
_space_group_symop_operation_xyz
x,y,z
-x,y,-z
-x,-y,-z
x,-y,z
loop_
_atom_site_type_symbol
_atom_site_label
_atom_site_fract_x
_atom_site_fract_y
_atom_site_fract_z
Si Si1 0.847516 0.712076 0.087858
Si Si2 0.148956 0.000000 0.431661
Si Si3 0.153628 0.711172 0.579524
Si Si4 0.345969 0.711664 0.606601
Si Si5 0.574737 0.687932 0.041200
Si Si6 0.137546 0.709160 0.127985
Si Si7 0.570919 0.000000 0.846840
O O1 0.841956 0.500000 0.092376
O O2 0.742735 0.772161 0.241468
O O3 0.826503 0.772164 0.999966
O O4 0.000000 0.760200 0.000000
O O5 0.169531 0.827934 0.478230
O O6 0.000000 0.000000 0.500000
O O7 0.269922 0.000000 0.269685
O O8 0.154594 0.500000 0.563060
O O9 0.266435 0.753621 0.572130
O O10 0.006760 0.765551 0.728494
O O11 0.500000 0.771668 0.500000
O O12 0.347671 0.500000 0.608626
O O13 0.576820 0.500000 0.086461
O O14 0.489308 0.830460 0.156755
O O15 0.500000 0.667470 0.000000
O O16 0.728979 0.744268 0.912072
O O17 0.123250 0.500000 0.133853
O O18 0.500000 0.000000 0.000000
#
# Coordination Sequence:
#
# PCOD9153824 Si02
#       7
#     4   2   4   4   4   4   2
#     4   9  14  25  49  85 122 157 206 253 296 364
#     4  12  30  46  67  98 126 169 222 268 327 395
#     4  10  22  42  67  95 133 173 216 266 323 387
#     4   9  17  31  57  92 131 172 210 259 321 379
#     4   9  19  35  60  90 121 156 205 259 314 371
#     4   9  17  31  59  96 127 167 215 261 312 375
#     4  10  24  44  64  87 119 156 199 257 323 377
#
# _framework density 21.47673
#
# number of rings (size 3 to 8) (size 9 to 14) (size 15 to 20)
#    0.000    2.500    1.667    0.000    4.667    2.333 
#    0.000    3.750    0.000    3.000    0.000    0.000 
#    0.000    0.000    0.000    0.000    0.000    0.000 
#
# Total GULP energy -133820.913908 kJ/mol
# GULP energy per Si atom -5575.871413 kJ/mol
# Density = 2.142785 g / cm^3
# Si number density = 21.476730 Si / 1000 Ang^3
#
#
#
# Elastic Constant Matrix: (Units=GPa)
#
#
# Indices 1 2 3 4 5 6 
#
# 1 138.3060 20.1812 75.6949 0.0000 -27.6941 0.0000
# 2 20.1812 81.9953 28.9684 0.0000 -5.4430 0.0000
# 3 75.6949 28.9684 152.2602 0.0000 -25.9720 0.0000
# 4 0.0000 0.0000 0.0000 18.0214 0.0000 -6.0541
# 5 -27.6941 -5.4430 -25.9720 0.0000 42.8745 0.0000
# 6 0.0000 0.0000 0.0000 -6.0541 0.0000 29.0798
#
#
#
# Elastic Compliance Matrix: (Units=1/GPa)
#
#
# Indices 1 2 3 4 5 6 
#
# 1 0.010573 -0.000772 -0.004417 0.000000 0.004055 0.000000
# 2 -0.000772 0.013132 -0.002136 0.000000 -0.000126 0.000000
# 3 -0.004417 -0.002136 0.009633 0.000000 0.002711 0.000000
# 4 0.000000 0.000000 0.000000 0.059663 0.000000 0.012421
# 5 0.004055 -0.000126 0.002711 0.000000 0.027569 0.000000
# 6 0.000000 0.000000 0.000000 0.012421 0.000000 0.036974
#
#
# Mechanical properties :
#
#
# Convention : Reuss Voigt Hill
#
# Bulk Modulus (GPa) = 53.51614 69.13894 61.32754
# Shear Modulus (GPa) = 28.02320 34.50960 31.26640
#
# Velocity S-wave (km/s) = 3.61614 4.01289 3.81967
# Velocity P-wave (km/s) = 6.51211 7.33031 6.93329
#
# Compressibility (1/GPa) = 0.01868595
#
# Stress axis : x y z
#
# Youngs Moduli (GPa) = 94.58277 76.14873 103.81475
#
# Poissons Ratio (x) = 0.05882 0.45860
# Poissons Ratio (y) = 0.07305 0.22174
# Poissons Ratio (z) = 0.41782 0.16265
#
# Static dielectric constant tensor:
#      x y z
#    x 1.781060 0.000000 -0.003630 
#    y 0.000000 2.002410 0.000000 
#    z -0.003630 0.000000 1.762400 
# 
# From -- ./inp_files/66365.got.cif
#   From: 2010.05.17/outbox.cif.g08.bks.cpg/sg10_34_cif.got.tgz:66365.got - 2010.06.03 11:33:40.
