data_PCOD9153756
_publ_section_title
;
Structure prediction by ZEFSAII (Michael W. Deem and Ramdas Pophale) SiO2 
 PCOD9153756
Probable space group: P 2/M
;
_chemical_formula_sum "Si O2"
_cell_formula_units_Z 32
_cell_length_a 12.482392
_cell_length_b 15.206280
_cell_length_c 17.475318
_cell_angle_alpha 90.000000
_cell_angle_beta 28.221643
_cell_angle_gamma 90.000000
_cell_volume 1568.556524
_symmetry_space_group_name_H-M "P 2/M"
_symmetry_group_IT_number 10
_symmetry_cell_setting 'monoclinic'
loop_
_space_group_symop_operation_xyz
x,y,z
-x,y,-z
-x,-y,-z
x,-y,z
loop_
_atom_site_type_symbol
_atom_site_label
_atom_site_fract_x
_atom_site_fract_y
_atom_site_fract_z
Si Si1 0.892499 0.253444 0.280668
Si Si2 0.353278 0.156032 0.818234
Si Si3 0.252561 0.753290 0.179092
Si Si4 0.089015 0.599743 0.857571
Si Si5 0.256823 0.897907 0.307658
Si Si6 0.458641 0.331317 0.376090
Si Si7 0.033775 0.403982 0.568757
Si Si8 0.131206 0.100381 0.808454
O O1 0.966322 0.327317 0.171827
O O2 0.706218 0.291888 0.455545
O O3 0.788744 0.169121 0.304491
O O4 0.106249 0.222835 0.196535
O O5 0.559360 0.125343 0.742315
O O6 0.413472 0.253884 0.750817
O O7 0.303343 0.103228 0.771461
O O8 0.113593 0.140861 0.011997
O O9 0.279129 0.833133 0.221770
O O10 0.116224 0.673804 0.303219
O O11 0.500000 0.723043 0.000000
O O12 0.020890 0.500000 0.879713
O O13 0.358307 0.608136 0.698375
O O14 0.000000 0.618051 0.000000
O O15 0.000000 0.886717 0.500000
O O16 0.287781 0.000000 0.266904
O O17 0.294497 0.383704 0.423192
O O18 0.973656 0.500000 0.638726
O O19 0.000000 0.404739 0.500000
O O20 0.100097 0.000000 0.803358
#
# Coordination Sequence:
#
# PCOD9153756 Si02
#       8
#     4   4   4   4   4   4   4   4
#     4  11  24  41  62  93 129 167 207 264 324 387
#     4  11  21  39  66  93 127 168 219 269 315 380
#     4  11  24  41  63  92 129 172 215 262 327 380
#     4  11  24  42  65  93 123 162 210 262 321 388
#     4  11  23  41  65  94 129 176 228 270 316 380
#     4  11  22  39  65  92 132 165 206 260 329 381
#     4  10  22  41  65  94 125 165 215 263 318 386
#     4  11  23  40  62  93 131 174 218 266 322 377
#
# _framework density 20.400922999999999
#
# number of rings (size 3 to 8) (size 9 to 14) (size 15 to 20)
#    0.000    1.125    1.250    6.375    0.000    5.000 
#    0.000    3.750    0.000    0.000    0.000    0.000 
#    0.000    0.000    0.000    0.000    0.000    0.000 
#
# Total GULP energy -178777.280429 kJ/mol
# GULP energy per Si atom -5586.790013 kJ/mol
# Density = 2.035449 g / cm^3
# Si number density = 20.400923 Si / 1000 Ang^3
#
#
#
# Elastic Constant Matrix: (Units=GPa)
#
#
# Indices 1 2 3 4 5 6 
#
# 1 136.9021 52.2347 31.3274 0.0000 -17.0656 0.0000
# 2 52.2347 134.2762 15.9846 0.0000 9.5173 0.0000
# 3 31.3274 15.9846 46.7585 0.0000 -13.0756 0.0000
# 4 0.0000 0.0000 0.0000 16.9731 0.0000 18.6911
# 5 -17.0656 9.5173 -13.0756 0.0000 29.1517 0.0000
# 6 0.0000 0.0000 0.0000 18.6911 0.0000 38.2554
#
#
#
# Elastic Compliance Matrix: (Units=1/GPa)
#
#
# Indices 1 2 3 4 5 6 
#
# 1 0.010452 -0.003976 -0.004081 0.000000 0.005586 0.000000
# 2 -0.003976 0.009767 -0.002536 0.000000 -0.006654 0.000000
# 3 -0.004081 -0.002536 0.028072 0.000000 0.011030 0.000000
# 4 0.000000 0.000000 0.000000 0.127536 0.000000 -0.062312
# 5 0.005586 -0.006654 0.011030 0.000000 0.044693 0.000000
# 6 0.000000 0.000000 0.000000 -0.062312 0.000000 0.056585
#
#
# Mechanical properties :
#
#
# Convention : Reuss Voigt Hill
#
# Bulk Modulus (GPa) = 36.89317 57.44781 47.17049
# Shear Modulus (GPa) = 16.26931 31.43538 23.85235
#
# Velocity S-wave (km/s) = 2.82703 3.92966 3.42304
# Velocity P-wave (km/s) = 5.36465 6.98643 6.22855
#
# Compressibility (1/GPa) = 0.02710529
#
# Stress axis : x y z
#
# Youngs Moduli (GPa) = 95.67806 102.38041 35.62234
#
# Poissons Ratio (x) = 0.40705 0.14538
# Poissons Ratio (y) = 0.38041 0.09034
# Poissons Ratio (z) = 0.39049 0.25963
#
# Static dielectric constant tensor:
#      x y z
#    x 1.752250 0.000000 0.013590 
#    y 0.000000 1.727030 0.000000 
#    z 0.013590 0.000000 1.731370 
# 
# From -- ./inp_files/77012.got.cif
#   From: 2010.05.17/outbox.cif.g08.bks.cpg/sg10_39_cif.got.tgz:77012.got - 2010.06.03 11:33:40.
