data_PCOD9153062
_publ_section_title
;
Structure prediction by ZEFSAII (Michael W. Deem and Ramdas Pophale) SiO2 
 PCOD9153062
Probable space group: P 2/M
;
_chemical_formula_sum "Si O2"
_cell_formula_units_Z 20
_cell_length_a 11.896277
_cell_length_b 10.676761
_cell_length_c 10.933691
_cell_angle_alpha 90.000000
_cell_angle_beta 43.749344
_cell_angle_gamma 90.000000
_cell_volume 960.312484
_symmetry_space_group_name_H-M "P 2/M"
_symmetry_group_IT_number 10
_symmetry_cell_setting 'monoclinic'
loop_
_space_group_symop_operation_xyz
x,y,z
-x,y,-z
-x,-y,-z
x,-y,z
loop_
_atom_site_type_symbol
_atom_site_label
_atom_site_fract_x
_atom_site_fract_y
_atom_site_fract_z
Si Si1 0.867369 0.862458 0.937851
Si Si2 0.662662 0.641267 0.658023
Si Si3 0.611042 0.744072 0.301786
Si Si4 0.113609 0.363414 0.753295
Si Si5 0.186539 0.141991 0.307217
O O1 0.813008 0.851088 0.839650
O O2 0.992444 0.751147 0.864034
O O3 0.942889 0.000000 0.893651
O O4 0.716031 0.845197 0.146750
O O5 0.654205 0.500000 0.715517
O O6 0.502003 0.673495 0.706792
O O7 0.806841 0.644037 0.443741
O O8 0.703273 0.749963 0.721760
O O9 0.500000 0.794853 0.500000
O O10 0.738554 0.652464 0.268272
O O11 0.035786 0.500000 0.828104
O O12 0.000000 0.158297 0.500000
O O13 0.236445 0.000000 0.304559
#
# Coordination Sequence:
#
# PCOD9153062 Si02
#       5
#     4   4   4   4   4
#     4  11  24  41  63  92 123 161 209 253 299 361
#     4  10  21  39  65  94 124 160 203 251 302 363
#     4  10  23  41  60  89 128 163 199 250 308 360
#     4  10  21  39  65  93 124 162 202 249 306 364
#     4  10  21  40  64  89 123 162 200 251 309 360
#
# _framework density 20.826554000000002
#
# number of rings (size 3 to 8) (size 9 to 14) (size 15 to 20)
#    0.000    1.800    2.000    1.200    0.000    9.600 
#    0.000    7.000    0.000    0.000    0.000    0.000 
#    0.000    0.000    0.000    0.000    0.000    0.000 
#
# Total GULP energy -111756.148692 kJ/mol
# GULP energy per Si atom -5587.807435 kJ/mol
# Density = 2.077915 g / cm^3
# Si number density = 20.826554 Si / 1000 Ang^3
#
#
#
# Elastic Constant Matrix: (Units=GPa)
#
#
# Indices 1 2 3 4 5 6 
#
# 1 102.5954 89.2240 24.8748 0.0000 4.0957 0.0000
# 2 89.2240 195.0930 46.6695 0.0000 -12.6617 0.0000
# 3 24.8748 46.6695 73.0369 0.0000 2.0221 0.0000
# 4 0.0000 0.0000 0.0000 22.0096 0.0000 -1.2087
# 5 4.0957 -12.6617 2.0221 0.0000 25.2301 0.0000
# 6 0.0000 0.0000 0.0000 -1.2087 0.0000 11.0455
#
#
#
# Elastic Compliance Matrix: (Units=1/GPa)
#
#
# Indices 1 2 3 4 5 6 
#
# 1 0.017316 -0.008268 -0.000423 0.000000 -0.006926 0.000000
# 2 -0.008268 0.010295 -0.003952 0.000000 0.006826 0.000000
# 3 -0.000423 -0.003952 0.016450 0.000000 -0.003233 0.000000
# 4 0.000000 0.000000 0.000000 0.045709 0.000000 0.005002
# 5 -0.006926 0.006826 -0.003233 0.000000 0.044444 0.000000
# 6 0.000000 0.000000 0.000000 0.005002 0.000000 0.091082
#
#
# Mechanical properties :
#
#
# Convention : Reuss Voigt Hill
#
# Bulk Modulus (GPa) = 53.25577 76.91800 65.08689
# Shear Modulus (GPa) = 19.46733 25.65418 22.56076
#
# Velocity S-wave (km/s) = 3.06066 3.51351 3.29488
# Velocity P-wave (km/s) = 6.17388 7.31249 6.76718
#
# Compressibility (1/GPa) = 0.01877731
#
# Stress axis : x y z
#
# Youngs Moduli (GPa) = 57.74894 97.13185 60.78939
#
# Poissons Ratio (x) = 0.80307 0.02570
# Poissons Ratio (y) = 0.47746 0.24022
# Poissons Ratio (z) = 0.02441 0.38383
#
# Static dielectric constant tensor:
#      x y z
#    x 1.721670 0.000000 0.004720 
#    y 0.000000 1.733060 0.000000 
#    z 0.004720 0.000000 1.761170 
# 
# From -- ./inp_files/46415.got.cif
#   From: 2010.05.17/outbox.cif.g08.bks.cpg/sg10_24_cif.got.tgz:46415.got - 2010.06.03 11:33:40.
