data_PCOD9153161
_publ_section_title
;
Structure prediction by ZEFSAII (Michael W. Deem and Ramdas Pophale) SiO2 
 PCOD9153161
Probable space group: P 2/M
;
_chemical_formula_sum "Si O2"
_cell_formula_units_Z 32
_cell_length_a 18.447164
_cell_length_b 14.065850
_cell_length_c 12.044395
_cell_angle_alpha 90.000000
_cell_angle_beta 30.889360
_cell_angle_gamma 90.000000
_cell_volume 1604.431321
_symmetry_space_group_name_H-M "P 2/M"
_symmetry_group_IT_number 10
_symmetry_cell_setting 'monoclinic'
loop_
_space_group_symop_operation_xyz
x,y,z
-x,y,-z
-x,-y,-z
x,-y,z
loop_
_atom_site_type_symbol
_atom_site_label
_atom_site_fract_x
_atom_site_fract_y
_atom_site_fract_z
Si Si1 0.360790 0.388202 0.759584
Si Si2 0.329912 0.886623 0.948329
Si Si3 0.283215 0.614087 0.347229
Si Si4 0.803613 0.789938 0.083128
Si Si5 0.134676 0.886505 0.398112
Si Si6 0.342149 0.114067 0.521558
Si Si7 0.875269 0.782821 0.355090
Si Si8 0.413237 0.385219 0.946944
O O1 0.500000 0.377563 0.500000
O O2 0.323336 0.500000 0.808817
O O3 0.245125 0.319097 0.859463
O O4 0.385792 0.357218 0.855540
O O5 0.229275 0.835038 0.993261
O O6 0.493552 0.863573 0.714957
O O7 0.313280 0.000000 0.954114
O O8 0.275027 0.864317 0.143331
O O9 0.264444 0.500000 0.378575
O O10 0.163452 0.674020 0.565666
O O11 0.430623 0.640165 0.214831
O O12 0.304797 0.641001 0.188522
O O13 0.706068 0.848605 0.295419
O O14 0.967446 0.795567 0.897852
O O15 0.130828 0.835622 0.519446
O O16 0.000000 0.860037 0.500000
O O17 0.128338 0.000000 0.423647
O O18 0.241227 0.169152 0.569448
O O19 0.324244 0.000000 0.536256
O O20 0.411345 0.500000 0.948246
#
# Coordination Sequence:
#
# PCOD9153161 Si02
#       8
#     4   4   4   4   4   4   4   4
#     4  10  22  39  64  94 126 164 215 270 314 364
#     4  10  22  41  68  94 121 161 210 263 315 374
#     4   9  20  37  61  91 129 168 208 258 317 377
#     4  12  25  41  63  91 129 170 215 255 316 384
#     4  10  21  40  64  93 129 163 202 258 325 388
#     4  11  26  46  66  93 124 163 218 271 315 372
#     4  12  26  39  63  95 130 172 210 256 324 381
#     4   8  17  37  62  91 121 164 215 261 313 367
#
# _framework density 19.944762000000001
#
# number of rings (size 3 to 8) (size 9 to 14) (size 15 to 20)
#    0.000    1.750    1.250    3.000    5.250    5.000 
#    0.000    1.875    0.000    4.125    0.000    0.000 
#    0.000    0.000    0.000    0.000    0.000    0.000 
#
# Total GULP energy -178777.778962 kJ/mol
# GULP energy per Si atom -5586.805593 kJ/mol
# Density = 1.989937 g / cm^3
# Si number density = 19.944762 Si / 1000 Ang^3
#
#
#
# Elastic Constant Matrix: (Units=GPa)
#
#
# Indices 1 2 3 4 5 6 
#
# 1 49.1162 18.9363 -0.3835 0.0000 5.3661 0.0000
# 2 18.9363 72.7278 26.0948 0.0000 -1.7562 0.0000
# 3 -0.3835 26.0948 90.8206 0.0000 -5.9165 0.0000
# 4 0.0000 0.0000 0.0000 26.3963 0.0000 3.7062
# 5 5.3661 -1.7562 -5.9165 0.0000 26.7475 0.0000
# 6 0.0000 0.0000 0.0000 3.7062 0.0000 37.1012
#
#
#
# Elastic Compliance Matrix: (Units=1/GPa)
#
#
# Indices 1 2 3 4 5 6 
#
# 1 0.023549 -0.006880 0.001765 0.000000 -0.004786 0.000000
# 2 -0.006880 0.017341 -0.004918 0.000000 0.001431 0.000000
# 3 0.001765 -0.004918 0.012568 0.000000 0.002103 0.000000
# 4 0.000000 0.000000 0.000000 0.038423 0.000000 -0.003838
# 5 -0.004786 0.001431 0.002103 0.000000 0.038906 0.000000
# 6 0.000000 0.000000 0.000000 -0.003838 0.000000 0.027337
#
#
# Mechanical properties :
#
#
# Convention : Reuss Voigt Hill
#
# Bulk Modulus (GPa) = 29.94892 33.55110 31.75001
# Shear Modulus (GPa) = 26.41009 29.25011 27.83010
#
# Velocity S-wave (km/s) = 3.64285 3.83372 3.73950
# Velocity P-wave (km/s) = 5.72209 6.03780 5.88207
#
# Compressibility (1/GPa) = 0.03339018
#
# Stress axis : x y z
#
# Youngs Moduli (GPa) = 42.46437 57.66836 79.56542
#
# Poissons Ratio (x) = 0.39677 -0.14039
# Poissons Ratio (y) = 0.29216 0.39131
# Poissons Ratio (z) = -0.07493 0.28362
#
# Static dielectric constant tensor:
#      x y z
#    x 1.710610 0.000000 0.018920 
#    y 0.000000 1.708990 0.000000 
#    z 0.018920 0.000000 1.699080 
# 
# From -- ./inp_files/54024.got.cif
#   From: 2010.05.17/outbox.cif.g08.bks.cpg/sg10_28_cif.got.tgz:54024.got - 2010.06.03 11:33:40.
