data_PCOD9153614
_publ_section_title
;
Structure prediction by ZEFSAII (Michael W. Deem and Ramdas Pophale) SiO2 
 PCOD9153614
Probable space group: P 2/M
;
_chemical_formula_sum "Si O2"
_cell_formula_units_Z 24
_cell_length_a 12.680661
_cell_length_b 14.681725
_cell_length_c 8.794632
_cell_angle_alpha 90.000000
_cell_angle_beta 49.153720
_cell_angle_gamma 90.000000
_cell_volume 1238.587365
_symmetry_space_group_name_H-M "P 2/M"
_symmetry_group_IT_number 10
_symmetry_cell_setting 'monoclinic'
loop_
_space_group_symop_operation_xyz
x,y,z
-x,y,-z
-x,-y,-z
x,-y,z
loop_
_atom_site_type_symbol
_atom_site_label
_atom_site_fract_x
_atom_site_fract_y
_atom_site_fract_z
Si Si1 0.478450 0.207297 0.856471
Si Si2 0.734556 0.600321 0.226444
Si Si3 0.971872 0.893445 0.352538
Si Si4 0.195403 0.212304 0.952940
Si Si5 0.555963 0.601096 0.690745
Si Si6 0.687859 0.893835 0.449438
O O1 0.316881 0.213872 0.965388
O O2 0.548252 0.307910 0.796020
O O3 0.554643 0.154544 0.648082
O O4 0.500000 0.162391 0.000000
O O5 0.797415 0.500000 0.148736
O O6 0.824689 0.684784 0.086355
O O7 0.679313 0.611010 0.450804
O O8 0.590232 0.601905 0.264883
O O9 0.810787 0.886691 0.458502
O O10 0.000000 0.866418 0.500000
O O11 0.013221 0.000000 0.297351
O O12 0.061158 0.834131 0.151376
O O13 0.255879 0.155521 0.753927
O O14 0.568574 0.500000 0.749903
O O15 0.661732 0.000000 0.443168
#
# Coordination Sequence:
#
# PCOD9153614 Si02
#       6
#     4   4   4   4   4   4
#     4  11  22  34  52  83 116 143 175 220 276 318
#     4   8  14  27  51  79 105 136 175 219 263 309
#     4  10  22  40  59  79 106 142 180 219 270 326
#     4  11  20  35  59  82 106 141 183 227 262 313
#     4   8  14  28  49  75 108 141 175 215 260 313
#     4  11  23  38  56  79 107 141 183 225 265 317
#
# _framework density 19.376915
#
# number of rings (size 3 to 8) (size 9 to 14) (size 15 to 20)
#    0.000    2.167    1.667    3.500    0.000    4.000 
#    0.000    0.000    0.000    3.500    0.000    0.000 
#    0.000    0.000    0.000    0.000    0.000    0.000 
#
# Total GULP energy -133954.116208 kJ/mol
# GULP energy per Si atom -5581.421509 kJ/mol
# Density = 1.933281 g / cm^3
# Si number density = 19.376915 Si / 1000 Ang^3
#
#
#
# Elastic Constant Matrix: (Units=GPa)
#
#
# Indices 1 2 3 4 5 6 
#
# 1 39.8090 -3.8257 -3.8601 0.0000 5.3678 0.0000
# 2 -3.8257 97.7329 26.5879 0.0000 -3.4408 0.0000
# 3 -3.8601 26.5879 58.0430 0.0000 1.9046 0.0000
# 4 0.0000 0.0000 0.0000 51.3811 0.0000 31.0745
# 5 5.3678 -3.4408 1.9046 0.0000 27.4556 0.0000
# 6 0.0000 0.0000 0.0000 31.0745 0.0000 69.6329
#
#
#
# Elastic Compliance Matrix: (Units=1/GPa)
#
#
# Indices 1 2 3 4 5 6 
#
# 1 0.026019 0.000366 0.001732 0.000000 -0.005161 0.000000
# 2 0.000366 0.011787 -0.005434 0.000000 0.001783 0.000000
# 3 0.001732 -0.005434 0.019912 0.000000 -0.002401 0.000000
# 4 0.000000 0.000000 0.000000 0.026657 0.000000 -0.011896
# 5 -0.005161 0.001783 -0.002401 0.000000 0.037821 0.000000
# 6 0.000000 0.000000 0.000000 -0.011896 0.000000 0.019670
#
#
# Mechanical properties :
#
#
# Convention : Reuss Voigt Hill
#
# Bulk Modulus (GPa) = 19.59008 25.93214 22.76111
# Shear Modulus (GPa) = 30.20183 41.47277 35.83730
#
# Velocity S-wave (km/s) = 3.95226 4.63138 4.30523
# Velocity P-wave (km/s) = 5.56409 6.48164 6.04031
#
# Compressibility (1/GPa) = 0.05104625
#
# Stress axis : x y z
#
# Youngs Moduli (GPa) = 38.43341 84.83757 50.22206
#
# Poissons Ratio (x) = -0.03101 -0.08700
# Poissons Ratio (y) = -0.01405 0.27289
# Poissons Ratio (z) = -0.06658 0.46097
#
# Static dielectric constant tensor:
#      x y z
#    x 1.676640 0.000000 0.015820 
#    y 0.000000 1.702710 0.000000 
#    z 0.015820 0.000000 1.642850 
# 
# From -- ./inp_files/18855.got.cif
#   From: 2010.05.17/outbox.cif.g08.bks.cpg/sg10_10_cif.got.tgz:18855.got - 2010.06.03 11:33:40.
