data_PCOD9153028
_publ_section_title
;
Structure prediction by ZEFSAII (Michael W. Deem and Ramdas Pophale) SiO2 
 PCOD9153028
Probable space group: P 2/M
;
_chemical_formula_sum "Si O2"
_cell_formula_units_Z 28
_cell_length_a 9.453901
_cell_length_b 31.039988
_cell_length_c 5.021197
_cell_angle_alpha 90.000000
_cell_angle_beta 62.922648
_cell_angle_gamma 90.000000
_cell_volume 1311.962727
_symmetry_space_group_name_H-M "P 2/M"
_symmetry_group_IT_number 10
_symmetry_cell_setting 'monoclinic'
loop_
_space_group_symop_operation_xyz
x,y,z
-x,y,-z
-x,-y,-z
x,-y,z
loop_
_atom_site_type_symbol
_atom_site_label
_atom_site_fract_x
_atom_site_fract_y
_atom_site_fract_z
Si Si1 0.188381 0.547910 0.816321
Si Si2 0.684531 0.595084 0.800497
Si Si3 0.189228 0.744128 0.823516
Si Si4 0.331930 0.050405 0.277227
Si Si5 0.387116 0.173196 0.840356
Si Si6 0.817772 0.091500 0.070707
Si Si7 0.811306 0.312059 0.677332
O O1 0.253878 0.500000 0.820531
O O2 0.243726 0.563385 0.480864
O O3 0.238693 0.583490 0.984501
O O4 0.000000 0.545305 0.000000
O O5 0.720123 0.644271 0.693475
O O6 0.500000 0.588060 0.000000
O O7 0.294451 0.783873 0.829104
O O8 0.224712 0.726289 0.499267
O O9 0.220767 0.705172 0.000459
O O10 0.000000 0.754552 0.000000
O O11 0.280740 0.075678 0.585836
O O12 0.346302 0.000000 0.332420
O O13 0.500000 0.064456 0.000000
O O14 0.204798 0.057930 0.151125
O O15 0.500000 0.160590 0.500000
O O16 0.257089 0.135586 0.979731
O O17 0.500000 0.178922 0.000000
O O18 0.000000 0.096605 0.000000
O O19 0.000000 0.321114 0.500000
#
# Coordination Sequence:
#
# PCOD9153028 Si02
#       7
#     4   4   4   4   4   4   4
#     4  11  24  43  66  90 122 168 216 257 307 377
#     4  12  25  40  63  96 130 163 205 262 317 367
#     4  10  22  41  64  91 121 159 208 258 309 366
#     4  11  24  43  67  95 130 170 212 262 322 382
#     4  12  25  42  65  92 126 166 208 257 316 377
#     4  12  25  42  66  95 130 170 216 266 312 372
#     4  10  21  39  64  90 123 165 206 251 306 375
#
# _framework density 21.342068999999999
#
# number of rings (size 3 to 8) (size 9 to 14) (size 15 to 20)
#    0.000    0.857    0.000    7.714    0.000    8.571 
#    0.000    4.286    0.000    0.000    0.000    0.000 
#    0.000    0.000    0.000    0.000    0.000    0.000 
#
# Total GULP energy -156690.557867 kJ/mol
# GULP energy per Si atom -5596.091352 kJ/mol
# Density = 2.129349 g / cm^3
# Si number density = 21.342069 Si / 1000 Ang^3
#
#
#
# Elastic Constant Matrix: (Units=GPa)
#
#
# Indices 1 2 3 4 5 6 
#
# 1 114.1463 38.3641 31.7671 0.0000 5.6402 0.0000
# 2 38.3641 85.9317 24.7188 0.0000 -14.4565 0.0000
# 3 31.7671 24.7188 92.4430 0.0000 9.7148 0.0000
# 4 0.0000 0.0000 0.0000 21.9667 0.0000 5.0575
# 5 5.6402 -14.4565 9.7148 0.0000 35.8437 0.0000
# 6 0.0000 0.0000 0.0000 5.0575 0.0000 34.0786
#
#
#
# Elastic Compliance Matrix: (Units=1/GPa)
#
#
# Indices 1 2 3 4 5 6 
#
# 1 0.011168 -0.004878 -0.002205 0.000000 -0.003127 0.000000
# 2 -0.004878 0.016221 -0.003530 0.000000 0.008267 0.000000
# 3 -0.002205 -0.003530 0.013003 0.000000 -0.004601 0.000000
# 4 0.000000 0.000000 0.000000 0.047134 0.000000 -0.006995
# 5 -0.003127 0.008267 -0.004601 0.000000 0.032972 0.000000
# 6 0.000000 0.000000 0.000000 -0.006995 0.000000 0.030382
#
#
# Mechanical properties :
#
#
# Convention : Reuss Voigt Hill
#
# Bulk Modulus (GPa) = 52.17465 53.58012 52.87738
# Shear Modulus (GPa) = 28.01214 31.55586 29.78400
#
# Velocity S-wave (km/s) = 3.62682 3.84940 3.73976
# Velocity P-wave (km/s) = 6.48370 6.70202 6.59376
#
# Compressibility (1/GPa) = 0.01916640
#
# Stress axis : x y z
#
# Youngs Moduli (GPa) = 89.53927 61.64859 76.90801
#
# Poissons Ratio (x) = 0.30072 0.16958
# Poissons Ratio (y) = 0.43676 0.27148
# Poissons Ratio (z) = 0.19743 0.21761
#
# Static dielectric constant tensor:
#      x y z
#    x 1.753730 0.000000 -0.014250 
#    y 0.000000 1.726120 0.000000 
#    z -0.014250 0.000000 1.725590 
# 
# From -- ./inp_files/5490.got.cif
#   From: 2010.05.17/outbox.cif.g08.bks.cpg/sg10_3_cif.got.tgz:5490.got - 2010.06.03 11:33:40.
