data_PCOD9153649
_publ_section_title
;
Structure prediction by ZEFSAII (Michael W. Deem and Ramdas Pophale) SiO2 
 PCOD9153649
Probable space group: P 2/M
;
_chemical_formula_sum "Si O2"
_cell_formula_units_Z 28
_cell_length_a 9.912458
_cell_length_b 18.813804
_cell_length_c 16.314184
_cell_angle_alpha 90.000000
_cell_angle_beta 152.282409
_cell_angle_gamma 90.000000
_cell_volume 1415.085273
_symmetry_space_group_name_H-M "P 2/M"
_symmetry_group_IT_number 10
_symmetry_cell_setting 'monoclinic'
loop_
_space_group_symop_operation_xyz
x,y,z
-x,y,-z
-x,-y,-z
x,-y,z
loop_
_atom_site_type_symbol
_atom_site_label
_atom_site_fract_x
_atom_site_fract_y
_atom_site_fract_z
Si Si1 0.673655 0.690629 0.804393
Si Si2 0.271427 0.223813 0.706632
Si Si3 0.789589 0.774589 0.712346
Si Si4 0.152546 0.922741 0.313814
Si Si5 0.169199 0.679147 0.805734
Si Si6 0.352245 0.416552 0.510130
Si Si7 0.678890 0.080636 0.181647
O O1 0.499687 0.722464 0.787427
O O2 0.700177 0.755805 0.755245
O O3 0.508593 0.629512 0.664605
O O4 0.000000 0.667077 0.000000
O O5 0.167498 0.261165 0.734283
O O6 0.382798 0.145460 0.791051
O O7 0.000000 0.216869 0.500000
O O8 0.500000 0.770933 0.500000
O O9 0.924620 0.852580 0.777452
O O10 0.014615 0.716601 0.799713
O O11 0.500000 0.924838 0.500000
O O12 0.011863 0.913698 0.328004
O O13 0.048315 0.000000 0.227336
O O14 0.971977 0.613588 0.672476
O O15 0.500000 0.659654 0.000000
O O16 0.500000 0.405029 0.500000
O O17 0.362755 0.500000 0.533667
O O18 0.635375 0.000000 0.189191
O O19 0.500000 0.088366 0.000000
#
# Coordination Sequence:
#
# PCOD9153649 Si02
#       7
#     4   4   4   4   4   4   4
#     4  12  25  41  64  97 131 166 205 258 325 382
#     4  12  24  39  62  96 131 170 207 263 327 378
#     4  11  19  39  65  87 124 168 220 265 301 368
#     4   9  19  33  57  86 114 158 216 262 299 350
#     4  12  22  40  68  95 126 165 216 259 307 374
#     4  11  24  47  72  95 124 165 214 256 308 386
#     4  10  22  40  61  89 126 170 223 270 314 372
#
# _framework density 19.786795000000001
#
# number of rings (size 3 to 8) (size 9 to 14) (size 15 to 20)
#    0.000    1.000    5.714    1.286    4.000    0.857 
#    0.000    2.143    0.000    0.857    0.000    0.000 
#    0.000    0.000    0.000    0.000    0.000    0.000 
#
# Total GULP energy -156377.400720 kJ/mol
# GULP energy per Si atom -5584.907169 kJ/mol
# Density = 1.974176 g / cm^3
# Si number density = 19.786795 Si / 1000 Ang^3
#
#
#
# Elastic Constant Matrix: (Units=GPa)
#
#
# Indices 1 2 3 4 5 6 
#
# 1 46.0163 18.6979 13.4569 0.0000 6.9859 0.0000
# 2 18.6979 153.4533 38.6974 0.0000 2.0424 0.0000
# 3 13.4569 38.6974 131.5573 0.0000 13.7841 0.0000
# 4 0.0000 0.0000 0.0000 5.4554 0.0000 -3.1128
# 5 6.9859 2.0424 13.7841 0.0000 29.5578 0.0000
# 6 0.0000 0.0000 0.0000 -3.1128 0.0000 21.6519
#
#
#
# Elastic Compliance Matrix: (Units=1/GPa)
#
#
# Indices 1 2 3 4 5 6 
#
# 1 0.023855 -0.002545 -0.001177 0.000000 -0.004914 0.000000
# 2 -0.002545 0.007317 -0.002000 0.000000 0.001028 0.000000
# 3 -0.001177 -0.002000 0.008691 0.000000 -0.003637 0.000000
# 4 0.000000 0.000000 0.000000 0.199686 0.000000 0.028708
# 5 -0.004914 0.001028 -0.003637 0.000000 0.036618 0.000000
# 6 0.000000 0.000000 0.000000 0.028708 0.000000 0.050313
#
#
# Mechanical properties :
#
#
# Convention : Reuss Voigt Hill
#
# Bulk Modulus (GPa) = 35.18506 52.52570 43.85538
# Shear Modulus (GPa) = 14.39275 28.67801 21.53538
#
# Velocity S-wave (km/s) = 2.69995 3.81116 3.30263
# Velocity P-wave (km/s) = 5.24789 6.78012 6.06261
#
# Compressibility (1/GPa) = 0.02842115
#
# Stress axis : x y z
#
# Youngs Moduli (GPa) = 41.91914 136.66221 115.06269
#
# Poissons Ratio (x) = 0.34774 0.13541
# Poissons Ratio (y) = 0.10667 0.23011
# Poissons Ratio (z) = 0.04933 0.27330
#
# Static dielectric constant tensor:
#      x y z
#    x 1.685070 0.000000 0.036110 
#    y 0.000000 1.697040 0.000000 
#    z 0.036110 0.000000 1.746340 
# 
# From -- ./inp_files/62616.got.cif
#   From: 2010.05.17/outbox.cif.g08.bks.cpg/sg10_32_cif.got.tgz:62616.got - 2010.06.03 11:33:40.
