data_PCOD9153712
_publ_section_title
;
Structure prediction by ZEFSAII (Michael W. Deem and Ramdas Pophale) SiO2 
 PCOD9153712
Probable space group: P 2/M
;
_chemical_formula_sum "Si O2"
_cell_formula_units_Z 20
_cell_length_a 18.542248
_cell_length_b 11.281269
_cell_length_c 9.079117
_cell_angle_alpha 90.000000
_cell_angle_beta 150.353444
_cell_angle_gamma 90.000000
_cell_volume 939.421295
_symmetry_space_group_name_H-M "P 2/M"
_symmetry_group_IT_number 10
_symmetry_cell_setting 'monoclinic'
loop_
_space_group_symop_operation_xyz
x,y,z
-x,y,-z
-x,-y,-z
x,-y,z
loop_
_atom_site_type_symbol
_atom_site_label
_atom_site_fract_x
_atom_site_fract_y
_atom_site_fract_z
Si Si1 0.361772 0.860157 0.851061
Si Si2 0.337891 0.500000 0.782844
Si Si3 0.933933 0.870065 0.220096
Si Si4 0.653756 0.500000 0.856446
Si Si5 0.339760 0.761936 0.146113
Si Si6 0.885226 0.284166 0.669723
O O1 0.221170 0.828892 0.502859
O O2 0.372780 0.000000 0.897245
O O3 0.500000 0.820119 0.000000
O O4 0.347259 0.798563 0.986454
O O5 0.232318 0.388642 0.560270
O O6 0.500000 0.500000 0.000000
O O7 0.370921 0.500000 0.013829
O O8 0.000000 0.874966 0.500000
O O9 0.012576 0.760539 0.281462
O O10 0.958925 0.000000 0.194418
O O11 0.764130 0.846789 0.945178
O O12 0.500000 0.500000 0.500000
O O13 0.723408 0.627910 0.948664
O O14 0.500000 0.764183 0.500000
O O15 0.000000 0.312080 0.000000
#
# Coordination Sequence:
#
# PCOD9153712 Si02
#       6
#     4   2   4   2   4   4
#     4  11  24  43  67  97 138 183 233 292 345 406
#     4  12  25  48  76 100 139 182 224 287 347 409
#     4  11  23  43  68  94 138 185 226 286 346 405
#     4  10  22  40  70 100 130 170 219 285 342 401
#     4  11  24  42  68 103 135 179 235 287 345 412
#     4  12  27  44  67 103 139 182 230 282 345 419
#
# _framework density 21.289704
#
# number of rings (size 3 to 8) (size 9 to 14) (size 15 to 20)
#    0.000    0.800    4.000    2.100    2.800    5.600 
#    0.000    2.000    0.000    0.000    0.000    0.000 
#    0.000    0.000    0.000    0.000    0.000    0.000 
#
# Total GULP energy -111562.067986 kJ/mol
# GULP energy per Si atom -5578.103399 kJ/mol
# Density = 2.124125 g / cm^3
# Si number density = 21.289704 Si / 1000 Ang^3
#
#
#
# Elastic Constant Matrix: (Units=GPa)
#
#
# Indices 1 2 3 4 5 6 
#
# 1 80.9813 45.7552 54.6629 0.0000 22.2906 0.0000
# 2 45.7552 120.6204 38.2656 0.0000 4.1198 0.0000
# 3 54.6629 38.2656 136.8868 0.0000 7.1874 0.0000
# 4 0.0000 0.0000 0.0000 41.2756 0.0000 8.7893
# 5 22.2906 4.1198 7.1874 0.0000 37.2813 0.0000
# 6 0.0000 0.0000 0.0000 8.7893 0.0000 22.2610
#
#
#
# Elastic Compliance Matrix: (Units=1/GPa)
#
#
# Indices 1 2 3 4 5 6 
#
# 1 0.024343 -0.006510 -0.007248 0.000000 -0.012438 0.000000
# 2 -0.006510 0.010848 -0.000580 0.000000 0.002805 0.000000
# 3 -0.007248 -0.000580 0.010234 0.000000 0.002425 0.000000
# 4 0.000000 0.000000 0.000000 0.026451 0.000000 -0.010444
# 5 -0.012438 0.002805 0.002425 0.000000 0.033482 0.000000
# 6 0.000000 0.000000 0.000000 -0.010444 0.000000 0.049045
#
#
# Mechanical properties :
#
#
# Convention : Reuss Voigt Hill
#
# Bulk Modulus (GPa) = 59.70382 68.42841 64.06612
# Shear Modulus (GPa) = 26.50232 33.48390 29.99311
#
# Velocity S-wave (km/s) = 3.53206 3.97012 3.75748
# Velocity P-wave (km/s) = 6.68867 7.29570 6.99877
#
# Compressibility (1/GPa) = 0.01674935
#
# Stress axis : x y z
#
# Youngs Moduli (GPa) = 41.08030 92.18202 97.70882
#
# Poissons Ratio (x) = 0.60009 0.70818
# Poissons Ratio (y) = 0.26742 0.05669
# Poissons Ratio (z) = 0.29775 0.05349
#
# Static dielectric constant tensor:
#      x y z
#    x 1.783310 0.000000 0.003120 
#    y 0.000000 1.864990 0.000000 
#    z 0.003120 0.000000 1.782940 
# 
# From -- ./inp_files/32475.got.cif
#   From: 2010.05.17/outbox.cif.g08.bks.cpg/sg10_17_cif.got.tgz:32475.got - 2010.06.03 11:33:40.
