data_PCOD9153178
_publ_section_title
;
Structure prediction by ZEFSAII (Michael W. Deem and Ramdas Pophale) SiO2 
 PCOD9153178
Probable space group: P 2/M
;
_chemical_formula_sum "Si O2"
_cell_formula_units_Z 28
_cell_length_a 13.406585
_cell_length_b 19.602629
_cell_length_c 8.820759
_cell_angle_alpha 90.000000
_cell_angle_beta 32.288007
_cell_angle_gamma 90.000000
_cell_volume 1238.289912
_symmetry_space_group_name_H-M "P 2/M"
_symmetry_group_IT_number 10
_symmetry_cell_setting 'monoclinic'
loop_
_space_group_symop_operation_xyz
x,y,z
-x,y,-z
-x,-y,-z
x,-y,z
loop_
_atom_site_type_symbol
_atom_site_label
_atom_site_fract_x
_atom_site_fract_y
_atom_site_fract_z
Si Si1 0.675429 0.122837 0.176131
Si Si2 0.598390 0.328725 0.722135
Si Si3 0.664050 0.609405 0.187978
Si Si4 0.786250 0.257504 0.218324
Si Si5 0.300383 0.921172 0.183028
Si Si6 0.065800 0.422389 0.581246
Si Si7 0.048344 0.924964 0.775209
O O1 0.500000 0.098924 0.500000
O O2 0.736695 0.192630 0.179611
O O3 0.663280 0.125221 0.010752
O O4 0.842720 0.070433 0.976435
O O5 0.442281 0.373255 0.832430
O O6 0.663557 0.268173 0.527502
O O7 0.780158 0.374899 0.534622
O O8 0.500000 0.303440 0.000000
O O9 0.500000 0.577140 0.500000
O O10 0.724142 0.679008 0.195079
O O11 0.863741 0.573605 0.921494
O O12 0.000000 0.260857 0.000000
O O13 0.166803 0.891990 0.487931
O O14 0.234979 0.000000 0.233759
O O15 0.500000 0.928438 0.000000
O O16 0.139982 0.500000 0.469003
O O17 0.000000 0.395649 0.500000
O O18 0.133345 0.000000 0.696160
O O19 0.000000 0.892108 0.000000
#
# Coordination Sequence:
#
# PCOD9153178 Si02
#       7
#     4   4   4   4   4   4   4
#     4  12  24  40  62  96 135 170 225 285 336 402
#     4  11  22  42  71  96 133 183 232 277 351 415
#     4  10  22  42  66  96 135 179 227 279 344 412
#     4  11  24  46  68  89 128 176 227 290 339 405
#     4  10  22  42  69  98 135 179 222 276 347 420
#     4  11  23  40  67 107 144 175 226 288 341 412
#     4  10  21  40  65  95 132 174 218 273 343 405
#
# _framework density 22.611830000000001
#
# number of rings (size 3 to 8) (size 9 to 14) (size 15 to 20)
#    0.000    1.286    2.857    3.429    0.000    4.571 
#    0.000   17.857    0.000    0.000    0.000    0.000 
#    0.000    0.000    0.000    0.000    0.000    0.000 
#
# Total GULP energy -156072.796647 kJ/mol
# GULP energy per Si atom -5574.028452 kJ/mol
# Density = 2.256036 g / cm^3
# Si number density = 22.611830 Si / 1000 Ang^3
#
#
#
# Elastic Constant Matrix: (Units=GPa)
#
#
# Indices 1 2 3 4 5 6 
#
# 1 144.6761 44.2323 66.3498 0.0000 11.4352 0.0000
# 2 44.2323 85.7577 35.2161 0.0000 11.0100 0.0000
# 3 66.3498 35.2161 184.2789 0.0000 14.8367 0.0000
# 4 0.0000 0.0000 0.0000 17.7504 0.0000 8.8380
# 5 11.4352 11.0100 14.8367 0.0000 55.0144 0.0000
# 6 0.0000 0.0000 0.0000 8.8380 0.0000 -91.1078
#
#
#
# Elastic Compliance Matrix: (Units=1/GPa)
#
#
# Indices 1 2 3 4 5 6 
#
# 1 0.009256 -0.003644 -0.002596 0.000000 -0.000494 0.000000
# 2 -0.003644 0.014291 -0.001277 0.000000 -0.001758 0.000000
# 3 -0.002596 -0.001277 0.006687 0.000000 -0.001008 0.000000
# 4 0.000000 0.000000 0.000000 0.053741 0.000000 0.005213
# 5 -0.000494 -0.001758 -0.001008 0.000000 0.018903 0.000000
# 6 0.000000 0.000000 0.000000 0.005213 0.000000 -0.010470
#
#
# Mechanical properties :
#
#
# Convention : Reuss Voigt Hill
#
# Bulk Modulus (GPa) = 65.80157 78.47880 72.14019
# Shear Modulus (GPa) = 44.44069 14.25903 29.34986
#
# Velocity S-wave (km/s) = 4.43806 2.51390 3.60667
# Velocity P-wave (km/s) = 7.44483 6.57332 7.02261
#
# Compressibility (1/GPa) = 0.01519721
#
# Stress axis : x y z
#
# Youngs Moduli (GPa) = 108.03789 69.97558 149.55217
#
# Poissons Ratio (x) = 0.25502 0.38829
# Poissons Ratio (y) = 0.39374 0.19102
# Poissons Ratio (z) = 0.28051 0.08938
#
# Static dielectric constant tensor:
#      x y z
#    x 1.766020 0.000000 -0.092260 
#    y 0.000000 1.862190 0.000000 
#    z -0.092260 0.000000 1.754710 
# 
# From -- ./inp_files/30401.got.cif
#   From: 2010.05.17/outbox.cif.g08.bks.cpg/sg10_16_cif.got.tgz:30401.got - 2010.06.03 11:33:40.
