data_PCOD9153701
_publ_section_title
;
Structure prediction by ZEFSAII (Michael W. Deem and Ramdas Pophale) SiO2 
 PCOD9153701
Probable space group: P 2/M
;
_chemical_formula_sum "Si O2"
_cell_formula_units_Z 24
_cell_length_a 21.379011
_cell_length_b 10.378903
_cell_length_c 29.517792
_cell_angle_alpha 90.000000
_cell_angle_beta 11.544639
_cell_angle_gamma 90.000000
_cell_volume 1310.804776
_symmetry_space_group_name_H-M "P 2/M"
_symmetry_group_IT_number 10
_symmetry_cell_setting 'monoclinic'
loop_
_space_group_symop_operation_xyz
x,y,z
-x,y,-z
-x,-y,-z
x,-y,z
loop_
_atom_site_type_symbol
_atom_site_label
_atom_site_fract_x
_atom_site_fract_y
_atom_site_fract_z
Si Si1 0.138747 0.246067 0.582150
Si Si2 0.684283 0.000000 0.752205
Si Si3 0.199981 0.350870 0.903873
Si Si4 0.291730 0.500000 0.259433
Si Si5 0.255416 0.746354 0.046778
Si Si6 0.136417 0.500000 0.267762
Si Si7 0.858400 0.000000 0.732191
Si Si8 0.868913 0.655432 0.234414
O O1 0.508177 0.260148 0.313880
O O2 0.000138 0.243285 0.731385
O O3 0.003834 0.373629 0.654744
O O4 0.018571 0.124201 0.639833
O O5 0.000000 0.000000 0.500000
O O6 0.828284 0.000000 0.700135
O O7 0.468701 0.125573 0.896590
O O8 0.306946 0.500000 0.834827
O O9 0.000000 0.350393 0.000000
O O10 0.007359 0.316326 0.086023
O O11 0.120829 0.500000 0.332472
O O12 0.000000 0.500000 0.500000
O O13 0.515143 0.624728 0.106639
O O14 0.074387 0.721939 0.127951
O O15 0.500000 0.500000 0.000000
O O16 0.500000 0.000000 0.000000
O O17 0.500000 0.689035 0.500000
O O18 0.890865 0.500000 0.225552
#
# Coordination Sequence:
#
# PCOD9153701 Si02
#       8
#     4   2   4   2   4   2   2   4
#     4  12  23  39  66  91 124 166 214 258 312 373
#     4  12  28  44  63  90 129 176 213 256 309 380
#     4  10  22  40  65  98 128 162 208 263 319 377
#     4  12  26  36  59  90 127 160 209 268 309 370
#     4  12  23  42  62  92 125 168 210 257 319 371
#     4  12  22  38  59  92 121 162 211 262 309 366
#     4  12  24  46  63  88 129 176 213 252 311 370
#     4  10  22  40  65  95 132 164 203 262 325 376
#
# _framework density 18.309360999999999
#
# number of rings (size 3 to 8) (size 9 to 14) (size 15 to 20)
#    0.000    0.667    5.000    3.000    4.667    1.333 
#    0.000    0.833    0.000    0.000    0.000    0.000 
#    0.000    0.000    0.000    0.000    0.000    0.000 
#
# Total GULP energy -134044.305587 kJ/mol
# GULP energy per Si atom -5585.179399 kJ/mol
# Density = 1.826769 g / cm^3
# Si number density = 18.309361 Si / 1000 Ang^3
#
#
#
# Elastic Constant Matrix: (Units=GPa)
#
#
# Indices 1 2 3 4 5 6 
#
# 1 186.8194 51.0890 75.3305 0.0000 22.2662 0.0000
# 2 51.0890 134.7152 59.6856 0.0000 -5.5254 0.0000
# 3 75.3305 59.6856 145.2536 0.0000 24.4487 0.0000
# 4 0.0000 0.0000 0.0000 28.2306 0.0000 -11.3343
# 5 22.2662 -5.5254 24.4487 0.0000 39.8550 0.0000
# 6 0.0000 0.0000 0.0000 -11.3343 0.0000 27.3586
#
#
#
# Elastic Compliance Matrix: (Units=1/GPa)
#
#
# Indices 1 2 3 4 5 6 
#
# 1 0.007170 -0.001686 -0.002579 0.000000 -0.002658 0.000000
# 2 -0.001686 0.010067 -0.004077 0.000000 0.004838 0.000000
# 3 -0.002579 -0.004077 0.010872 0.000000 -0.005794 0.000000
# 4 0.000000 0.000000 0.000000 0.042490 0.000000 0.017603
# 5 -0.002658 0.004838 -0.005794 0.000000 0.030801 0.000000
# 6 0.000000 0.000000 0.000000 0.017603 0.000000 0.043844
#
#
# Mechanical properties :
#
#
# Convention : Reuss Voigt Hill
#
# Bulk Modulus (GPa) = 87.50919 93.22203 90.36561
# Shear Modulus (GPa) = 30.16849 37.80106 33.98478
#
# Velocity S-wave (km/s) = 4.06360 4.54869 4.31297
# Velocity P-wave (km/s) = 8.36156 8.86639 8.61767
#
# Compressibility (1/GPa) = 0.01142737
#
# Stress axis : x y z
#
# Youngs Moduli (GPa) = 139.46438 99.33442 91.97826
#
# Poissons Ratio (x) = 0.16746 0.23717
# Poissons Ratio (y) = 0.23511 0.37496
# Poissons Ratio (z) = 0.35961 0.40495
#
# Static dielectric constant tensor:
#      x y z
#    x 1.612360 0.000000 0.051470 
#    y 0.000000 1.601660 0.000000 
#    z 0.051470 0.000000 1.682490 
# 
# From -- ./inp_files/95705.got.cif
#   From: 2010.05.17/outbox.cif.g08.bks.cpg/sg10_48_cif.got.tgz:95705.got - 2010.06.03 11:33:40.
