data_PCOD9153505
_publ_section_title
;
Structure prediction by ZEFSAII (Michael W. Deem and Ramdas Pophale) SiO2 
 PCOD9153505
Probable space group: P 2/M
;
_chemical_formula_sum "Si O2"
_cell_formula_units_Z 24
_cell_length_a 11.560046
_cell_length_b 14.229038
_cell_length_c 13.240000
_cell_angle_alpha 90.000000
_cell_angle_beta 146.898243
_cell_angle_gamma 90.000000
_cell_volume 1189.370744
_symmetry_space_group_name_H-M "P 2/M"
_symmetry_group_IT_number 10
_symmetry_cell_setting 'monoclinic'
loop_
_space_group_symop_operation_xyz
x,y,z
-x,y,-z
-x,-y,-z
x,-y,z
loop_
_atom_site_type_symbol
_atom_site_label
_atom_site_fract_x
_atom_site_fract_y
_atom_site_fract_z
Si Si1 0.773945 0.111562 0.877446
Si Si2 0.347705 0.796988 0.567752
Si Si3 0.276144 0.389007 0.800811
Si Si4 0.811303 0.609413 0.502436
Si Si5 0.100667 0.112056 0.803922
Si Si6 0.747130 0.892960 0.294134
O O1 0.791705 0.127014 0.010362
O O2 0.754225 0.000000 0.843566
O O3 0.565075 0.162051 0.684288
O O4 0.000000 0.143295 0.000000
O O5 0.331318 0.685163 0.546080
O O6 0.132372 0.842718 0.367806
O O7 0.339005 0.827250 0.680533
O O8 0.277908 0.500000 0.828985
O O9 0.248386 0.385451 0.659931
O O10 0.055371 0.354753 0.686904
O O11 0.500000 0.348846 0.000000
O O12 0.795854 0.500000 0.521225
O O13 0.250024 0.141197 0.819357
O O14 0.069516 0.000000 0.767166
O O15 0.000000 0.898579 0.500000
O O16 0.659643 0.000000 0.238642
#
# Coordination Sequence:
#
# PCOD9153505 Si02
#       6
#     4   4   4   4   4   4
#     4  10  22  39  57  80 105 133 180 233 276 322
#     4  11  20  32  54  77 111 147 177 216 268 321
#     4   8  15  29  46  65  97 141 180 215 257 302
#     4   9  19  31  46  74 109 145 184 222 256 308
#     4   9  19  34  53  79 109 137 172 214 266 330
#     4   8  15  28  47  73 106 137 168 202 251 322
#
# _framework density 20.178737999999999
#
# number of rings (size 3 to 8) (size 9 to 14) (size 15 to 20)
#    0.000    2.833    0.000    3.500    7.000    2.667 
#    0.000    5.000    0.000    0.500    0.000    1.167 
#    0.000    0.000    0.000    0.000    0.000    0.000 
#
# Total GULP energy -133924.667406 kJ/mol
# GULP energy per Si atom -5580.194475 kJ/mol
# Density = 2.013281 g / cm^3
# Si number density = 20.178738 Si / 1000 Ang^3
#
#
#
# Elastic Constant Matrix: (Units=GPa)
#
#
# Indices 1 2 3 4 5 6 
#
# 1 12.3112 10.9392 19.6241 0.0000 13.9254 0.0000
# 2 10.9392 84.3433 48.0106 0.0000 16.5023 0.0000
# 3 19.6241 48.0106 107.6630 0.0000 36.0731 0.0000
# 4 0.0000 0.0000 0.0000 15.1881 0.0000 9.6134
# 5 13.9254 16.5023 36.0731 0.0000 27.7689 0.0000
# 6 0.0000 0.0000 0.0000 9.6134 0.0000 12.2817
#
#
#
# Elastic Compliance Matrix: (Units=1/GPa)
#
#
# Indices 1 2 3 4 5 6 
#
# 1 0.191346 -0.006061 -0.002180 0.000000 -0.089521 0.000000
# 2 -0.006061 0.016085 -0.006877 0.000000 0.002414 0.000000
# 3 -0.002180 -0.006877 0.019507 0.000000 -0.020161 0.000000
# 4 0.000000 0.000000 0.000000 0.130491 0.000000 -0.102141
# 5 -0.089521 0.002414 -0.020161 0.000000 0.105659 0.000000
# 6 0.000000 0.000000 0.000000 -0.102141 0.000000 0.161372
#
#
# Mechanical properties :
#
#
# Convention : Reuss Voigt Hill
#
# Bulk Modulus (GPa) = 5.08382 40.16284 22.62333
# Shear Modulus (GPa) = 6.94191 19.43065 13.18628
#
# Velocity S-wave (km/s) = 1.85679 3.10647 2.55909
# Velocity P-wave (km/s) = 2.66866 5.72832 4.46852
#
# Compressibility (1/GPa) = 0.19670249
#
# Stress axis : x y z
#
# Youngs Moduli (GPa) = 5.22613 62.17160 51.26317
#
# Poissons Ratio (x) = 0.37683 0.11175
# Poissons Ratio (y) = 0.03168 0.35252
# Poissons Ratio (z) = 0.01139 0.42754
#
# Static dielectric constant tensor:
#      x y z
#    x 1.768390 0.000000 0.017770 
#    y 0.000000 1.732180 0.000000 
#    z 0.017770 0.000000 1.773260 
# 
# From -- ./inp_files/65159.got.cif
#   From: 2010.05.17/outbox.cif.g08.bks.cpg/sg10_33_cif.got.tgz:65159.got - 2010.06.03 11:33:40.
