data_PCOD9153562
_publ_section_title
;
Structure prediction by ZEFSAII (Michael W. Deem and Ramdas Pophale) SiO2 
 PCOD9153562
Probable space group: P 2/M
;
_chemical_formula_sum "Si O2"
_cell_formula_units_Z 20
_cell_length_a 10.293984
_cell_length_b 12.113517
_cell_length_c 9.501695
_cell_angle_alpha 90.000000
_cell_angle_beta 131.785517
_cell_angle_gamma 90.000000
_cell_volume 883.459454
_symmetry_space_group_name_H-M "P 2/M"
_symmetry_group_IT_number 10
_symmetry_cell_setting 'monoclinic'
loop_
_space_group_symop_operation_xyz
x,y,z
-x,y,-z
-x,-y,-z
x,-y,z
loop_
_atom_site_type_symbol
_atom_site_label
_atom_site_fract_x
_atom_site_fract_y
_atom_site_fract_z
Si Si1 0.879768 0.125978 0.277065
Si Si2 0.050142 0.500000 0.209311
Si Si3 0.705939 0.295970 0.614223
Si Si4 0.392599 0.874915 0.690215
Si Si5 0.658612 0.500000 0.999265
Si Si6 0.265407 0.740732 0.056834
O O1 0.693644 0.131172 0.219745
O O2 0.000000 0.144461 0.500000
O O3 0.912220 0.000000 0.249471
O O4 0.878358 0.219444 0.157862
O O5 0.175041 0.398808 0.336944
O O6 0.128415 0.500000 0.828846
O O7 0.000000 0.500000 0.000000
O O8 0.500000 0.322974 0.500000
O O9 0.698602 0.204829 0.488284
O O10 0.788123 0.257975 0.820686
O O11 0.587329 0.833414 0.843927
O O12 0.380470 0.000000 0.630835
O O13 0.649739 0.619985 0.915386
O O14 0.500000 0.500000 0.000000
#
# Coordination Sequence:
#
# PCOD9153562 Si02
#       6
#     4   2   4   4   2   4
#     4  10  22  39  61  91 133 179 225 283 344 407
#     4  12  23  44  71  99 139 188 232 278 353 415
#     4  10  23  41  70 102 137 180 232 286 343 413
#     4  10  22  40  65  98 134 178 232 283 342 409
#     4  12  26  42  69 105 136 178 237 288 338 423
#     4  11  22  42  67  93 137 176 229 278 348 406
#
# _framework density 22.638276999999999
#
# number of rings (size 3 to 8) (size 9 to 14) (size 15 to 20)
#    0.000    1.400    2.000    2.700    2.800    8.400 
#    0.000    1.500    0.000    4.200    0.000    0.000 
#    0.000    0.000    0.000    0.000    0.000    0.000 
#
# Total GULP energy -111589.504236 kJ/mol
# GULP energy per Si atom -5579.475212 kJ/mol
# Density = 2.258675 g / cm^3
# Si number density = 22.638277 Si / 1000 Ang^3
#
#
#
# Elastic Constant Matrix: (Units=GPa)
#
#
# Indices 1 2 3 4 5 6 
#
# 1 91.6814 46.5636 27.2395 0.0000 9.5937 0.0000
# 2 46.5636 149.1695 84.5843 0.0000 -11.7995 0.0000
# 3 27.2395 84.5843 121.9762 0.0000 -14.8965 0.0000
# 4 0.0000 0.0000 0.0000 28.5519 0.0000 13.2404
# 5 9.5937 -11.7995 -14.8965 0.0000 31.0239 0.0000
# 6 0.0000 0.0000 0.0000 13.2404 0.0000 23.1012
#
#
#
# Elastic Compliance Matrix: (Units=1/GPa)
#
#
# Indices 1 2 3 4 5 6 
#
# 1 0.014082 -0.004410 -0.000874 0.000000 -0.006452 0.000000
# 2 -0.004410 0.012438 -0.007326 0.000000 0.002577 0.000000
# 3 -0.000874 -0.007326 0.013987 0.000000 0.004200 0.000000
# 4 0.000000 0.000000 0.000000 0.047703 0.000000 -0.027341
# 5 -0.006452 0.002577 0.004200 0.000000 0.037225 0.000000
# 6 0.000000 0.000000 0.000000 -0.027341 0.000000 0.058958
#
#
# Mechanical properties :
#
#
# Convention : Reuss Voigt Hill
#
# Bulk Modulus (GPa) = 65.41881 75.51131 70.46506
# Shear Modulus (GPa) = 23.28732 30.16472 26.72602
#
# Velocity S-wave (km/s) = 3.21077 3.65426 3.43967
# Velocity P-wave (km/s) = 6.53495 7.15771 6.85341
#
# Compressibility (1/GPa) = 0.01528612
#
# Stress axis : x y z
#
# Youngs Moduli (GPa) = 71.01152 80.39737 71.49752
#
# Poissons Ratio (x) = 0.35458 0.06252
# Poissons Ratio (y) = 0.31318 0.52377
# Poissons Ratio (z) = 0.06210 0.58896
#
# Static dielectric constant tensor:
#      x y z
#    x 1.893770 0.000000 0.074560 
#    y 0.000000 1.845210 0.000000 
#    z 0.074560 0.000000 1.908150 
# 
# From -- ./inp_files/24250.got.cif
#   From: 2010.05.17/outbox.cif.g08.bks.cpg/sg10_13_cif.got.tgz:24250.got - 2010.06.03 11:33:40.
