data_PCOD9153636
_publ_section_title
;
Structure prediction by ZEFSAII (Michael W. Deem and Ramdas Pophale) SiO2 
 PCOD9153636
Probable space group: P 2/M
;
_chemical_formula_sum "Si O2"
_cell_formula_units_Z 28
_cell_length_a 18.822418
_cell_length_b 13.859806
_cell_length_c 9.009464
_cell_angle_alpha 90.000000
_cell_angle_beta 43.022449
_cell_angle_gamma 90.000000
_cell_volume 1603.604451
_symmetry_space_group_name_H-M "P 2/M"
_symmetry_group_IT_number 10
_symmetry_cell_setting 'monoclinic'
loop_
_space_group_symop_operation_xyz
x,y,z
-x,y,-z
-x,-y,-z
x,-y,z
loop_
_atom_site_type_symbol
_atom_site_label
_atom_site_fract_x
_atom_site_fract_y
_atom_site_fract_z
Si Si1 0.487288 0.388328 0.695384
Si Si2 0.105151 0.615001 0.258093
Si Si3 0.702405 0.294414 0.859209
Si Si4 0.164059 0.886867 0.333226
Si Si5 0.706513 0.386221 0.528997
Si Si6 0.897554 0.296645 0.063603
Si Si7 0.946615 0.112728 0.817817
O O1 0.500000 0.375150 0.500000
O O2 0.451720 0.500000 0.774735
O O3 0.598229 0.377548 0.605847
O O4 0.403446 0.315648 0.891355
O O5 0.108725 0.500000 0.259700
O O6 0.204242 0.656751 0.191065
O O7 0.000000 0.649069 0.500000
O O8 0.103267 0.648272 0.091696
O O9 0.739886 0.184032 0.786972
O O10 0.694155 0.345016 0.712603
O O11 0.119807 0.874708 0.232759
O O12 0.066181 0.863432 0.590448
O O13 0.188414 0.000000 0.314819
O O14 0.734158 0.500000 0.491694
O O15 0.796530 0.327221 0.308893
O O16 0.905330 0.184351 0.005839
O O17 0.000000 0.322416 0.000000
O O18 0.941920 0.000000 0.865510
#
# Coordination Sequence:
#
# PCOD9153636 Si02
#       7
#     4   4   4   4   4   4   4
#     4  10  22  40  61  85 112 149 196 240 282 335
#     4  11  22  34  51  78 112 150 190 230 280 342
#     4  12  21  37  63  83 110 150 196 238 286 346
#     4   9  18  34  60  88 113 145 189 242 291 340
#     4  11  24  39  56  84 120 155 193 237 284 337
#     4  12  23  35  54  82 119 155 189 234 289 342
#     4   9  18  35  57  83 115 150 192 238 286 341
#
# _framework density 17.460664999999999
#
# number of rings (size 3 to 8) (size 9 to 14) (size 15 to 20)
#    0.000    1.429    1.429    6.429    0.000    4.857 
#    0.000    0.714    0.000    3.000    0.000    0.000 
#    0.000    0.000    0.000    0.000    0.000    0.000 
#
# Total GULP energy -156489.421770 kJ/mol
# GULP energy per Si atom -5588.907920 kJ/mol
# Density = 1.742092 g / cm^3
# Si number density = 17.460665 Si / 1000 Ang^3
#
#
#
# Elastic Constant Matrix: (Units=GPa)
#
#
# Indices 1 2 3 4 5 6 
#
# 1 100.3395 35.7860 36.7686 0.0000 6.4442 0.0000
# 2 35.7860 111.2770 57.6450 0.0000 -8.9241 0.0000
# 3 36.7686 57.6450 105.9752 0.0000 -3.2545 0.0000
# 4 0.0000 0.0000 0.0000 93.7612 0.0000 73.0159
# 5 6.4442 -8.9241 -3.2545 0.0000 26.0197 0.0000
# 6 0.0000 0.0000 0.0000 73.0159 0.0000 106.9660
#
#
#
# Elastic Compliance Matrix: (Units=1/GPa)
#
#
# Indices 1 2 3 4 5 6 
#
# 1 0.012305 -0.002822 -0.002869 0.000000 -0.004374 0.000000
# 2 -0.002822 0.013476 -0.006212 0.000000 0.004544 0.000000
# 3 -0.002869 -0.006212 0.013820 0.000000 0.000308 0.000000
# 4 0.000000 0.000000 0.000000 0.022769 0.000000 -0.015542
# 5 -0.004374 0.004544 0.000308 0.000000 0.041113 0.000000
# 6 0.000000 0.000000 0.000000 -0.015542 0.000000 0.019958
#
#
# Mechanical properties :
#
#
# Convention : Reuss Voigt Hill
#
# Bulk Modulus (GPa) = 63.30578 64.22122 63.76350
# Shear Modulus (GPa) = 32.78465 57.84218 45.31341
#
# Velocity S-wave (km/s) = 4.33786 5.76186 5.09981
# Velocity P-wave (km/s) = 7.83737 9.00698 8.44246
#
# Compressibility (1/GPa) = 0.01579635
#
# Stress axis : x y z
#
# Youngs Moduli (GPa) = 81.26995 74.20354 72.35986
#
# Poissons Ratio (x) = 0.20940 0.20757
# Poissons Ratio (y) = 0.22934 0.44949
# Poissons Ratio (z) = 0.23312 0.46094
#
# Static dielectric constant tensor:
#      x y z
#    x 1.574490 0.000000 0.009590 
#    y 0.000000 1.611230 0.000000 
#    z 0.009590 0.000000 1.575130 
# 
# From -- ./inp_files/24936.got.cif
#   From: 2010.05.17/outbox.cif.g08.bks.cpg/sg10_13_cif.got.tgz:24936.got - 2010.06.03 11:33:40.
