data_PCOD9153663
_publ_section_title
;
Structure prediction by ZEFSAII (Michael W. Deem and Ramdas Pophale) SiO2 
 PCOD9153663
Probable space group: P 2/M
;
_chemical_formula_sum "Si O2"
_cell_formula_units_Z 20
_cell_length_a 9.595605
_cell_length_b 23.356010
_cell_length_c 8.884649
_cell_angle_alpha 90.000000
_cell_angle_beta 149.296133
_cell_angle_gamma 90.000000
_cell_volume 1016.700198
_symmetry_space_group_name_H-M "P 2/M"
_symmetry_group_IT_number 10
_symmetry_cell_setting 'monoclinic'
loop_
_space_group_symop_operation_xyz
x,y,z
-x,y,-z
-x,-y,-z
x,-y,z
loop_
_atom_site_type_symbol
_atom_site_label
_atom_site_fract_x
_atom_site_fract_y
_atom_site_fract_z
Si Si1 0.532735 0.177541 0.850414
Si Si2 0.787172 0.640957 0.683105
Si Si3 0.932702 0.232337 0.764950
Si Si4 0.287301 0.433702 0.681333
Si Si5 0.274236 0.063061 0.662870
O O1 0.357165 0.218085 0.578760
O O2 0.408156 0.114749 0.694085
O O3 0.500000 0.184426 0.000000
O O4 0.844865 0.194616 0.115499
O O5 0.500000 0.654931 0.500000
O O6 0.939141 0.698700 0.767431
O O7 0.726543 0.601105 0.485186
O O8 0.000000 0.614001 0.000000
O O9 0.000000 0.217403 0.000000
O O10 0.362776 0.500000 0.719583
O O11 0.000000 0.433165 0.500000
O O12 0.500000 0.409373 0.000000
O O13 0.000000 0.079522 0.500000
O O14 0.227359 0.000000 0.547552
O O15 0.500000 0.055584 0.000000
#
# Coordination Sequence:
#
# PCOD9153663 Si02
#       5
#     4   4   4   4   4
#     4  11  21  36  59  86 110 144 197 241 281 343
#     4  11  23  40  60  84 114 155 203 238 278 345
#     4  11  23  39  55  79 118 156 187 233 296 343
#     4  10  22  40  62  91 124 154 187 237 300 348
#     4   9  17  31  53  83 115 144 183 240 294 338
#
# _framework density 19.671482999999998
#
# number of rings (size 3 to 8) (size 9 to 14) (size 15 to 20)
#    0.000    1.600    0.000    7.200    0.000    3.200 
#    0.000    0.000    0.000    3.600    0.000    0.000 
#    0.000    0.000    0.000    0.000    0.000    0.000 
#
# Total GULP energy -111406.693497 kJ/mol
# GULP energy per Si atom -5570.334675 kJ/mol
# Density = 1.962671 g / cm^3
# Si number density = 19.671483 Si / 1000 Ang^3
#
#
#
# Elastic Constant Matrix: (Units=GPa)
#
#
# Indices 1 2 3 4 5 6 
#
# 1 59.3068 45.1182 6.9164 0.0000 -4.4535 0.0000
# 2 45.1182 80.0643 8.3745 0.0000 -13.2103 0.0000
# 3 6.9164 8.3745 109.2379 0.0000 -7.0335 0.0000
# 4 0.0000 0.0000 0.0000 32.4258 0.0000 3.2612
# 5 -4.4535 -13.2103 -7.0335 0.0000 46.7628 0.0000
# 6 0.0000 0.0000 0.0000 3.2612 0.0000 35.8225
#
#
#
# Elastic Compliance Matrix: (Units=1/GPa)
#
#
# Indices 1 2 3 4 5 6 
#
# 1 0.029745 -0.017032 -0.000712 0.000000 -0.002086 0.000000
# 2 -0.017032 0.022918 -0.000370 0.000000 0.004797 0.000000
# 3 -0.000712 -0.000370 0.009307 0.000000 0.001228 0.000000
# 4 0.000000 0.000000 0.000000 0.031125 0.000000 -0.002833
# 5 -0.002086 0.004797 0.001228 0.000000 0.022725 0.000000
# 6 0.000000 0.000000 0.000000 -0.002833 0.000000 0.028173
#
#
# Mechanical properties :
#
#
# Convention : Reuss Voigt Hill
#
# Bulk Modulus (GPa) = 38.84567 41.04746 39.94657
# Shear Modulus (GPa) = 26.48303 35.54890 31.01597
#
# Velocity S-wave (km/s) = 3.67313 4.25565 3.97507
# Velocity P-wave (km/s) = 6.14648 6.71261 6.43577
#
# Compressibility (1/GPa) = 0.02574290
#
# Stress axis : x y z
#
# Youngs Moduli (GPa) = 33.61935 43.63430 107.44840
#
# Poissons Ratio (x) = 0.74316 0.07649
# Poissons Ratio (y) = 0.57259 0.03973
# Poissons Ratio (z) = 0.02393 0.01613
#
# Static dielectric constant tensor:
#      x y z
#    x 1.654140 0.000000 -0.007480 
#    y 0.000000 1.776590 0.000000 
#    z -0.007480 0.000000 1.652560 
# 
# From -- ./inp_files/20790.got.cif
#   From: 2010.05.17/outbox.cif.g08.bks.cpg/sg10_11_cif.got.tgz:20790.got - 2010.06.03 11:33:40.
