data_PCOD9153852
_publ_section_title
;
Structure prediction by ZEFSAII (Michael W. Deem and Ramdas Pophale) SiO2 
 PCOD9153852
Probable space group: P 2/M
;
_chemical_formula_sum "Si O2"
_cell_formula_units_Z 24
_cell_length_a 21.319798
_cell_length_b 11.321490
_cell_length_c 14.523852
_cell_angle_alpha 90.000000
_cell_angle_beta 20.208958
_cell_angle_gamma 90.000000
_cell_volume 1211.008815
_symmetry_space_group_name_H-M "P 2/M"
_symmetry_group_IT_number 10
_symmetry_cell_setting 'monoclinic'
loop_
_space_group_symop_operation_xyz
x,y,z
-x,y,-z
-x,-y,-z
x,-y,z
loop_
_atom_site_type_symbol
_atom_site_label
_atom_site_fract_x
_atom_site_fract_y
_atom_site_fract_z
Si Si1 0.195112 0.500000 0.673688
Si Si2 0.152575 0.750355 0.520894
Si Si3 0.816288 0.137588 0.709609
Si Si4 0.587671 0.702445 0.525419
Si Si5 0.233347 0.642114 0.915725
Si Si6 0.707252 0.500000 0.680218
Si Si7 0.412748 0.859803 0.315801
O O1 0.308165 0.611604 0.552679
O O2 0.218215 0.500000 0.530277
O O3 0.000000 0.500000 0.000000
O O4 0.166571 0.847970 0.423022
O O5 0.222260 0.626335 0.382733
O O6 0.272642 0.792990 0.441598
O O7 0.947180 0.718401 0.827736
O O8 0.000000 0.191480 0.500000
O O9 0.812490 0.000000 0.742421
O O10 0.617733 0.183761 0.010861
O O11 0.377454 0.670246 0.797585
O O12 0.677673 0.682527 0.302612
O O13 0.613953 0.826241 0.540479
O O14 0.201979 0.500000 0.956121
O O15 0.500000 0.500000 0.000000
O O16 0.399101 0.000000 0.318915
#
# Coordination Sequence:
#
# PCOD9153852 Si02
#       7
#     2   4   4   4   4   2   4
#     4  12  22  38  69  96 123 172 223 262 320 393
#     4  12  23  39  62  91 127 162 207 258 317 375
#     4  10  22  43  66  87 119 166 214 257 311 379
#     4  11  22  40  66  91 125 164 214 259 317 377
#     4  11  22  41  62  95 127 165 207 263 318 386
#     4  12  24  37  56  97 136 159 198 269 334 376
#     4  11  24  41  63  92 124 164 213 261 310 374
#
# _framework density 19.818187999999999
#
# number of rings (size 3 to 8) (size 9 to 14) (size 15 to 20)
#    0.000    0.833    4.167    4.500    0.000    1.333 
#    0.000    5.417    0.000    0.000    0.000    0.000 
#    0.000    0.000    0.000    0.000    0.000    0.000 
#
# Total GULP energy -133799.489827 kJ/mol
# GULP energy per Si atom -5574.978743 kJ/mol
# Density = 1.977308 g / cm^3
# Si number density = 19.818188 Si / 1000 Ang^3
#
#
#
# Elastic Constant Matrix: (Units=GPa)
#
#
# Indices 1 2 3 4 5 6 
#
# 1 82.7290 7.1069 20.8364 0.0000 -13.8439 0.0000
# 2 7.1069 49.4747 19.8521 0.0000 -11.2073 0.0000
# 3 20.8364 19.8521 99.0369 0.0000 -21.9742 0.0000
# 4 0.0000 0.0000 0.0000 26.0090 0.0000 2.4914
# 5 -13.8439 -11.2073 -21.9742 0.0000 31.1361 0.0000
# 6 0.0000 0.0000 0.0000 2.4914 0.0000 31.7952
#
#
#
# Elastic Compliance Matrix: (Units=1/GPa)
#
#
# Indices 1 2 3 4 5 6 
#
# 1 0.013315 -0.000165 -0.001740 0.000000 0.004633 0.000000
# 2 -0.000165 0.022868 -0.003248 0.000000 0.005866 0.000000
# 3 -0.001740 -0.003248 0.012667 0.000000 0.006997 0.000000
# 4 0.000000 0.000000 0.000000 0.038739 0.000000 -0.003035
# 5 0.004633 0.005866 0.006997 0.000000 0.041226 0.000000
# 6 0.000000 0.000000 0.000000 -0.003035 0.000000 0.031689
#
#
# Mechanical properties :
#
#
# Convention : Reuss Voigt Hill
#
# Bulk Modulus (GPa) = 25.94436 36.31461 31.12949
# Shear Modulus (GPa) = 27.22438 30.01773 28.62106
#
# Velocity S-wave (km/s) = 3.71038 3.89608 3.80436
# Velocity P-wave (km/s) = 5.61030 6.21312 5.91939
#
# Compressibility (1/GPa) = 0.03854402
#
# Stress axis : x y z
#
# Youngs Moduli (GPa) = 75.10083 43.72921 78.94613
#
# Poissons Ratio (x) = 0.00721 0.13741
# Poissons Ratio (y) = 0.01239 0.25640
# Poissons Ratio (z) = 0.13071 0.14202
#
# Static dielectric constant tensor:
#      x y z
#    x 1.744740 0.000000 0.018870 
#    y 0.000000 1.727810 0.000000 
#    z 0.018870 0.000000 1.776530 
# 
# From -- ./inp_files/70542.got.cif
#   From: 2010.05.17/outbox.cif.g08.bks.cpg/sg10_36_cif.got.tgz:70542.got - 2010.06.03 11:33:40.
