data_PCOD9153994
_publ_section_title
;
Structure prediction by ZEFSAII (Michael W. Deem and Ramdas Pophale) SiO2 
 PCOD9153994
Probable space group: P 2/M
;
_chemical_formula_sum "Si O2"
_cell_formula_units_Z 30
_cell_length_a 5.464456
_cell_length_b 16.932535
_cell_length_c 15.477355
_cell_angle_alpha 90.000000
_cell_angle_beta 117.946650
_cell_angle_gamma 90.000000
_cell_volume 1265.072341
_symmetry_space_group_name_H-M "P 2/M"
_symmetry_group_IT_number 10
_symmetry_cell_setting 'monoclinic'
loop_
_space_group_symop_operation_xyz
x,y,z
-x,y,-z
-x,-y,-z
x,-y,z
loop_
_atom_site_type_symbol
_atom_site_label
_atom_site_fract_x
_atom_site_fract_y
_atom_site_fract_z
Si Si1 0.634989 0.803616 0.283790
Si Si2 0.167408 0.000000 0.941052
Si Si3 0.534330 0.092664 0.607697
Si Si4 0.086396 0.267213 0.108235
Si Si5 0.509598 0.406173 0.599945
Si Si6 0.133002 0.642714 0.700905
Si Si7 0.584712 0.407075 0.914446
Si Si8 0.920920 0.857586 0.195369
O O1 0.669340 0.845898 0.379720
O O2 0.353722 0.761012 0.207909
O O3 0.865688 0.737186 0.307759
O O4 0.663737 0.870114 0.216003
O O5 0.071744 0.922473 0.875281
O O6 0.500000 0.000000 0.000000
O O7 0.000000 0.000000 0.000000
O O8 0.500000 0.099473 0.500000
O O9 0.819491 0.123749 0.698274
O O10 0.495381 0.000000 0.623085
O O11 0.177750 0.355883 0.095719
O O12 0.868542 0.226844 0.137466
O O13 0.000000 0.233630 0.000000
O O14 0.500000 0.373168 0.500000
O O15 0.475208 0.500000 0.588848
O O16 0.282232 0.380885 0.633958
O O17 0.827095 0.386415 0.674328
O O18 0.323951 0.608957 0.809027
O O19 0.651746 0.500000 0.927416
O O20 0.500000 0.383028 0.000000
#
# Coordination Sequence:
#
# PCOD9153994 Si02
#       8
#     4   2   4   4   4   4   4   4
#     4  10  26  42  68  98 142 184 239 295 357 435
#     4  12  30  48  77 115 147 193 246 298 368 429
#     4  10  23  46  73 101 139 187 241 296 366 431
#     4  10  24  40  67  95 136 186 238 290 371 416
#     4  11  24  45  73 105 140 185 237 297 367 432
#     4  11  25  45  71 106 144 191 236 300 365 424
#     4  10  23  42  67 103 139 187 248 300 357 438
#     4  11  25  45  68 105 145 186 242 300 353 448
#
# _framework density 23.714058999999999
#
# number of rings (size 3 to 8) (size 9 to 14) (size 15 to 20)
#    0.000    1.467    0.667    2.000   15.867    2.400 
#    2.400    2.667    0.000    0.000    0.000    0.000 
#    0.000    0.000    0.000    0.000    0.000    0.000 
#
# Total GULP energy -167123.482104 kJ/mol
# GULP energy per Si atom -5570.782737 kJ/mol
# Density = 2.366008 g / cm^3
# Si number density = 23.714059 Si / 1000 Ang^3
#
#
#
# Elastic Constant Matrix: (Units=GPa)
#
#
# Indices 1 2 3 4 5 6 
#
# 1 54.1989 22.5298 24.2436 0.0000 -24.7582 0.0000
# 2 22.5298 115.7390 63.7601 0.0000 -35.1842 0.0000
# 3 24.2436 63.7601 125.3057 0.0000 -24.2685 0.0000
# 4 0.0000 0.0000 0.0000 68.1213 0.0000 -23.3808
# 5 -24.7582 -35.1842 -24.2685 0.0000 45.4200 0.0000
# 6 0.0000 0.0000 0.0000 -23.3808 0.0000 19.1562
#
#
#
# Elastic Compliance Matrix: (Units=1/GPa)
#
#
# Indices 1 2 3 4 5 6 
#
# 1 0.025248 0.000379 -0.002627 0.000000 0.012652 0.000000
# 2 0.000379 0.014192 -0.005717 0.000000 0.008145 0.000000
# 3 -0.002627 -0.005717 0.011447 0.000000 0.000256 0.000000
# 4 0.000000 0.000000 0.000000 0.025263 0.000000 0.030834
# 5 0.012652 0.008145 0.000256 0.000000 0.035360 0.000000
# 6 0.000000 0.000000 0.000000 0.030834 0.000000 0.089837
#
#
# Mechanical properties :
#
#
# Convention : Reuss Voigt Hill
#
# Bulk Modulus (GPa) = 28.60733 57.36785 42.98759
# Shear Modulus (GPa) = 21.84076 38.85350 30.34713
#
# Velocity S-wave (km/s) = 3.03810 4.05213 3.58119
# Velocity P-wave (km/s) = 4.93927 6.79242 5.93857
#
# Compressibility (1/GPa) = 0.03495608
#
# Stress axis : x y z
#
# Youngs Moduli (GPa) = 39.60746 70.46131 87.35597
#
# Poissons Ratio (x) = -0.02668 0.22950
# Poissons Ratio (y) = -0.01500 0.49943
# Poissons Ratio (z) = 0.10405 0.40284
#
# Static dielectric constant tensor:
#      x y z
#    x 2.040320 0.000000 -0.016080 
#    y 0.000000 0.515350 0.000000 
#    z -0.016080 0.000000 1.919180 
# 
# From -- ./inp_files/59444.got.cif
#   From: 2010.05.17/outbox.cif.g08.bks.cpg/sg10_30_cif.got.tgz:59444.got - 2010.06.03 11:33:40.
