data_PCOD9153840
_publ_section_title
;
Structure prediction by ZEFSAII (Michael W. Deem and Ramdas Pophale) SiO2 
 PCOD9153840
Probable space group: P 2/M
;
_chemical_formula_sum "Si O2"
_cell_formula_units_Z 20
_cell_length_a 8.982655
_cell_length_b 11.876545
_cell_length_c 8.505971
_cell_angle_alpha 90.000000
_cell_angle_beta 88.430508
_cell_angle_gamma 90.000000
_cell_volume 907.101272
_symmetry_space_group_name_H-M "P 2/M"
_symmetry_group_IT_number 10
_symmetry_cell_setting 'monoclinic'
loop_
_space_group_symop_operation_xyz
x,y,z
-x,y,-z
-x,-y,-z
x,-y,z
loop_
_atom_site_type_symbol
_atom_site_label
_atom_site_fract_x
_atom_site_fract_y
_atom_site_fract_z
Si Si1 0.285099 0.500000 0.122266
Si Si2 0.223954 0.718188 0.657771
Si Si3 0.727869 0.869777 0.647278
Si Si4 0.076874 0.284906 0.166943
Si Si5 0.572531 0.131237 0.157066
Si Si6 0.611904 0.500000 0.245441
O O1 0.435991 0.500000 0.219327
O O2 0.190468 0.388885 0.160862
O O3 0.320762 0.500000 0.934264
O O4 0.241582 0.786936 0.497450
O O5 0.054282 0.691415 0.704362
O O6 0.286659 0.799971 0.792079
O O7 0.327018 0.608667 0.665925
O O8 0.556864 0.861784 0.708344
O O9 0.833349 0.826153 0.784274
O O10 0.757786 0.000000 0.605937
O O11 0.000000 0.275866 0.000000
O O12 0.608772 0.000000 0.130801
O O13 0.500000 0.177936 0.000000
#
# Coordination Sequence:
#
# PCOD9153840 Si02
#       6
#     2   4   4   4   4   2
#     4  11  24  46  71 102 137 174 231 296 341 402
#     4  12  24  41  69 101 139 182 226 280 349 407
#     4  11  26  46  68 101 143 184 228 283 344 407
#     4  12  24  43  70 100 140 182 230 283 344 408
#     4  10  22  42  69  99 133 179 234 285 335 402
#     4  11  25  43  74 102 134 180 232 285 346 407
#
# _framework density 22.048255999999999
#
# number of rings (size 3 to 8) (size 9 to 14) (size 15 to 20)
#    0.000    0.800    2.000    5.100    2.800    5.200 
#    0.000    5.000    0.000    0.000    0.000    0.000 
#    0.000    0.000    0.000    0.000    0.000    0.000 
#
# Total GULP energy -112065.365502 kJ/mol
# GULP energy per Si atom -5603.268275 kJ/mol
# Density = 2.199807 g / cm^3
# Si number density = 22.048256 Si / 1000 Ang^3
#
#
#
# Elastic Constant Matrix: (Units=GPa)
#
#
# Indices 1 2 3 4 5 6 
#
# 1 124.9367 64.1053 29.8285 0.0000 0.4833 0.0000
# 2 64.1053 131.9572 50.6498 0.0000 5.8494 0.0000
# 3 29.8285 50.6498 74.9749 0.0000 -10.7671 0.0000
# 4 0.0000 0.0000 0.0000 24.6574 0.0000 24.8459
# 5 0.4833 5.8494 -10.7671 0.0000 22.2785 0.0000
# 6 0.0000 0.0000 0.0000 24.8459 0.0000 91.8744
#
#
#
# Elastic Compliance Matrix: (Units=1/GPa)
#
#
# Indices 1 2 3 4 5 6 
#
# 1 0.010726 -0.004909 -0.000858 0.000000 0.000642 0.000000
# 2 -0.004909 0.013429 -0.008177 0.000000 -0.007371 0.000000
# 3 -0.000858 -0.008177 0.020970 0.000000 0.012300 0.000000
# 4 0.000000 0.000000 0.000000 0.055747 0.000000 -0.015076
# 5 0.000642 -0.007371 0.012300 0.000000 0.052753 0.000000
# 6 0.000000 0.000000 0.000000 -0.015076 0.000000 0.014961
#
#
# Mechanical properties :
#
#
# Convention : Reuss Voigt Hill
#
# Bulk Modulus (GPa) = 58.02475 69.00399 63.51437
# Shear Modulus (GPa) = 24.72559 40.24776 32.48667
#
# Velocity S-wave (km/s) = 3.35241 4.27715 3.84270
# Velocity P-wave (km/s) = 6.43111 7.46705 6.96835
#
# Compressibility (1/GPa) = 0.01723403
#
# Stress axis : x y z
#
# Youngs Moduli (GPa) = 93.23516 74.46726 47.68743
#
# Poissons Ratio (x) = 0.36560 0.04093
# Poissons Ratio (y) = 0.45774 0.38995
# Poissons Ratio (z) = 0.08003 0.60894
#
# Static dielectric constant tensor:
#      x y z
#    x 1.785090 0.000000 -0.009890 
#    y 0.000000 1.768370 0.000000 
#    z -0.009890 0.000000 1.827580 
# 
# From -- ./inp_files/17878.got.cif
#   From: 2010.05.17/outbox.cif.g08.bks.cpg/sg10_9_cif.got.tgz:17878.got - 2010.06.03 11:33:40.
