data_PCOD9153569
_publ_section_title
;
Structure prediction by ZEFSAII (Michael W. Deem and Ramdas Pophale) SiO2 
 PCOD9153569
Probable space group: P 2/M
;
_chemical_formula_sum "Si O2"
_cell_formula_units_Z 26
_cell_length_a 9.848533
_cell_length_b 7.226382
_cell_length_c 27.454312
_cell_angle_alpha 90.000000
_cell_angle_beta 145.502317
_cell_angle_gamma 90.000000
_cell_volume 1106.637791
_symmetry_space_group_name_H-M "P 2/M"
_symmetry_group_IT_number 10
_symmetry_cell_setting 'monoclinic'
loop_
_space_group_symop_operation_xyz
x,y,z
-x,y,-z
-x,-y,-z
x,-y,z
loop_
_atom_site_type_symbol
_atom_site_label
_atom_site_fract_x
_atom_site_fract_y
_atom_site_fract_z
Si Si1 0.721472 0.774422 0.419276
Si Si2 0.801154 0.500000 0.170100
Si Si3 0.862828 0.220479 0.263775
Si Si4 0.075095 0.775153 0.075347
Si Si5 0.783759 0.781663 0.083575
Si Si6 0.427523 0.223705 0.730733
Si Si7 0.412290 0.775034 0.420685
O O1 0.602160 0.713462 0.333323
O O2 0.579210 0.714372 0.425434
O O3 0.000000 0.719962 0.500000
O O4 0.717861 0.000000 0.419166
O O5 0.708826 0.337387 0.180786
O O6 0.890563 0.661169 0.158100
O O7 0.794222 0.265323 0.299116
O O8 0.135412 0.279985 0.333039
O O9 0.835657 0.000000 0.249292
O O10 0.333281 0.714003 0.171321
O O11 0.886430 0.728844 0.061567
O O12 0.084472 0.000000 0.075684
O O13 0.000000 0.709912 0.000000
O O14 0.825514 0.000000 0.103685
O O15 0.500000 0.743209 0.000000
O O16 0.438855 0.000000 0.731447
O O17 0.500000 0.716595 0.500000
O O18 0.414221 0.000000 0.421364
#
# Coordination Sequence:
#
# PCOD9153569 Si02
#       7
#     4   2   4   4   4   4   4
#     4   9  16  27  50  85 124 160 204 262 315 369
#     4  12  25  40  62  95 128 162 209 267 309 386
#     4  10  22  39  62  89 125 169 211 258 318 375
#     4   9  19  36  61  91 121 159 208 256 312 376
#     4  10  23  43  68  92 123 163 208 261 319 377
#     4   9  18  33  56  86 120 162 209 257 313 375
#     4   9  17  31  56  90 125 164 214 261 310 379
#
# _framework density 23.494591
#
# number of rings (size 3 to 8) (size 9 to 14) (size 15 to 20)
#    0.000    2.462    0.000    1.615    4.308    3.692 
#    0.000    1.538    0.000    0.000    0.000    2.154 
#    0.000    0.000    0.000    0.000    0.000    0.462 
#
# Total GULP energy -144888.130981 kJ/mol
# GULP energy per Si atom -5572.620422 kJ/mol
# Density = 2.344112 g / cm^3
# Si number density = 23.494591 Si / 1000 Ang^3
#
#
#
# Elastic Constant Matrix: (Units=GPa)
#
#
# Indices 1 2 3 4 5 6 
#
# 1 233.9342 29.8780 86.6962 0.0000 -20.3862 0.0000
# 2 29.8780 115.4822 9.2629 0.0000 -4.3203 0.0000
# 3 86.6962 9.2629 112.6142 0.0000 -15.8369 0.0000
# 4 0.0000 0.0000 0.0000 -5.4458 0.0000 -17.9801
# 5 -20.3862 -4.3203 -15.8369 0.0000 44.8122 0.0000
# 6 0.0000 0.0000 0.0000 -17.9801 0.0000 -14.5139
#
#
#
# Elastic Compliance Matrix: (Units=1/GPa)
#
#
# Indices 1 2 3 4 5 6 
#
# 1 0.006199 -0.001200 -0.004518 0.000000 0.001108 0.000000
# 2 -0.001200 0.008965 0.000243 0.000000 0.000404 0.000000
# 3 -0.004518 0.000243 0.012682 0.000000 0.002450 0.000000
# 4 0.000000 0.000000 0.000000 0.059424 0.000000 -0.073615
# 5 0.001108 0.000404 0.002450 0.000000 0.023724 0.000000
# 6 0.000000 0.000000 0.000000 -0.073615 0.000000 0.022297
#
#
# Mechanical properties :
#
#
# Convention : Reuss Voigt Hill
#
# Bulk Modulus (GPa) = 59.17933 79.30053 69.23993
# Shear Modulus (GPa) = 33.36168 27.38341 30.37255
#
# Velocity S-wave (km/s) = 3.77234 3.41767 3.59938
# Velocity P-wave (km/s) = 6.64961 7.02851 6.84168
#
# Compressibility (1/GPa) = 0.01689779
#
# Stress axis : x y z
#
# Youngs Moduli (GPa) = 161.32335 111.53968 78.84978
#
# Poissons Ratio (x) = 0.13384 0.35621
# Poissons Ratio (y) = 0.19358 -0.01918
# Poissons Ratio (z) = 0.72880 -0.02713
#
# Static dielectric constant tensor:
#      x y z
#    x 1.835040 0.000000 -0.006270 
#    y 0.000000 1.917800 0.000000 
#    z -0.006270 0.000000 1.932780 
# 
# From -- ./inp_files/91882.got.cif
#   From: 2010.05.17/outbox.cif.g08.bks.cpg/sg10_46_cif.got.tgz:91882.got - 2010.06.03 11:33:40.
