data_PCOD9153665
_publ_section_title
;
Structure prediction by ZEFSAII (Michael W. Deem and Ramdas Pophale) SiO2 
 PCOD9153665
Probable space group: P 2/M
;
_chemical_formula_sum "Si O2"
_cell_formula_units_Z 28
_cell_length_a 10.171906
_cell_length_b 12.541998
_cell_length_c 16.234988
_cell_angle_alpha 90.000000
_cell_angle_beta 51.204466
_cell_angle_gamma 90.000000
_cell_volume 1614.262231
_symmetry_space_group_name_H-M "P 2/M"
_symmetry_group_IT_number 10
_symmetry_cell_setting 'monoclinic'
loop_
_space_group_symop_operation_xyz
x,y,z
-x,y,-z
-x,-y,-z
x,-y,z
loop_
_atom_site_type_symbol
_atom_site_label
_atom_site_fract_x
_atom_site_fract_y
_atom_site_fract_z
Si Si1 0.786444 0.193678 0.745762
Si Si2 0.415986 0.871963 0.334014
Si Si3 0.222034 0.806322 0.745762
Si Si4 0.165254 0.127930 0.584747
Si Si5 0.307202 0.626835 0.095443
Si Si6 0.303531 0.000000 0.097385
Si Si7 0.998301 0.000000 0.902615
Si Si8 0.998088 0.626835 0.904557
O O1 0.665040 0.176026 0.716184
O O2 0.758445 0.305619 0.801762
O O3 0.979515 0.175197 0.643330
O O4 0.744685 0.103031 0.829762
O O5 0.597408 0.823973 0.283815
O O6 0.290013 0.853054 0.459988
O O7 0.432649 0.000000 0.317352
O O8 0.233827 0.824802 0.643330
O O9 0.138031 0.694381 0.801762
O O10 0.095791 0.896969 0.829762
O O11 0.148411 0.000000 0.601590
O O12 0.303129 0.500000 0.112803
O O13 0.181861 0.648831 0.068139
O O14 0.500000 0.657355 0.000000
O O15 0.189176 0.000000 0.060824
O O16 0.500000 0.000000 0.000000
O O17 0.000000 0.000000 0.000000
O O18 0.028734 0.500000 0.887198
O O19 0.000000 0.657355 0.000000
#
# Coordination Sequence:
#
# PCOD9153665 Si02
#       8
#     4   4   4   4   4   2   2   4
#     4  12  21  39  58  87 120 152 192 241 297 343
#     4  11  24  36  61  90 117 157 200 242 284 352
#     4  12  21  39  58  87 120 152 192 241 297 343
#     4  11  20  40  61  84 119 155 200 242 292 352
#     4  10  22  40  63  88 116 155 198 239 288 350
#     4  12  24  36  55  83 118 152 185 235 295 354
#     4  12  24  36  55  83 118 152 185 235 295 354
#     4  10  22  40  63  88 116 155 198 239 288 350
#
# _framework density 17.345386000000001
#
# number of rings (size 3 to 8) (size 9 to 14) (size 15 to 20)
#    0.000    0.857    5.714    1.714    4.000    2.286 
#    0.000    0.000    0.000    5.143    0.000    0.000 
#    0.000    0.000    0.000    0.000    0.000    0.000 
#
# Total GULP energy -156526.435779 kJ/mol
# GULP energy per Si atom -5590.229849 kJ/mol
# Density = 1.730591 g / cm^3
# Si number density = 17.345386 Si / 1000 Ang^3
#
#
#
# Elastic Constant Matrix: (Units=GPa)
#
#
# Indices 1 2 3 4 5 6 
#
# 1 189.1281 42.0701 61.0962 0.0000 4.4859 0.0000
# 2 42.0701 50.1174 36.0599 0.0000 0.3750 0.0000
# 3 61.0962 36.0599 74.6460 0.0000 2.6455 0.0000
# 4 0.0000 0.0000 0.0000 24.9186 0.0000 -0.1516
# 5 4.4859 0.3750 2.6455 0.0000 28.1265 0.0000
# 6 0.0000 0.0000 0.0000 -0.1516 0.0000 22.4852
#
#
#
# Elastic Compliance Matrix: (Units=1/GPa)
#
#
# Indices 1 2 3 4 5 6 
#
# 1 0.007460 -0.002884 -0.004687 0.000000 -0.000710 0.000000
# 2 -0.002884 0.031726 -0.013010 0.000000 0.001261 0.000000
# 3 -0.004687 -0.013010 0.023564 0.000000 -0.001295 0.000000
# 4 0.000000 0.000000 0.000000 0.040132 0.000000 0.000271
# 5 -0.000710 0.001261 -0.001295 0.000000 0.035772 0.000000
# 6 0.000000 0.000000 0.000000 0.000271 0.000000 0.044475
#
#
# Mechanical properties :
#
#
# Convention : Reuss Voigt Hill
#
# Bulk Modulus (GPa) = 46.32568 65.81597 56.07083
# Shear Modulus (GPa) = 21.59941 26.75043 24.17492
#
# Velocity S-wave (km/s) = 3.53264 3.93137 3.73733
# Velocity P-wave (km/s) = 6.58826 7.65731 7.14281
#
# Compressibility (1/GPa) = 0.02158630
#
# Stress axis : x y z
#
# Youngs Moduli (GPa) = 134.04675 31.52034 42.43798
#
# Poissons Ratio (x) = 0.09091 0.19892
# Poissons Ratio (y) = 0.38663 0.55211
# Poissons Ratio (z) = 0.62833 0.41008
#
# Static dielectric constant tensor:
#      x y z
#    x 1.587270 0.000000 0.001520 
#    y 0.000000 1.578810 0.000000 
#    z 0.001520 0.000000 1.562830 
# 
# From -- ./inp_files/61175.got.cif
#   From: 2010.05.17/outbox.cif.g08.bks.cpg/sg10_31_cif.got.tgz:61175.got - 2010.06.03 11:33:40.
