data_PCOD9153036
_publ_section_title
;
Structure prediction by ZEFSAII (Michael W. Deem and Ramdas Pophale) SiO2 
 PCOD9153036
Probable space group: P 2/M
;
_chemical_formula_sum "Si O2"
_cell_formula_units_Z 28
_cell_length_a 15.322239
_cell_length_b 7.807614
_cell_length_c 11.358427
_cell_angle_alpha 90.000000
_cell_angle_beta 113.525089
_cell_angle_gamma 90.000000
_cell_volume 1245.873090
_symmetry_space_group_name_H-M "P 2/M"
_symmetry_group_IT_number 10
_symmetry_cell_setting 'monoclinic'
loop_
_space_group_symop_operation_xyz
x,y,z
-x,y,-z
-x,-y,-z
x,-y,z
loop_
_atom_site_type_symbol
_atom_site_label
_atom_site_fract_x
_atom_site_fract_y
_atom_site_fract_z
Si Si1 0.417161 0.798225 0.545826
Si Si2 0.958819 0.796740 0.852349
Si Si3 0.954009 0.209303 0.351646
Si Si4 0.751113 0.195753 0.164042
Si Si5 0.261501 0.706595 0.286277
Si Si6 0.563429 0.305149 0.183679
Si Si7 0.359681 0.698363 0.107270
O O1 0.500000 0.745288 0.500000
O O2 0.315090 0.766951 0.431799
O O3 0.428848 0.696921 0.671723
O O4 0.429034 0.000000 0.576871
O O5 0.845816 0.768356 0.786229
O O6 0.000757 0.732109 0.749264
O O7 0.979326 0.000000 0.863998
O O8 0.000000 0.728301 0.000000
O O9 0.842886 0.258385 0.283458
O O10 0.000000 0.268883 0.500000
O O11 0.961253 0.000000 0.357668
O O12 0.654911 0.206792 0.186748
O O13 0.770455 0.000000 0.141162
O O14 0.726381 0.290564 0.030244
O O15 0.261109 0.500000 0.282927
O O16 0.325411 0.774105 0.211666
O O17 0.571526 0.500000 0.141453
O O18 0.457595 0.230437 0.105127
O O19 0.382890 0.500000 0.140899
#
# Coordination Sequence:
#
# PCOD9153036 Si02
#       7
#     4   4   4   4   4   4   4
#     4  11  23  39  61  90 122 158 203 255 303 356
#     4  10  21  39  64  92 120 158 209 263 316 370
#     4   9  20  39  60  84 120 160 199 253 319 370
#     4  11  23  38  62  91 118 155 207 259 301 354
#     4  11  23  39  62  91 124 163 203 248 308 372
#     4  11  23  40  61  86 124 166 201 241 301 372
#     4  10  22  40  60  85 123 167 198 235 303 373
#
# _framework density 22.4742
#
# number of rings (size 3 to 8) (size 9 to 14) (size 15 to 20)
#    0.000    1.571    1.429    3.000    2.000    6.000 
#    0.000    1.429    0.000    2.143    0.000    0.000 
#    0.000    0.000    0.000    0.000    0.000    0.000 
#
# Total GULP energy -156450.118403 kJ/mol
# GULP energy per Si atom -5587.504229 kJ/mol
# Density = 2.242305 g / cm^3
# Si number density = 22.474200 Si / 1000 Ang^3
#
#
#
# Elastic Constant Matrix: (Units=GPa)
#
#
# Indices 1 2 3 4 5 6 
#
# 1 111.4332 3.6509 56.5711 0.0000 14.8937 0.0000
# 2 3.6509 29.6999 8.6102 0.0000 -7.5848 0.0000
# 3 56.5711 8.6102 177.9143 0.0000 20.3214 0.0000
# 4 0.0000 0.0000 0.0000 19.5468 0.0000 0.2831
# 5 14.8937 -7.5848 20.3214 0.0000 42.0707 0.0000
# 6 0.0000 0.0000 0.0000 0.2831 0.0000 24.8688
#
#
#
# Elastic Compliance Matrix: (Units=1/GPa)
#
#
# Indices 1 2 3 4 5 6 
#
# 1 0.010943 -0.001089 -0.003135 0.000000 -0.002556 0.000000
# 2 -0.001089 0.036556 -0.002349 0.000000 0.008111 0.000000
# 3 -0.003135 -0.002349 0.007041 0.000000 -0.002715 0.000000
# 4 0.000000 0.000000 0.000000 0.051168 0.000000 -0.000582
# 5 -0.002556 0.008111 -0.002715 0.000000 0.027448 0.000000
# 6 0.000000 0.000000 0.000000 -0.000582 0.000000 0.040218
#
#
# Mechanical properties :
#
#
# Convention : Reuss Voigt Hill
#
# Bulk Modulus (GPa) = 24.15807 50.74577 37.45192
# Shear Modulus (GPa) = 24.96026 33.97826 29.46926
#
# Velocity S-wave (km/s) = 3.33621 3.89251 3.62504
# Velocity P-wave (km/s) = 5.06093 6.54452 5.84994
#
# Compressibility (1/GPa) = 0.04139403
#
# Stress axis : x y z
#
# Youngs Moduli (GPa) = 91.38489 27.35494 142.02045
#
# Poissons Ratio (x) = 0.02979 0.44520
# Poissons Ratio (y) = 0.09953 0.33365
# Poissons Ratio (z) = 0.28647 0.06426
#
# Static dielectric constant tensor:
#      x y z
#    x 1.837420 0.000000 -0.020330 
#    y 0.000000 1.812960 0.000000 
#    z -0.020330 0.000000 1.824150 
# 
# From -- ./inp_files/50112.got.cif
#   From: 2010.05.17/outbox.cif.g08.bks.cpg/sg10_26_cif.got.tgz:50112.got - 2010.06.03 11:33:40.
