data_PCOD9153147
_publ_section_title
;
Structure prediction by ZEFSAII (Michael W. Deem and Ramdas Pophale) SiO2 
 PCOD9153147
Probable space group: P 2/M
;
_chemical_formula_sum "Si O2"
_cell_formula_units_Z 28
_cell_length_a 9.925514
_cell_length_b 9.270920
_cell_length_c 29.590492
_cell_angle_alpha 90.000000
_cell_angle_beta 33.109035
_cell_angle_gamma 90.000000
_cell_volume 1487.328152
_symmetry_space_group_name_H-M "P 2/M"
_symmetry_group_IT_number 10
_symmetry_cell_setting 'monoclinic'
loop_
_space_group_symop_operation_xyz
x,y,z
-x,y,-z
-x,-y,-z
x,-y,z
loop_
_atom_site_type_symbol
_atom_site_label
_atom_site_fract_x
_atom_site_fract_y
_atom_site_fract_z
Si Si1 0.967248 0.170205 0.617538
Si Si2 0.965828 0.828411 0.866032
Si Si3 0.936349 0.331073 0.318605
Si Si4 0.483495 0.829410 0.321006
Si Si5 0.178954 0.172506 0.991016
Si Si6 0.682606 0.670731 0.869213
Si Si7 0.380280 0.328761 0.442512
O O1 0.973288 0.233317 0.665940
O O2 0.172325 0.251724 0.530362
O O3 0.703940 0.191970 0.667617
O O4 0.020239 0.000000 0.602939
O O5 0.767051 0.743135 0.892282
O O6 0.238864 0.791561 0.771444
O O7 0.927512 0.000000 0.870147
O O8 0.942721 0.799550 0.925811
O O9 0.962711 0.500000 0.323543
O O10 0.649121 0.304228 0.389067
O O11 0.096906 0.305932 0.228668
O O12 0.393378 0.738061 0.388927
O O13 0.478648 0.000000 0.334234
O O14 0.436781 0.255951 0.919128
O O15 0.223552 0.000000 0.975034
O O16 0.000000 0.213677 0.000000
O O17 0.647155 0.500000 0.884937
O O18 0.336684 0.500000 0.452876
#
# Coordination Sequence:
#
# PCOD9153147 Si02
#       7
#     4   4   4   4   4   4   4
#     4  11  24  38  59  90 122 156 201 253 304 352
#     4  10  21  40  64  89 119 159 202 244 295 354
#     4  10  23  41  59  85 120 159 202 247 297 357
#     4  10  22  39  60  88 121 155 200 253 298 351
#     4  10  23  41  65  94 125 158 197 243 296 358
#     4  11  23  41  63  90 123 159 201 247 296 353
#     4  11  22  40  62  85 119 161 204 246 299 360
#
# _framework density 18.825704999999999
#
# number of rings (size 3 to 8) (size 9 to 14) (size 15 to 20)
#    0.000    1.571    1.429    2.571    2.000    9.429 
#    0.000    0.000    0.000    0.000    0.000    0.000 
#    0.000    0.000    0.000    0.000    0.000    0.000 
#
# Total GULP energy -156534.413525 kJ/mol
# GULP energy per Si atom -5590.514769 kJ/mol
# Density = 1.878286 g / cm^3
# Si number density = 18.825705 Si / 1000 Ang^3
#
#
#
# Elastic Constant Matrix: (Units=GPa)
#
#
# Indices 1 2 3 4 5 6 
#
# 1 151.6760 78.3365 46.1387 0.0000 14.2709 0.0000
# 2 78.3365 57.8704 40.2179 0.0000 2.9340 0.0000
# 3 46.1387 40.2179 70.1230 0.0000 -5.4880 0.0000
# 4 0.0000 0.0000 0.0000 30.5474 0.0000 -0.2536
# 5 14.2709 2.9340 -5.4880 0.0000 23.3311 0.0000
# 6 0.0000 0.0000 0.0000 -0.2536 0.0000 44.7076
#
#
#
# Elastic Compliance Matrix: (Units=1/GPa)
#
#
# Indices 1 2 3 4 5 6 
#
# 1 0.024727 -0.035111 0.003086 0.000000 -0.009984 0.000000
# 2 -0.035111 0.079985 -0.022289 0.000000 0.006175 0.000000
# 3 0.003086 -0.022289 0.025556 0.000000 0.006927 0.000000
# 4 0.000000 0.000000 0.000000 0.032738 0.000000 0.000186
# 5 -0.009984 0.006175 0.006927 0.000000 0.049821 0.000000
# 6 0.000000 0.000000 0.000000 0.000186 0.000000 0.022369
#
#
# Mechanical properties :
#
#
# Convention : Reuss Voigt Hill
#
# Bulk Modulus (GPa) = 46.20960 67.67282 56.94121
# Shear Modulus (GPa) = 14.24354 27.38231 20.81292
#
# Velocity S-wave (km/s) = 2.75362 3.81795 3.32860
# Velocity P-wave (km/s) = 5.89145 7.44720 6.71453
#
# Compressibility (1/GPa) = 0.02164053
#
# Stress axis : x y z
#
# Youngs Moduli (GPa) = 40.44092 12.50234 39.13026
#
# Poissons Ratio (x) = 0.43897 -0.12076
# Poissons Ratio (y) = 1.41992 0.87217
# Poissons Ratio (z) = -0.12480 0.27866
#
# Static dielectric constant tensor:
#      x y z
#    x 1.627890 0.000000 -0.000720 
#    y 0.000000 1.626640 0.000000 
#    z -0.000720 0.000000 1.632880 
# 
# From -- ./inp_files/37258.got.cif
#   From: 2010.05.17/outbox.cif.g08.bks.cpg/sg10_19_cif.got.tgz:37258.got - 2010.06.03 11:33:40.
