data_PCOD9153216
_publ_section_title
;
Structure prediction by ZEFSAII (Michael W. Deem and Ramdas Pophale) SiO2 
 PCOD9153216
Probable space group: P 2/M
;
_chemical_formula_sum "Si O2"
_cell_formula_units_Z 32
_cell_length_a 9.171383
_cell_length_b 15.189449
_cell_length_c 22.192028
_cell_angle_alpha 90.000000
_cell_angle_beta 152.201630
_cell_angle_gamma 90.000000
_cell_volume 1441.771741
_symmetry_space_group_name_H-M "P 2/M"
_symmetry_group_IT_number 10
_symmetry_cell_setting 'monoclinic'
loop_
_space_group_symop_operation_xyz
x,y,z
-x,y,-z
-x,-y,-z
x,-y,z
loop_
_atom_site_type_symbol
_atom_site_label
_atom_site_fract_x
_atom_site_fract_y
_atom_site_fract_z
Si Si1 0.640597 0.291067 0.365422
Si Si2 0.998042 0.314063 0.815224
Si Si3 0.149626 0.597688 0.994478
Si Si4 0.756557 0.871234 0.046358
Si Si5 0.302342 0.101288 0.770682
Si Si6 0.271153 0.399485 0.713985
Si Si7 0.474848 0.906327 0.285337
Si Si8 0.872289 0.270312 0.634796
O O1 0.375410 0.323674 0.312872
O O2 0.553383 0.337864 0.270573
O O3 0.611595 0.185136 0.359779
O O4 0.000000 0.316245 0.500000
O O5 0.017951 0.306713 0.750694
O O6 0.147396 0.222765 0.892213
O O7 0.131463 0.374348 0.918067
O O8 0.003229 0.500000 0.941144
O O9 0.507143 0.594820 0.146636
O O10 0.000000 0.644321 0.000000
O O11 0.103469 0.909167 0.162383
O O12 0.500000 0.907659 0.000000
O O13 0.573936 0.872884 0.916797
O O14 0.448114 0.099837 0.757321
O O15 0.039018 0.176897 0.680159
O O16 0.197482 0.000000 0.745654
O O17 0.214153 0.500000 0.672287
O O18 0.967287 0.344029 0.621051
O O19 0.606275 0.000000 0.356531
O O20 0.500000 0.258178 0.500000
#
# Coordination Sequence:
#
# PCOD9153216 Si02
#       8
#     4   4   4   4   4   4   4   4
#     4  11  23  42  66  95 133 177 229 285 328 399
#     4  11  24  39  67  99 129 181 227 274 348 401
#     4  10  21  40  69 102 132 162 214 288 354 417
#     4  11  22  39  63  99 138 170 214 277 345 403
#     4  11  23  42  68  96 131 179 228 281 338 403
#     4  11  24  44  71  98 130 175 222 278 349 409
#     4  10  23  41  65  97 131 179 230 277 337 401
#     4  12  26  47  66  94 141 183 233 282 334 403
#
# _framework density 22.194914000000001
#
# number of rings (size 3 to 8) (size 9 to 14) (size 15 to 20)
#    0.000    1.125    3.750    2.250    0.000    3.500 
#    0.000    2.500    0.000    0.000    0.000    0.000 
#    0.000    0.000    0.000    0.000    0.000    0.000 
#
# Total GULP energy -178176.479311 kJ/mol
# GULP energy per Si atom -5568.014978 kJ/mol
# Density = 2.214440 g / cm^3
# Si number density = 22.194914 Si / 1000 Ang^3
#
#
#
# Elastic Constant Matrix: (Units=GPa)
#
#
# Indices 1 2 3 4 5 6 
#
# 1 78.4490 34.0079 -6.8393 0.0000 11.3627 0.0000
# 2 34.0079 84.7542 14.7549 0.0000 9.3963 0.0000
# 3 -6.8393 14.7549 69.3263 0.0000 18.0130 0.0000
# 4 0.0000 0.0000 0.0000 14.1893 0.0000 11.9647
# 5 11.3627 9.3963 18.0130 0.0000 41.6813 0.0000
# 6 0.0000 0.0000 0.0000 11.9647 0.0000 27.6900
#
#
#
# Elastic Compliance Matrix: (Units=1/GPa)
#
#
# Indices 1 2 3 4 5 6 
#
# 1 0.016885 -0.007000 0.004440 0.000000 -0.004944 0.000000
# 2 -0.007000 0.015282 -0.003992 0.000000 0.000188 0.000000
# 3 0.004440 -0.003992 0.017791 0.000000 -0.007999 0.000000
# 4 0.000000 0.000000 0.000000 0.110873 0.000000 -0.047908
# 5 -0.004944 0.000188 -0.007999 0.000000 0.028754 0.000000
# 6 0.000000 0.000000 0.000000 -0.047908 0.000000 0.056815
#
#
# Mechanical properties :
#
#
# Convention : Reuss Voigt Hill
#
# Bulk Modulus (GPa) = 27.13459 35.15293 31.14376
# Shear Modulus (GPa) = 18.39683 29.41919 23.90801
#
# Velocity S-wave (km/s) = 2.88214 3.64468 3.28561
# Velocity P-wave (km/s) = 4.82989 5.79519 5.33442
#
# Compressibility (1/GPa) = 0.03685334
#
# Stress axis : x y z
#
# Youngs Moduli (GPa) = 59.22491 65.43796 56.20969
#
# Poissons Ratio (x) = 0.45806 -0.24958
# Poissons Ratio (y) = 0.41457 0.22439
# Poissons Ratio (z) = -0.26296 0.26123
#
# Static dielectric constant tensor:
#      x y z
#    x 1.920570 0.000000 -0.006790 
#    y 0.000000 1.840720 0.000000 
#    z -0.006790 0.000000 1.839550 
# 
# From -- ./inp_files/88280.got.cif
#   From: 2010.05.17/outbox.cif.g08.bks.cpg/sg10_45_cif.got.tgz:88280.got - 2010.06.03 11:33:40.
