data_PCOD9153111
_publ_section_title
;
Structure prediction by ZEFSAII (Michael W. Deem and Ramdas Pophale) SiO2 
 PCOD9153111
Probable space group: P 2/M
;
_chemical_formula_sum "Si O2"
_cell_formula_units_Z 24
_cell_length_a 9.911947
_cell_length_b 14.207702
_cell_length_c 16.277952
_cell_angle_alpha 90.000000
_cell_angle_beta 146.630952
_cell_angle_gamma 90.000000
_cell_volume 1260.865279
_symmetry_space_group_name_H-M "P 2/M"
_symmetry_group_IT_number 10
_symmetry_cell_setting 'monoclinic'
loop_
_space_group_symop_operation_xyz
x,y,z
-x,y,-z
-x,-y,-z
x,-y,z
loop_
_atom_site_type_symbol
_atom_site_label
_atom_site_fract_x
_atom_site_fract_y
_atom_site_fract_z
Si Si1 0.192099 0.269731 0.851038
Si Si2 0.330596 0.749876 0.492504
Si Si3 0.642269 0.111747 0.757251
Si Si4 0.541948 0.388138 0.906862
Si Si5 0.733540 0.611098 0.397005
Si Si6 0.200044 0.887967 0.980874
O O1 0.348732 0.324590 0.860685
O O2 0.277287 0.176496 0.943926
O O3 0.941664 0.240736 0.680967
O O4 0.199832 0.347811 0.928680
O O5 0.500000 0.738813 0.500000
O O6 0.436240 0.834167 0.601840
O O7 0.333740 0.660868 0.553609
O O8 0.911660 0.130212 0.854806
O O9 0.604211 0.000000 0.733162
O O10 0.658516 0.136308 0.862390
O O11 0.516257 0.500000 0.910319
O O12 0.471417 0.373055 0.776826
O O13 0.758206 0.500000 0.422145
O O14 0.000000 0.645472 0.500000
O O15 0.227507 0.000000 0.980146
#
# Coordination Sequence:
#
# PCOD9153111 Si02
#       6
#     4   4   4   4   4   4
#     4  11  20  34  58  89 116 147 195 245 289 335
#     4  12  23  35  58  94 124 146 188 252 301 336
#     4   9  19  36  57  82 118 161 195 227 284 360
#     4  10  22  41  63  81 107 159 209 235 275 356
#     4  10  21  40  61  81 113 158 198 231 286 359
#     4   9  18  35  58  83 116 158 196 232 285 352
#
# _framework density 19.034545999999999
#
# number of rings (size 3 to 8) (size 9 to 14) (size 15 to 20)
#    0.000    1.833    3.333    3.000    0.000    2.000 
#    0.000    1.667    0.000    3.500    0.000    0.000 
#    0.000    0.000    0.000    0.000    0.000    0.000 
#
# Total GULP energy -133721.495925 kJ/mol
# GULP energy per Si atom -5571.728997 kJ/mol
# Density = 1.899122 g / cm^3
# Si number density = 19.034546 Si / 1000 Ang^3
#
#
#
# Elastic Constant Matrix: (Units=GPa)
#
#
# Indices 1 2 3 4 5 6 
#
# 1 50.0293 49.0589 45.5918 0.0000 -23.9811 0.0000
# 2 49.0589 100.9470 61.8173 0.0000 -16.5551 0.0000
# 3 45.5918 61.8173 153.1686 0.0000 -23.3926 0.0000
# 4 0.0000 0.0000 0.0000 46.6210 0.0000 -11.2014
# 5 -23.9811 -16.5551 -23.3926 0.0000 29.8400 0.0000
# 6 0.0000 0.0000 0.0000 -11.2014 0.0000 32.6117
#
#
#
# Elastic Compliance Matrix: (Units=1/GPa)
#
#
# Indices 1 2 3 4 5 6 
#
# 1 0.061456 -0.021613 -0.004383 0.000000 0.033963 0.000000
# 2 -0.021613 0.021101 -0.003349 0.000000 -0.008288 0.000000
# 3 -0.004383 -0.003349 0.009501 0.000000 0.002067 0.000000
# 4 0.000000 0.000000 0.000000 0.023379 0.000000 0.008030
# 5 0.033963 -0.008288 0.002067 0.000000 0.057829 0.000000
# 6 0.000000 0.000000 0.000000 0.008030 0.000000 0.033422
#
#
# Mechanical properties :
#
#
# Convention : Reuss Voigt Hill
#
# Bulk Modulus (GPa) = 29.96831 68.56455 49.26643
# Shear Modulus (GPa) = 18.08308 31.65966 24.87137
#
# Velocity S-wave (km/s) = 3.08557 4.08275 3.61867
# Velocity P-wave (km/s) = 5.33598 7.63704 6.58776
#
# Compressibility (1/GPa) = 0.03336858
#
# Stress axis : x y z
#
# Youngs Moduli (GPa) = 16.27169 47.39032 105.25516
#
# Poissons Ratio (x) = 1.02425 0.46136
# Poissons Ratio (y) = 0.35168 0.35247
# Poissons Ratio (z) = 0.07132 0.15870
#
# Static dielectric constant tensor:
#      x y z
#    x 1.682870 0.000000 0.033910 
#    y 0.000000 1.652960 0.000000 
#    z 0.033910 0.000000 1.729100 
# 
# From -- ./inp_files/76718.got.cif
#   From: 2010.05.17/outbox.cif.g08.bks.cpg/sg10_39_cif.got.tgz:76718.got - 2010.06.03 11:33:40.
