data_PCOD9153356
_publ_section_title
;
Structure prediction by ZEFSAII (Michael W. Deem and Ramdas Pophale) SiO2 
 PCOD9153356
Probable space group: P 2/M
;
_chemical_formula_sum "Si O2"
_cell_formula_units_Z 24
_cell_length_a 11.211823
_cell_length_b 13.966945
_cell_length_c 13.813105
_cell_angle_alpha 90.000000
_cell_angle_beta 146.825795
_cell_angle_gamma 90.000000
_cell_volume 1183.598221
_symmetry_space_group_name_H-M "P 2/M"
_symmetry_group_IT_number 10
_symmetry_cell_setting 'monoclinic'
loop_
_space_group_symop_operation_xyz
x,y,z
-x,y,-z
-x,-y,-z
x,-y,z
loop_
_atom_site_type_symbol
_atom_site_label
_atom_site_fract_x
_atom_site_fract_y
_atom_site_fract_z
Si Si1 0.451153 0.000000 0.852171
Si Si2 0.043327 0.788253 0.915984
Si Si3 0.914835 0.298579 0.645232
Si Si4 0.512536 0.703879 0.234578
Si Si5 0.508462 0.500000 0.844755
Si Si6 0.867098 0.500000 0.258907
Si Si7 0.917076 0.000000 0.056934
Si Si8 0.204784 0.197409 0.707741
O O1 0.661892 0.000000 0.923245
O O2 0.308126 0.096407 0.748178
O O3 0.500000 0.000000 0.000000
O O4 0.915171 0.714048 0.760716
O O5 0.300638 0.768235 0.088484
O O6 0.000000 0.778573 0.000000
O O7 0.994681 0.897159 0.849103
O O8 0.687789 0.274353 0.437739
O O9 0.992476 0.402913 0.660601
O O10 0.103480 0.221611 0.742236
O O11 0.458434 0.592929 0.197920
O O12 0.623382 0.722815 0.205657
O O13 0.268787 0.500000 0.732831
O O14 0.686407 0.500000 0.051022
O O15 0.000000 0.000000 0.000000
O O16 0.000000 0.213045 0.500000
#
# Coordination Sequence:
#
# PCOD9153356 Si02
#       8
#     2   4   4   4   2   2   2   4
#     4  12  21  33  62  91 120 162 207 259 318 375
#     4  11  24  44  65  87 122 165 214 259 305 366
#     4  11  23  39  62  94 127 162 206 251 313 373
#     4  11  22  39  63  91 126 163 202 255 309 368
#     4  11  21  35  63  95 129 164 203 246 310 379
#     4  11  21  35  63  95 127 166 201 248 308 381
#     4  10  22  41  64  89 122 166 211 262 313 375
#     4  10  22  36  56  90 127 158 196 254 315 374
#
# _framework density 20.277152000000001
#
# number of rings (size 3 to 8) (size 9 to 14) (size 15 to 20)
#    0.000    1.167    5.000    1.750    0.000    1.333 
#    0.000    3.333    0.000    5.000    0.000    0.000 
#    0.000    0.000    0.000    0.000    0.000    0.000 
#
# Total GULP energy -133730.819553 kJ/mol
# GULP energy per Si atom -5572.117481 kJ/mol
# Density = 2.023100 g / cm^3
# Si number density = 20.277152 Si / 1000 Ang^3
#
#
#
# Elastic Constant Matrix: (Units=GPa)
#
#
# Indices 1 2 3 4 5 6 
#
# 1 61.5742 8.9306 14.6763 0.0000 -10.4562 0.0000
# 2 8.9306 80.0445 -9.7944 0.0000 -0.2656 0.0000
# 3 14.6763 -9.7944 76.3333 0.0000 -6.2297 0.0000
# 4 0.0000 0.0000 0.0000 20.8975 0.0000 -3.7968
# 5 -10.4562 -0.2656 -6.2297 0.0000 19.2378 0.0000
# 6 0.0000 0.0000 0.0000 -3.7968 0.0000 23.8252
#
#
#
# Elastic Compliance Matrix: (Units=1/GPa)
#
#
# Indices 1 2 3 4 5 6 
#
# 1 0.018928 -0.002473 -0.003204 0.000000 0.009216 0.000000
# 2 -0.002473 0.013025 0.002107 0.000000 -0.000482 0.000000
# 3 -0.003204 0.002107 0.014223 0.000000 0.002893 0.000000
# 4 0.000000 0.000000 0.000000 0.049280 0.000000 0.007853
# 5 0.009216 -0.000482 0.002893 0.000000 0.057921 0.000000
# 6 0.000000 0.000000 0.000000 0.007853 0.000000 0.043224
#
#
# Mechanical properties :
#
#
# Convention : Reuss Voigt Hill
#
# Bulk Modulus (GPa) = 25.61746 27.28632 26.45189
# Shear Modulus (GPa) = 23.06773 26.40137 24.73455
#
# Velocity S-wave (km/s) = 3.37652 3.61227 3.49639
# Velocity P-wave (km/s) = 5.27848 5.55733 5.41970
#
# Compressibility (1/GPa) = 0.03903588
#
# Stress axis : x y z
#
# Youngs Moduli (GPa) = 52.83147 76.77373 70.30824
#
# Poissons Ratio (x) = 0.18989 0.22530
# Poissons Ratio (y) = 0.13067 -0.14817
# Poissons Ratio (z) = 0.16930 -0.16180
#
# Static dielectric constant tensor:
#      x y z
#    x 1.807690 0.000000 -0.000410 
#    y 0.000000 1.703880 0.000000 
#    z -0.000410 0.000000 1.707380 
# 
# From -- ./inp_files/51585.got.cif
#   From: 2010.05.17/outbox.cif.g08.bks.cpg/sg10_26_cif.got.tgz:51585.got - 2010.06.03 11:33:40.
