data_PCOD9153794
_publ_section_title
;
Structure prediction by ZEFSAII (Michael W. Deem and Ramdas Pophale) SiO2 
 PCOD9153794
Probable space group: P 2/M
;
_chemical_formula_sum "Si O2"
_cell_formula_units_Z 32
_cell_length_a 5.457945
_cell_length_b 15.270515
_cell_length_c 19.894597
_cell_angle_alpha 90.000000
_cell_angle_beta 97.559122
_cell_angle_gamma 90.000000
_cell_volume 1643.718025
_symmetry_space_group_name_H-M "P 2/M"
_symmetry_group_IT_number 10
_symmetry_cell_setting 'monoclinic'
loop_
_space_group_symop_operation_xyz
x,y,z
-x,y,-z
-x,-y,-z
x,-y,z
loop_
_atom_site_type_symbol
_atom_site_label
_atom_site_fract_x
_atom_site_fract_y
_atom_site_fract_z
Si Si1 0.279078 0.778425 0.541284
Si Si2 0.346248 0.405126 0.822412
Si Si3 0.823250 0.899190 0.756517
Si Si4 0.722924 0.719007 0.804202
Si Si5 0.277910 0.899646 0.670399
Si Si6 0.997960 0.600827 0.075818
Si Si7 0.102390 0.403458 0.298725
Si Si8 0.172720 0.404236 0.571715
O O1 0.500000 0.808212 0.500000
O O2 0.265647 0.836347 0.607012
O O3 0.343779 0.678826 0.565697
O O4 0.000000 0.778954 0.500000
O O5 0.481524 0.500000 0.816387
O O6 0.445483 0.308262 0.810605
O O7 0.266358 0.404142 0.897116
O O8 0.121061 0.411788 0.762357
O O9 0.810489 0.818117 0.807416
O O10 0.552842 0.893590 0.711751
O O11 0.054876 0.882609 0.714946
O O12 0.849296 0.000000 0.782251
O O13 0.853807 0.660690 0.866519
O O14 0.751850 0.675563 0.730811
O O15 0.243554 0.000000 0.646616
O O16 0.089209 0.500000 0.077296
O O17 0.000000 0.633827 0.000000
O O18 0.225926 0.500000 0.304957
O O19 0.992828 0.386837 0.368282
O O20 0.292275 0.500000 0.584194
O O21 0.000000 0.409127 0.500000
#
# Coordination Sequence:
#
# PCOD9153794 Si02
#       8
#     4   4   4   4   4   4   4   4
#     4  11  23  37  57  83 110 145 191 239 293 362
#     4   9  18  31  50  82 113 144 188 233 281 338
#     4  10  23  39  61  87 116 149 191 247 299 354
#     4  11  20  31  58  81 112 149 194 236 295 344
#     4  10  22  42  62  85 113 145 186 244 315 365
#     4   9  19  35  54  83 124 159 190 231 281 343
#     4   9  18  33  51  77 109 142 189 241 291 340
#     4   9  19  36  52  70 105 151 195 237 285 342
#
# _framework density 19.468060000000001
#
# number of rings (size 3 to 8) (size 9 to 14) (size 15 to 20)
#    0.000    2.250    0.000    3.375    5.250    2.250 
#    0.000    1.875    0.000    0.375    0.000    0.875 
#    0.000    0.000    0.000    0.000    0.000    0.000 
#
# Total GULP energy -178143.583326 kJ/mol
# GULP energy per Si atom -5566.986979 kJ/mol
# Density = 1.942375 g / cm^3
# Si number density = 19.468060 Si / 1000 Ang^3
#
#
#
# Elastic Constant Matrix: (Units=GPa)
#
#
# Indices 1 2 3 4 5 6 
#
# 1 64.3847 16.4156 18.8056 0.0000 -9.7685 0.0000
# 2 16.4156 106.6917 40.0108 0.0000 -3.8691 0.0000
# 3 18.8056 40.0108 112.6939 0.0000 -16.4700 0.0000
# 4 0.0000 0.0000 0.0000 24.3442 0.0000 -2.5345
# 5 -9.7685 -3.8691 -16.4700 0.0000 19.3587 0.0000
# 6 0.0000 0.0000 0.0000 -2.5345 0.0000 14.1110
#
#
#
# Elastic Compliance Matrix: (Units=1/GPa)
#
#
# Indices 1 2 3 4 5 6 
#
# 1 0.017504 -0.002003 -0.001116 0.000000 0.007483 0.000000
# 2 -0.002003 0.011069 -0.003906 0.000000 -0.002121 0.000000
# 3 -0.001116 -0.003906 0.011706 0.000000 0.008615 0.000000
# 4 0.000000 0.000000 0.000000 0.041860 0.000000 0.007519
# 5 0.007483 -0.002121 0.008615 0.000000 0.062338 0.000000
# 6 0.000000 0.000000 0.000000 0.007519 0.000000 0.072217
#
#
# Mechanical properties :
#
#
# Convention : Reuss Voigt Hill
#
# Bulk Modulus (GPa) = 38.12704 48.24827 43.18765
# Shear Modulus (GPa) = 20.87808 25.46534 23.17171
#
# Velocity S-wave (km/s) = 3.27835 3.62063 3.45373
# Velocity P-wave (km/s) = 5.82726 6.50505 6.17546
#
# Compressibility (1/GPa) = 0.02622811
#
# Stress axis : x y z
#
# Youngs Moduli (GPa) = 57.13096 90.34461 85.42941
#
# Poissons Ratio (x) = 0.18098 0.09535
# Poissons Ratio (y) = 0.11445 0.33365
# Poissons Ratio (z) = 0.06376 0.35285
#
# Static dielectric constant tensor:
#      x y z
#    x 1.816190 0.000000 -0.009630 
#    y 0.000000 1.729070 0.000000 
#    z -0.009630 0.000000 1.644580 
# 
# From -- ./inp_files/11440.got.cif
#   From: 2010.05.17/outbox.cif.g08.bks.cpg/sg10_6_cif.got.tgz:11440.got - 2010.06.03 11:33:40.
