data_PCOD9153668
_publ_section_title
;
Structure prediction by ZEFSAII (Michael W. Deem and Ramdas Pophale) SiO2 
 PCOD9153668
Probable space group: P 2/M
;
_chemical_formula_sum "Si O2"
_cell_formula_units_Z 32
_cell_length_a 26.526624
_cell_length_b 8.792346
_cell_length_c 15.287718
_cell_angle_alpha 90.000000
_cell_angle_beta 153.290984
_cell_angle_gamma 90.000000
_cell_volume 1602.581222
_symmetry_space_group_name_H-M "P 2/M"
_symmetry_group_IT_number 10
_symmetry_cell_setting 'monoclinic'
loop_
_space_group_symop_operation_xyz
x,y,z
-x,y,-z
-x,-y,-z
x,-y,z
loop_
_atom_site_type_symbol
_atom_site_label
_atom_site_fract_x
_atom_site_fract_y
_atom_site_fract_z
Si Si1 0.738222 0.181517 0.913975
Si Si2 0.017007 0.817977 0.626849
Si Si3 0.077064 0.682858 0.347274
Si Si4 0.675419 0.683777 0.311071
Si Si5 0.539989 0.316777 0.924571
Si Si6 0.543446 0.818965 0.748078
Si Si7 0.698909 0.320410 0.664665
Si Si8 0.921092 0.181583 0.959060
O O1 0.634279 0.221016 0.815323
O O2 0.728965 0.273330 0.810291
O O3 0.732974 0.000000 0.885866
O O4 0.855004 0.209714 0.144498
O O5 0.000000 0.769573 0.500000
O O6 0.939447 0.736986 0.578652
O O7 0.996848 0.000000 0.599965
O O8 0.072204 0.500000 0.336263
O O9 0.196735 0.736604 0.493656
O O10 0.979299 0.752502 0.136191
O O11 0.678543 0.500000 0.322376
O O12 0.587226 0.734167 0.248309
O O13 0.616722 0.718622 0.127228
O O14 0.539560 0.500000 0.913009
O O15 0.581959 0.237915 0.902517
O O16 0.423615 0.743960 0.544696
O O17 0.531301 0.000000 0.728883
O O18 0.699208 0.500000 0.653859
O O19 0.796931 0.248382 0.757890
O O20 0.914984 0.000000 0.956607
O O21 0.000000 0.223090 0.000000
#
# Coordination Sequence:
#
# PCOD9153668 Si02
#       8
#     4   4   4   4   4   4   4   4
#     4  10  22  42  63  85 122 163 199 246 303 359
#     4  10  22  40  63  89 122 167 209 249 305 369
#     4  11  22  38  62  95 126 161 205 255 307 363
#     4   8  18  36  59  85 121 159 197 243 301 356
#     4   9  18  38  61  85 118 162 202 244 297 354
#     4  11  24  39  60  90 122 157 201 251 303 358
#     4  12  25  42  65  91 119 155 201 252 305 364
#     4  11  25  44  65  91 125 164 204 251 308 370
#
# _framework density 19.967786
#
# number of rings (size 3 to 8) (size 9 to 14) (size 15 to 20)
#    0.000    1.750    1.250    3.375    3.500    3.750 
#    0.000    2.500    0.000    0.000    0.000    0.000 
#    0.000    0.000    0.000    0.000    0.000    0.000 
#
# Total GULP energy -178859.268998 kJ/mol
# GULP energy per Si atom -5589.352156 kJ/mol
# Density = 1.992234 g / cm^3
# Si number density = 19.967786 Si / 1000 Ang^3
#
#
#
# Elastic Constant Matrix: (Units=GPa)
#
#
# Indices 1 2 3 4 5 6 
#
# 1 84.3800 28.7629 -5.1508 0.0000 13.2605 0.0000
# 2 28.7629 38.3021 6.6410 0.0000 8.0089 0.0000
# 3 -5.1508 6.6410 34.9588 0.0000 18.9439 0.0000
# 4 0.0000 0.0000 0.0000 21.5381 0.0000 -2.7403
# 5 13.2605 8.0089 18.9439 0.0000 38.5763 0.0000
# 6 0.0000 0.0000 0.0000 -2.7403 0.0000 34.6513
#
#
#
# Elastic Compliance Matrix: (Units=1/GPa)
#
#
# Indices 1 2 3 4 5 6 
#
# 1 0.018482 -0.013849 0.009863 0.000000 -0.008321 0.000000
# 2 -0.013849 0.037885 -0.010294 0.000000 0.001950 0.000000
# 3 0.009863 -0.010294 0.044547 0.000000 -0.023129 0.000000
# 4 0.000000 0.000000 0.000000 0.046901 0.000000 0.003709
# 5 -0.008321 0.001950 -0.023129 0.000000 0.039736 0.000000
# 6 0.000000 0.000000 0.000000 0.003709 0.000000 0.029152
#
#
# Mechanical properties :
#
#
# Convention : Reuss Voigt Hill
#
# Bulk Modulus (GPa) = 13.82088 24.23857 19.02972
# Shear Modulus (GPa) = 18.56098 27.44564 23.00331
#
# Velocity S-wave (km/s) = 3.05215 3.71144 3.39783
# Velocity P-wave (km/s) = 4.39971 5.52554 4.99445
#
# Compressibility (1/GPa) = 0.07235430
#
# Stress axis : x y z
#
# Youngs Moduli (GPa) = 54.10777 26.39559 22.44795
#
# Poissons Ratio (x) = 0.36555 -0.22141
# Poissons Ratio (y) = 0.74933 0.23108
# Poissons Ratio (z) = -0.53367 0.27172
#
# Static dielectric constant tensor:
#      x y z
#    x 1.709410 0.000000 0.010540 
#    y 0.000000 1.666850 0.000000 
#    z 0.010540 0.000000 1.700890 
# 
# From -- ./inp_files/71648.got.cif
#   From: 2010.05.17/outbox.cif.g08.bks.cpg/sg10_36_cif.got.tgz:71648.got - 2010.06.03 11:33:40.
