data_PCOD9153673
_publ_section_title
;
Structure prediction by ZEFSAII (Michael W. Deem and Ramdas Pophale) SiO2 
 PCOD9153673
Probable space group: P 2/M
;
_chemical_formula_sum "Si O2"
_cell_formula_units_Z 32
_cell_length_a 16.750943
_cell_length_b 8.933252
_cell_length_c 11.978550
_cell_angle_alpha 90.000000
_cell_angle_beta 67.389483
_cell_angle_gamma 90.000000
_cell_volume 1654.704723
_symmetry_space_group_name_H-M "P 2/M"
_symmetry_group_IT_number 10
_symmetry_cell_setting 'monoclinic'
loop_
_space_group_symop_operation_xyz
x,y,z
-x,y,-z
-x,-y,-z
x,-y,z
loop_
_atom_site_type_symbol
_atom_site_label
_atom_site_fract_x
_atom_site_fract_y
_atom_site_fract_z
Si Si1 0.164221 0.822776 0.180436
Si Si2 0.754193 0.821218 0.210662
Si Si3 0.239150 0.321010 0.550544
Si Si4 0.102842 0.675693 0.437722
Si Si5 0.909959 0.678322 0.986847
Si Si6 0.649701 0.320722 0.925550
Si Si7 0.399856 0.679151 0.302516
Si Si8 0.576147 0.821633 0.179685
O O1 0.139392 0.774739 0.318220
O O2 0.256083 0.747949 0.102756
O O3 0.170713 0.000000 0.165249
O O4 0.095572 0.756317 0.130337
O O5 0.756832 0.766886 0.336524
O O6 0.830771 0.741314 0.102011
O O7 0.661609 0.783587 0.204990
O O8 0.765409 0.000000 0.197085
O O9 0.240881 0.500000 0.571911
O O10 0.152831 0.289038 0.525233
O O11 0.320796 0.284567 0.427214
O O12 0.122296 0.500000 0.402103
O O13 0.000000 0.692795 0.500000
O O14 0.901281 0.500000 0.978146
O O15 0.000000 0.709604 0.000000
O O16 0.652034 0.500000 0.933373
O O17 0.624911 0.281662 0.811834
O O18 0.586616 0.254927 0.053020
O O19 0.412744 0.500000 0.299603
O O20 0.488854 0.761376 0.282374
O O21 0.572441 0.000000 0.168641
#
# Coordination Sequence:
#
# PCOD9153673 Si02
#       8
#     4   4   4   4   4   4   4   4
#     4  12  24  39  64  97 132 165 201 254 319 370
#     4  11  25  43  62  90 128 165 203 257 318 370
#     4  10  22  42  64  90 122 163 215 259 303 366
#     4  10  22  42  67  93 125 166 211 257 302 364
#     4  11  25  44  68  94 122 165 214 256 304 366
#     4  11  21  39  65  92 125 164 207 255 308 367
#     4  10  22  40  63  91 122 160 209 260 308 363
#     4  11  24  40  60  91 127 163 205 255 315 375
#
# _framework density 19.338798000000001
#
# number of rings (size 3 to 8) (size 9 to 14) (size 15 to 20)
#    0.000    1.250    2.500    3.000    1.750    6.750 
#    0.000    2.500    0.000    0.000    0.000    0.000 
#    0.000    0.000    0.000    0.000    0.000    0.000 
#
# Total GULP energy -178976.800268 kJ/mol
# GULP energy per Si atom -5593.025008 kJ/mol
# Density = 1.929478 g / cm^3
# Si number density = 19.338798 Si / 1000 Ang^3
#
#
#
# Elastic Constant Matrix: (Units=GPa)
#
#
# Indices 1 2 3 4 5 6 
#
# 1 105.1749 46.6347 23.3906 0.0000 4.3858 0.0000
# 2 46.6347 39.5197 21.6127 0.0000 4.3558 0.0000
# 3 23.3906 21.6127 58.4463 0.0000 16.9068 0.0000
# 4 0.0000 0.0000 0.0000 -22.5329 0.0000 2.7174
# 5 4.3858 4.3558 16.9068 0.0000 27.1517 0.0000
# 6 0.0000 0.0000 0.0000 2.7174 0.0000 -7.0050
#
#
#
# Elastic Compliance Matrix: (Units=1/GPa)
#
#
# Indices 1 2 3 4 5 6 
#
# 1 0.019981 -0.024068 0.000879 0.000000 0.000087 0.000000
# 2 -0.024068 0.060873 -0.013633 0.000000 0.002611 0.000000
# 3 0.000879 -0.013633 0.025867 0.000000 -0.014062 0.000000
# 4 0.000000 0.000000 0.000000 -0.046558 0.000000 -0.018061
# 5 0.000087 0.002611 -0.014062 0.000000 0.045153 0.000000
# 6 0.000000 0.000000 0.000000 -0.018061 0.000000 -0.149762
#
#
# Mechanical properties :
#
#
# Convention : Reuss Voigt Hill
#
# Bulk Modulus (GPa) = 30.23383 42.93522 36.58453
# Shear Modulus (GPa) = 124.29913 6.95629 65.62771
#
# Velocity S-wave (km/s) = 8.02583 1.89865 5.83176
# Velocity P-wave (km/s) = 10.07735 5.20157 8.01902
#
# Compressibility (1/GPa) = 0.03307553
#
# Stress axis : x y z
#
# Youngs Moduli (GPa) = 50.04811 16.42761 38.65902
#
# Poissons Ratio (x) = 0.39538 -0.03397
# Poissons Ratio (y) = 1.20456 0.52705
# Poissons Ratio (z) = -0.04397 0.22396
#
# Static dielectric constant tensor:
#      x y z
#    x 1.678000 0.000000 0.000910 
#    y 0.000000 1.644370 0.000000 
#    z 0.000910 0.000000 1.655720 
# 
# From -- ./inp_files/49727.got.cif
#   From: 2010.05.17/outbox.cif.g08.bks.cpg/sg10_25_cif.got.tgz:49727.got - 2010.06.03 11:33:40.
