data_PCOD9153196
_publ_section_title
;
Structure prediction by ZEFSAII (Michael W. Deem and Ramdas Pophale) SiO2 
 PCOD9153196
Probable space group: P 2/M
;
_chemical_formula_sum "Si O2"
_cell_formula_units_Z 32
_cell_length_a 15.641097
_cell_length_b 20.227982
_cell_length_c 9.348638
_cell_angle_alpha 90.000000
_cell_angle_beta 29.373180
_cell_angle_gamma 90.000000
_cell_volume 1450.786418
_symmetry_space_group_name_H-M "P 2/M"
_symmetry_group_IT_number 10
_symmetry_cell_setting 'monoclinic'
loop_
_space_group_symop_operation_xyz
x,y,z
-x,y,-z
-x,-y,-z
x,-y,z
loop_
_atom_site_type_symbol
_atom_site_label
_atom_site_fract_x
_atom_site_fract_y
_atom_site_fract_z
Si Si1 0.296211 0.574530 0.256302
Si Si2 0.194520 0.330872 0.162913
Si Si3 0.677438 0.923303 0.304748
Si Si4 0.360298 0.890769 0.313526
Si Si5 0.291169 0.573743 0.789530
Si Si6 0.507976 0.255824 0.821947
Si Si7 0.980790 0.080491 0.358781
Si Si8 0.811533 0.648350 0.319165
O O1 0.230187 0.500000 0.356438
O O2 0.272343 0.607014 0.137964
O O3 0.192732 0.621615 0.514093
O O4 0.500000 0.573607 0.000000
O O5 0.000000 0.316541 0.500000
O O6 0.207658 0.362100 0.987194
O O7 0.327302 0.271848 0.006318
O O8 0.500000 0.892761 0.500000
O O9 0.678405 0.922462 0.475610
O O10 0.677230 0.000000 0.259037
O O11 0.849827 0.896342 0.977040
O O12 0.440578 0.820250 0.241110
O O13 0.185613 0.886967 0.474396
O O14 0.500000 0.922586 0.000000
O O15 0.500000 0.577564 0.500000
O O16 0.236266 0.500000 0.917544
O O17 0.240228 0.584925 0.699699
O O18 0.661343 0.297113 0.524248
O O19 0.500000 0.278705 0.000000
O O20 0.000000 0.094630 0.500000
O O21 0.960069 0.000000 0.375274
O O22 0.000000 0.673577 0.000000
#
# Coordination Sequence:
#
# PCOD9153196 Si02
#       8
#     4   4   4   4   4   4   4   4
#     4  11  21  39  67  90 119 164 206 256 329 411
#     4  12  23  41  67  89 120 163 211 271 330 395
#     4  10  21  40  67 104 147 182 221 276 332 395
#     4  11  24  41  67  93 136 186 231 287 331 390
#     4  11  23  39  61  95 130 153 193 271 350 407
#     4  11  24  48  63  85 124 170 227 269 307 388
#     4  10  21  40  72 111 146 178 220 274 340 408
#     4  12  23  39  63  87 123 162 204 261 323 393
#
# _framework density 22.057002000000001
#
# number of rings (size 3 to 8) (size 9 to 14) (size 15 to 20)
#    0.000    1.000    3.750    3.000    0.000    9.000 
#    2.250    5.000    0.000    0.000    0.000    0.000 
#    0.000    0.000    0.000    0.000    0.000    0.000 
#
# Total GULP energy -178798.222157 kJ/mol
# GULP energy per Si atom -5587.444442 kJ/mol
# Density = 2.200680 g / cm^3
# Si number density = 22.057002 Si / 1000 Ang^3
#
#
#
# Elastic Constant Matrix: (Units=GPa)
#
#
# Indices 1 2 3 4 5 6 
#
# 1 89.0707 -0.8471 40.4105 0.0000 -10.7090 0.0000
# 2 -0.8471 70.4986 17.1851 0.0000 -12.7107 0.0000
# 3 40.4105 17.1851 161.4936 0.0000 -20.3671 0.0000
# 4 0.0000 0.0000 0.0000 -1.5862 0.0000 -3.4969
# 5 -10.7090 -12.7107 -20.3671 0.0000 43.6992 0.0000
# 6 0.0000 0.0000 0.0000 -3.4969 0.0000 -22.5350
#
#
#
# Elastic Compliance Matrix: (Units=1/GPa)
#
#
# Indices 1 2 3 4 5 6 
#
# 1 0.012897 0.001288 -0.003101 0.000000 0.002090 0.000000
# 2 0.001288 0.015288 -0.001433 0.000000 0.004094 0.000000
# 3 -0.003101 -0.001433 0.007408 0.000000 0.002276 0.000000
# 4 0.000000 0.000000 0.000000 -0.958256 0.000000 0.148698
# 5 0.002090 0.004094 0.002276 0.000000 0.025648 0.000000
# 6 0.000000 0.000000 0.000000 0.148698 0.000000 -0.067450
#
#
# Mechanical properties :
#
#
# Convention : Reuss Voigt Hill
#
# Bulk Modulus (GPa) = 34.36302 48.28443 41.32373
# Shear Modulus (GPa) = -5.27274 21.53657 8.13192
#
# Velocity S-wave (km/s) = -1.54780 3.12814 1.92218
# Velocity P-wave (km/s) = 3.52402 5.91483 4.86847
#
# Compressibility (1/GPa) = 0.02910105
#
# Stress axis : x y z
#
# Youngs Moduli (GPa) = 77.53546 65.41252 134.99699
#
# Poissons Ratio (x) = -0.08423 0.41859
# Poissons Ratio (y) = -0.09984 0.19340
# Poissons Ratio (z) = 0.24042 0.09371
#
# Static dielectric constant tensor:
#      x y z
#    x 1.738220 0.000000 -0.032930 
#    y 0.000000 1.802880 0.000000 
#    z -0.032930 0.000000 1.813330 
# 
# From -- ./inp_files/30557.got.cif
#   From: 2010.05.17/outbox.cif.g08.bks.cpg/sg10_16_cif.got.tgz:30557.got - 2010.06.03 11:33:40.
