data_PCOD9153386
_publ_section_title
;
Structure prediction by ZEFSAII (Michael W. Deem and Ramdas Pophale) SiO2 
 PCOD9153386
Probable space group: P 2/M
;
_chemical_formula_sum "Si O2"
_cell_formula_units_Z 20
_cell_length_a 5.154243
_cell_length_b 13.932214
_cell_length_c 12.786229
_cell_angle_alpha 90.000000
_cell_angle_beta 69.714144
_cell_angle_gamma 90.000000
_cell_volume 861.228830
_symmetry_space_group_name_H-M "P 2/M"
_symmetry_group_IT_number 10
_symmetry_cell_setting 'monoclinic'
loop_
_space_group_symop_operation_xyz
x,y,z
-x,y,-z
-x,-y,-z
x,-y,z
loop_
_atom_site_type_symbol
_atom_site_label
_atom_site_fract_x
_atom_site_fract_y
_atom_site_fract_z
Si Si1 0.589251 0.893878 0.605930
Si Si2 0.804662 0.610573 0.424916
Si Si3 0.302995 0.723215 0.929935
Si Si4 0.208654 0.252941 0.265606
Si Si5 0.915401 0.891768 0.161805
O O1 0.500000 0.877614 0.500000
O O2 0.768613 0.811419 0.633639
O O3 0.315307 0.897021 0.715211
O O4 0.720682 0.000000 0.596627
O O5 0.500000 0.645294 0.500000
O O6 0.776275 0.500000 0.394031
O O7 0.000000 0.611659 0.500000
O O8 0.959861 0.674129 0.317599
O O9 0.233441 0.834543 0.910949
O O10 0.500000 0.706862 0.000000
O O11 0.499211 0.695878 0.196085
O O12 0.000000 0.680441 0.000000
O O13 0.141238 0.178986 0.180771
O O14 0.008194 0.000000 0.126127
#
# Coordination Sequence:
#
# PCOD9153386 Si02
#       5
#     4   4   4   4   4
#     4   9  20  36  55  89 134 178 220 264 316 386
#     4  10  25  45  69 101 133 166 211 263 326 402
#     4  11  23  43  62  92 125 174 223 274 325 375
#     4  11  23  38  68  92 130 173 220 271 327 384
#     4  10  22  37  57  92 128 172 225 269 314 382
#
# _framework density 23.222632000000001
#
# number of rings (size 3 to 8) (size 9 to 14) (size 15 to 20)
#    0.000    1.800    2.000    0.600    8.400    1.600 
#    0.000    3.000    0.000    3.000    0.000    0.000 
#    0.000    0.000    0.000    0.000    0.000    0.000 
#
# Total GULP energy -111758.966071 kJ/mol
# GULP energy per Si atom -5587.948304 kJ/mol
# Density = 2.316978 g / cm^3
# Si number density = 23.222632 Si / 1000 Ang^3
#
#
#
# Elastic Constant Matrix: (Units=GPa)
#
#
# Indices 1 2 3 4 5 6 
#
# 1 152.3125 32.7238 49.1492 0.0000 -29.6601 0.0000
# 2 32.7238 69.9622 21.6271 0.0000 -15.3008 0.0000
# 3 49.1492 21.6271 81.9546 0.0000 -13.9245 0.0000
# 4 0.0000 0.0000 0.0000 5.3567 0.0000 -6.9822
# 5 -29.6601 -15.3008 -13.9245 0.0000 57.3207 0.0000
# 6 0.0000 0.0000 0.0000 -6.9822 0.0000 23.0093
#
#
#
# Elastic Compliance Matrix: (Units=1/GPa)
#
#
# Indices 1 2 3 4 5 6 
#
# 1 0.009024 -0.002226 -0.004310 0.000000 0.003028 0.000000
# 2 -0.002226 0.016732 -0.002625 0.000000 0.002676 0.000000
# 3 -0.004310 -0.002625 0.015626 0.000000 0.000865 0.000000
# 4 0.000000 0.000000 0.000000 0.308840 0.000000 0.093717
# 5 0.003028 0.002676 0.000865 0.000000 0.019937 0.000000
# 6 0.000000 0.000000 0.000000 0.093717 0.000000 0.071899
#
#
# Mechanical properties :
#
#
# Convention : Reuss Voigt Hill
#
# Bulk Modulus (GPa) = 43.36715 56.80327 50.08521
# Shear Modulus (GPa) = 10.68220 30.51929 20.60075
#
# Velocity S-wave (km/s) = 2.14707 3.62913 2.98165
# Velocity P-wave (km/s) = 4.98614 6.48646 5.78514
#
# Compressibility (1/GPa) = 0.02305893
#
# Stress axis : x y z
#
# Youngs Moduli (GPa) = 110.81300 59.76672 63.99434
#
# Poissons Ratio (x) = 0.13306 0.27581
# Poissons Ratio (y) = 0.24671 0.16801
# Poissons Ratio (z) = 0.47759 0.15691
#
# Static dielectric constant tensor:
#      x y z
#    x 1.930530 0.000000 -0.018710 
#    y 0.000000 1.871760 0.000000 
#    z -0.018710 0.000000 1.941300 
# 
# From -- ./inp_files/39020.got.cif
#   From: 2010.05.17/outbox.cif.g08.bks.cpg/sg10_20_cif.got.tgz:39020.got - 2010.06.03 11:33:40.
