data_PCOD9153789
_publ_section_title
;
Structure prediction by ZEFSAII (Michael W. Deem and Ramdas Pophale) SiO2 
 PCOD9153789
Probable space group: P 2/M
;
_chemical_formula_sum "Si O2"
_cell_formula_units_Z 21
_cell_length_a 13.156424
_cell_length_b 18.236897
_cell_length_c 11.565087
_cell_angle_alpha 90.000000
_cell_angle_beta 157.107737
_cell_angle_gamma 90.000000
_cell_volume 1079.410935
_symmetry_space_group_name_H-M "P 2/M"
_symmetry_group_IT_number 10
_symmetry_cell_setting 'monoclinic'
loop_
_space_group_symop_operation_xyz
x,y,z
-x,y,-z
-x,-y,-z
x,-y,z
loop_
_atom_site_type_symbol
_atom_site_label
_atom_site_fract_x
_atom_site_fract_y
_atom_site_fract_z
Si Si1 0.000000 0.767313 0.500000
Si Si2 0.574517 0.350770 0.452591
Si Si3 0.934218 0.711958 0.177832
Si Si4 0.500000 0.500000 0.500000
Si Si5 0.500000 0.130170 0.000000
Si Si6 0.777907 0.838020 0.851851
Si Si7 0.386133 0.000000 0.707025
Si Si8 0.151695 0.000000 0.989685
O O1 0.010587 0.721359 0.391813
O O2 0.744269 0.818745 0.225190
O O3 0.500000 0.315206 0.500000
O O4 0.616316 0.434569 0.535892
O O5 0.820239 0.315946 0.642521
O O6 0.312287 0.341546 0.101913
O O7 0.823493 0.790437 0.015106
O O8 0.411800 0.073943 0.808034
O O9 0.500000 0.833221 0.500000
O O10 0.000000 0.808872 0.000000
O O11 0.825605 0.924057 0.920049
O O12 0.117233 0.000000 0.359443
O O13 0.617017 0.000000 0.858938
#
# Coordination Sequence:
#
# PCOD9153789 Si02
#       8
#     2   4   4   1   2   4   2   2
#     4  12  26  41  62  93 130 180 208 274 318 390
#     4  10  22  41  69 103 129 165 204 264 317 378
#     4  12  23  40  65  94 136 168 223 258 324 383
#     4   8  24  42  76 108 136 160 208 262 318 370
#     4  11  22  40  58  84 118 163 242 274 332 359
#     4  12  24  39  60  87 124 172 216 279 326 395
#     4  11  22  37  62  81 110 165 221 297 321 394
#     4  12  24  40  56  85 124 164 220 270 360 386
#
# _framework density 19.455055999999999
#
# number of rings (size 3 to 8) (size 9 to 14) (size 15 to 20)
#    0.571    0.190    0.000    9.714    0.000    3.048 
#    0.000    0.000    0.000    3.429    0.000    0.000 
#    0.000    0.000    0.000    0.000    0.000    0.000 
#
# Total GULP energy -117010.141708 kJ/mol
# GULP energy per Si atom -5571.911510 kJ/mol
# Density = 1.941078 g / cm^3
# Si number density = 19.455056 Si / 1000 Ang^3
#
#
#
# Elastic Constant Matrix: (Units=GPa)
#
#
# Indices 1 2 3 4 5 6 
#
# 1 132.3950 52.9930 70.8137 0.0000 4.5938 0.0000
# 2 52.9930 125.7649 51.6225 0.0000 -8.1710 0.0000
# 3 70.8137 51.6225 155.6962 0.0000 14.6003 0.0000
# 4 0.0000 0.0000 0.0000 2.7351 0.0000 -3.9117
# 5 4.5938 -8.1710 14.6003 0.0000 45.0755 0.0000
# 6 0.0000 0.0000 0.0000 -3.9117 0.0000 40.4040
#
#
#
# Elastic Compliance Matrix: (Units=1/GPa)
#
#
# Indices 1 2 3 4 5 6 
#
# 1 0.010856 -0.002995 -0.003908 0.000000 -0.000383 0.000000
# 2 -0.002995 0.010370 -0.002353 0.000000 0.002947 0.000000
# 3 -0.003908 -0.002353 0.009265 0.000000 -0.003029 0.000000
# 4 0.000000 0.000000 0.000000 0.424379 0.000000 0.041086
# 5 -0.000383 0.002947 -0.003029 0.000000 0.023739 0.000000
# 6 0.000000 0.000000 0.000000 0.041086 0.000000 0.028728
#
#
# Mechanical properties :
#
#
# Convention : Reuss Voigt Hill
#
# Bulk Modulus (GPa) = 83.48158 84.96826 84.22492
# Shear Modulus (GPa) = 9.43678 33.53803 21.48740
#
# Velocity S-wave (km/s) = 2.20479 4.15646 3.32695
# Velocity P-wave (km/s) = 7.03453 8.17336 7.62523
#
# Compressibility (1/GPa) = 0.01197869
#
# Stress axis : x y z
#
# Youngs Moduli (GPa) = 92.11768 96.42799 107.93865
#
# Poissons Ratio (x) = 0.28878 0.42188
# Poissons Ratio (y) = 0.27587 0.25395
# Poissons Ratio (z) = 0.36004 0.22687
#
# Static dielectric constant tensor:
#      x y z
#    x 1.706560 0.000000 -0.015740 
#    y 0.000000 1.664180 0.000000 
#    z -0.015740 0.000000 1.681870 
# 
# From -- ./inp_files/51921.got.cif
#   From: 2010.05.17/outbox.cif.g08.bks.cpg/sg10_26_cif.got.tgz:51921.got - 2010.06.03 11:33:40.
