data_PCOD9153095
_publ_section_title
;
Structure prediction by ZEFSAII (Michael W. Deem and Ramdas Pophale) SiO2 
 PCOD9153095
Probable space group: P 2/M
;
_chemical_formula_sum "Si O2"
_cell_formula_units_Z 32
_cell_length_a 21.254213
_cell_length_b 8.730833
_cell_length_c 27.269391
_cell_angle_alpha 90.000000
_cell_angle_beta 18.715781
_cell_angle_gamma 90.000000
_cell_volume 1623.717606
_symmetry_space_group_name_H-M "P 2/M"
_symmetry_group_IT_number 10
_symmetry_cell_setting 'monoclinic'
loop_
_space_group_symop_operation_xyz
x,y,z
-x,y,-z
-x,-y,-z
x,-y,z
loop_
_atom_site_type_symbol
_atom_site_label
_atom_site_fract_x
_atom_site_fract_y
_atom_site_fract_z
Si Si1 0.530150 0.315010 0.534798
Si Si2 0.977026 0.686458 0.210299
Si Si3 0.980350 0.816397 0.626977
Si Si4 0.772827 0.183217 0.162497
Si Si5 0.597375 0.816662 0.847473
Si Si6 0.644731 0.683024 0.704103
Si Si7 0.269435 0.316338 0.912537
Si Si8 0.179927 0.683205 0.160771
O O1 0.500000 0.273554 0.500000
O O2 0.520040 0.500000 0.545612
O O3 0.752586 0.265648 0.383150
O O4 0.367968 0.248955 0.691253
O O5 0.978264 0.500000 0.208559
O O6 0.109838 0.733149 0.158463
O O7 0.077334 0.734929 0.085174
O O8 0.783175 0.771287 0.743136
O O9 0.970910 0.741351 0.687321
O O10 0.166520 0.755826 0.460421
O O11 0.984895 0.000000 0.627381
O O12 0.707946 0.237660 0.156467
O O13 0.767406 0.000000 0.169308
O O14 0.000000 0.234141 0.000000
O O15 0.622289 0.752766 0.774436
O O16 0.589231 0.000000 0.852836
O O17 0.390513 0.752687 0.018391
O O18 0.665258 0.500000 0.692942
O O19 0.454191 0.713704 0.811449
O O20 0.256853 0.500000 0.914366
O O21 0.192203 0.500000 0.151916
#
# Coordination Sequence:
#
# PCOD9153095 Si02
#       8
#     4   4   4   4   4   4   4   4
#     4  10  21  39  67  96 123 161 205 247 296 355
#     4   9  19  38  62  90 121 153 198 255 305 352
#     4  11  25  41  58  86 125 163 204 257 315 377
#     4  11  25  42  61  92 132 167 201 245 296 353
#     4  11  23  41  62  86 121 164 206 254 314 378
#     4  11  23  40  64  92 120 158 208 262 312 366
#     4  10  21  41  66  90 120 159 204 253 303 359
#     4  11  22  39  62  89 122 160 208 262 309 362
#
# _framework density 19.707861999999999
#
# number of rings (size 3 to 8) (size 9 to 14) (size 15 to 20)
#    0.000    1.500    1.250    3.375    1.750    8.250 
#    0.000    1.250    0.000    0.000    0.000    0.000 
#    0.000    0.000    0.000    0.000    0.000    0.000 
#
# Total GULP energy -178886.106045 kJ/mol
# GULP energy per Si atom -5590.190814 kJ/mol
# Density = 1.966301 g / cm^3
# Si number density = 19.707862 Si / 1000 Ang^3
#
#
#
# Elastic Constant Matrix: (Units=GPa)
#
#
# Indices 1 2 3 4 5 6 
#
# 1 94.7775 31.1925 43.4640 0.0000 19.8209 0.0000
# 2 31.1925 32.0452 29.3387 0.0000 -0.9673 0.0000
# 3 43.4640 29.3387 136.0353 0.0000 12.5786 0.0000
# 4 0.0000 0.0000 0.0000 500.6562 0.0000 -322.0015
# 5 19.8209 -0.9673 12.5786 0.0000 34.0944 0.0000
# 6 0.0000 0.0000 0.0000 -322.0015 0.0000 294.2980
#
#
#
# Elastic Compliance Matrix: (Units=1/GPa)
#
#
# Indices 1 2 3 4 5 6 
#
# 1 0.019482 -0.018157 -0.001257 0.000000 -0.011378 0.000000
# 2 -0.018157 0.056437 -0.007759 0.000000 0.015019 0.000000
# 3 -0.001257 -0.007759 0.009710 0.000000 -0.003072 0.000000
# 4 0.000000 0.000000 0.000000 0.006741 0.000000 0.007376
# 5 -0.011378 0.015019 -0.003072 0.000000 0.037504 0.000000
# 6 0.000000 0.000000 0.000000 0.007376 0.000000 0.011468
#
#
# Mechanical properties :
#
#
# Convention : Reuss Voigt Hill
#
# Bulk Modulus (GPa) = 31.96570 52.31648 42.14109
# Shear Modulus (GPa) = 24.25818 176.40058 100.32938
#
# Velocity S-wave (km/s) = 3.51221 9.47112 7.14275
# Velocity P-wave (km/s) = 5.71861 12.09158 9.45803
#
# Compressibility (1/GPa) = 0.03128354
#
# Stress axis : x y z
#
# Youngs Moduli (GPa) = 51.32828 17.71895 102.98566
#
# Poissons Ratio (x) = 0.32172 0.12944
# Poissons Ratio (y) = 0.93195 0.79910
# Poissons Ratio (z) = 0.06451 0.13749
#
# Static dielectric constant tensor:
#      x y z
#    x 1.672490 0.000000 -0.018280 
#    y 0.000000 1.660810 0.000000 
#    z -0.018280 0.000000 1.669800 
# 
# From -- ./inp_files/93632.got.cif
#   From: 2010.05.17/outbox.cif.g08.bks.cpg/sg10_47_cif.got.tgz:93632.got - 2010.06.03 11:33:40.
