data_PCOD9153965
_publ_section_title
;
Structure prediction by ZEFSAII (Michael W. Deem and Ramdas Pophale) SiO2 
 PCOD9153965
Probable space group: P 2/M
;
_chemical_formula_sum "Si O2"
_cell_formula_units_Z 18
_cell_length_a 9.486991
_cell_length_b 16.055411
_cell_length_c 5.163792
_cell_angle_alpha 90.000000
_cell_angle_beta 100.569436
_cell_angle_gamma 90.000000
_cell_volume 773.191200
_symmetry_space_group_name_H-M "P 2/M"
_symmetry_group_IT_number 10
_symmetry_cell_setting 'monoclinic'
loop_
_space_group_symop_operation_xyz
x,y,z
-x,y,-z
-x,-y,-z
x,-y,z
loop_
_atom_site_type_symbol
_atom_site_label
_atom_site_fract_x
_atom_site_fract_y
_atom_site_fract_z
Si Si1 0.829143 0.598126 0.463339
Si Si2 0.942791 0.903117 0.223576
Si Si3 0.372546 0.909834 0.752910
Si Si4 0.500000 0.769711 0.500000
Si Si5 0.355883 0.638431 0.077553
O O1 0.816839 0.500000 0.389025
O O2 0.746943 0.606479 0.716716
O O3 0.000000 0.618158 0.500000
O O4 0.744505 0.648014 0.208975
O O5 0.774999 0.906535 0.148127
O O6 0.000000 0.863251 0.500000
O O7 0.998888 0.000000 0.245095
O O8 0.000000 0.855729 0.000000
O O9 0.381420 0.833242 0.565179
O O10 0.373504 0.000000 0.617091
O O11 0.500000 0.905988 0.000000
O O12 0.432224 0.715883 0.247821
O O13 0.500000 0.594123 0.000000
#
# Coordination Sequence:
#
# PCOD9153965 Si02
#       5
#     4   4   4   2   4
#     4  11  25  47  78 114 148 185 238 297 349 415
#     4   9  19  37  61  91 125 155 201 280 358 414
#     4  10  23  41  71  99 128 178 243 305 359 416
#     4  12  25  44  69  96 150 188 240 296 351 432
#     4  12  24  46  73 106 150 200 232 290 354 426
#
# _framework density 23.280144
#
# number of rings (size 3 to 8) (size 9 to 14) (size 15 to 20)
#    0.000    1.333    2.222    2.333    3.111    4.444 
#    0.000    1.111    4.889    0.000    0.000    0.000 
#    0.000    0.889    0.000    0.000    0.000    0.000 
#
# Total GULP energy -100322.532404 kJ/mol
# GULP energy per Si atom -5573.474022 kJ/mol
# Density = 2.322716 g / cm^3
# Si number density = 23.280144 Si / 1000 Ang^3
#
#
#
# Elastic Constant Matrix: (Units=GPa)
#
#
# Indices 1 2 3 4 5 6 
#
# 1 171.2654 23.9197 80.6989 0.0000 -7.1047 0.0000
# 2 23.9197 87.9226 28.9197 0.0000 -3.2106 0.0000
# 3 80.6989 28.9197 178.2633 0.0000 -8.1189 0.0000
# 4 0.0000 0.0000 0.0000 17.1665 0.0000 -19.6056
# 5 -7.1047 -3.2106 -8.1189 0.0000 49.4748 0.0000
# 6 0.0000 0.0000 0.0000 -19.6056 0.0000 -52.2935
#
#
#
# Elastic Compliance Matrix: (Units=1/GPa)
#
#
# Indices 1 2 3 4 5 6 
#
# 1 0.007512 -0.000966 -0.003222 0.000000 0.000487 0.000000
# 2 -0.000966 0.012150 -0.001515 0.000000 0.000401 0.000000
# 3 -0.003222 -0.001515 0.007343 0.000000 0.000644 0.000000
# 4 0.000000 0.000000 0.000000 0.040788 0.000000 -0.015292
# 5 0.000487 0.000401 0.000644 0.000000 0.020414 0.000000
# 6 0.000000 0.000000 0.000000 -0.015292 0.000000 -0.013390
#
#
# Mechanical properties :
#
#
# Convention : Reuss Voigt Hill
#
# Bulk Modulus (GPa) = 64.10925 78.28086 71.19506
# Shear Modulus (GPa) = 54.69041 23.13043 38.91042
#
# Velocity S-wave (km/s) = 4.85214 3.15551 4.09271
# Velocity P-wave (km/s) = 7.68043 6.85383 7.27887
#
# Compressibility (1/GPa) = 0.01559837
#
# Stress axis : x y z
#
# Youngs Moduli (GPa) = 133.11827 82.30737 136.17812
#
# Poissons Ratio (x) = 0.07953 0.43873
# Poissons Ratio (y) = 0.12862 0.20636
# Poissons Ratio (z) = 0.42887 0.12473
#
# Static dielectric constant tensor:
#      x y z
#    x 1.878210 0.000000 -0.075120 
#    y 0.000000 1.894650 0.000000 
#    z -0.075120 0.000000 1.903620 
# 
# From -- ./inp_files/4188.got.cif
#   From: 2010.05.17/outbox.cif.g08.bks.cpg/sg10_3_cif.got.tgz:4188.got - 2010.06.03 11:33:40.
