data_PCOD9153543
_publ_section_title
;
Structure prediction by ZEFSAII (Michael W. Deem and Ramdas Pophale) SiO2 
 PCOD9153543
Probable space group: P 2/M
;
_chemical_formula_sum "Si O2"
_cell_formula_units_Z 12
_cell_length_a 7.041415
_cell_length_b 10.468377
_cell_length_c 9.209103
_cell_angle_alpha 90.000000
_cell_angle_beta 47.778668
_cell_angle_gamma 90.000000
_cell_volume 502.705486
_symmetry_space_group_name_H-M "P 2/M"
_symmetry_group_IT_number 10
_symmetry_cell_setting 'monoclinic'
loop_
_space_group_symop_operation_xyz
x,y,z
-x,y,-z
-x,-y,-z
x,-y,z
loop_
_atom_site_type_symbol
_atom_site_label
_atom_site_fract_x
_atom_site_fract_y
_atom_site_fract_z
Si Si1 0.935989 0.857189 0.861070
Si Si2 0.804437 0.353944 0.463664
Si Si3 0.703842 0.362588 0.096120
O O1 0.131503 0.769040 0.668344
O O2 0.902775 0.000000 0.817823
O O3 0.700233 0.759827 0.995955
O O4 0.000000 0.874437 0.000000
O O5 0.836789 0.500000 0.385390
O O6 0.514507 0.347514 0.671055
O O7 0.000000 0.347462 0.500000
O O8 0.653612 0.500000 0.053091
O O9 0.000000 0.369078 0.000000
#
# Coordination Sequence:
#
# PCOD9153543 Si02
#       3
#     4   4   4
#     4  10  22  39  60  88 122 159 200 246 297 356
#     4  10  22  40  62  89 121 157 198 247 302 356
#     4   9  19  37  61  87 116 154 202 250 294 348
#
# _framework density 23.870833999999999
#
# number of rings (size 3 to 8) (size 9 to 14) (size 15 to 20)
#    0.000    2.333    0.000    1.000    0.000   10.667 
#    0.000   30.000    0.000    0.000    0.000    0.000 
#    0.000    0.000    0.000    0.000    0.000    0.000 
#
# Total GULP energy -66830.567698 kJ/mol
# GULP energy per Si atom -5569.213975 kJ/mol
# Density = 2.381650 g / cm^3
# Si number density = 23.870834 Si / 1000 Ang^3
#
#
#
# Elastic Constant Matrix: (Units=GPa)
#
#
# Indices 1 2 3 4 5 6 
#
# 1 -14.4596 68.0603 42.6047 0.0000 187.4649 0.0000
# 2 68.0603 322.0463 105.4367 0.0000 -51.8492 0.0000
# 3 42.6047 105.4367 184.3796 0.0000 -31.9353 0.0000
# 4 0.0000 0.0000 0.0000 58.7954 0.0000 33.8901
# 5 187.4649 -51.8492 -31.9353 0.0000 -221.6965 0.0000
# 6 0.0000 0.0000 0.0000 33.8901 0.0000 24.5141
#
#
#
# Elastic Compliance Matrix: (Units=1/GPa)
#
#
# Indices 1 2 3 4 5 6 
#
# 1 0.007045 -0.000393 -0.000347 0.000000 0.006099 0.000000
# 2 -0.000393 0.003771 -0.002221 0.000000 -0.000895 0.000000
# 3 -0.000347 -0.002221 0.006647 0.000000 -0.000731 0.000000
# 4 0.000000 0.000000 0.000000 0.083730 0.000000 -0.115754
# 5 0.006099 -0.000895 -0.000731 0.000000 0.000962 0.000000
# 6 0.000000 0.000000 0.000000 -0.115754 0.000000 0.200821
#
#
# Mechanical properties :
#
#
# Convention : Reuss Voigt Hill
#
# Bulk Modulus (GPa) = 86.63906 102.68551 94.66229
# Shear Modulus (GPa) = 15.98751 -9.28644 3.35054
#
# Velocity S-wave (km/s) = 2.59076 -1.97452 1.18603
# Velocity P-wave (km/s) = 6.73225 6.15729 6.45118
#
# Compressibility (1/GPa) = 0.01154214
#
# Stress axis : x y z
#
# Youngs Moduli (GPa) = 141.93940 265.16311 150.44621
#
# Poissons Ratio (x) = 0.10434 0.05213
# Poissons Ratio (y) = 0.05585 0.33409
# Poissons Ratio (z) = 0.04918 0.58883
#
# Static dielectric constant tensor:
#      x y z
#    x 2.050990 0.000000 0.142440 
#    y 0.000000 2.051680 0.000000 
#    z 0.142440 0.000000 2.030300 
# 
# From -- ./inp_files/17521.got.cif
#   From: 2010.05.17/outbox.cif.g08.bks.cpg/sg10_9_cif.got.tgz:17521.got - 2010.06.03 11:33:40.
