data_PCOD9153717
_publ_section_title
;
Structure prediction by ZEFSAII (Michael W. Deem and Ramdas Pophale) SiO2 
 PCOD9153717
Probable space group: P 2/M
;
_chemical_formula_sum "Si O2"
_cell_formula_units_Z 28
_cell_length_a 12.653802
_cell_length_b 14.056492
_cell_length_c 10.154897
_cell_angle_alpha 90.000000
_cell_angle_beta 49.423752
_cell_angle_gamma 90.000000
_cell_volume 1371.907218
_symmetry_space_group_name_H-M "P 2/M"
_symmetry_group_IT_number 10
_symmetry_cell_setting 'monoclinic'
loop_
_space_group_symop_operation_xyz
x,y,z
-x,y,-z
-x,-y,-z
x,-y,z
loop_
_atom_site_type_symbol
_atom_site_label
_atom_site_fract_x
_atom_site_fract_y
_atom_site_fract_z
Si Si1 0.613341 0.888825 0.123622
Si Si2 0.892514 0.614638 0.273646
Si Si3 0.363237 0.698293 0.035694
Si Si4 0.845424 0.727136 0.577633
Si Si5 0.205867 0.614156 0.928136
Si Si6 0.700624 0.888401 0.543723
Si Si7 0.155502 0.885108 0.847044
O O1 0.466321 0.877944 0.318787
O O2 0.740675 0.865275 0.117579
O O3 0.623645 0.000000 0.074186
O O4 0.619563 0.811180 0.004450
O O5 0.884306 0.500000 0.290238
O O6 0.848627 0.662422 0.444898
O O7 0.053794 0.638663 0.111179
O O8 0.802204 0.644144 0.218516
O O9 0.236124 0.679192 0.236545
O O10 0.326022 0.654833 0.923834
O O11 0.500000 0.662951 0.000000
O O12 0.765077 0.822807 0.603431
O O13 0.000000 0.748431 0.500000
O O14 0.215848 0.500000 0.921032
O O15 0.773852 0.858111 0.348037
O O16 0.729924 0.000000 0.541171
O O17 0.145603 0.000000 0.849009
O O18 0.000000 0.847974 0.000000
#
# Coordination Sequence:
#
# PCOD9153717 Si02
#       7
#     4   4   4   4   4   4   4
#     4  10  22  41  63  85 124 178 222 260 312 380
#     4   9  20  42  71  98 125 163 210 258 318 391
#     4  12  25  42  61  96 134 168 213 262 321 382
#     4  12  25  40  61  98 132 164 211 266 326 379
#     4   9  20  42  71  98 125 163 209 260 319 385
#     4  10  22  41  61  86 127 175 221 262 314 379
#     4   9  19  35  59  91 118 154 213 274 321 361
#
# _framework density 20.409545000000001
#
# number of rings (size 3 to 8) (size 9 to 14) (size 15 to 20)
#    0.000    1.857    2.857    1.286    4.000    4.000 
#    0.000    0.714    0.000    1.714    0.000    0.000 
#    0.000    0.000    0.000    0.000    0.000    0.000 
#
# Total GULP energy -156412.161114 kJ/mol
# GULP energy per Si atom -5586.148611 kJ/mol
# Density = 2.036309 g / cm^3
# Si number density = 20.409545 Si / 1000 Ang^3
#
#
#
# Elastic Constant Matrix: (Units=GPa)
#
#
# Indices 1 2 3 4 5 6 
#
# 1 159.7738 35.3459 32.9178 0.0000 4.2900 0.0000
# 2 35.3459 59.0745 23.9363 0.0000 9.3660 0.0000
# 3 32.9178 23.9363 88.2860 0.0000 6.8626 0.0000
# 4 0.0000 0.0000 0.0000 11.2197 0.0000 -0.7014
# 5 4.2900 9.3660 6.8626 0.0000 34.6182 0.0000
# 6 0.0000 0.0000 0.0000 -0.7014 0.0000 18.6684
#
#
#
# Elastic Compliance Matrix: (Units=1/GPa)
#
#
# Indices 1 2 3 4 5 6 
#
# 1 0.007457 -0.003813 -0.001783 0.000000 0.000461 0.000000
# 2 -0.003813 0.021583 -0.004076 0.000000 -0.004559 0.000000
# 3 -0.001783 -0.004076 0.013197 0.000000 -0.001293 0.000000
# 4 0.000000 0.000000 0.000000 0.089339 0.000000 0.003357
# 5 0.000461 -0.004559 -0.001293 0.000000 0.030319 0.000000
# 6 0.000000 0.000000 0.000000 0.003357 0.000000 0.053693
#
#
# Mechanical properties :
#
#
# Convention : Reuss Voigt Hill
#
# Bulk Modulus (GPa) = 43.67677 54.61491 49.14584
# Shear Modulus (GPa) = 20.61330 27.23020 23.92175
#
# Velocity S-wave (km/s) = 3.18147 3.65662 3.42729
# Velocity P-wave (km/s) = 5.91120 6.68172 6.30824
#
# Compressibility (1/GPa) = 0.02289547
#
# Stress axis : x y z
#
# Youngs Moduli (GPa) = 134.09896 46.33232 75.77504
#
# Poissons Ratio (x) = 0.17665 0.13507
# Poissons Ratio (y) = 0.51127 0.30884
# Poissons Ratio (z) = 0.23904 0.18884
#
# Static dielectric constant tensor:
#      x y z
#    x 1.713080 0.000000 0.007540 
#    y 0.000000 1.742150 0.000000 
#    z 0.007540 0.000000 1.711970 
# 
# From -- ./inp_files/25212.got.cif
#   From: 2010.05.17/outbox.cif.g08.bks.cpg/sg10_13_cif.got.tgz:25212.got - 2010.06.03 11:33:40.
