data_PCOD9153070
_publ_section_title
;
Structure prediction by ZEFSAII (Michael W. Deem and Ramdas Pophale) SiO2 
 PCOD9153070
Probable space group: P 2/M
;
_chemical_formula_sum "Si O2"
_cell_formula_units_Z 20
_cell_length_a 13.145540
_cell_length_b 16.360259
_cell_length_c 15.325341
_cell_angle_alpha 90.000000
_cell_angle_beta 161.603368
_cell_angle_gamma 90.000000
_cell_volume 1040.175141
_symmetry_space_group_name_H-M "P 2/M"
_symmetry_group_IT_number 10
_symmetry_cell_setting 'monoclinic'
loop_
_space_group_symop_operation_xyz
x,y,z
-x,y,-z
-x,-y,-z
x,-y,z
loop_
_atom_site_type_symbol
_atom_site_label
_atom_site_fract_x
_atom_site_fract_y
_atom_site_fract_z
Si Si1 0.621167 0.905890 0.697802
Si Si2 0.772546 0.500000 0.455326
Si Si3 0.975453 0.500000 0.149743
Si Si4 0.042717 0.676705 0.934337
Si Si5 0.117931 0.329641 0.689733
Si Si6 0.709594 0.751941 0.497955
O O1 0.500000 0.900084 0.500000
O O2 0.429529 0.842702 0.602590
O O3 0.584629 0.000000 0.697449
O O4 0.000000 0.886875 0.000000
O O5 0.796508 0.500000 0.580257
O O6 0.953065 0.418236 0.571227
O O7 0.398563 0.500000 0.123083
O O8 0.024909 0.581507 0.135076
O O9 0.415544 0.697778 0.220968
O O10 0.000000 0.699622 0.000000
O O11 0.819031 0.722786 0.683137
O O12 0.000000 0.299046 0.500000
O O13 0.002068 0.268204 0.671405
O O14 0.500000 0.339443 0.000000
#
# Coordination Sequence:
#
# PCOD9153070 Si02
#       6
#     4   2   2   4   4   4
#     4  10  21  39  65  96 124 152 187 230 292 364
#     4  12  22  41  59  77 114 155 209 263 304 328
#     4  12  21  39  54  81 118 159 194 247 287 356
#     4  12  23  37  58  84 120 161 195 235 295 356
#     4  12  24  40  60  83 112 157 205 259 304 340
#     4  12  23  40  60  87 121 152 199 248 293 351
#
# _framework density 19.227532
#
# number of rings (size 3 to 8) (size 9 to 14) (size 15 to 20)
#    0.000    0.400    4.000    6.900    0.000    0.000 
#    0.000    3.000    0.000    1.200    0.000    0.000 
#    0.000    0.000    0.000    0.000    0.000    0.000 
#
# Total GULP energy -111910.577561 kJ/mol
# GULP energy per Si atom -5595.528878 kJ/mol
# Density = 1.918377 g / cm^3
# Si number density = 19.227532 Si / 1000 Ang^3
#
#
#
# Elastic Constant Matrix: (Units=GPa)
#
#
# Indices 1 2 3 4 5 6 
#
# 1 80.1353 50.9002 5.6451 0.0000 -2.4155 0.0000
# 2 50.9002 136.0425 19.4485 0.0000 8.5438 0.0000
# 3 5.6451 19.4485 81.9345 0.0000 -6.0530 0.0000
# 4 0.0000 0.0000 0.0000 10.3044 0.0000 -14.7192
# 5 -2.4155 8.5438 -6.0530 0.0000 34.5597 0.0000
# 6 0.0000 0.0000 0.0000 -14.7192 0.0000 2.5123
#
#
#
# Elastic Compliance Matrix: (Units=1/GPa)
#
#
# Indices 1 2 3 4 5 6 
#
# 1 0.016649 -0.006497 0.000608 0.000000 0.002876 0.000000
# 2 -0.006497 0.010317 -0.002252 0.000000 -0.003399 0.000000
# 3 0.000608 -0.002252 0.012909 0.000000 0.002860 0.000000
# 4 0.000000 0.000000 0.000000 -0.013170 0.000000 -0.077158
# 5 0.002876 -0.003399 0.002860 0.000000 0.030478 0.000000
# 6 0.000000 0.000000 0.000000 -0.077158 0.000000 -0.054016
#
#
# Mechanical properties :
#
#
# Convention : Reuss Voigt Hill
#
# Bulk Modulus (GPa) = 42.38750 50.01111 46.19931
# Shear Modulus (GPa) = 183.04795 24.28317 103.66556
#
# Velocity S-wave (km/s) = 9.76768 3.55764 7.35066
# Velocity P-wave (km/s) = 12.21897 6.55304 9.80422
#
# Compressibility (1/GPa) = 0.02359186
#
# Stress axis : x y z
#
# Youngs Moduli (GPa) = 60.06197 96.92823 77.46554
#
# Poissons Ratio (x) = 0.62973 -0.04706
# Poissons Ratio (y) = 0.39021 0.17448
# Poissons Ratio (z) = -0.03649 0.21832
#
# Static dielectric constant tensor:
#      x y z
#    x 1.673560 0.000000 0.028570 
#    y 0.000000 1.672670 0.000000 
#    z 0.028570 0.000000 1.688530 
# 
# From -- ./inp_files/6742.got.cif
#   From: 2010.05.17/outbox.cif.g08.bks.cpg/sg10_4_cif.got.tgz:6742.got - 2010.06.03 11:33:40.
