data_PCOD9153170
_publ_section_title
;
Structure prediction by ZEFSAII (Michael W. Deem and Ramdas Pophale) SiO2 
 PCOD9153170
Probable space group: P 2/M
;
_chemical_formula_sum "Si O2"
_cell_formula_units_Z 32
_cell_length_a 11.411427
_cell_length_b 14.057492
_cell_length_c 17.859477
_cell_angle_alpha 90.000000
_cell_angle_beta 149.013099
_cell_angle_gamma 90.000000
_cell_volume 1474.995133
_symmetry_space_group_name_H-M "P 2/M"
_symmetry_group_IT_number 10
_symmetry_cell_setting 'monoclinic'
loop_
_space_group_symop_operation_xyz
x,y,z
-x,y,-z
-x,-y,-z
x,-y,z
loop_
_atom_site_type_symbol
_atom_site_label
_atom_site_fract_x
_atom_site_fract_y
_atom_site_fract_z
Si Si1 0.095055 0.653183 0.375733
Si Si2 0.574582 0.894185 0.118570
Si Si3 0.113306 0.108619 0.960625
Si Si4 0.818729 0.256297 0.345699
Si Si5 0.320291 0.296791 0.121793
Si Si6 0.251679 0.210934 0.343457
Si Si7 0.621102 0.391751 0.689802
Si Si8 0.301380 0.393196 0.949591
O O1 0.140929 0.755419 0.360972
O O2 0.344263 0.611949 0.530582
O O3 0.945492 0.661838 0.368794
O O4 0.930548 0.604914 0.224928
O O5 0.746473 0.824527 0.249984
O O6 0.666943 0.000000 0.157557
O O7 0.500000 0.852123 0.000000
O O8 0.344970 0.899215 0.040032
O O9 0.909743 0.145839 0.795867
O O10 0.065648 0.000000 0.960168
O O11 0.192353 0.195117 0.058796
O O12 0.593146 0.285168 0.266093
O O13 0.000000 0.213439 0.500000
O O14 0.288463 0.361790 0.177865
O O15 0.266856 0.335975 0.008400
O O16 0.500000 0.169794 0.500000
O O17 0.296480 0.309385 0.321725
O O18 0.693644 0.500000 0.711872
O O19 0.368099 0.500000 0.008668
O O20 0.500000 0.360127 0.000000
#
# Coordination Sequence:
#
# PCOD9153170 Si02
#       8
#     4   4   4   4   4   4   4   4
#     4  11  21  40  62  89 126 167 203 253 307 366
#     4   9  19  34  60  94 124 159 205 253 311 375
#     4  10  21  40  65  90 122 163 205 255 317 374
#     4  11  21  35  60  90 127 170 199 248 311 367
#     4  11  22  41  63  94 130 161 203 260 311 373
#     4  10  23  41  65  91 121 163 213 261 310 366
#     4  11  25  44  64  88 125 166 212 259 314 374
#     4  11  22  35  59  93 126 164 207 251 308 374
#
# _framework density 21.694986
#
# number of rings (size 3 to 8) (size 9 to 14) (size 15 to 20)
#    0.000    1.500    3.750    1.500    1.750    3.750 
#    0.000    2.500    0.000    1.500    0.000    0.000 
#    0.000    0.000    0.000    0.000    0.000    0.000 
#
# Total GULP energy -178582.030848 kJ/mol
# GULP energy per Si atom -5580.688464 kJ/mol
# Density = 2.164561 g / cm^3
# Si number density = 21.694986 Si / 1000 Ang^3
#
#
#
# Elastic Constant Matrix: (Units=GPa)
#
#
# Indices 1 2 3 4 5 6 
#
# 1 75.8333 13.0636 11.0634 0.0000 1.9819 0.0000
# 2 13.0636 96.3796 13.0606 0.0000 1.0546 0.0000
# 3 11.0634 13.0606 84.7876 0.0000 -6.9321 0.0000
# 4 0.0000 0.0000 0.0000 45.6350 0.0000 3.3962
# 5 1.9819 1.0546 -6.9321 0.0000 34.7482 0.0000
# 6 0.0000 0.0000 0.0000 3.3962 0.0000 11.5804
#
#
#
# Elastic Compliance Matrix: (Units=1/GPa)
#
#
# Indices 1 2 3 4 5 6 
#
# 1 0.013733 -0.001629 -0.001627 0.000000 -0.001058 0.000000
# 2 -0.001629 0.010805 -0.001495 0.000000 -0.000533 0.000000
# 3 -0.001627 -0.001495 0.012451 0.000000 0.002622 0.000000
# 4 0.000000 0.000000 0.000000 0.022402 0.000000 -0.006570
# 5 -0.001058 -0.000533 0.002622 0.000000 0.029378 0.000000
# 6 0.000000 0.000000 0.000000 -0.006570 0.000000 0.088280
#
#
# Mechanical properties :
#
#
# Convention : Reuss Voigt Hill
#
# Bulk Modulus (GPa) = 36.38397 36.81951 36.60174
# Shear Modulus (GPa) = 25.54743 33.04692 29.29717
#
# Velocity S-wave (km/s) = 3.43530 3.90712 3.67878
# Velocity P-wave (km/s) = 5.70457 6.11248 5.91204
#
# Compressibility (1/GPa) = 0.02748463
#
# Stress axis : x y z
#
# Youngs Moduli (GPa) = 72.81958 92.55015 80.31309
#
# Poissons Ratio (x) = 0.15079 0.13070
# Poissons Ratio (y) = 0.11864 0.12010
# Poissons Ratio (z) = 0.11851 0.13840
#
# Static dielectric constant tensor:
#      x y z
#    x 1.837450 0.000000 0.010930 
#    y 0.000000 1.804300 0.000000 
#    z 0.010930 0.000000 1.774170 
# 
# From -- ./inp_files/77067.got.cif
#   From: 2010.05.17/outbox.cif.g08.bks.cpg/sg10_39_cif.got.tgz:77067.got - 2010.06.03 11:33:40.
