data_PCOD9153528
_publ_section_title
;
Structure prediction by ZEFSAII (Michael W. Deem and Ramdas Pophale) SiO2 
 PCOD9153528
Probable space group: P 2/M
;
_chemical_formula_sum "Si O2"
_cell_formula_units_Z 28
_cell_length_a 9.759760
_cell_length_b 19.235743
_cell_length_c 15.446638
_cell_angle_alpha 90.000000
_cell_angle_beta 29.392769
_cell_angle_gamma 90.000000
_cell_volume 1423.249826
_symmetry_space_group_name_H-M "P 2/M"
_symmetry_group_IT_number 10
_symmetry_cell_setting 'monoclinic'
loop_
_space_group_symop_operation_xyz
x,y,z
-x,y,-z
-x,-y,-z
x,-y,z
loop_
_atom_site_type_symbol
_atom_site_label
_atom_site_fract_x
_atom_site_fract_y
_atom_site_fract_z
Si Si1 0.619089 0.836139 0.531326
Si Si2 0.663304 0.077680 0.676345
Si Si3 0.701793 0.292391 0.200745
Si Si4 0.254539 0.692408 0.302680
Si Si5 0.773052 0.580286 0.289839
Si Si6 0.813417 0.578906 0.792618
Si Si7 0.287907 0.173528 0.189009
O O1 0.500000 0.850196 0.500000
O O2 0.569473 0.893320 0.634564
O O3 0.468083 0.765564 0.649924
O O4 0.959904 0.833119 0.344443
O O5 0.613235 0.133968 0.778498
O O6 0.000000 0.072392 0.500000
O O7 0.550577 0.000000 0.753837
O O8 0.512946 0.313408 0.223447
O O9 0.743990 0.362838 0.231839
O O10 0.000000 0.266407 0.000000
O O11 0.159362 0.622327 0.309287
O O12 0.326009 0.745518 0.187751
O O13 0.000000 0.722489 0.500000
O O14 0.500000 0.578259 0.500000
O O15 0.831407 0.500000 0.229350
O O16 0.008715 0.606853 0.225700
O O17 0.908712 0.500000 0.724955
O O18 0.500000 0.578234 0.000000
O O19 0.500000 0.148832 0.000000
#
# Coordination Sequence:
#
# PCOD9153528 Si02
#       7
#     4   4   4   4   4   4   4
#     4  11  24  40  64  97 131 165 209 257 314 370
#     4   9  19  42  68  94 131 167 206 255 307 370
#     4  12  25  38  61  90 128 165 207 265 318 371
#     4  12  22  39  60  87 124 158 211 264 306 369
#     4  10  22  41  60  84 120 163 209 259 320 381
#     4  10  22  39  59  84 117 157 207 260 313 374
#     4  11  23  41  66  95 127 169 211 257 309 371
#
# _framework density 19.673285
#
# number of rings (size 3 to 8) (size 9 to 14) (size 15 to 20)
#    0.000    1.286    2.857    3.000    4.000    1.714 
#    0.000    0.000    0.000    3.000    0.000    0.000 
#    0.000    0.000    0.000    0.000    0.000    0.000 
#
# Total GULP energy -156202.169738 kJ/mol
# GULP energy per Si atom -5578.648919 kJ/mol
# Density = 1.962851 g / cm^3
# Si number density = 19.673285 Si / 1000 Ang^3
#
#
#
# Elastic Constant Matrix: (Units=GPa)
#
#
# Indices 1 2 3 4 5 6 
#
# 1 152.3362 42.2723 29.1641 0.0000 -15.0405 0.0000
# 2 42.2723 67.5878 9.0703 0.0000 4.5071 0.0000
# 3 29.1641 9.0703 75.0918 0.0000 -2.4464 0.0000
# 4 0.0000 0.0000 0.0000 -137.9961 0.0000 -56.8597
# 5 -15.0405 4.5071 -2.4464 0.0000 30.0690 0.0000
# 6 0.0000 0.0000 0.0000 -56.8597 0.0000 -7.4839
#
#
#
# Elastic Compliance Matrix: (Units=1/GPa)
#
#
# Indices 1 2 3 4 5 6 
#
# 1 0.009191 -0.005734 -0.002706 0.000000 0.005237 0.000000
# 2 -0.005734 0.018793 -0.000229 0.000000 -0.005704 0.000000
# 3 -0.002706 -0.000229 0.014391 0.000000 -0.000149 0.000000
# 4 0.000000 0.000000 0.000000 0.003401 0.000000 -0.025842
# 5 0.005237 -0.005704 -0.000149 0.000000 0.036719 0.000000
# 6 0.000000 0.000000 0.000000 -0.025842 0.000000 0.062717
#
#
# Mechanical properties :
#
#
# Convention : Reuss Voigt Hill
#
# Bulk Modulus (GPa) = 39.94230 50.66992 45.30611
# Shear Modulus (GPa) = 29.25745 -8.78159 10.23793
#
# Velocity S-wave (km/s) = 3.86056 -2.11504 2.28370
# Velocity P-wave (km/s) = 6.34183 4.45501 5.48023
#
# Compressibility (1/GPa) = 0.02503611
#
# Stress axis : x y z
#
# Youngs Moduli (GPa) = 108.80460 53.21096 69.48847
#
# Poissons Ratio (x) = 0.30513 0.18805
# Poissons Ratio (y) = 0.62392 0.01589
# Poissons Ratio (z) = 0.29445 0.01217
#
# Static dielectric constant tensor:
#      x y z
#    x 1.577290 0.000000 -0.146630 
#    y 0.000000 1.704460 0.000000 
#    z -0.146630 0.000000 1.459880 
# 
# From -- ./inp_files/62543.got.cif
#   From: 2010.05.17/outbox.cif.g08.bks.cpg/sg10_32_cif.got.tgz:62543.got - 2010.06.03 11:33:40.
