data_PCOD9153986
_publ_section_title
;
Structure prediction by ZEFSAII (Michael W. Deem and Ramdas Pophale) SiO2 
 PCOD9153986
Probable space group: P 2/M
;
_chemical_formula_sum "Si O2"
_cell_formula_units_Z 24
_cell_length_a 14.180400
_cell_length_b 10.278304
_cell_length_c 12.997455
_cell_angle_alpha 90.000000
_cell_angle_beta 142.012846
_cell_angle_gamma 90.000000
_cell_volume 1165.965186
_symmetry_space_group_name_H-M "P 2/M"
_symmetry_group_IT_number 10
_symmetry_cell_setting 'monoclinic'
loop_
_space_group_symop_operation_xyz
x,y,z
-x,y,-z
-x,-y,-z
x,-y,z
loop_
_atom_site_type_symbol
_atom_site_label
_atom_site_fract_x
_atom_site_fract_y
_atom_site_fract_z
Si Si1 0.269954 0.843819 0.382895
Si Si2 0.738768 0.733824 0.019400
Si Si3 0.821692 0.844593 0.315634
Si Si4 0.591965 0.851866 0.714404
Si Si5 0.978298 0.643953 0.858464
Si Si6 0.579407 0.643925 0.180908
O O1 0.417680 0.804610 0.577351
O O2 0.322718 0.800354 0.313080
O O3 0.122436 0.758413 0.277078
O O4 0.238412 0.000000 0.361259
O O5 0.699224 0.846075 0.904335
O O6 0.573474 0.664578 0.884118
O O7 0.793022 0.789466 0.175453
O O8 0.864053 0.648128 0.069345
O O9 0.706129 0.758209 0.286550
O O10 0.000000 0.827778 0.500000
O O11 0.786368 0.000000 0.290332
O O12 0.564987 0.000000 0.662514
O O13 0.908169 0.500000 0.787656
O O14 0.000000 0.666625 0.000000
O O15 0.647286 0.500000 0.257151
O O16 0.500000 0.644885 0.000000
#
# Coordination Sequence:
#
# PCOD9153986 Si02
#       6
#     4   4   4   4   4   4
#     4   9  19  37  57  81 116 154 200 251 294 344
#     4  11  21  37  62  89 120 162 206 245 300 362
#     4  10  23  42  64  93 125 154 194 252 309 363
#     4   9  18  34  57  84 113 151 199 251 300 349
#     4  11  23  39  58  88 128 167 205 248 295 351
#     4   9  20  39  62  87 116 153 197 247 300 358
#
# _framework density 20.583805000000002
#
# number of rings (size 3 to 8) (size 9 to 14) (size 15 to 20)
#    0.000    2.167    1.667    2.000    0.000    7.667 
#    0.000    8.333    0.000    0.000    0.000    0.000 
#    0.000    0.000    0.000    0.000    0.000    0.000 
#
# Total GULP energy -133620.927223 kJ/mol
# GULP energy per Si atom -5567.538634 kJ/mol
# Density = 2.053696 g / cm^3
# Si number density = 20.583805 Si / 1000 Ang^3
#
#
#
# Elastic Constant Matrix: (Units=GPa)
#
#
# Indices 1 2 3 4 5 6 
#
# 1 86.0856 28.3072 34.7535 0.0000 18.5708 0.0000
# 2 28.3072 118.4851 54.3072 0.0000 21.6392 0.0000
# 3 34.7535 54.3072 101.6210 0.0000 7.0000 0.0000
# 4 0.0000 0.0000 0.0000 -1.2124 0.0000 14.9984
# 5 18.5708 21.6392 7.0000 0.0000 37.1967 0.0000
# 6 0.0000 0.0000 0.0000 14.9984 0.0000 -1.6538
#
#
#
# Elastic Compliance Matrix: (Units=1/GPa)
#
#
# Indices 1 2 3 4 5 6 
#
# 1 0.014919 -0.000342 -0.004478 0.000000 -0.006407 0.000000
# 2 -0.000342 0.012394 -0.006101 0.000000 -0.005891 0.000000
# 3 -0.004478 -0.006101 0.014421 0.000000 0.003071 0.000000
# 4 0.000000 0.000000 0.000000 0.007418 0.000000 0.067274
# 5 -0.006407 -0.005891 0.003071 0.000000 0.032932 0.000000
# 6 0.000000 0.000000 0.000000 0.067274 0.000000 0.005438
#
#
# Mechanical properties :
#
#
# Convention : Reuss Voigt Hill
#
# Bulk Modulus (GPa) = 50.27097 60.10307 55.18702
# Shear Modulus (GPa) = 43.10613 19.45436 31.28024
#
# Velocity S-wave (km/s) = 4.58118 3.07763 3.90250
# Velocity P-wave (km/s) = 7.24283 6.47238 6.86842
#
# Compressibility (1/GPa) = 0.01989220
#
# Stress axis : x y z
#
# Youngs Moduli (GPa) = 67.03018 80.68638 69.34479
#
# Poissons Ratio (x) = 0.02756 0.31054
# Poissons Ratio (y) = 0.02289 0.42305
# Poissons Ratio (z) = 0.30017 0.49224
#
# Static dielectric constant tensor:
#      x y z
#    x 1.825990 0.000000 0.028710 
#    y 0.000000 1.749460 0.000000 
#    z 0.028710 0.000000 1.760660 
# 
# From -- ./inp_files/67393.got.cif
#   From: 2010.05.17/outbox.cif.g08.bks.cpg/sg10_34_cif.got.tgz:67393.got - 2010.06.03 11:33:40.
