data_PCOD9153662
_publ_section_title
;
Structure prediction by ZEFSAII (Michael W. Deem and Ramdas Pophale) SiO2 
 PCOD9153662
Probable space group: P 2/M
;
_chemical_formula_sum "Si O2"
_cell_formula_units_Z 32
_cell_length_a 14.506210
_cell_length_b 18.660133
_cell_length_c 11.668482
_cell_angle_alpha 90.000000
_cell_angle_beta 154.284889
_cell_angle_gamma 90.000000
_cell_volume 1370.469641
_symmetry_space_group_name_H-M "P 2/M"
_symmetry_group_IT_number 10
_symmetry_cell_setting 'monoclinic'
loop_
_space_group_symop_operation_xyz
x,y,z
-x,y,-z
-x,-y,-z
x,-y,z
loop_
_atom_site_type_symbol
_atom_site_label
_atom_site_fract_x
_atom_site_fract_y
_atom_site_fract_z
Si Si1 0.809628 0.138349 0.014582
Si Si2 0.862169 0.080157 0.458192
Si Si3 0.155752 0.715975 0.052097
Si Si4 0.404314 0.827184 0.686109
Si Si5 0.874525 0.420723 0.679177
Si Si6 0.761487 0.581407 0.286553
Si Si7 0.380418 0.694453 0.530663
Si Si8 0.255714 0.918028 0.299106
O O1 0.919553 0.211335 0.093295
O O2 0.652493 0.158679 0.942089
O O3 0.687373 0.108624 0.766104
O O4 0.973074 0.082863 0.250795
O O5 0.000000 0.096555 0.500000
O O6 0.689347 0.137559 0.305404
O O7 0.773284 0.000000 0.346606
O O8 0.209256 0.723286 0.246677
O O9 0.390616 0.708184 0.262166
O O10 0.040279 0.642066 0.892941
O O11 0.363428 0.742645 0.625035
O O12 0.313068 0.868451 0.470998
O O13 0.934960 0.500000 0.784750
O O14 0.824415 0.421106 0.489559
O O15 0.664128 0.388924 0.503232
O O16 0.743091 0.500000 0.217393
O O17 0.000000 0.609616 0.500000
O O18 0.500000 0.606895 0.000000
O O19 0.322371 0.000000 0.395533
O O20 0.000000 0.917622 0.000000
#
# Coordination Sequence:
#
# PCOD9153662 Si02
#       8
#     4   4   4   4   4   4   4   4
#     4  11  22  40  65  90 122 166 214 261 325 394
#     4  11  25  42  60  87 127 173 217 264 320 381
#     4  10  22  40  62  91 127 171 212 260 334 409
#     4  11  22  40  65  90 122 167 211 262 323 391
#     4  11  24  38  63  95 126 168 218 270 331 401
#     4   9  20  40  67  95 128 169 215 278 349 402
#     4  10  22  40  62  90 128 171 210 261 334 405
#     4  11  21  33  59  98 126 151 197 264 328 379
#
# _framework density 23.34966
#
# number of rings (size 3 to 8) (size 9 to 14) (size 15 to 20)
#    0.000    1.500    2.500    2.250    1.750    4.500 
#    0.000    5.000    0.000    0.000    0.000    0.000 
#    0.000    0.000    0.000    0.000    0.000    0.000 
#
# Total GULP energy -178314.200668 kJ/mol
# GULP energy per Si atom -5572.318771 kJ/mol
# Density = 2.329652 g / cm^3
# Si number density = 23.349660 Si / 1000 Ang^3
#
#
#
# Elastic Constant Matrix: (Units=GPa)
#
#
# Indices 1 2 3 4 5 6 
#
# 1 111.0299 35.2790 7.1843 0.0000 2.4349 0.0000
# 2 35.2790 142.0369 19.5662 0.0000 3.1209 0.0000
# 3 7.1843 19.5662 66.7585 0.0000 2.8586 0.0000
# 4 0.0000 0.0000 0.0000 16.7545 0.0000 4.2496
# 5 2.4349 3.1209 2.8586 0.0000 30.9157 0.0000
# 6 0.0000 0.0000 0.0000 4.2496 0.0000 27.9848
#
#
#
# Elastic Compliance Matrix: (Units=1/GPa)
#
#
# Indices 1 2 3 4 5 6 
#
# 1 0.009794 -0.002375 -0.000336 0.000000 -0.000500 0.000000
# 2 -0.002375 0.007922 -0.002048 0.000000 -0.000423 0.000000
# 3 -0.000336 -0.002048 0.015668 0.000000 -0.001215 0.000000
# 4 0.000000 0.000000 0.000000 0.062077 0.000000 -0.009427
# 5 -0.000500 -0.000423 -0.001215 0.000000 0.032541 0.000000
# 6 0.000000 0.000000 0.000000 -0.009427 0.000000 0.037165
#
#
# Mechanical properties :
#
#
# Convention : Reuss Voigt Hill
#
# Bulk Modulus (GPa) = 41.90364 49.32046 45.61205
# Shear Modulus (GPa) = 27.37621 32.31737 29.84679
#
# Velocity S-wave (km/s) = 3.42781 3.72433 3.57915
# Velocity P-wave (km/s) = 5.80100 6.29783 6.05451
#
# Compressibility (1/GPa) = 0.02386428
#
# Stress axis : x y z
#
# Youngs Moduli (GPa) = 102.10264 126.23342 63.82480
#
# Poissons Ratio (x) = 0.29984 0.02147
# Poissons Ratio (y) = 0.24253 0.13072
# Poissons Ratio (z) = 0.03435 0.25853
#
# Static dielectric constant tensor:
#      x y z
#    x 1.963990 0.000000 0.117230 
#    y 0.000000 1.846490 0.000000 
#    z 0.117230 0.000000 2.002480 
# 
# From -- ./inp_files/51975.got.cif
#   From: 2010.05.17/outbox.cif.g08.bks.cpg/sg10_26_cif.got.tgz:51975.got - 2010.06.03 11:33:40.
