data_PCOD9153841
_publ_section_title
;
Structure prediction by ZEFSAII (Michael W. Deem and Ramdas Pophale) SiO2 
 PCOD9153841
Probable space group: P 2/M
;
_chemical_formula_sum "Si O2"
_cell_formula_units_Z 14
_cell_length_a 5.123282
_cell_length_b 21.607598
_cell_length_c 5.499300
_cell_angle_alpha 90.000000
_cell_angle_beta 96.771072
_cell_angle_gamma 90.000000
_cell_volume 604.536348
_symmetry_space_group_name_H-M "P 2/M"
_symmetry_group_IT_number 10
_symmetry_cell_setting 'monoclinic'
loop_
_space_group_symop_operation_xyz
x,y,z
-x,y,-z
-x,-y,-z
x,-y,z
loop_
_atom_site_type_symbol
_atom_site_label
_atom_site_fract_x
_atom_site_fract_y
_atom_site_fract_z
Si Si1 0.000000 0.267268 0.000000
Si Si2 0.272054 0.933368 0.669227
Si Si3 0.228083 0.500000 0.327359
Si Si4 0.666364 0.635439 0.769834
Si Si5 0.500000 0.178231 0.000000
O O1 0.910303 0.316818 0.784548
O O2 0.744550 0.223111 0.968450
O O3 0.500000 0.940145 0.500000
O O4 0.352974 0.871387 0.812687
O O5 0.000000 0.925162 0.500000
O O6 0.253292 0.000000 0.805435
O O7 0.500000 0.500000 0.500000
O O8 0.233069 0.565067 0.190486
O O9 0.000000 0.500000 0.500000
O O10 0.500000 0.640223 0.500000
O O11 0.500000 0.649089 0.000000
#
# Coordination Sequence:
#
# PCOD9153841 Si02
#       5
#     2   4   2   4   2
#     4  12  28  45  69 102 144 198 244 296 368 444
#     4  10  22  42  70 103 138 180 233 297 358 423
#     4  10  25  45  79 111 144 190 246 317 379 435
#     4  11  27  52  76 110 149 195 252 312 374 446
#     4  12  25  46  66 105 134 196 232 294 358 439
#
# _framework density 23.158242000000001
#
# number of rings (size 3 to 8) (size 9 to 14) (size 15 to 20)
#    0.000    1.143    1.429    2.571    8.000    4.000 
#    5.143    5.714    0.000    0.000    0.000    0.000 
#    0.000    0.000    0.000    0.000    0.000    0.000 
#
# Total GULP energy -78015.231782 kJ/mol
# GULP energy per Si atom -5572.516556 kJ/mol
# Density = 2.310553 g / cm^3
# Si number density = 23.158242 Si / 1000 Ang^3
#
#
#
# Elastic Constant Matrix: (Units=GPa)
#
#
# Indices 1 2 3 4 5 6 
#
# 1 180.2754 60.6791 48.0836 0.0000 37.5583 0.0000
# 2 60.6791 242.2971 45.9061 0.0000 26.3001 0.0000
# 3 48.0836 45.9061 99.0873 0.0000 30.1027 0.0000
# 4 0.0000 0.0000 0.0000 72.0406 0.0000 -43.5659
# 5 37.5583 26.3001 30.1027 0.0000 51.7887 0.0000
# 6 0.0000 0.0000 0.0000 -43.5659 0.0000 166.9949
#
#
#
# Elastic Compliance Matrix: (Units=1/GPa)
#
#
# Indices 1 2 3 4 5 6 
#
# 1 0.007145 -0.001043 -0.001907 0.000000 -0.003543 0.000000
# 2 -0.001043 0.004751 -0.001447 0.000000 -0.000815 0.000000
# 3 -0.001907 -0.001447 0.013413 0.000000 -0.005678 0.000000
# 4 0.000000 0.000000 0.000000 0.016481 0.000000 0.004300
# 5 -0.003543 -0.000815 -0.005678 0.000000 0.025593 0.000000
# 6 0.000000 0.000000 0.000000 0.004300 0.000000 0.007110
#
#
# Mechanical properties :
#
#
# Convention : Reuss Voigt Hill
#
# Bulk Modulus (GPa) = 60.55703 92.33303 76.44503
# Shear Modulus (GPa) = 56.30955 82.63091 69.47023
#
# Velocity S-wave (km/s) = 4.93639 5.97984 5.48299
# Velocity P-wave (km/s) = 7.66137 9.36136 8.55370
#
# Compressibility (1/GPa) = 0.01651336
#
# Stress axis : x y z
#
# Youngs Moduli (GPa) = 139.95327 210.47687 74.55272
#
# Poissons Ratio (x) = 0.21961 0.14221
# Poissons Ratio (y) = 0.14603 0.10790
# Poissons Ratio (z) = 0.26696 0.30462
#
# Static dielectric constant tensor:
#      x y z
#    x 1.882330 0.000000 0.005200 
#    y 0.000000 2.019620 0.000000 
#    z 0.005200 0.000000 1.975940 
# 
# From -- ./inp_files/1425.got.cif
#   From: 2010.05.17/outbox.cif.g08.bks.cpg/sg10_1_cif.got.tgz:1425.got - 2010.06.03 11:33:40.
