data_PCOD9153810
_publ_section_title
;
Structure prediction by ZEFSAII (Michael W. Deem and Ramdas Pophale) SiO2 
 PCOD9153810
Probable space group: P 2/M
;
_chemical_formula_sum "Si O2"
_cell_formula_units_Z 17
_cell_length_a 8.819597
_cell_length_b 21.081970
_cell_length_c 7.690196
_cell_angle_alpha 90.000000
_cell_angle_beta 35.516773
_cell_angle_gamma 90.000000
_cell_volume 830.671981
_symmetry_space_group_name_H-M "P 2/M"
_symmetry_group_IT_number 10
_symmetry_cell_setting 'monoclinic'
loop_
_space_group_symop_operation_xyz
x,y,z
-x,y,-z
-x,-y,-z
x,-y,z
loop_
_atom_site_type_symbol
_atom_site_label
_atom_site_fract_x
_atom_site_fract_y
_atom_site_fract_z
Si Si1 0.994894 0.390906 0.298207
Si Si2 0.000000 0.500000 0.000000
Si Si3 0.505414 0.693665 0.197401
Si Si4 0.231120 0.930034 0.145909
Si Si5 0.724891 0.180812 0.167551
O O1 0.771069 0.337023 0.493901
O O2 0.000000 0.410904 0.500000
O O3 0.948950 0.445102 0.199451
O O4 0.275163 0.360532 0.994353
O O5 0.595037 0.754975 0.217246
O O6 0.500000 0.712190 0.000000
O O7 0.000000 0.926460 0.500000
O O8 0.218262 0.000000 0.071714
O O9 0.500000 0.926345 0.000000
O O10 0.214872 0.871185 0.033508
O O11 0.500000 0.152230 0.500000
O O12 0.000000 0.196164 0.000000
#
# Coordination Sequence:
#
# PCOD9153810 Si02
#       5
#     4   1   4   4   4
#     4  10  24  43  66  96 127 168 218 264 326 394
#     4  12  26  42  72  96 132 174 202 280 326 404
#     4  10  23  44  65  89 128 170 212 266 314 387
#     4  10  22  42  66  92 129 180 227 264 320 399
#     4  12  25  38  64 100 132 168 216 278 334 386
#
# _framework density 20.46536
#
# number of rings (size 3 to 8) (size 9 to 14) (size 15 to 20)
#    0.000    1.412    0.000    3.882    4.941    5.647 
#    0.000    3.529    0.000    0.000    0.000    0.000 
#    0.000    0.000    0.000    0.000    0.000    0.000 
#
# Total GULP energy -94751.527198 kJ/mol
# GULP energy per Si atom -5573.619247 kJ/mol
# Density = 2.041878 g / cm^3
# Si number density = 20.465360 Si / 1000 Ang^3
#
#
#
# Elastic Constant Matrix: (Units=GPa)
#
#
# Indices 1 2 3 4 5 6 
#
# 1 101.6479 78.4819 38.1268 0.0000 -1.4951 0.0000
# 2 78.4819 96.3199 4.9579 0.0000 21.6649 0.0000
# 3 38.1268 4.9579 82.0949 0.0000 -14.3193 0.0000
# 4 0.0000 0.0000 0.0000 51.3455 0.0000 19.7037
# 5 -1.4951 21.6649 -14.3193 0.0000 33.8178 0.0000
# 6 0.0000 0.0000 0.0000 19.7037 0.0000 -12.5711
#
#
#
# Elastic Compliance Matrix: (Units=1/GPa)
#
#
# Indices 1 2 3 4 5 6 
#
# 1 0.057841 -0.052519 -0.018762 0.000000 0.028259 0.000000
# 2 -0.052519 0.060217 0.014707 0.000000 -0.034671 0.000000
# 3 -0.018762 0.014707 0.019671 0.000000 -0.001922 0.000000
# 4 0.000000 0.000000 0.000000 0.012161 0.000000 0.019061
# 5 0.028259 -0.034671 -0.001922 0.000000 0.052217 0.000000
# 6 0.000000 0.000000 0.000000 0.019061 0.000000 -0.049671
#
#
# Mechanical properties :
#
#
# Convention : Reuss Voigt Hill
#
# Bulk Modulus (GPa) = 40.68330 58.13288 49.40809
# Shear Modulus (GPa) = 18.26301 25.08486 21.67393
#
# Velocity S-wave (km/s) = 2.99052 3.50483 3.25784
# Velocity P-wave (km/s) = 5.64328 6.69669 6.19242
#
# Compressibility (1/GPa) = 0.02458011
#
# Stress axis : x y z
#
# Youngs Moduli (GPa) = 17.28882 16.60671 50.83621
#
# Poissons Ratio (x) = 0.87217 0.95378
# Poissons Ratio (y) = 0.90800 -0.74765
# Poissons Ratio (z) = 0.32437 -0.24424
#
# Static dielectric constant tensor:
#      x y z
#    x 1.752630 0.000000 0.011940 
#    y 0.000000 1.676690 0.000000 
#    z 0.011940 0.000000 1.658190 
# 
# From -- ./inp_files/4246.got.cif
#   From: 2010.05.17/outbox.cif.g08.bks.cpg/sg10_3_cif.got.tgz:4246.got - 2010.06.03 11:33:40.
