data_PCOD9153560
_publ_section_title
;
Structure prediction by ZEFSAII (Michael W. Deem and Ramdas Pophale) SiO2 
 PCOD9153560
Probable space group: P 2/M
;
_chemical_formula_sum "Si O2"
_cell_formula_units_Z 24
_cell_length_a 8.330297
_cell_length_b 14.467011
_cell_length_c 14.258713
_cell_angle_alpha 90.000000
_cell_angle_beta 139.429218
_cell_angle_gamma 90.000000
_cell_volume 1117.612983
_symmetry_space_group_name_H-M "P 2/M"
_symmetry_group_IT_number 10
_symmetry_cell_setting 'monoclinic'
loop_
_space_group_symop_operation_xyz
x,y,z
-x,y,-z
-x,-y,-z
x,-y,z
loop_
_atom_site_type_symbol
_atom_site_label
_atom_site_fract_x
_atom_site_fract_y
_atom_site_fract_z
Si Si1 0.922106 0.393887 0.622857
Si Si2 0.394214 0.606632 0.693058
Si Si3 0.282384 0.772226 0.090764
Si Si4 0.395120 0.107391 0.305031
Si Si5 0.956241 0.777205 0.204436
Si Si6 0.960243 0.891616 0.587637
O O1 0.885242 0.500000 0.636390
O O2 0.701692 0.367223 0.453674
O O3 0.963095 0.324363 0.726113
O O4 0.162615 0.391372 0.662000
O O5 0.479913 0.500000 0.727679
O O6 0.586890 0.679589 0.816677
O O7 0.405046 0.856908 0.201838
O O8 0.000000 0.769599 0.000000
O O9 0.256990 0.777830 0.967768
O O10 0.190619 0.169173 0.264689
O O11 0.664829 0.115786 0.470287
O O12 0.322631 0.000000 0.276194
O O13 0.896981 0.832107 0.273202
O O14 0.000000 0.857022 0.500000
O O15 0.026709 0.000000 0.621521
#
# Coordination Sequence:
#
# PCOD9153560 Si02
#       6
#     4   4   4   4   4   4
#     4   9  20  38  63  92 118 157 206 256 301 352
#     4   9  19  39  63  86 122 163 202 247 304 361
#     4  10  23  38  57  90 124 165 203 242 303 363
#     4  10  22  42  63  84 121 166 207 249 300 359
#     4  11  22  35  61  92 119 160 199 248 299 366
#     4  10  22  39  61  90 119 156 205 257 303 352
#
# _framework density 21.474339000000001
#
# number of rings (size 3 to 8) (size 9 to 14) (size 15 to 20)
#    0.000    2.167    0.000    3.000    4.667    8.000 
#    0.000    4.167    0.000   13.000    0.000    0.000 
#    0.000    0.000    0.000    0.000    0.000    0.000 
#
# Total GULP energy -134187.118708 kJ/mol
# GULP energy per Si atom -5591.129946 kJ/mol
# Density = 2.142546 g / cm^3
# Si number density = 21.474339 Si / 1000 Ang^3
#
#
#
# Elastic Constant Matrix: (Units=GPa)
#
#
# Indices 1 2 3 4 5 6 
#
# 1 37.1596 12.6961 10.3352 0.0000 -20.6928 0.0000
# 2 12.6961 97.8198 48.5852 0.0000 -26.5212 0.0000
# 3 10.3352 48.5852 114.2195 0.0000 -39.2680 0.0000
# 4 0.0000 0.0000 0.0000 -0.6990 0.0000 -7.0269
# 5 -20.6928 -26.5212 -39.2680 0.0000 39.0300 0.0000
# 6 0.0000 0.0000 0.0000 -7.0269 0.0000 53.1404
#
#
#
# Elastic Compliance Matrix: (Units=1/GPa)
#
#
# Indices 1 2 3 4 5 6 
#
# 1 0.040522 -0.000944 0.005963 0.000000 0.026842 0.000000
# 2 -0.000944 0.013650 -0.004134 0.000000 0.004616 0.000000
# 3 0.005963 -0.004134 0.015433 0.000000 0.015880 0.000000
# 4 0.000000 0.000000 0.000000 -0.614171 0.000000 -0.081213
# 5 0.026842 0.004616 0.015880 0.000000 0.058965 0.000000
# 6 0.000000 0.000000 0.000000 -0.081213 0.000000 0.008079
#
#
# Mechanical properties :
#
#
# Convention : Reuss Voigt Hill
#
# Bulk Modulus (GPa) = 14.01030 43.60355 28.80692
# Shear Modulus (GPa) = -10.97697 30.13310 9.57807
#
# Velocity S-wave (km/s) = -2.26335 3.75001 2.11422
# Velocity P-wave (km/s) = 0.54036 6.25293 4.40495
#
# Compressibility (1/GPa) = 0.07137607
#
# Stress axis : x y z
#
# Youngs Moduli (GPa) = 24.67786 73.25946 64.79466
#
# Poissons Ratio (x) = 0.06912 -0.38636
# Poissons Ratio (y) = 0.02328 0.26786
# Poissons Ratio (z) = -0.14715 0.30286
#
# Static dielectric constant tensor:
#      x y z
#    x 1.854060 0.000000 -0.026060 
#    y 0.000000 1.751210 0.000000 
#    z -0.026060 0.000000 1.773500 
# 
# From -- ./inp_files/29246.got.cif
#   From: 2010.05.17/outbox.cif.g08.bks.cpg/sg10_15_cif.got.tgz:29246.got - 2010.06.03 11:33:40.
