data_PCOD9153177
_publ_section_title
;
Structure prediction by ZEFSAII (Michael W. Deem and Ramdas Pophale) SiO2 
 PCOD9153177
Probable space group: P 2/M
;
_chemical_formula_sum "Si O2"
_cell_formula_units_Z 30
_cell_length_a 8.719310
_cell_length_b 14.480063
_cell_length_c 12.275102
_cell_angle_alpha 90.000000
_cell_angle_beta 70.505956
_cell_angle_gamma 90.000000
_cell_volume 1460.966358
_symmetry_space_group_name_H-M "P 2/M"
_symmetry_group_IT_number 10
_symmetry_cell_setting 'monoclinic'
loop_
_space_group_symop_operation_xyz
x,y,z
-x,y,-z
-x,-y,-z
x,-y,z
loop_
_atom_site_type_symbol
_atom_site_label
_atom_site_fract_x
_atom_site_fract_y
_atom_site_fract_z
Si Si1 0.213988 0.603983 0.765285
Si Si2 0.325637 0.208080 0.419086
Si Si3 0.139522 0.896647 0.649950
Si Si4 0.328767 0.204028 0.995039
Si Si5 0.644545 0.795152 0.251210
Si Si6 0.755757 0.897666 0.769258
Si Si7 0.827664 0.605262 0.480546
Si Si8 0.000000 0.315704 0.000000
O O1 0.275808 0.500000 0.765009
O O2 0.344596 0.684293 0.757307
O O3 0.156350 0.613665 0.653846
O O4 0.069528 0.624461 0.883847
O O5 0.207774 0.149235 0.523862
O O6 0.514957 0.181797 0.375529
O O7 0.294842 0.183562 0.300463
O O8 0.293194 0.314545 0.453161
O O9 0.189274 0.833237 0.739506
O O10 0.947196 0.902905 0.700236
O O11 0.207871 0.000000 0.644876
O O12 0.377050 0.165778 0.864298
O O13 0.160388 0.260238 0.007714
O O14 0.500000 0.248991 0.000000
O O15 0.282154 0.130169 0.098133
O O16 0.687139 0.000000 0.759452
O O17 0.773880 0.500000 0.516795
O O18 0.000000 0.620070 0.500000
#
# Coordination Sequence:
#
# PCOD9153177 Si02
#       8
#     4   4   4   4   4   4   4   2
#     4  10  21  40  65  95 131 172 220 267 323 393
#     4  12  23  39  65  89 133 170 210 264 330 385
#     4  11  24  41  62  93 126 166 219 268 320 396
#     4  11  23  44  66  96 132 169 224 274 326 390
#     4  11  24  41  61  95 126 172 212 261 333 391
#     4  11  24  42  66  93 123 171 221 268 329 389
#     4  10  22  37  61  95 127 164 212 261 317 383
#     4  10  23  40  73  96 128 180 227 262 341 388
#
# _framework density 20.534355000000001
#
# number of rings (size 3 to 8) (size 9 to 14) (size 15 to 20)
#    0.000    1.200    2.667    3.800    1.867    4.000 
#    0.000    3.000    0.000   10.000    0.000    0.000 
#    0.000    0.000    0.000    0.000    0.000    0.000 
#
# Total GULP energy -167228.105426 kJ/mol
# GULP energy per Si atom -5574.270181 kJ/mol
# Density = 2.048762 g / cm^3
# Si number density = 20.534355 Si / 1000 Ang^3
#
#
#
# Elastic Constant Matrix: (Units=GPa)
#
#
# Indices 1 2 3 4 5 6 
#
# 1 44.2144 -6.8840 5.6746 0.0000 -8.8211 0.0000
# 2 -6.8840 72.3461 29.6025 0.0000 -7.2934 0.0000
# 3 5.6746 29.6025 146.2265 0.0000 -4.2721 0.0000
# 4 0.0000 0.0000 0.0000 11.4706 0.0000 12.7855
# 5 -8.8211 -7.2934 -4.2721 0.0000 29.4929 0.0000
# 6 0.0000 0.0000 0.0000 12.7855 0.0000 38.5960
#
#
#
# Elastic Compliance Matrix: (Units=1/GPa)
#
#
# Indices 1 2 3 4 5 6 
#
# 1 0.025046 0.003828 -0.001507 0.000000 0.008220 0.000000
# 2 0.003828 0.015983 -0.003249 0.000000 0.004627 0.000000
# 3 -0.001507 -0.003249 0.007550 0.000000 -0.000160 0.000000
# 4 0.000000 0.000000 0.000000 0.138213 0.000000 -0.045785
# 5 0.008220 0.004627 -0.000160 0.000000 0.037486 0.000000
# 6 0.000000 0.000000 0.000000 -0.045785 0.000000 0.041076
#
#
# Mechanical properties :
#
#
# Convention : Reuss Voigt Hill
#
# Bulk Modulus (GPa) = 21.40205 35.50813 28.45509
# Shear Modulus (GPa) = 17.68133 31.53817 24.60975
#
# Velocity S-wave (km/s) = 2.93757 3.92327 3.46564
# Velocity P-wave (km/s) = 4.68518 6.15243 5.46824
#
# Compressibility (1/GPa) = 0.04672450
#
# Stress axis : x y z
#
# Youngs Moduli (GPa) = 39.92589 62.56817 132.44651
#
# Poissons Ratio (x) = -0.23954 0.19958
# Poissons Ratio (y) = -0.15286 0.43031
# Poissons Ratio (z) = 0.06016 0.20328
#
# Static dielectric constant tensor:
#      x y z
#    x 1.811510 0.000000 -0.004540 
#    y 0.000000 1.733420 0.000000 
#    z -0.004540 0.000000 1.709830 
# 
# From -- ./inp_files/42935.got.cif
#   From: 2010.05.17/outbox.cif.g08.bks.cpg/sg10_22_cif.got.tgz:42935.got - 2010.06.03 11:33:40.
