data_PCOD9153278
_publ_section_title
;
Structure prediction by ZEFSAII (Michael W. Deem and Ramdas Pophale) SiO2 
 PCOD9153278
Probable space group: P 2/M
;
_chemical_formula_sum "Si O2"
_cell_formula_units_Z 32
_cell_length_a 14.830528
_cell_length_b 18.935802
_cell_length_c 5.455073
_cell_angle_alpha 90.000000
_cell_angle_beta 83.986266
_cell_angle_gamma 90.000000
_cell_volume 1523.506384
_symmetry_space_group_name_H-M "P 2/M"
_symmetry_group_IT_number 10
_symmetry_cell_setting 'monoclinic'
loop_
_space_group_symop_operation_xyz
x,y,z
-x,y,-z
-x,-y,-z
x,-y,z
loop_
_atom_site_type_symbol
_atom_site_label
_atom_site_fract_x
_atom_site_fract_y
_atom_site_fract_z
Si Si1 0.399936 0.809811 0.451632
Si Si2 0.605728 0.417110 0.043770
Si Si3 0.098058 0.157990 0.526693
Si Si4 0.235405 0.818082 0.873453
Si Si5 0.174900 0.710355 0.278535
Si Si6 0.341674 0.659132 0.459315
Si Si7 0.728718 0.081526 0.753569
Si Si8 0.941992 0.420905 0.767279
O O1 0.500000 0.831272 0.500000
O O2 0.323922 0.807448 0.684961
O O3 0.402484 0.727645 0.372701
O O4 0.355867 0.867843 0.286483
O O5 0.624064 0.500000 0.083061
O O6 0.629510 0.375460 0.290005
O O7 0.500000 0.409400 0.000000
O O8 0.654821 0.391165 0.780789
O O9 0.135558 0.180852 0.780862
O O10 0.101667 0.231641 0.378047
O O11 0.181530 0.108875 0.414401
O O12 0.000000 0.126210 0.500000
O O13 0.235219 0.756092 0.074486
O O14 0.247382 0.896492 0.978330
O O15 0.238212 0.687741 0.487975
O O16 0.130491 0.640709 0.188594
O O17 0.711187 0.000000 0.717957
O O18 0.902565 0.500000 0.755386
O O19 0.000000 0.408948 0.500000
O O20 0.000000 0.419662 0.000000
#
# Coordination Sequence:
#
# PCOD9153278 Si02
#       8
#     4   4   4   4   4   4   4   4
#     4  11  23  41  66  96 131 174 227 284 342 412
#     4  11  25  43  64  94 132 176 226 281 344 408
#     4  10  22  40  66  97 128 172 222 272 338 406
#     4  10  21  42  62  97 131 172 222 285 337 413
#     4  11  23  37  64  93 131 171 225 284 338 407
#     4  12  23  41  66  97 130 174 227 283 339 401
#     4  10  23  43  64  95 133 172 220 278 342 416
#     4  10  24  42  61  93 135 181 233 285 343 412
#
# _framework density 21.004176999999999
#
# number of rings (size 3 to 8) (size 9 to 14) (size 15 to 20)
#    0.000    1.375    3.750    2.625    3.500    6.500 
#    0.000    2.500    0.000    0.000    0.000    0.000 
#    0.000    0.000    0.000    0.000    0.000    0.000 
#
# Total GULP energy -178386.373364 kJ/mol
# GULP energy per Si atom -5574.574168 kJ/mol
# Density = 2.095637 g / cm^3
# Si number density = 21.004177 Si / 1000 Ang^3
#
#
#
# Elastic Constant Matrix: (Units=GPa)
#
#
# Indices 1 2 3 4 5 6 
#
# 1 96.0820 28.2118 21.4254 0.0000 27.1530 0.0000
# 2 28.2118 134.1265 33.9605 0.0000 17.1825 0.0000
# 3 21.4254 33.9605 92.0100 0.0000 20.1846 0.0000
# 4 0.0000 0.0000 0.0000 39.5226 0.0000 9.1011
# 5 27.1530 17.1825 20.1846 0.0000 24.5153 0.0000
# 6 0.0000 0.0000 0.0000 9.1011 0.0000 19.7483
#
#
#
# Elastic Compliance Matrix: (Units=1/GPa)
#
#
# Indices 1 2 3 4 5 6 
#
# 1 0.015329 -0.001236 0.000514 0.000000 -0.016535 0.000000
# 2 -0.001236 0.008656 -0.002290 0.000000 -0.002812 0.000000
# 3 0.000514 -0.002290 0.013872 0.000000 -0.010386 0.000000
# 4 0.000000 0.000000 0.000000 0.028306 0.000000 -0.013045
# 5 -0.016535 -0.002812 -0.010386 0.000000 0.069627 0.000000
# 6 0.000000 0.000000 0.000000 -0.013045 0.000000 0.056649
#
#
# Mechanical properties :
#
#
# Convention : Reuss Voigt Hill
#
# Bulk Modulus (GPa) = 31.41400 54.37930 42.89665
# Shear Modulus (GPa) = 23.91493 32.66531 28.29012
#
# Velocity S-wave (km/s) = 3.37795 3.94786 3.67397
# Velocity P-wave (km/s) = 5.49569 6.83570 6.20199
#
# Compressibility (1/GPa) = 0.03183294
#
# Stress axis : x y z
#
# Youngs Moduli (GPa) = 65.23602 115.53034 72.08571
#
# Poissons Ratio (x) = 0.14282 -0.03706
# Poissons Ratio (y) = 0.08064 0.16508
# Poissons Ratio (z) = -0.03354 0.26457
#
# Static dielectric constant tensor:
#      x y z
#    x 1.781520 0.000000 0.003300 
#    y 0.000000 1.754830 0.000000 
#    z 0.003300 0.000000 1.873630 
# 
# From -- ./inp_files/9820.got.cif
#   From: 2010.05.17/outbox.cif.g08.bks.cpg/sg10_5_cif.got.tgz:9820.got - 2010.06.03 11:33:40.
