data_PCOD9153538
_publ_section_title
;
Structure prediction by ZEFSAII (Michael W. Deem and Ramdas Pophale) SiO2 
 PCOD9153538
Probable space group: P 2/M
;
_chemical_formula_sum "Si O2"
_cell_formula_units_Z 32
_cell_length_a 27.377172
_cell_length_b 7.966247
_cell_length_c 21.467558
_cell_angle_alpha 90.000000
_cell_angle_beta 19.872034
_cell_angle_gamma 90.000000
_cell_volume 1591.484547
_symmetry_space_group_name_H-M "P 2/M"
_symmetry_group_IT_number 10
_symmetry_cell_setting 'monoclinic'
loop_
_space_group_symop_operation_xyz
x,y,z
-x,y,-z
-x,-y,-z
x,-y,z
loop_
_atom_site_type_symbol
_atom_site_label
_atom_site_fract_x
_atom_site_fract_y
_atom_site_fract_z
Si Si1 0.992467 0.809792 0.269441
Si Si2 0.227809 0.295547 0.211386
Si Si3 0.527916 0.704926 0.167797
Si Si4 0.686115 0.302073 0.104701
Si Si5 0.953451 0.703105 0.456493
Si Si6 0.454644 0.795987 0.484909
Si Si7 0.847430 0.197428 0.204730
Si Si8 0.783547 0.306788 0.418724
O O1 0.947525 0.770730 0.394143
O O2 0.907581 0.700599 0.321250
O O3 0.956006 0.000000 0.297513
O O4 0.163273 0.784076 0.061379
O O5 0.228790 0.500000 0.211580
O O6 0.102603 0.249457 0.312129
O O7 0.173343 0.241561 0.344640
O O8 0.380830 0.238179 0.001492
O O9 0.525772 0.500000 0.168108
O O10 0.617597 0.754820 0.121523
O O11 0.364441 0.760548 0.373593
O O12 0.716033 0.500000 0.062659
O O13 0.569186 0.270650 0.298007
O O14 0.952091 0.500000 0.454589
O O15 0.500000 0.747616 0.500000
O O16 0.295368 0.734627 0.657600
O O17 0.456736 0.000000 0.478649
O O18 0.826343 0.215419 0.303928
O O19 0.850746 0.000000 0.184712
O O20 0.000000 0.271254 0.000000
O O21 0.756549 0.500000 0.432964
#
# Coordination Sequence:
#
# PCOD9153538 Si02
#       8
#     4   4   4   4   4   4   4   4
#     4  12  25  39  56  83 120 159 195 240 298 356
#     4   8  14  28  56  88 115 146 186 237 292 343
#     4   9  17  33  59  88 115 144 188 240 292 340
#     4  11  21  38  63  89 116 148 196 252 292 337
#     4   9  16  31  57  86 115 149 191 239 288 341
#     4  10  22  39  59  87 123 159 193 230 282 348
#     4  10  22  40  60  84 119 161 196 229 280 347
#     4  11  23  40  61  86 115 153 199 247 291 341
#
# _framework density 20.107013999999999
#
# number of rings (size 3 to 8) (size 9 to 14) (size 15 to 20)
#    0.000    2.000    2.500    2.625    1.750    0.500 
#    0.000    1.875    0.000    3.750    0.000    0.000 
#    0.000    0.000    0.000    0.000    0.000    0.000 
#
# Total GULP energy -178666.357659 kJ/mol
# GULP energy per Si atom -5583.323677 kJ/mol
# Density = 2.006125 g / cm^3
# Si number density = 20.107014 Si / 1000 Ang^3
#
#
#
# Elastic Constant Matrix: (Units=GPa)
#
#
# Indices 1 2 3 4 5 6 
#
# 1 87.4168 -8.4704 53.2666 0.0000 -3.6502 0.0000
# 2 -8.4704 20.9152 -4.2483 0.0000 -0.3804 0.0000
# 3 53.2666 -4.2483 160.1043 0.0000 7.1644 0.0000
# 4 0.0000 0.0000 0.0000 19.9133 0.0000 5.8305
# 5 -3.6502 -0.3804 7.1644 0.0000 28.1559 0.0000
# 6 0.0000 0.0000 0.0000 5.8305 0.0000 16.8125
#
#
#
# Elastic Compliance Matrix: (Units=1/GPa)
#
#
# Indices 1 2 3 4 5 6 
#
# 1 0.015160 0.005173 -0.005055 0.000000 0.003321 0.000000
# 2 0.005173 0.049840 -0.000464 0.000000 0.001462 0.000000
# 3 -0.005055 -0.000464 0.008037 0.000000 -0.002707 0.000000
# 4 0.000000 0.000000 0.000000 0.055893 0.000000 -0.019383
# 5 0.003321 0.001462 -0.002707 0.000000 0.036656 0.000000
# 6 0.000000 0.000000 0.000000 -0.019383 0.000000 0.066201
#
#
# Mechanical properties :
#
#
# Convention : Reuss Voigt Hill
#
# Bulk Modulus (GPa) = 13.82287 38.83691 26.32989
# Shear Modulus (GPa) = 19.48618 28.16890 23.82754
#
# Velocity S-wave (km/s) = 3.11645 3.74699 3.44617
# Velocity P-wave (km/s) = 4.45413 6.17065 5.38127
#
# Compressibility (1/GPa) = 0.07234390
#
# Stress axis : x y z
#
# Youngs Moduli (GPa) = 65.96482 20.06438 124.43216
#
# Poissons Ratio (x) = -0.10380 0.62900
# Poissons Ratio (y) = -0.34124 0.05774
# Poissons Ratio (z) = 0.33345 0.00931
#
# Static dielectric constant tensor:
#      x y z
#    x 1.665650 0.000000 0.002690 
#    y 0.000000 1.732070 0.000000 
#    z 0.002690 0.000000 1.718760 
# 
# From -- ./inp_files/86862.got.cif
#   From: 2010.05.17/outbox.cif.g08.bks.cpg/sg10_44_cif.got.tgz:86862.got - 2010.06.03 11:33:40.
