data_PCOD9153165
_publ_section_title
;
Structure prediction by ZEFSAII (Michael W. Deem and Ramdas Pophale) SiO2 
 PCOD9153165
Probable space group: P 2/M
;
_chemical_formula_sum "Si O2"
_cell_formula_units_Z 18
_cell_length_a 5.393018
_cell_length_b 13.862495
_cell_length_c 11.909615
_cell_angle_alpha 90.000000
_cell_angle_beta 87.955053
_cell_angle_gamma 90.000000
_cell_volume 889.803936
_symmetry_space_group_name_H-M "P 2/M"
_symmetry_group_IT_number 10
_symmetry_cell_setting 'monoclinic'
loop_
_space_group_symop_operation_xyz
x,y,z
-x,y,-z
-x,-y,-z
x,-y,z
loop_
_atom_site_type_symbol
_atom_site_label
_atom_site_fract_x
_atom_site_fract_y
_atom_site_fract_z
Si Si1 0.000000 0.765755 0.500000
Si Si2 0.450026 0.734927 0.202519
Si Si3 0.697493 0.110279 0.334458
Si Si4 0.673942 0.391107 0.607253
Si Si5 0.049776 0.189074 0.878223
O O1 0.806499 0.833440 0.439061
O O2 0.881413 0.690739 0.589907
O O3 0.473885 0.826089 0.288515
O O4 0.468878 0.639984 0.278312
O O5 0.189380 0.746385 0.145652
O O6 0.694533 0.749550 0.123221
O O7 0.895621 0.118919 0.228069
O O8 0.638241 0.000000 0.358779
O O9 0.500000 0.384336 0.500000
O O10 0.770822 0.500000 0.611765
O O11 0.000000 0.142092 0.000000
#
# Coordination Sequence:
#
# PCOD9153165 Si02
#       5
#     2   4   4   4   4
#     4  12  20  42  58  96 126 164 204 252 304 382
#     4  10  21  41  58  92 125 156 209 254 307 362
#     4  10  23  37  61  91 127 167 202 249 305 366
#     4  11  21  37  62  91 123 162 205 257 309 368
#     4  10  21  40  65  86 122 164 210 257 302 355
#
# _framework density 20.229172999999999
#
# number of rings (size 3 to 8) (size 9 to 14) (size 15 to 20)
#    1.333    0.222    4.444    1.333    0.000    1.333 
#    0.000    2.222    0.000    4.000    0.000    0.000 
#    0.000    0.000    0.000    0.000    0.000    0.000 
#
# Total GULP energy -100289.883789 kJ/mol
# GULP energy per Si atom -5571.660211 kJ/mol
# Density = 2.018313 g / cm^3
# Si number density = 20.229173 Si / 1000 Ang^3
#
#
#
# Elastic Constant Matrix: (Units=GPa)
#
#
# Indices 1 2 3 4 5 6 
#
# 1 81.3048 13.7722 -1.1409 0.0000 -4.0071 0.0000
# 2 13.7722 108.7914 24.7220 0.0000 -2.1349 0.0000
# 3 -1.1409 24.7220 53.3429 0.0000 -9.9777 0.0000
# 4 0.0000 0.0000 0.0000 8.2315 0.0000 1.9049
# 5 -4.0071 -2.1349 -9.9777 0.0000 22.6382 0.0000
# 6 0.0000 0.0000 0.0000 1.9049 0.0000 3.9938
#
#
#
# Elastic Compliance Matrix: (Units=1/GPa)
#
#
# Indices 1 2 3 4 5 6 
#
# 1 0.012794 -0.001952 0.001708 0.000000 0.002833 0.000000
# 2 -0.001952 0.010603 -0.005268 0.000000 -0.001667 0.000000
# 3 0.001708 -0.005268 0.023092 0.000000 0.009983 0.000000
# 4 0.000000 0.000000 0.000000 0.136557 0.000000 -0.065132
# 5 0.002833 -0.001667 0.009983 0.000000 0.048917 0.000000
# 6 0.000000 0.000000 0.000000 -0.065132 0.000000 0.281453
#
#
# Mechanical properties :
#
#
# Convention : Reuss Voigt Hill
#
# Bulk Modulus (GPa) = 28.19626 35.34955 31.77291
# Shear Modulus (GPa) = 9.32381 20.71176 15.01778
#
# Velocity S-wave (km/s) = 2.14921 3.20325 2.72763
# Velocity P-wave (km/s) = 4.48636 5.58512 5.06562
#
# Compressibility (1/GPa) = 0.03546570
#
# Stress axis : x y z
#
# Youngs Moduli (GPa) = 78.16350 94.30947 43.30513
#
# Poissons Ratio (x) = 0.18411 -0.07398
# Poissons Ratio (y) = 0.15259 0.22812
# Poissons Ratio (z) = -0.13353 0.49681
#
# Static dielectric constant tensor:
#      x y z
#    x 1.765080 0.000000 -0.055380 
#    y 0.000000 1.671960 0.000000 
#    z -0.055380 0.000000 1.755730 
# 
# From -- ./inp_files/38896.got.cif
#   From: 2010.05.17/outbox.cif.g08.bks.cpg/sg10_20_cif.got.tgz:38896.got - 2010.06.03 11:33:40.
