data_PCOD9153559
_publ_section_title
;
Structure prediction by ZEFSAII (Michael W. Deem and Ramdas Pophale) SiO2 
 PCOD9153559
Probable space group: P 2/M
;
_chemical_formula_sum "Si O2"
_cell_formula_units_Z 32
_cell_length_a 12.243940
_cell_length_b 8.090916
_cell_length_c 31.046849
_cell_angle_alpha 90.000000
_cell_angle_beta 28.227478
_cell_angle_gamma 90.000000
_cell_volume 1454.698869
_symmetry_space_group_name_H-M "P 2/M"
_symmetry_group_IT_number 10
_symmetry_cell_setting 'monoclinic'
loop_
_space_group_symop_operation_xyz
x,y,z
-x,y,-z
-x,-y,-z
x,-y,z
loop_
_atom_site_type_symbol
_atom_site_label
_atom_site_fract_x
_atom_site_fract_y
_atom_site_fract_z
Si Si1 0.232216 0.696717 0.591834
Si Si2 0.004557 0.296710 0.948638
Si Si3 0.308026 0.308191 0.425489
Si Si4 0.468705 0.692996 0.739976
Si Si5 0.593973 0.304323 0.034691
Si Si6 0.720180 0.188752 0.333731
Si Si7 0.850715 0.304280 0.854297
Si Si8 0.918633 0.190200 0.621527
O O1 0.500000 0.755417 0.500000
O O2 0.232456 0.500000 0.586272
O O3 0.157215 0.744976 0.665906
O O4 0.072753 0.769070 0.609852
O O5 0.006073 0.500000 0.946189
O O6 0.232368 0.241030 0.843072
O O7 0.000000 0.249836 0.000000
O O8 0.766371 0.236437 0.010191
O O9 0.251694 0.500000 0.437426
O O10 0.429017 0.236163 0.340525
O O11 0.499647 0.294189 0.396523
O O12 0.081013 0.224294 0.523605
O O13 0.422145 0.500000 0.746586
O O14 0.682910 0.707690 0.698541
O O15 0.560641 0.500000 0.054944
O O16 0.339110 0.238414 0.113688
O O17 0.733240 0.292699 0.941544
O O18 0.911980 0.208454 0.230546
O O19 0.647300 0.000000 0.364421
O O20 0.896644 0.500000 0.830830
O O21 0.852620 0.000000 0.645478
#
# Coordination Sequence:
#
# PCOD9153559 Si02
#       8
#     4   4   4   4   4   4   4   4
#     4  11  23  41  64  84 110 153 199 237 281 345
#     4   9  17  31  54  84 115 146 188 246 300 340
#     4  11  22  39  62  86 117 160 208 251 293 348
#     4  10  22  39  61  89 120 157 204 251 293 350
#     4   8  15  30  53  80 109 146 196 251 297 339
#     4  12  24  36  56  88 124 157 194 242 301 360
#     4   9  17  32  55  81 111 149 196 245 291 346
#     4  12  25  40  61  89 124 158 194 246 303 357
#
# _framework density 21.997678000000001
#
# number of rings (size 3 to 8) (size 9 to 14) (size 15 to 20)
#    0.000    1.750    1.250    4.875    0.000    6.000 
#    0.000    3.750    0.000    1.125    0.000    0.000 
#    0.000    0.000    0.000    0.000    0.000    0.000 
#
# Total GULP energy -178713.437089 kJ/mol
# GULP energy per Si atom -5584.794909 kJ/mol
# Density = 2.194761 g / cm^3
# Si number density = 21.997678 Si / 1000 Ang^3
#
#
#
# Elastic Constant Matrix: (Units=GPa)
#
#
# Indices 1 2 3 4 5 6 
#
# 1 106.0413 -4.1356 -1.2234 0.0000 -8.8688 0.0000
# 2 -4.1356 25.0472 3.0702 0.0000 6.1286 0.0000
# 3 -1.2234 3.0702 41.0227 0.0000 -11.1505 0.0000
# 4 0.0000 0.0000 0.0000 -16.5691 0.0000 0.7734
# 5 -8.8688 6.1286 -11.1505 0.0000 27.3700 0.0000
# 6 0.0000 0.0000 0.0000 0.7734 0.0000 -7.6157
#
#
#
# Elastic Compliance Matrix: (Units=1/GPa)
#
#
# Indices 1 2 3 4 5 6 
#
# 1 0.009762 0.000604 0.001202 0.000000 0.003518 0.000000
# 2 0.000604 0.043848 -0.006611 0.000000 -0.012316 0.000000
# 3 0.001202 -0.006611 0.028581 0.000000 0.013514 0.000000
# 4 0.000000 0.000000 0.000000 -0.060641 0.000000 -0.006158
# 5 0.003518 -0.012316 0.013514 0.000000 0.045939 0.000000
# 6 0.000000 0.000000 0.000000 -0.006158 0.000000 -0.131933
#
#
# Mechanical properties :
#
#
# Convention : Reuss Voigt Hill
#
# Bulk Modulus (GPa) = 13.77796 18.61486 16.19641
# Shear Modulus (GPa) = -163.18897 12.26370 -75.46264
#
# Velocity S-wave (km/s) = -8.62239 2.36370 -5.86339
# Velocity P-wave (km/s) = 9.63590 3.99124 6.20164
#
# Compressibility (1/GPa) = 0.07257968
#
# Stress axis : x y z
#
# Youngs Moduli (GPa) = 102.43903 22.80589 34.98879
#
# Poissons Ratio (x) = -0.01377 -0.04206
# Poissons Ratio (y) = -0.06185 0.23132
# Poissons Ratio (z) = -0.12314 0.15078
#
# Static dielectric constant tensor:
#      x y z
#    x 1.871920 0.000000 -0.004000 
#    y 0.000000 1.800780 0.000000 
#    z -0.004000 0.000000 1.864400 
# 
# From -- ./inp_files/94990.got.cif
#   From: 2010.05.17/outbox.cif.g08.bks.cpg/sg10_48_cif.got.tgz:94990.got - 2010.06.03 11:33:40.
