data_PCOD9153805
_publ_section_title
;
Structure prediction by ZEFSAII (Michael W. Deem and Ramdas Pophale) SiO2 
 PCOD9153805
Probable space group: P 2/M
;
_chemical_formula_sum "Si O2"
_cell_formula_units_Z 20
_cell_length_a 8.058399
_cell_length_b 12.421028
_cell_length_c 8.538994
_cell_angle_alpha 90.000000
_cell_angle_beta 90.070369
_cell_angle_gamma 90.000000
_cell_volume 854.698002
_symmetry_space_group_name_H-M "P 2/M"
_symmetry_group_IT_number 10
_symmetry_cell_setting 'monoclinic'
loop_
_space_group_symop_operation_xyz
x,y,z
-x,y,-z
-x,-y,-z
x,-y,z
loop_
_atom_site_type_symbol
_atom_site_label
_atom_site_fract_x
_atom_site_fract_y
_atom_site_fract_z
Si Si1 0.836407 0.719066 0.691493
Si Si2 0.356725 0.733287 0.614684
Si Si3 0.632734 0.500000 0.343561
Si Si4 0.666638 0.878906 0.898722
Si Si5 0.871945 0.876746 0.202365
Si Si6 0.991735 0.500000 0.809663
O O1 0.787962 0.701275 0.511169
O O2 0.687630 0.780604 0.780969
O O3 0.985492 0.801263 0.729015
O O4 0.889144 0.605525 0.761776
O O5 0.500000 0.768185 0.500000
O O6 0.402228 0.623396 0.706473
O O7 0.292036 0.830784 0.715235
O O8 0.500000 0.500000 0.500000
O O9 0.832977 0.500000 0.288306
O O10 0.672256 0.000000 0.828309
O O11 0.500000 0.872280 0.000000
O O12 0.821405 0.870742 0.020079
O O13 0.905363 0.000000 0.241547
O O14 0.000000 0.500000 0.000000
#
# Coordination Sequence:
#
# PCOD9153805 Si02
#       6
#     4   4   2   4   4   2
#     4  12  24  40  66  97 130 171 222 282 335 398
#     4  11  24  42  65  92 129 173 222 273 331 403
#     4  10  23  45  71  93 135 183 220 263 337 411
#     4  10  22  42  65  91 131 179 221 269 338 408
#     4  11  23  39  63  94 129 169 219 277 336 397
#     4  12  25  43  71 106 137 173 224 285 337 396
#
# _framework density 23.400079999999999
#
# number of rings (size 3 to 8) (size 9 to 14) (size 15 to 20)
#    0.000    1.000    2.000    4.800    0.000    5.200 
#    0.000    0.500    0.000    0.000    0.000    0.000 
#    0.000    0.000    0.000    0.000    0.000    0.000 
#
# Total GULP energy -111537.962350 kJ/mol
# GULP energy per Si atom -5576.898117 kJ/mol
# Density = 2.334682 g / cm^3
# Si number density = 23.400080 Si / 1000 Ang^3
#
#
#
# Elastic Constant Matrix: (Units=GPa)
#
#
# Indices 1 2 3 4 5 6 
#
# 1 91.1972 32.7441 16.3784 0.0000 -14.3479 0.0000
# 2 32.7441 175.9052 54.4499 0.0000 -8.9548 0.0000
# 3 16.3784 54.4499 77.3750 0.0000 3.8739 0.0000
# 4 0.0000 0.0000 0.0000 32.3289 0.0000 -13.4537
# 5 -14.3479 -8.9548 3.8739 0.0000 44.8765 0.0000
# 6 0.0000 0.0000 0.0000 -13.4537 0.0000 21.1845
#
#
#
# Elastic Compliance Matrix: (Units=1/GPa)
#
#
# Indices 1 2 3 4 5 6 
#
# 1 0.012443 -0.001596 -0.001701 0.000000 0.003807 0.000000
# 2 -0.001596 0.007638 -0.005110 0.000000 0.001455 0.000000
# 3 -0.001701 -0.005110 0.017032 0.000000 -0.003034 0.000000
# 4 0.000000 0.000000 0.000000 0.042044 0.000000 0.026701
# 5 0.003807 0.001455 -0.003034 0.000000 0.024053 0.000000
# 6 0.000000 0.000000 0.000000 0.026701 0.000000 0.064161
#
#
# Mechanical properties :
#
#
# Convention : Reuss Voigt Hill
#
# Bulk Modulus (GPa) = 49.26515 61.29135 55.27825
# Shear Modulus (GPa) = 26.18493 35.73832 30.96163
#
# Velocity S-wave (km/s) = 3.34879 3.91227 3.64145
# Velocity P-wave (km/s) = 6.00430 6.83063 6.43075
#
# Compressibility (1/GPa) = 0.02029833
#
# Stress axis : x y z
#
# Youngs Moduli (GPa) = 80.36878 130.92975 58.71305
#
# Poissons Ratio (x) = 0.20892 0.09990
# Poissons Ratio (y) = 0.12824 0.30001
# Poissons Ratio (z) = 0.13675 0.66903
#
# Static dielectric constant tensor:
#      x y z
#    x 2.068040 0.000000 0.007060 
#    y 0.000000 1.788570 0.000000 
#    z 0.007060 0.000000 1.921920 
# 
# From -- ./inp_files/17896.got.cif
#   From: 2010.05.17/outbox.cif.g08.bks.cpg/sg10_9_cif.got.tgz:17896.got - 2010.06.03 11:33:40.
