data_PCOD9153423
_publ_section_title
;
Structure prediction by ZEFSAII (Michael W. Deem and Ramdas Pophale) SiO2 
 PCOD9153423
Probable space group: P 2/M
;
_chemical_formula_sum "Si O2"
_cell_formula_units_Z 22
_cell_length_a 5.317568
_cell_length_b 7.850178
_cell_length_c 24.377788
_cell_angle_alpha 90.000000
_cell_angle_beta 108.395855
_cell_angle_gamma 90.000000
_cell_volume 965.621152
_symmetry_space_group_name_H-M "P 2/M"
_symmetry_group_IT_number 10
_symmetry_cell_setting 'monoclinic'
loop_
_space_group_symop_operation_xyz
x,y,z
-x,y,-z
-x,-y,-z
x,-y,z
loop_
_atom_site_type_symbol
_atom_site_label
_atom_site_fract_x
_atom_site_fract_y
_atom_site_fract_z
Si Si1 0.201277 0.000000 0.460745
Si Si2 0.278873 0.708321 0.866827
Si Si3 0.149303 0.291447 0.734269
Si Si4 0.559185 0.294310 0.668544
Si Si5 0.124350 0.291618 0.066341
Si Si6 0.931075 0.314567 0.431078
O O1 0.500000 0.000000 0.500000
O O2 0.123469 0.169203 0.423669
O O3 0.000000 0.000000 0.500000
O O4 0.277516 0.500000 0.866693
O O5 0.572776 0.762645 0.904690
O O6 0.212170 0.762759 0.800506
O O7 0.059870 0.762813 0.895778
O O8 0.151418 0.500000 0.734373
O O9 0.857232 0.231857 0.696182
O O10 0.374823 0.237924 0.706837
O O11 0.579511 0.500000 0.672158
O O12 0.369252 0.261822 0.602879
O O13 0.124955 0.500000 0.066199
O O14 0.000000 0.236926 0.000000
O O15 0.979401 0.500000 0.408604
O O16 0.000000 0.331954 0.500000
#
# Coordination Sequence:
#
# PCOD9153423 Si02
#       6
#     2   4   4   4   4   4
#     4  10  22  38  56  80 108 138 174 214 259 320
#     4   9  15  22  32  45  66  97 133 181 234 278
#     4   9  16  26  39  57  80 108 146 192 242 291
#     4   9  17  28  43  63  86 113 149 194 241 294
#     4   9  15  21  29  43  64  94 135 182 231 280
#     4   9  19  36  57  80 107 139 174 217 270 319
#
# _framework density 22.783261
#
# number of rings (size 3 to 8) (size 9 to 14) (size 15 to 20)
#    0.000    2.909    0.000    1.636    0.000    9.818 
#    0.000    5.455    0.000    0.000    0.000    0.000 
#    0.000    0.000    0.000    0.000    0.000    0.000 
#
# Total GULP energy -122836.949548 kJ/mol
# GULP energy per Si atom -5583.497707 kJ/mol
# Density = 2.273141 g / cm^3
# Si number density = 22.783261 Si / 1000 Ang^3
#
#
#
# Elastic Constant Matrix: (Units=GPa)
#
#
# Indices 1 2 3 4 5 6 
#
# 1 121.1014 13.1340 18.4691 0.0000 10.4833 0.0000
# 2 13.1340 60.1869 -3.0196 0.0000 14.7214 0.0000
# 3 18.4691 -3.0196 121.4072 0.0000 3.0905 0.0000
# 4 0.0000 0.0000 0.0000 -21.4510 0.0000 -17.4977
# 5 10.4833 14.7214 3.0905 0.0000 44.1654 0.0000
# 6 0.0000 0.0000 0.0000 -17.4977 0.0000 -25.8566
#
#
#
# Elastic Compliance Matrix: (Units=1/GPa)
#
#
# Indices 1 2 3 4 5 6 
#
# 1 0.008763 -0.001626 -0.001337 0.000000 -0.001444 0.000000
# 2 -0.001626 0.018436 0.000854 0.000000 -0.005819 0.000000
# 3 -0.001337 0.000854 0.008476 0.000000 -0.000560 0.000000
# 4 0.000000 0.000000 0.000000 -0.104060 0.000000 0.070420
# 5 -0.001444 -0.005819 -0.000560 0.000000 0.024964 0.000000
# 6 0.000000 0.000000 0.000000 0.070420 0.000000 -0.086330
#
#
# Mechanical properties :
#
#
# Convention : Reuss Voigt Hill
#
# Bulk Modulus (GPa) = 31.78954 39.98473 35.88714
# Shear Modulus (GPa) = -43.45998 17.64570 -12.90714
#
# Velocity S-wave (km/s) = -4.37228 2.78601 -2.38275
# Velocity P-wave (km/s) = 3.39202 5.28557 2.86631
#
# Compressibility (1/GPa) = 0.03145689
#
# Stress axis : x y z
#
# Youngs Moduli (GPa) = 114.11893 54.24208 117.98583
#
# Poissons Ratio (x) = 0.08820 0.15771
# Poissons Ratio (y) = 0.18555 -0.10076
# Poissons Ratio (z) = 0.15254 -0.04632
#
# Static dielectric constant tensor:
#      x y z
#    x 1.861320 0.000000 -0.075660 
#    y 0.000000 1.666490 0.000000 
#    z -0.075660 0.000000 1.913100 
# 
# From -- ./inp_files/87355.got.cif
#   From: 2010.05.17/outbox.cif.g08.bks.cpg/sg10_44_cif.got.tgz:87355.got - 2010.06.03 11:33:40.
