data_PCOD9153617
_publ_section_title
;
Structure prediction by ZEFSAII (Michael W. Deem and Ramdas Pophale) SiO2 
 PCOD9153617
Probable space group: P 2/M
;
_chemical_formula_sum "Si O2"
_cell_formula_units_Z 32
_cell_length_a 11.329785
_cell_length_b 7.523975
_cell_length_c 29.674115
_cell_angle_alpha 90.000000
_cell_angle_beta 149.988610
_cell_angle_gamma 90.000000
_cell_volume 1265.220715
_symmetry_space_group_name_H-M "P 2/M"
_symmetry_group_IT_number 10
_symmetry_cell_setting 'monoclinic'
loop_
_space_group_symop_operation_xyz
x,y,z
-x,y,-z
-x,-y,-z
x,-y,z
loop_
_atom_site_type_symbol
_atom_site_label
_atom_site_fract_x
_atom_site_fract_y
_atom_site_fract_z
Si Si1 0.791906 0.297105 0.401762
Si Si2 0.735549 0.217024 0.051145
Si Si3 0.475475 0.705055 0.220548
Si Si4 0.748681 0.709252 0.562424
Si Si5 0.003157 0.783198 0.225406
Si Si6 0.240999 0.203072 0.769537
Si Si7 0.039232 0.203311 0.963698
Si Si8 0.526127 0.787105 0.398193
O O1 0.867282 0.500000 0.416214
O O2 0.683666 0.217812 0.320769
O O3 0.582180 0.294867 0.368635
O O4 0.000000 0.210301 0.500000
O O5 0.942169 0.266840 0.154438
O O6 0.791561 0.280149 0.019109
O O7 0.728754 0.000000 0.046065
O O8 0.500000 0.271155 0.000000
O O9 0.443544 0.500000 0.223263
O O10 0.570371 0.710367 0.200959
O O11 0.225978 0.797968 0.143723
O O12 0.500000 0.780398 0.500000
O O13 0.763025 0.500000 0.577045
O O14 0.717925 0.733942 0.498790
O O15 0.984375 0.792485 0.660374
O O16 0.811837 0.720495 0.198572
O O17 0.264785 0.727787 0.326160
O O18 0.996631 0.000000 0.225279
O O19 0.317081 0.000000 0.799945
O O20 0.118263 0.000000 0.997891
O O21 0.000000 0.288760 0.000000
O O22 0.525761 0.000000 0.394163
#
# Coordination Sequence:
#
# PCOD9153617 Si02
#       8
#     4   4   4   4   4   4   4   4
#     4  10  22  40  59  81 115 159 206 254 307 375
#     4   9  18  34  60  92 125 156 196 250 313 373
#     4  11  24  41  62  89 126 168 209 255 317 383
#     4  11  22  36  54  81 121 164 207 251 307 373
#     4   9  19  33  53  85 120 153 190 248 310 363
#     4  11  22  37  60  87 121 159 207 260 308 363
#     4  10  22  40  66  98 127 163 214 266 316 375
#     4  11  21  35  58  85 117 153 201 256 307 360
#
# _framework density 25.292028999999999
#
# number of rings (size 3 to 8) (size 9 to 14) (size 15 to 20)
#    0.000    1.750    1.250    3.000    1.750    4.000 
#    0.000    0.000    0.000    1.125    0.000    0.000 
#    0.000    0.000    0.000    0.000    0.000    0.000 
#
# Total GULP energy -178978.753864 kJ/mol
# GULP energy per Si atom -5593.086058 kJ/mol
# Density = 2.523446 g / cm^3
# Si number density = 25.292029 Si / 1000 Ang^3
#
#
#
# Elastic Constant Matrix: (Units=GPa)
#
#
# Indices 1 2 3 4 5 6 
#
# 1 181.7286 0.2004 35.7125 0.0000 -12.3047 0.0000
# 2 0.2004 83.9321 1.3440 0.0000 2.8376 0.0000
# 3 35.7125 1.3440 94.1629 0.0000 0.3477 0.0000
# 4 0.0000 0.0000 0.0000 23.3408 0.0000 5.3470
# 5 -12.3047 2.8376 0.3477 0.0000 47.7733 0.0000
# 6 0.0000 0.0000 0.0000 5.3470 0.0000 12.2656
#
#
#
# Elastic Compliance Matrix: (Units=1/GPa)
#
#
# Indices 1 2 3 4 5 6 
#
# 1 0.006063 -0.000031 -0.002305 0.000000 0.001580 0.000000
# 2 -0.000031 0.011941 -0.000156 0.000000 -0.000716 0.000000
# 3 -0.002305 -0.000156 0.011499 0.000000 -0.000668 0.000000
# 4 0.000000 0.000000 0.000000 0.047597 0.000000 -0.020749
# 5 0.001580 -0.000716 -0.000668 0.000000 0.021387 0.000000
# 6 0.000000 0.000000 0.000000 -0.020749 0.000000 0.090574
#
#
# Mechanical properties :
#
#
# Convention : Reuss Voigt Hill
#
# Bulk Modulus (GPa) = 40.78474 48.25974 44.52224
# Shear Modulus (GPa) = 24.72598 38.18037 31.45317
#
# Velocity S-wave (km/s) = 3.13008 3.88955 3.53030
# Velocity P-wave (km/s) = 5.40590 6.26848 5.85310
#
# Compressibility (1/GPa) = 0.02451897
#
# Stress axis : x y z
#
# Youngs Moduli (GPa) = 164.94432 83.74382 86.96646
#
# Poissons Ratio (x) = 0.00260 0.20043
# Poissons Ratio (y) = 0.00511 0.01357
# Poissons Ratio (z) = 0.38015 0.01307
#
# Static dielectric constant tensor:
#      x y z
#    x 2.013690 0.000000 -0.003240 
#    y 0.000000 1.939880 0.000000 
#    z -0.003240 0.000000 2.000040 
# 
# From -- ./inp_files/95036.got.cif
#   From: 2010.05.17/outbox.cif.g08.bks.cpg/sg10_48_cif.got.tgz:95036.got - 2010.06.03 11:33:40.
