data_PCOD9153473
_publ_section_title
;
Structure prediction by ZEFSAII (Michael W. Deem and Ramdas Pophale) SiO2 
 PCOD9153473
Probable space group: P 2/M
;
_chemical_formula_sum "Si O2"
_cell_formula_units_Z 14
_cell_length_a 5.112821
_cell_length_b 8.433073
_cell_length_c 14.157235
_cell_angle_alpha 90.000000
_cell_angle_beta 77.219065
_cell_angle_gamma 90.000000
_cell_volume 595.290338
_symmetry_space_group_name_H-M "P 2/M"
_symmetry_group_IT_number 10
_symmetry_cell_setting 'monoclinic'
loop_
_space_group_symop_operation_xyz
x,y,z
-x,y,-z
-x,-y,-z
x,-y,z
loop_
_atom_site_type_symbol
_atom_site_label
_atom_site_fract_x
_atom_site_fract_y
_atom_site_fract_z
Si Si1 0.502439 0.824664 0.386292
Si Si2 0.288584 0.500000 0.430501
Si Si3 0.034940 0.818166 0.790404
Si Si4 0.481911 0.314228 0.892526
O O1 0.500000 0.832234 0.500000
O O2 0.342394 0.665354 0.373137
O O3 0.799100 0.802309 0.320281
O O4 0.407003 0.000000 0.360061
O O5 0.500000 0.500000 0.500000
O O6 0.000000 0.500000 0.500000
O O7 0.256425 0.776899 0.851904
O O8 0.774568 0.712671 0.825118
O O9 0.949787 0.000000 0.807411
O O10 0.411426 0.500000 0.896464
O O11 0.500000 0.262027 0.000000
#
# Coordination Sequence:
#
# PCOD9153473 Si02
#       4
#     4   2   4   4
#     4   9  21  42  65  95 136 175 216 269 323 388
#     4  10  22  38  60  90 119 166 219 256 312 374
#     4  11  24  42  68  99 130 175 222 269 333 392
#     4  11  25  44  67  96 132 173 217 275 340 396
#
# _framework density 23.517938000000001
#
# number of rings (size 3 to 8) (size 9 to 14) (size 15 to 20)
#    0.000    1.714    0.000    2.571    4.000   10.857 
#    0.000    8.571    0.000    0.000    0.000    0.000 
#    0.000    0.000    0.000    0.000    0.000    0.000 
#
# Total GULP energy -78347.336299 kJ/mol
# GULP energy per Si atom -5596.238307 kJ/mol
# Density = 2.346441 g / cm^3
# Si number density = 23.517938 Si / 1000 Ang^3
#
#
#
# Elastic Constant Matrix: (Units=GPa)
#
#
# Indices 1 2 3 4 5 6 
#
# 1 100.7631 13.8372 31.4588 0.0000 8.3219 0.0000
# 2 13.8372 134.2778 11.2568 0.0000 -14.6643 0.0000
# 3 31.4588 11.2568 135.8828 0.0000 10.4749 0.0000
# 4 0.0000 0.0000 0.0000 30.3443 0.0000 -16.7856
# 5 8.3219 -14.6643 10.4749 0.0000 33.0791 0.0000
# 6 0.0000 0.0000 0.0000 -16.7856 0.0000 29.2911
#
#
#
# Elastic Compliance Matrix: (Units=1/GPa)
#
#
# Indices 1 2 3 4 5 6 
#
# 1 0.011010 -0.001231 -0.002246 0.000000 -0.002604 0.000000
# 2 -0.001231 0.008082 -0.000702 0.000000 0.004115 0.000000
# 3 -0.002246 -0.000702 0.008116 0.000000 -0.002316 0.000000
# 4 0.000000 0.000000 0.000000 0.048251 0.000000 0.027651
# 5 -0.002604 0.004115 -0.002316 0.000000 0.033443 0.000000
# 6 0.000000 0.000000 0.000000 0.027651 0.000000 0.049986
#
#
# Mechanical properties :
#
#
# Convention : Reuss Voigt Hill
#
# Bulk Modulus (GPa) = 53.04881 53.78102 53.41491
# Shear Modulus (GPa) = 28.81375 39.50096 34.15735
#
# Velocity S-wave (km/s) = 3.50406 4.10275 3.81517
# Velocity P-wave (km/s) = 6.24315 6.73507 6.49377
#
# Compressibility (1/GPa) = 0.01885056
#
# Stress axis : x y z
#
# Youngs Moduli (GPa) = 90.82991 123.72765 123.21356
#
# Poissons Ratio (x) = 0.15226 0.27676
# Poissons Ratio (y) = 0.11178 0.08648
# Poissons Ratio (z) = 0.20402 0.08684
#
# Static dielectric constant tensor:
#      x y z
#    x 1.810230 0.000000 0.029860 
#    y 0.000000 1.922820 0.000000 
#    z 0.029860 0.000000 1.897120 
# 
# From -- ./inp_files/5848.got.cif
#   From: 2010.05.17/outbox.cif.g08.bks.cpg/sg10_3_cif.got.tgz:5848.got - 2010.06.03 11:33:40.
