data_PCOD9153606
_publ_section_title
;
Structure prediction by ZEFSAII (Michael W. Deem and Ramdas Pophale) SiO2 
 PCOD9153606
Probable space group: P 2/M
;
_chemical_formula_sum "Si O2"
_cell_formula_units_Z 28
_cell_length_a 9.800816
_cell_length_b 14.129295
_cell_length_c 11.840913
_cell_angle_alpha 90.000000
_cell_angle_beta 68.639360
_cell_angle_gamma 90.000000
_cell_volume 1527.075246
_symmetry_space_group_name_H-M "P 2/M"
_symmetry_group_IT_number 10
_symmetry_cell_setting 'monoclinic'
loop_
_space_group_symop_operation_xyz
x,y,z
-x,y,-z
-x,-y,-z
x,-y,z
loop_
_atom_site_type_symbol
_atom_site_label
_atom_site_fract_x
_atom_site_fract_y
_atom_site_fract_z
Si Si1 0.112100 0.887988 0.691569
Si Si2 0.829319 0.791053 0.850407
Si Si3 0.228124 0.889767 0.908007
Si Si4 0.362296 0.806056 0.463533
Si Si5 0.421308 0.110350 0.200391
Si Si6 0.767347 0.608430 0.514459
Si Si7 0.065805 0.607881 0.295289
O O1 0.178088 0.867152 0.796221
O O2 0.214304 0.840610 0.567899
O O3 0.947603 0.849890 0.741761
O O4 0.114526 0.000000 0.675276
O O5 0.670015 0.823130 0.855639
O O6 0.870644 0.683500 0.810832
O O7 0.841152 0.823529 0.976048
O O8 0.403799 0.881734 0.863106
O O9 0.188823 0.000000 0.943232
O O10 0.500000 0.831707 0.500000
O O11 0.380268 0.856548 0.338450
O O12 0.348732 0.692545 0.456788
O O13 0.382601 0.000000 0.192150
O O14 0.714050 0.500000 0.518168
O O15 0.844533 0.615810 0.614048
O O16 0.896653 0.623811 0.383090
O O17 0.079197 0.500000 0.251213
#
# Coordination Sequence:
#
# PCOD9153606 Si02
#       7
#     4   4   4   4   4   4   4
#     4  11  23  37  56  84 116 153 190 230 279 335
#     4  12  21  36  61  85 111 143 195 245 270 315
#     4  10  22  40  57  78 114 162 197 219 268 339
#     4  12  22  36  58  83 115 152 184 230 293 341
#     4  11  23  37  56  84 116 153 190 230 279 335
#     4   9  18  36  57  82 111 141 185 235 285 343
#     4   9  18  34  59  84 109 141 180 231 297 344
#
# _framework density 18.335704
#
# number of rings (size 3 to 8) (size 9 to 14) (size 15 to 20)
#    0.000    1.429    4.286    3.429    0.000    3.714 
#    0.000    1.429    0.000    5.143    0.000    0.000 
#    0.000    0.000    0.000    0.000    0.000    0.000 
#
# Total GULP energy -156411.698394 kJ/mol
# GULP energy per Si atom -5586.132086 kJ/mol
# Density = 1.829397 g / cm^3
# Si number density = 18.335704 Si / 1000 Ang^3
#
#
#
# Elastic Constant Matrix: (Units=GPa)
#
#
# Indices 1 2 3 4 5 6 
#
# 1 32.0720 -8.5524 -8.4044 0.0000 -7.1913 0.0000
# 2 -8.5524 81.2226 43.0834 0.0000 -9.0514 0.0000
# 3 -8.4044 43.0834 78.6454 0.0000 -7.7450 0.0000
# 4 0.0000 0.0000 0.0000 125.5118 0.0000 146.5366
# 5 -7.1913 -9.0514 -7.7450 0.0000 23.3365 0.0000
# 6 0.0000 0.0000 0.0000 146.5366 0.0000 254.3221
#
#
#
# Elastic Compliance Matrix: (Units=1/GPa)
#
#
# Indices 1 2 3 4 5 6 
#
# 1 0.036023 0.003600 0.003213 0.000000 0.013564 0.000000
# 2 0.003600 0.018029 -0.008988 0.000000 0.005119 0.000000
# 3 0.003213 -0.008988 0.018336 0.000000 0.003589 0.000000
# 4 0.000000 0.000000 0.000000 0.024343 0.000000 -0.014026
# 5 0.013564 0.005119 0.003589 0.000000 0.050208 0.000000
# 6 0.000000 0.000000 0.000000 -0.014026 0.000000 0.012014
#
#
# Mechanical properties :
#
#
# Convention : Reuss Voigt Hill
#
# Bulk Modulus (GPa) = 14.69743 27.13259 20.91501
# Shear Modulus (GPa) = 26.88454 91.68832 59.28643
#
# Velocity S-wave (km/s) = 3.83331 7.07912 5.69246
# Velocity P-wave (km/s) = 5.25599 9.03595 7.39168
#
# Compressibility (1/GPa) = 0.06803909
#
# Stress axis : x y z
#
# Youngs Moduli (GPa) = 27.75992 55.46684 54.53828
#
# Poissons Ratio (x) = -0.19970 -0.17523
# Poissons Ratio (y) = -0.09994 0.49017
# Poissons Ratio (z) = -0.08919 0.49851
#
# Static dielectric constant tensor:
#      x y z
#    x 1.641660 0.000000 -0.001140 
#    y 0.000000 1.624320 0.000000 
#    z -0.001140 0.000000 1.609750 
# 
# From -- ./inp_files/25014.got.cif
#   From: 2010.05.17/outbox.cif.g08.bks.cpg/sg10_13_cif.got.tgz:25014.got - 2010.06.03 11:33:40.
