data_PCOD9153223
_publ_section_title
;
Structure prediction by ZEFSAII (Michael W. Deem and Ramdas Pophale) SiO2 
 PCOD9153223
Probable space group: P 2/M
;
_chemical_formula_sum "Si O2"
_cell_formula_units_Z 32
_cell_length_a 9.523501
_cell_length_b 13.550109
_cell_length_c 19.852310
_cell_angle_alpha 90.000000
_cell_angle_beta 136.174789
_cell_angle_gamma 90.000000
_cell_volume 1773.967235
_symmetry_space_group_name_H-M "P 2/M"
_symmetry_group_IT_number 10
_symmetry_cell_setting 'monoclinic'
loop_
_space_group_symop_operation_xyz
x,y,z
-x,y,-z
-x,-y,-z
x,-y,z
loop_
_atom_site_type_symbol
_atom_site_label
_atom_site_fract_x
_atom_site_fract_y
_atom_site_fract_z
Si Si1 0.553099 0.275564 0.192852
Si Si2 0.836806 0.795906 0.003220
Si Si3 0.926573 0.112752 0.803328
Si Si4 0.006609 0.785208 0.315071
Si Si5 0.642749 0.387807 0.985995
Si Si6 0.817153 0.884201 0.490688
Si Si7 0.453792 0.748014 0.310656
Si Si8 0.315504 0.614068 0.382965
O O1 0.386630 0.196916 0.106780
O O2 0.779157 0.242425 0.256367
O O3 0.493056 0.370900 0.127757
O O4 0.516822 0.288692 0.258999
O O5 0.100919 0.874528 0.919597
O O6 0.822387 0.690741 0.037840
O O7 0.000000 0.793007 0.000000
O O8 0.742517 0.182154 0.763131
O O9 0.992706 0.152199 0.753363
O O10 0.861290 0.000000 0.776198
O O11 0.107329 0.846673 0.410576
O O12 0.137871 0.686553 0.346816
O O13 0.710583 0.500000 0.016564
O O14 0.500000 0.361965 0.000000
O O15 0.632297 0.815402 0.403317
O O16 0.000000 0.874182 0.500000
O O17 0.760245 0.000000 0.473657
O O18 0.397716 0.660074 0.341865
O O19 0.500000 0.618604 0.500000
O O20 0.251899 0.500000 0.354113
#
# Coordination Sequence:
#
# PCOD9153223 Si02
#       8
#     4   4   4   4   4   4   4   4
#     4  10  22  38  62  85 123 153 201 239 306 353
#     4  10  21  41  58  84 119 155 190 252 298 342
#     4  11  23  39  61  89 117 156 206 245 302 365
#     4  11  22  40  63  89 125 158 195 255 301 353
#     4   9  19  36  60  85 114 151 194 241 296 357
#     4  11  22  37  60  91 124 161 201 247 305 358
#     4  11  21  41  61  89 121 161 197 257 297 351
#     4  10  22  40  63  90 121 162 204 243 303 363
#
# _framework density 18.038664000000001
#
# number of rings (size 3 to 8) (size 9 to 14) (size 15 to 20)
#    0.750    0.875    3.750    1.500    0.000    1.500 
#    0.000    7.500    0.000    2.250    0.000    0.000 
#    0.000    0.000    0.000    0.000    0.000    0.000 
#
# Total GULP energy -178448.321681 kJ/mol
# GULP energy per Si atom -5576.510053 kJ/mol
# Density = 1.799761 g / cm^3
# Si number density = 18.038664 Si / 1000 Ang^3
#
#
#
# Elastic Constant Matrix: (Units=GPa)
#
#
# Indices 1 2 3 4 5 6 
#
# 1 121.2414 37.3759 44.3545 0.0000 -24.5082 0.0000
# 2 37.3759 85.9437 22.6926 0.0000 -19.6494 0.0000
# 3 44.3545 22.6926 79.3908 0.0000 -7.2163 0.0000
# 4 0.0000 0.0000 0.0000 9.7724 0.0000 -1.9692
# 5 -24.5082 -19.6494 -7.2163 0.0000 29.1739 0.0000
# 6 0.0000 0.0000 0.0000 -1.9692 0.0000 14.6896
#
#
#
# Elastic Compliance Matrix: (Units=1/GPa)
#
#
# Indices 1 2 3 4 5 6 
#
# 1 0.012557 -0.002209 -0.005688 0.000000 0.007654 0.000000
# 2 -0.002209 0.014963 -0.002348 0.000000 0.007642 0.000000
# 3 -0.005688 -0.002348 0.016232 0.000000 -0.002345 0.000000
# 4 0.000000 0.000000 0.000000 0.105169 0.000000 0.014098
# 5 0.007654 0.007642 -0.002345 0.000000 0.045274 0.000000
# 6 0.000000 0.000000 0.000000 0.014098 0.000000 0.069965
#
#
# Mechanical properties :
#
#
# Convention : Reuss Voigt Hill
#
# Bulk Modulus (GPa) = 42.99021 55.04688 49.01855
# Shear Modulus (GPa) = 17.09949 22.87072 19.98510
#
# Velocity S-wave (km/s) = 3.08220 3.56458 3.33213
# Velocity P-wave (km/s) = 6.04571 6.89376 6.48362
#
# Compressibility (1/GPa) = 0.02326111
#
# Stress axis : x y z
#
# Youngs Moduli (GPa) = 79.63522 66.82995 61.60675
#
# Poissons Ratio (x) = 0.14763 0.35044
# Poissons Ratio (y) = 0.17592 0.14467
# Poissons Ratio (z) = 0.45300 0.15693
#
# Static dielectric constant tensor:
#      x y z
#    x 1.592610 0.000000 -0.001190 
#    y 0.000000 1.587520 0.000000 
#    z -0.001190 0.000000 1.638330 
# 
# From -- ./inp_files/82642.got.cif
#   From: 2010.05.17/outbox.cif.g08.bks.cpg/sg10_42_cif.got.tgz:82642.got - 2010.06.03 11:33:40.
