data_PCOD9153746
_publ_section_title
;
Structure prediction by ZEFSAII (Michael W. Deem and Ramdas Pophale) SiO2 
 PCOD9153746
Probable space group: P 2/M
;
_chemical_formula_sum "Si O2"
_cell_formula_units_Z 28
_cell_length_a 9.840551
_cell_length_b 11.333750
_cell_length_c 14.133970
_cell_angle_alpha 90.000000
_cell_angle_beta 108.537527
_cell_angle_gamma 90.000000
_cell_volume 1494.577759
_symmetry_space_group_name_H-M "P 2/M"
_symmetry_group_IT_number 10
_symmetry_cell_setting 'monoclinic'
loop_
_space_group_symop_operation_xyz
x,y,z
-x,y,-z
-x,-y,-z
x,-y,z
loop_
_atom_site_type_symbol
_atom_site_label
_atom_site_fract_x
_atom_site_fract_y
_atom_site_fract_z
Si Si1 0.867576 0.858422 0.900217
Si Si2 0.402261 0.000000 0.569397
Si Si3 0.547982 0.141983 0.904753
Si Si4 0.385801 0.636730 0.391234
Si Si5 0.916513 0.000000 0.579575
Si Si6 0.894586 0.360865 0.388861
Si Si7 0.094689 0.766842 0.302699
Si Si8 0.408750 0.763806 0.692781
O O1 0.713000 0.829127 0.912861
O O2 0.891695 0.793786 0.805466
O O3 0.866114 0.000000 0.881457
O O4 0.000000 0.834164 0.000000
O O5 0.500000 0.000000 0.500000
O O6 0.245326 0.000000 0.491332
O O7 0.427656 0.116117 0.637369
O O8 0.441672 0.203419 0.807546
O O9 0.534698 0.000000 0.892235
O O10 0.500000 0.172924 0.000000
O O11 0.500000 0.655224 0.500000
O O12 0.341534 0.500000 0.382101
O O13 0.248697 0.719257 0.371127
O O14 0.472227 0.671973 0.316831
O O15 0.944446 0.114249 0.649720
O O16 0.000000 0.000000 0.500000
O O17 0.864104 0.500000 0.388208
O O18 0.747828 0.288558 0.360311
O O19 0.000000 0.330432 0.500000
O O20 0.978108 0.327800 0.311320
#
# Coordination Sequence:
#
# PCOD9153746 Si02
#       8
#     4   2   4   4   2   4   4   4
#     4  10  22  41  64  95 127 163 207 255 317 385
#     4  12  24  34  59  92 132 162 191 250 325 376
#     4  10  22  41  64  94 129 163 205 255 317 387
#     4  11  23  39  63  91 121 167 219 255 297 368
#     4  12  24  38  55  92 132 164 199 248 317 382
#     4  11  25  43  62  88 128 175 219 255 298 368
#     4  12  22  40  64  90 127 165 205 261 316 370
#     4  12  22  40  63  92 127 166 206 257 316 374
#
# _framework density 18.734387999999999
#
# number of rings (size 3 to 8) (size 9 to 14) (size 15 to 20)
#    0.000    0.857    2.857    6.000    2.000    2.286 
#    0.000    0.000    0.000    5.143    0.000    0.000 
#    0.000    0.000    0.000    0.000    0.000    0.000 
#
# Total GULP energy -156571.360746 kJ/mol
# GULP energy per Si atom -5591.834312 kJ/mol
# Density = 1.869175 g / cm^3
# Si number density = 18.734388 Si / 1000 Ang^3
#
#
#
# Elastic Constant Matrix: (Units=GPa)
#
#
# Indices 1 2 3 4 5 6 
#
# 1 132.6374 43.4720 50.5551 0.0000 -11.2220 0.0000
# 2 43.4720 82.0298 54.8743 0.0000 0.4930 0.0000
# 3 50.5551 54.8743 119.3938 0.0000 -18.5380 0.0000
# 4 0.0000 0.0000 0.0000 17.7772 0.0000 -1.7527
# 5 -11.2220 0.4930 -18.5380 0.0000 35.3638 0.0000
# 6 0.0000 0.0000 0.0000 -1.7527 0.0000 19.0822
#
#
#
# Elastic Compliance Matrix: (Units=1/GPa)
#
#
# Indices 1 2 3 4 5 6 
#
# 1 0.009744 -0.003799 -0.002059 0.000000 0.002066 0.000000
# 2 -0.003799 0.019894 -0.008453 0.000000 -0.005914 0.000000
# 3 -0.002059 -0.008453 0.014206 0.000000 0.006911 0.000000
# 4 0.000000 0.000000 0.000000 0.056766 0.000000 0.005214
# 5 0.002066 -0.005914 0.006911 0.000000 0.032638 0.000000
# 6 0.000000 0.000000 0.000000 0.005214 0.000000 0.052884
#
#
# Mechanical properties :
#
#
# Convention : Reuss Voigt Hill
#
# Bulk Modulus (GPa) = 65.69641 70.20711 67.95176
# Shear Modulus (GPa) = 22.74498 26.78862 24.76680
#
# Velocity S-wave (km/s) = 3.48814 3.78553 3.63987
# Velocity P-wave (km/s) = 7.16702 7.52750 7.34947
#
# Compressibility (1/GPa) = 0.01522153
#
# Stress axis : x y z
#
# Youngs Moduli (GPa) = 102.62674 50.26567 70.39317
#
# Poissons Ratio (x) = 0.19095 0.14496
# Poissons Ratio (y) = 0.38985 0.59506
# Poissons Ratio (z) = 0.21134 0.42491
#
# Static dielectric constant tensor:
#      x y z
#    x 1.644360 0.000000 -0.007760 
#    y 0.000000 1.671190 0.000000 
#    z -0.007760 0.000000 1.629360 
# 
# From -- ./inp_files/61043.got.cif
#   From: 2010.05.17/outbox.cif.g08.bks.cpg/sg10_31_cif.got.tgz:61043.got - 2010.06.03 11:33:40.
