data_PCOD9153259
_publ_section_title
;
Structure prediction by ZEFSAII (Michael W. Deem and Ramdas Pophale) SiO2 
 PCOD9153259
Probable space group: P 2/M
;
_chemical_formula_sum "Si O2"
_cell_formula_units_Z 32
_cell_length_a 22.536411
_cell_length_b 15.335842
_cell_length_c 14.633035
_cell_angle_alpha 90.000000
_cell_angle_beta 161.948301
_cell_angle_gamma 90.000000
_cell_volume 1567.160093
_symmetry_space_group_name_H-M "P 2/M"
_symmetry_group_IT_number 10
_symmetry_cell_setting 'monoclinic'
loop_
_space_group_symop_operation_xyz
x,y,z
-x,y,-z
-x,-y,-z
x,-y,z
loop_
_atom_site_type_symbol
_atom_site_label
_atom_site_fract_x
_atom_site_fract_y
_atom_site_fract_z
Si Si1 0.015269 0.094293 0.379277
Si Si2 0.442045 0.098444 0.312266
Si Si3 0.547350 0.732229 0.774138
Si Si4 0.981821 0.287493 0.374035
Si Si5 0.412436 0.282242 0.769133
Si Si6 0.082705 0.397898 0.347996
Si Si7 0.653644 0.400328 0.643233
Si Si8 0.682880 0.093420 0.336469
O O1 0.060468 0.187290 0.491715
O O2 0.129810 0.095741 0.452485
O O3 0.069915 0.000000 0.503387
O O4 0.788640 0.093826 0.031700
O O5 0.500000 0.126256 0.500000
O O6 0.504851 0.168697 0.329302
O O7 0.516293 0.000000 0.406752
O O8 0.556579 0.710587 0.895183
O O9 0.395950 0.667974 0.507190
O O10 0.752465 0.717743 0.026052
O O11 0.075042 0.342291 0.430152
O O12 0.000000 0.328770 0.500000
O O13 0.327353 0.185343 0.629286
O O14 0.245714 0.353962 0.524691
O O15 0.500000 0.285585 0.000000
O O16 0.122420 0.500000 0.422247
O O17 0.870388 0.390467 0.995119
O O18 0.500000 0.387372 0.500000
O O19 0.628504 0.500000 0.574304
O O20 0.677064 0.000000 0.378162
O O21 0.500000 0.092857 0.000000
#
# Coordination Sequence:
#
# PCOD9153259 Si02
#       8
#     4   4   4   4   4   4   4   4
#     4   9  18  34  56  85 118 160 204 246 294 349
#     4   9  19  35  58  91 128 160 200 254 310 361
#     4  11  23  36  63  92 121 161 205 253 305 364
#     4  11  22  37  60  91 123 158 204 254 301 369
#     4  11  24  42  60  88 130 168 202 249 307 369
#     4  11  24  43  65  87 118 161 203 253 315 371
#     4  10  21  41  67  92 116 146 200 264 311 359
#     4   9  18  33  56  80 112 160 203 236 282 347
#
# _framework density 20.419101000000001
#
# number of rings (size 3 to 8) (size 9 to 14) (size 15 to 20)
#    0.000    1.875    2.500    1.125    3.500    2.250 
#    0.000    2.500    0.000    0.000    0.000    5.250 
#    0.000    0.000    0.000    0.000    0.000    0.000 
#
# Total GULP energy -178455.683330 kJ/mol
# GULP energy per Si atom -5576.740104 kJ/mol
# Density = 2.037263 g / cm^3
# Si number density = 20.419101 Si / 1000 Ang^3
#
#
#
# Elastic Constant Matrix: (Units=GPa)
#
#
# Indices 1 2 3 4 5 6 
#
# 1 69.7938 41.8130 15.0546 0.0000 7.7603 0.0000
# 2 41.8130 123.8320 43.5214 0.0000 4.7054 0.0000
# 3 15.0546 43.5214 40.7706 0.0000 7.8316 0.0000
# 4 0.0000 0.0000 0.0000 31.7192 0.0000 4.7034
# 5 7.7603 4.7054 7.8316 0.0000 24.9587 0.0000
# 6 0.0000 0.0000 0.0000 4.7034 0.0000 -19.3336
#
#
#
# Elastic Compliance Matrix: (Units=1/GPa)
#
#
# Indices 1 2 3 4 5 6 
#
# 1 0.018491 -0.006380 0.000911 0.000000 -0.004832 0.000000
# 2 -0.006380 0.015222 -0.014603 0.000000 0.003696 0.000000
# 3 0.000911 -0.014603 0.041826 0.000000 -0.010654 0.000000
# 4 0.000000 0.000000 0.000000 0.030429 0.000000 0.007403
# 5 -0.004832 0.003696 -0.010654 0.000000 0.044215 0.000000
# 6 0.000000 0.000000 0.000000 0.007403 0.000000 -0.049922
#
#
# Mechanical properties :
#
#
# Convention : Reuss Voigt Hill
#
# Bulk Modulus (GPa) = 28.25287 48.35273 38.30280
# Shear Modulus (GPa) = 32.85122 16.40268 24.62695
#
# Velocity S-wave (km/s) = 4.01540 2.83733 3.47663
# Velocity P-wave (km/s) = 5.94680 5.87073 5.90889
#
# Compressibility (1/GPa) = 0.03539463
#
# Stress axis : x y z
#
# Youngs Moduli (GPa) = 54.08016 65.69643 23.90885
#
# Poissons Ratio (x) = 0.41916 -0.02178
# Poissons Ratio (y) = 0.34505 0.34913
# Poissons Ratio (z) = -0.04927 0.95934
#
# Static dielectric constant tensor:
#      x y z
#    x 1.735520 0.000000 -0.022240 
#    y 0.000000 1.762510 0.000000 
#    z -0.022240 0.000000 1.750970 
# 
# From -- ./inp_files/51623.got.cif
#   From: 2010.05.17/outbox.cif.g08.bks.cpg/sg10_26_cif.got.tgz:51623.got - 2010.06.03 11:33:40.
