data_PCOD9153127
_publ_section_title
;
Structure prediction by ZEFSAII (Michael W. Deem and Ramdas Pophale) SiO2 
 PCOD9153127
Probable space group: P 2/M
;
_chemical_formula_sum "Si O2"
_cell_formula_units_Z 15
_cell_length_a 31.289391
_cell_length_b 5.427171
_cell_length_c 5.263179
_cell_angle_alpha 90.000000
_cell_angle_beta 140.441160
_cell_angle_gamma 90.000000
_cell_volume 569.206377
_symmetry_space_group_name_H-M "P 2/M"
_symmetry_group_IT_number 10
_symmetry_cell_setting 'monoclinic'
loop_
_space_group_symop_operation_xyz
x,y,z
-x,y,-z
-x,-y,-z
x,-y,z
loop_
_atom_site_type_symbol
_atom_site_label
_atom_site_fract_x
_atom_site_fract_y
_atom_site_fract_z
Si Si1 0.545834 0.500000 0.463785
Si Si2 0.000000 0.500000 0.000000
Si Si3 0.251768 0.500000 0.368636
Si Si4 0.699931 0.000000 0.612019
Si Si5 0.151174 0.000000 0.551559
Si Si6 0.054420 0.000000 0.524775
Si Si7 0.837180 0.500000 0.545802
Si Si8 0.421187 0.000000 0.557502
O O1 0.500000 0.500000 0.500000
O O2 0.586862 0.249708 0.635035
O O3 0.500000 0.500000 0.000000
O O4 0.962677 0.725113 0.667714
O O5 0.292328 0.749799 0.509030
O O6 0.215470 0.500000 0.470544
O O7 0.198157 0.500000 0.891611
O O8 0.631565 0.000000 0.456946
O O9 0.767760 0.000000 0.100245
O O10 0.124047 0.241745 0.280515
O O11 0.131955 0.000000 0.761079
O O12 0.000000 0.000000 0.500000
O O13 0.500000 0.000000 0.000000
#
# Coordination Sequence:
#
# PCOD9153127 Si02
#       8
#     2   1   2   2   2   2   2   2
#     4  10  21  40  62  91 123 169 219 271 335 397
#     4  10  24  44  66 110 126 188 228 288 344 430
#     4  10  21  40  62  91 130 170 217 277 331 407
#     4  10  21  41  64  96 128 173 222 270 341 397
#     4  10  22  42  63  97 128 173 221 280 334 410
#     4  11  23  47  70 100 144 181 238 286 359 418
#     4  10  21  41  63  96 131 172 221 271 343 398
#     4  10  21  40  63  93 130 171 218 277 329 403
#
# _framework density 26.35248
#
# number of rings (size 3 to 8) (size 9 to 14) (size 15 to 20)
#    0.000    1.867    0.000    3.200    0.000    0.000 
#   28.800   32.000    0.000    0.000    0.000    0.000 
#    0.000    0.000    0.000    0.000    0.000    0.000 
#
# Total GULP energy -83529.012232 kJ/mol
# GULP energy per Si atom -5568.600815 kJ/mol
# Density = 2.629250 g / cm^3
# Si number density = 26.352480 Si / 1000 Ang^3
#
#
#
# Elastic Constant Matrix: (Units=GPa)
#
#
# Indices 1 2 3 4 5 6 
#
# 1 285.6083 91.0772 28.4361 0.0000 8.9451 0.0000
# 2 91.0772 344.1784 7.9481 0.0000 1.4984 0.0000
# 3 28.4361 7.9481 80.0054 0.0000 19.7013 0.0000
# 4 0.0000 0.0000 0.0000 23.0453 0.0000 -34.0402
# 5 8.9451 1.4984 19.7013 0.0000 36.2388 0.0000
# 6 0.0000 0.0000 0.0000 -34.0402 0.0000 55.3542
#
#
#
# Elastic Compliance Matrix: (Units=1/GPa)
#
#
# Indices 1 2 3 4 5 6 
#
# 1 0.003957 -0.001017 -0.001242 0.000000 -0.000260 0.000000
# 2 -0.001017 0.003174 0.000019 0.000000 0.000109 0.000000
# 3 -0.001242 0.000019 0.014851 0.000000 -0.007768 0.000000
# 4 0.000000 0.000000 0.000000 0.473442 0.000000 0.291145
# 5 -0.000260 0.000109 -0.007768 0.000000 0.031878 0.000000
# 6 0.000000 0.000000 0.000000 0.291145 0.000000 0.197106
#
#
# Mechanical properties :
#
#
# Convention : Reuss Voigt Hill
#
# Bulk Modulus (GPa) = 57.13122 107.19053 82.16088
# Shear Modulus (GPa) = 6.80529 61.74971 34.27750
#
# Velocity S-wave (km/s) = 1.60873 4.84594 3.61048
# Velocity P-wave (km/s) = 5.01771 8.48969 6.97324
#
# Compressibility (1/GPa) = 0.01750357
#
# Stress axis : x y z
#
# Youngs Moduli (GPa) = 252.68488 315.08144 67.33345
#
# Poissons Ratio (x) = 0.32058 0.08360
# Poissons Ratio (y) = 0.25709 -0.00131
# Poissons Ratio (z) = 0.31372 -0.00611
#
# Static dielectric constant tensor:
#      x y z
#    x 2.089320 0.000000 -0.070300 
#    y 0.000000 2.329450 0.000000 
#    z -0.070300 0.000000 2.213170 
# 
# From -- ./inp_files/11842.got.cif
#   From: 2010.05.17/outbox.cif.g08.bks.cpg/sg10_6_cif.got.tgz:11842.got - 2010.06.03 11:33:40.
