data_PCOD9153550
_publ_section_title
;
Structure prediction by ZEFSAII (Michael W. Deem and Ramdas Pophale) SiO2 
 PCOD9153550
Probable space group: P 2/M
;
_chemical_formula_sum "Si O2"
_cell_formula_units_Z 20
_cell_length_a 8.969770
_cell_length_b 17.899058
_cell_length_c 11.223640
_cell_angle_alpha 90.000000
_cell_angle_beta 151.064636
_cell_angle_gamma 90.000000
_cell_volume 871.829181
_symmetry_space_group_name_H-M "P 2/M"
_symmetry_group_IT_number 10
_symmetry_cell_setting 'monoclinic'
loop_
_space_group_symop_operation_xyz
x,y,z
-x,y,-z
-x,-y,-z
x,-y,z
loop_
_atom_site_type_symbol
_atom_site_label
_atom_site_fract_x
_atom_site_fract_y
_atom_site_fract_z
Si Si1 0.832962 0.664135 0.204377
Si Si2 0.286382 0.265232 0.129178
Si Si3 0.872808 0.913845 0.772199
Si Si4 0.927576 0.819481 0.573757
Si Si5 0.440402 0.580176 0.597751
O O1 0.880838 0.741817 0.307570
O O2 0.094143 0.601845 0.394973
O O3 0.500000 0.632224 0.000000
O O4 0.838483 0.701221 0.079632
O O5 0.572026 0.208762 0.327199
O O6 0.391850 0.342593 0.260941
O O7 0.000000 0.233971 0.000000
O O8 0.500000 0.902972 0.500000
O O9 0.996748 0.861186 0.748604
O O10 0.936483 0.000000 0.782291
O O11 0.000000 0.909728 0.000000
O O12 0.000000 0.862245 0.500000
O O13 0.500000 0.571516 0.500000
O O14 0.534721 0.500000 0.719419
#
# Coordination Sequence:
#
# PCOD9153550 Si02
#       5
#     4   4   4   4   4
#     4  11  23  40  61  92 134 171 223 288 356 416
#     4  11  23  40  63  95 130 177 229 286 353 419
#     4  10  25  47  72 107 148 189 236 288 347 422
#     4  11  25  41  68 103 139 179 233 294 347 418
#     4  10  22  39  60  91 125 169 234 292 346 422
#
# _framework density 22.940273000000001
#
# number of rings (size 3 to 8) (size 9 to 14) (size 15 to 20)
#    0.000    1.400    4.000    0.000    5.600    2.000 
#    0.000    1.000    0.000    4.200    0.000    0.000 
#    0.000    0.000    0.000    0.000    0.000    0.000 
#
# Total GULP energy -111383.665370 kJ/mol
# GULP energy per Si atom -5569.183268 kJ/mol
# Density = 2.288806 g / cm^3
# Si number density = 22.940273 Si / 1000 Ang^3
#
#
#
# Elastic Constant Matrix: (Units=GPa)
#
#
# Indices 1 2 3 4 5 6 
#
# 1 104.5028 37.5675 26.0002 0.0000 -16.8100 0.0000
# 2 37.5675 125.3804 16.5759 0.0000 3.6559 0.0000
# 3 26.0002 16.5759 73.7021 0.0000 0.2671 0.0000
# 4 0.0000 0.0000 0.0000 42.8720 0.0000 -5.5875
# 5 -16.8100 3.6559 0.2671 0.0000 55.9015 0.0000
# 6 0.0000 0.0000 0.0000 -5.5875 0.0000 21.9411
#
#
#
# Elastic Compliance Matrix: (Units=1/GPa)
#
#
# Indices 1 2 3 4 5 6 
#
# 1 0.012292 -0.003321 -0.003604 0.000000 0.003931 0.000000
# 2 -0.003321 0.009133 -0.000877 0.000000 -0.001592 0.000000
# 3 -0.003604 -0.000877 0.015041 0.000000 -0.001098 0.000000
# 4 0.000000 0.000000 0.000000 0.024126 0.000000 0.006144
# 5 0.003931 -0.001592 -0.001098 0.000000 0.019180 0.000000
# 6 0.000000 0.000000 0.000000 0.006144 0.000000 0.047141
#
#
# Mechanical properties :
#
#
# Convention : Reuss Voigt Hill
#
# Bulk Modulus (GPa) = 47.93241 51.54138 49.73690
# Shear Modulus (GPa) = 33.45158 39.03902 36.24530
#
# Velocity S-wave (km/s) = 3.82279 4.12972 3.97922
# Velocity P-wave (km/s) = 6.35804 6.72725 6.54525
#
# Compressibility (1/GPa) = 0.02086271
#
# Stress axis : x y z
#
# Youngs Moduli (GPa) = 81.35438 109.49094 66.48700
#
# Poissons Ratio (x) = 0.36364 0.23959
# Poissons Ratio (y) = 0.27020 0.05829
# Poissons Ratio (z) = 0.29317 0.09599
#
# Static dielectric constant tensor:
#      x y z
#    x 1.979870 0.000000 -0.167420 
#    y 0.000000 1.966420 0.000000 
#    z -0.167420 0.000000 2.086510 
# 
# From -- ./inp_files/43431.got.cif
#   From: 2010.05.17/outbox.cif.g08.bks.cpg/sg10_22_cif.got.tgz:43431.got - 2010.06.03 11:33:40.
