data_PCOD9153346
_publ_section_title
;
Structure prediction by ZEFSAII (Michael W. Deem and Ramdas Pophale) SiO2 
 PCOD9153346
Probable space group: P 2/M
;
_chemical_formula_sum "Si O2"
_cell_formula_units_Z 32
_cell_length_a 22.936675
_cell_length_b 7.690409
_cell_length_c 21.029495
_cell_angle_alpha 90.000000
_cell_angle_beta 154.453803
_cell_angle_gamma 90.000000
_cell_volume 1599.655533
_symmetry_space_group_name_H-M "P 2/M"
_symmetry_group_IT_number 10
_symmetry_cell_setting 'monoclinic'
loop_
_space_group_symop_operation_xyz
x,y,z
-x,y,-z
-x,-y,-z
x,-y,z
loop_
_atom_site_type_symbol
_atom_site_label
_atom_site_fract_x
_atom_site_fract_y
_atom_site_fract_z
Si Si1 0.581227 0.289380 0.307240
Si Si2 0.256274 0.712959 0.650127
Si Si3 0.039150 0.289314 0.692685
Si Si4 0.435974 0.700844 0.500288
Si Si5 0.073806 0.795632 0.873158
Si Si6 0.154033 0.704122 0.679000
Si Si7 0.773881 0.706316 0.610579
Si Si8 0.364295 0.205862 0.192324
O O1 0.580810 0.500000 0.305894
O O2 0.623958 0.231152 0.278872
O O3 0.697407 0.229463 0.471662
O O4 0.441531 0.231300 0.201250
O O5 0.257500 0.500000 0.653614
O O6 0.247464 0.775804 0.714387
O O7 0.113926 0.762102 0.476747
O O8 0.040839 0.500000 0.692576
O O9 0.073131 0.234532 0.796877
O O10 0.139452 0.223855 0.735766
O O11 0.500000 0.781866 0.500000
O O12 0.403493 0.500000 0.451946
O O13 0.302663 0.779007 0.402708
O O14 0.546500 0.706507 0.665276
O O15 0.932881 0.730426 0.762448
O O16 0.076335 0.000000 0.886986
O O17 0.212630 0.723439 0.038436
O O18 0.189026 0.500000 0.719922
O O19 0.000000 0.711010 0.500000
O O20 0.748396 0.500000 0.585853
O O21 0.362760 0.000000 0.204397
#
# Coordination Sequence:
#
# PCOD9153346 Si02
#       8
#     4   4   4   4   4   4   4   4
#     4   9  16  29  50  74  97 124 163 211 255 293
#     4   8  12  22  42  70  97 118 153 207 258 299
#     4   9  15  26  45  68  94 126 163 203 251 299
#     4   9  19  38  62  84 103 124 155 196 240 286
#     4  11  22  33  46  69 103 138 169 203 239 280
#     4   7  11  19  37  65  93 120 152 198 255 302
#     4   9  17  31  53  79 101 124 159 199 239 287
#     4  10  22  36  49  71 103 136 169 199 234 285
#
# _framework density 20.004306
#
# number of rings (size 3 to 8) (size 9 to 14) (size 15 to 20)
#    0.000    3.000    1.250    3.000    0.000    4.250 
#    0.000    0.625    0.000    8.625    0.000    5.250 
#    0.000    0.000    0.000    0.000    0.000    0.000 
#
# Total GULP energy -178248.220087 kJ/mol
# GULP energy per Si atom -5570.256878 kJ/mol
# Density = 1.995878 g / cm^3
# Si number density = 20.004306 Si / 1000 Ang^3
#
#
#
# Elastic Constant Matrix: (Units=GPa)
#
#
# Indices 1 2 3 4 5 6 
#
# 1 163.0463 -1.5986 37.9279 0.0000 33.4180 0.0000
# 2 -1.5986 31.7502 -7.9815 0.0000 4.0958 0.0000
# 3 37.9279 -7.9815 74.3630 0.0000 25.7962 0.0000
# 4 0.0000 0.0000 0.0000 16.3085 0.0000 3.0291
# 5 33.4180 4.0958 25.7962 0.0000 19.4870 0.0000
# 6 0.0000 0.0000 0.0000 3.0291 0.0000 -32.3324
#
#
#
# Elastic Compliance Matrix: (Units=1/GPa)
#
#
# Indices 1 2 3 4 5 6 
#
# 1 0.009961 0.004043 0.002910 0.000000 -0.021784 0.000000
# 2 0.004043 0.039488 0.013796 0.000000 -0.033496 0.000000
# 3 0.002910 0.013796 0.029921 0.000000 -0.047499 0.000000
# 4 0.000000 0.000000 0.000000 0.060269 0.000000 0.005646
# 5 -0.021784 -0.033496 -0.047499 0.000000 0.158591 0.000000
# 6 0.000000 0.000000 0.000000 0.005646 0.000000 -0.030400
#
#
# Mechanical properties :
#
#
# Convention : Reuss Voigt Hill
#
# Bulk Modulus (GPa) = 8.27343 36.20611 22.23977
# Shear Modulus (GPa) = 18.75317 16.74675 17.74996
#
# Velocity S-wave (km/s) = 3.06511 2.89651 2.98200
# Velocity P-wave (km/s) = 4.08306 5.41524 4.79563
#
# Compressibility (1/GPa) = 0.12086879
#
# Stress axis : x y z
#
# Youngs Moduli (GPa) = 100.39438 25.32391 33.42129
#
# Poissons Ratio (x) = -0.10239 -0.09727
# Poissons Ratio (y) = -0.40592 -0.46107
# Poissons Ratio (z) = -0.29219 -0.34936
#
# Static dielectric constant tensor:
#      x y z
#    x 1.758710 0.000000 0.036420 
#    y 0.000000 1.746080 0.000000 
#    z 0.036420 0.000000 1.699630 
# 
# From -- ./inp_files/90658.got.cif
#   From: 2010.05.17/outbox.cif.g08.bks.cpg/sg10_46_cif.got.tgz:90658.got - 2010.06.03 11:33:40.
