data_PCOD9153098
_publ_section_title
;
Structure prediction by ZEFSAII (Michael W. Deem and Ramdas Pophale) SiO2 
 PCOD9153098
Probable space group: P 2/M
;
_chemical_formula_sum "Si O2"
_cell_formula_units_Z 19
_cell_length_a 7.947665
_cell_length_b 20.718297
_cell_length_c 8.710072
_cell_angle_alpha 90.000000
_cell_angle_beta 35.993292
_cell_angle_gamma 90.000000
_cell_volume 842.876695
_symmetry_space_group_name_H-M "P 2/M"
_symmetry_group_IT_number 10
_symmetry_cell_setting 'monoclinic'
loop_
_space_group_symop_operation_xyz
x,y,z
-x,y,-z
-x,-y,-z
x,-y,z
loop_
_atom_site_type_symbol
_atom_site_label
_atom_site_fract_x
_atom_site_fract_y
_atom_site_fract_z
Si Si1 0.842936 0.151898 0.950880
Si Si2 0.341731 0.926163 0.449247
Si Si3 0.168481 0.283115 0.222970
Si Si4 0.000000 0.500000 0.000000
Si Si5 0.251372 0.393361 0.582131
Si Si6 0.336801 0.500000 0.280669
O O1 0.827439 0.223365 0.895952
O O2 0.035890 0.105906 0.702514
O O3 0.535792 0.119310 0.200834
O O4 0.000000 0.154332 0.000000
O O5 0.500000 0.927456 0.500000
O O6 0.326732 0.000000 0.406814
O O7 0.000000 0.261106 0.500000
O O8 0.978547 0.343106 0.307743
O O9 0.500000 0.302553 0.000000
O O10 0.901668 0.444705 0.196531
O O11 0.500000 0.360906 0.500000
O O12 0.395685 0.436596 0.339969
O O13 0.000000 0.500000 0.500000
O O14 0.500000 0.500000 0.000000
#
# Coordination Sequence:
#
# PCOD9153098 Si02
#       6
#     4   4   4   1   4   2
#     4  10  21  39  67  99 136 187 238 291 347 417
#     4   9  17  33  63 103 139 174 232 300 354 402
#     4  12  29  49  70 102 146 193 237 294 359 427
#     4  10  24  48  78 106 136 168 230 302 356 408
#     4  11  28  48  77 105 140 187 238 293 360 429
#     4  11  26  47  74 107 145 177 221 282 361 434
#
# _framework density 22.54185
#
# number of rings (size 3 to 8) (size 9 to 14) (size 15 to 20)
#    0.000    1.474    0.000    3.789   10.316    6.737 
#    0.000    0.526    0.000   12.632    0.000    0.000 
#    0.000    0.000    0.000    0.000    0.000    0.000 
#
# Total GULP energy -106175.862113 kJ/mol
# GULP energy per Si atom -5588.203269 kJ/mol
# Density = 2.249054 g / cm^3
# Si number density = 22.541850 Si / 1000 Ang^3
#
#
#
# Elastic Constant Matrix: (Units=GPa)
#
#
# Indices 1 2 3 4 5 6 
#
# 1 77.9354 40.0254 49.5346 0.0000 -13.2170 0.0000
# 2 40.0254 154.1390 65.9080 0.0000 8.7235 0.0000
# 3 49.5346 65.9080 188.1731 0.0000 11.1554 0.0000
# 4 0.0000 0.0000 0.0000 24.5782 0.0000 9.1760
# 5 -13.2170 8.7235 11.1554 0.0000 33.2032 0.0000
# 6 0.0000 0.0000 0.0000 9.1760 0.0000 4.8462
#
#
#
# Elastic Compliance Matrix: (Units=1/GPa)
#
#
# Indices 1 2 3 4 5 6 
#
# 1 0.019210 -0.003694 -0.004361 0.000000 0.010082 0.000000
# 2 -0.003694 0.008383 -0.001781 0.000000 -0.003074 0.000000
# 3 -0.004361 -0.001781 0.007307 0.000000 -0.003723 0.000000
# 4 0.000000 0.000000 0.000000 0.138813 0.000000 -0.262834
# 5 0.010082 -0.003074 -0.003723 0.000000 0.036189 0.000000
# 6 0.000000 0.000000 0.000000 -0.262834 0.000000 0.704004
#
#
# Mechanical properties :
#
#
# Convention : Reuss Voigt Hill
#
# Bulk Modulus (GPa) = 65.67348 81.24261 73.45804
# Shear Modulus (GPa) = 5.32678 30.17748 17.75213
#
# Velocity S-wave (km/s) = 1.53889 3.66284 2.80932
# Velocity P-wave (km/s) = 5.68813 7.34898 6.57124
#
# Compressibility (1/GPa) = 0.01522685
#
# Stress axis : x y z
#
# Youngs Moduli (GPa) = 52.05679 119.29465 136.86055
#
# Poissons Ratio (x) = 0.44071 0.59679
# Poissons Ratio (y) = 0.19231 0.24379
# Poissons Ratio (z) = 0.22700 0.21250
#
# Static dielectric constant tensor:
#      x y z
#    x 1.929610 0.000000 -0.015570 
#    y 0.000000 1.762690 0.000000 
#    z -0.015570 0.000000 1.824410 
# 
# From -- ./inp_files/20607.got.cif
#   From: 2010.05.17/outbox.cif.g08.bks.cpg/sg10_11_cif.got.tgz:20607.got - 2010.06.03 11:33:40.
