data_PCOD9153077
_publ_section_title
;
Structure prediction by ZEFSAII (Michael W. Deem and Ramdas Pophale) SiO2 
 PCOD9153077
Probable space group: P 2/M
;
_chemical_formula_sum "Si O2"
_cell_formula_units_Z 32
_cell_length_a 5.145686
_cell_length_b 22.524477
_cell_length_c 13.788429
_cell_angle_alpha 90.000000
_cell_angle_beta 74.163673
_cell_angle_gamma 90.000000
_cell_volume 1537.475651
_symmetry_space_group_name_H-M "P 2/M"
_symmetry_group_IT_number 10
_symmetry_cell_setting 'monoclinic'
loop_
_space_group_symop_operation_xyz
x,y,z
-x,y,-z
-x,-y,-z
x,-y,z
loop_
_atom_site_type_symbol
_atom_site_label
_atom_site_fract_x
_atom_site_fract_y
_atom_site_fract_z
Si Si1 0.091184 0.234039 0.378975
Si Si2 0.801938 0.433683 0.432289
Si Si3 0.701712 0.066975 0.570023
Si Si4 0.459695 0.430898 0.121437
Si Si5 0.013551 0.652639 0.266841
Si Si6 0.688676 0.801381 0.067452
Si Si7 0.213764 0.320993 0.893905
Si Si8 0.363464 0.831367 0.705841
O O1 0.102452 0.301677 0.340036
O O2 0.400108 0.214908 0.340338
O O3 0.000000 0.231349 0.500000
O O4 0.895077 0.190757 0.332690
O O5 0.500000 0.436691 0.500000
O O6 0.891580 0.500000 0.392945
O O7 0.000000 0.415786 0.500000
O O8 0.806683 0.389585 0.342478
O O9 0.500000 0.063637 0.500000
O O10 0.525001 0.108510 0.658831
O O11 0.000000 0.087615 0.500000
O O12 0.745676 0.000000 0.604488
O O13 0.458842 0.500000 0.149798
O O14 0.216051 0.392734 0.191778
O O15 0.697530 0.388382 0.132421
O O16 0.500000 0.428922 0.000000
O O17 0.908802 0.696863 0.195279
O O18 0.590682 0.732520 0.096164
O O19 0.686742 0.831680 0.173172
O O20 0.500000 0.825404 0.000000
O O21 0.000000 0.799732 0.000000
O O22 0.000000 0.324852 0.000000
#
# Coordination Sequence:
#
# PCOD9153077 Si02
#       8
#     4   4   4   4   4   4   4   4
#     4  12  26  41  64  97 133 167 214 266 324 385
#     4  10  24  45  64  83 110 151 202 250 300 374
#     4  10  21  39  65  98 138 184 228 269 313 371
#     4  11  24  40  60  87 117 152 205 264 327 394
#     4  12  25  42  62  89 118 163 200 258 328 393
#     4  11  24  41  66  95 129 168 218 267 321 393
#     4  11  23  40  62  86 121 159 204 262 322 400
#     4  12  23  42  66  99 134 178 215 267 325 374
#
# _framework density 20.813336
#
# number of rings (size 3 to 8) (size 9 to 14) (size 15 to 20)
#    0.000    0.875    2.500    4.875    5.250    2.250 
#    0.000    0.000    0.000    0.750    0.000    0.000 
#    0.000    0.000    0.000    0.000    0.000    0.000 
#
# Total GULP energy -178342.600728 kJ/mol
# GULP energy per Si atom -5573.206273 kJ/mol
# Density = 2.076596 g / cm^3
# Si number density = 20.813336 Si / 1000 Ang^3
#
#
#
# Elastic Constant Matrix: (Units=GPa)
#
#
# Indices 1 2 3 4 5 6 
#
# 1 79.4100 -5.2532 20.9037 0.0000 2.7464 0.0000
# 2 -5.2532 92.5020 34.6158 0.0000 -2.9075 0.0000
# 3 20.9037 34.6158 125.1570 0.0000 4.8707 0.0000
# 4 0.0000 0.0000 0.0000 29.1043 0.0000 1.9664
# 5 2.7464 -2.9075 4.8707 0.0000 28.2241 0.0000
# 6 0.0000 0.0000 0.0000 1.9664 0.0000 23.8563
#
#
#
# Elastic Compliance Matrix: (Units=1/GPa)
#
#
# Indices 1 2 3 4 5 6 
#
# 1 0.013444 0.001755 -0.002705 0.000000 -0.000661 0.000000
# 2 0.001755 0.012382 -0.003786 0.000000 0.001758 0.000000
# 3 -0.002705 -0.003786 0.009558 0.000000 -0.001776 0.000000
# 4 0.000000 0.000000 0.000000 0.034552 0.000000 -0.002848
# 5 -0.000661 0.001758 -0.001776 0.000000 0.035983 0.000000
# 6 0.000000 0.000000 0.000000 -0.002848 0.000000 0.042152
#
#
# Mechanical properties :
#
#
# Convention : Reuss Voigt Hill
#
# Bulk Modulus (GPa) = 38.59257 44.17794 41.38526
# Shear Modulus (GPa) = 30.08768 32.69045 31.38906
#
# Velocity S-wave (km/s) = 3.80622 3.96744 3.88767
# Velocity P-wave (km/s) = 6.15621 6.50072 6.33081
#
# Compressibility (1/GPa) = 0.02591172
#
# Stress axis : x y z
#
# Youngs Moduli (GPa) = 74.38317 80.75984 104.62337
#
# Poissons Ratio (x) = -0.14173 0.28302
# Poissons Ratio (y) = -0.13054 0.39613
# Poissons Ratio (z) = 0.20121 0.30578
#
# Static dielectric constant tensor:
#      x y z
#    x 1.833920 0.000000 0.048100 
#    y 0.000000 1.808280 0.000000 
#    z 0.048100 0.000000 1.853060 
# 
# From -- ./inp_files/39999.got.cif
#   From: 2010.05.17/outbox.cif.g08.bks.cpg/sg10_20_cif.got.tgz:39999.got - 2010.06.03 11:33:40.
