data_PCOD9153894
_publ_section_title
;
Structure prediction by ZEFSAII (Michael W. Deem and Ramdas Pophale) SiO2 
 PCOD9153894
Probable space group: P 2/M
;
_chemical_formula_sum "Si O2"
_cell_formula_units_Z 32
_cell_length_a 25.972249
_cell_length_b 8.128151
_cell_length_c 20.933670
_cell_angle_alpha 90.000000
_cell_angle_beta 157.167649
_cell_angle_gamma 90.000000
_cell_volume 1714.820852
_symmetry_space_group_name_H-M "P 2/M"
_symmetry_group_IT_number 10
_symmetry_cell_setting 'monoclinic'
loop_
_space_group_symop_operation_xyz
x,y,z
-x,y,-z
-x,-y,-z
x,-y,z
loop_
_atom_site_type_symbol
_atom_site_label
_atom_site_fract_x
_atom_site_fract_y
_atom_site_fract_z
Si Si1 0.785937 0.199102 0.635943
Si Si2 0.157697 0.808036 0.163376
Si Si3 0.678682 0.694224 0.027487
Si Si4 0.378381 0.698173 0.671739
Si Si5 0.108305 0.805504 0.830169
Si Si6 0.087134 0.799017 0.948316
Si Si7 0.849521 0.193575 0.339320
Si Si8 0.827427 0.694211 0.456204
O O1 0.772233 0.261734 0.693305
O O2 0.677875 0.254595 0.461727
O O3 0.932395 0.249461 0.778506
O O4 0.786455 0.000000 0.638869
O O5 0.197447 0.000000 0.204674
O O6 0.164914 0.737252 0.100150
O O7 0.000000 0.806102 0.000000
O O8 0.676023 0.500000 0.011408
O O9 0.770829 0.774897 0.079134
O O10 0.748006 0.722859 0.174852
O O11 0.528047 0.757497 0.853698
O O12 0.378757 0.500000 0.676275
O O13 0.276381 0.757685 0.609628
O O14 0.136011 0.749248 0.934397
O O15 0.976006 0.720933 0.652099
O O16 0.079398 0.000000 0.799209
O O17 0.090327 0.000000 0.955163
O O18 0.814437 0.220645 0.372882
O O19 0.000000 0.256281 0.500000
O O20 0.849777 0.000000 0.324320
O O21 0.805533 0.500000 0.421738
#
# Coordination Sequence:
#
# PCOD9153894 Si02
#       8
#     4   4   4   4   4   4   4   4
#     4   9  15  27  51  78 105 141 179 218 267 318
#     4   7  11  21  41  73 107 137 172 213 265 318
#     4  11  24  41  58  77 107 147 183 215 263 322
#     4  10  23  39  54  78 112 146 181 220 261 316
#     4  11  20  33  55  84 111 137 178 227 270 312
#     4   8  14  25  46  78 111 137 169 222 273 312
#     4  11  23  39  60  85 111 135 171 223 270 313
#     4  11  22  37  59  82 107 143 179 214 264 321
#
# _framework density 18.660841999999999
#
# number of rings (size 3 to 8) (size 9 to 14) (size 15 to 20)
#    0.000    2.250    2.500    3.000    0.000    2.500 
#    0.000    2.500    0.000    5.625    0.000    5.250 
#    0.000    0.000    0.000    0.000    0.000    0.000 
#
# Total GULP energy -178465.538583 kJ/mol
# GULP energy per Si atom -5577.048081 kJ/mol
# Density = 1.861837 g / cm^3
# Si number density = 18.660842 Si / 1000 Ang^3
#
#
#
# Elastic Constant Matrix: (Units=GPa)
#
#
# Indices 1 2 3 4 5 6 
#
# 1 122.4807 -5.9161 68.1601 0.0000 -25.3306 0.0000
# 2 -5.9161 9.4800 -3.5569 0.0000 2.5193 0.0000
# 3 68.1601 -3.5569 117.7179 0.0000 -10.5552 0.0000
# 4 0.0000 0.0000 0.0000 10.0751 0.0000 -6.9874
# 5 -25.3306 2.5193 -10.5552 0.0000 32.5825 0.0000
# 6 0.0000 0.0000 0.0000 -6.9874 0.0000 60.3685
#
#
#
# Elastic Compliance Matrix: (Units=1/GPa)
#
#
# Indices 1 2 3 4 5 6 
#
# 1 0.014154 0.003869 -0.007332 0.000000 0.008330 0.000000
# 2 0.003869 0.109524 0.000597 0.000000 -0.005267 0.000000
# 3 -0.007332 0.000597 0.012609 0.000000 -0.001661 0.000000
# 4 0.000000 0.000000 0.000000 0.107918 0.000000 0.012491
# 5 0.008330 -0.005267 -0.001661 0.000000 0.037036 0.000000
# 6 0.000000 0.000000 0.000000 0.012491 0.000000 0.018011
#
#
# Mechanical properties :
#
#
# Convention : Reuss Voigt Hill
#
# Bulk Modulus (GPa) = 7.65962 40.78362 24.22162
# Shear Modulus (GPa) = 14.34715 33.33799 23.84257
#
# Velocity S-wave (km/s) = 2.77580 4.23131 3.57834
# Velocity P-wave (km/s) = 3.79302 6.76569 5.48460
#
# Compressibility (1/GPa) = 0.13055483
#
# Stress axis : x y z
#
# Youngs Moduli (GPa) = 70.65080 9.13046 79.30793
#
# Poissons Ratio (x) = -0.03532 0.58146
# Poissons Ratio (y) = -0.27332 -0.04735
# Poissons Ratio (z) = 0.51799 -0.00545
#
# Static dielectric constant tensor:
#      x y z
#    x 1.660280 0.000000 -0.019540 
#    y 0.000000 1.657940 0.000000 
#    z -0.019540 0.000000 1.626730 
# 
# From -- ./inp_files/86991.got.cif
#   From: 2010.05.17/outbox.cif.g08.bks.cpg/sg10_44_cif.got.tgz:86991.got - 2010.06.03 11:33:40.
