data_PCOD9153483
_publ_section_title
;
Structure prediction by ZEFSAII (Michael W. Deem and Ramdas Pophale) SiO2 
 PCOD9153483
Probable space group: P 2/M
;
_chemical_formula_sum "Si O2"
_cell_formula_units_Z 28
_cell_length_a 16.977756
_cell_length_b 11.795640
_cell_length_c 20.259117
_cell_angle_alpha 90.000000
_cell_angle_beta 159.453771
_cell_angle_gamma 90.000000
_cell_volume 1423.913697
_symmetry_space_group_name_H-M "P 2/M"
_symmetry_group_IT_number 10
_symmetry_cell_setting 'monoclinic'
loop_
_space_group_symop_operation_xyz
x,y,z
-x,y,-z
-x,-y,-z
x,-y,z
loop_
_atom_site_type_symbol
_atom_site_label
_atom_site_fract_x
_atom_site_fract_y
_atom_site_fract_z
Si Si1 0.875009 0.284750 0.011103
Si Si2 0.287491 0.128393 0.369038
Si Si3 0.519280 0.872176 0.333798
Si Si4 0.721534 0.363439 0.033103
Si Si5 0.391344 0.500000 0.525967
Si Si6 0.815662 0.679299 0.534696
Si Si7 0.852854 0.500000 0.808372
Si Si8 0.225448 0.370867 0.648251
O O1 0.755321 0.333161 0.982674
O O2 0.071396 0.202530 0.189602
O O3 0.992053 0.388907 0.066255
O O4 0.701575 0.205832 0.835872
O O5 0.500000 0.183631 0.500000
O O6 0.362384 0.120511 0.502788
O O7 0.255154 0.000000 0.317115
O O8 0.699355 0.800946 0.433813
O O9 0.468581 0.000000 0.271006
O O10 0.731789 0.500000 0.047173
O O11 0.931197 0.316200 0.239106
O O12 0.472574 0.322870 0.857734
O O13 0.324185 0.606892 0.519858
O O14 0.242859 0.500000 0.342523
O O15 0.643763 0.500000 0.695090
O O16 0.802320 0.623980 0.452526
O O17 0.231882 0.500000 0.679802
O O18 0.000000 0.315196 0.500000
#
# Coordination Sequence:
#
# PCOD9153483 Si02
#       8
#     4   4   4   4   2   4   2   4
#     4  12  21  39  62  89 122 163 202 258 301 365
#     4  10  23  42  61  81 116 162 213 268 306 340
#     4  11  25  40  61  89 115 159 216 256 301 360
#     4  11  20  36  61  94 125 157 195 239 300 368
#     4  11  22  37  62  93 123 167 204 249 304 368
#     4  12  20  40  65  87 127 161 200 251 308 359
#     4  11  24  37  59  92 127 164 212 246 308 369
#     4  10  22  38  62  95 129 160 194 240 302 378
#
# _framework density 19.664111999999999
#
# number of rings (size 3 to 8) (size 9 to 14) (size 15 to 20)
#    0.000    1.000    6.429    0.429    4.000    1.714 
#    0.000    5.714    0.000    0.429    0.000    1.000 
#    0.000    0.000    0.000    0.000    0.000    0.000 
#
# Total GULP energy -156375.536255 kJ/mol
# GULP energy per Si atom -5584.840581 kJ/mol
# Density = 1.961936 g / cm^3
# Si number density = 19.664112 Si / 1000 Ang^3
#
#
#
# Elastic Constant Matrix: (Units=GPa)
#
#
# Indices 1 2 3 4 5 6 
#
# 1 47.8745 26.0829 41.4749 0.0000 22.9769 0.0000
# 2 26.0829 96.4955 64.0301 0.0000 11.7132 0.0000
# 3 41.4749 64.0301 146.5122 0.0000 27.2867 0.0000
# 4 0.0000 0.0000 0.0000 36.1666 0.0000 -6.1103
# 5 22.9769 11.7132 27.2867 0.0000 38.5048 0.0000
# 6 0.0000 0.0000 0.0000 -6.1103 0.0000 20.6198
#
#
#
# Elastic Compliance Matrix: (Units=1/GPa)
#
#
# Indices 1 2 3 4 5 6 
#
# 1 0.035428 -0.004165 -0.005193 0.000000 -0.016194 0.000000
# 2 -0.004165 0.015086 -0.005786 0.000000 0.001996 0.000000
# 3 -0.005193 -0.005786 0.011427 0.000000 -0.003239 0.000000
# 4 0.000000 0.000000 0.000000 0.029107 0.000000 0.008625
# 5 -0.016194 0.001996 -0.003239 0.000000 0.037322 0.000000
# 6 0.000000 0.000000 0.000000 0.008625 0.000000 0.051053
#
#
# Mechanical properties :
#
#
# Convention : Reuss Voigt Hill
#
# Bulk Modulus (GPa) = 31.59153 61.56199 46.57676
# Shear Modulus (GPa) = 22.70034 29.67787 26.18910
#
# Velocity S-wave (km/s) = 3.40134 3.88911 3.65337
# Velocity P-wave (km/s) = 5.61480 7.17925 6.44467
#
# Compressibility (1/GPa) = 0.03165405
#
# Stress axis : x y z
#
# Youngs Moduli (GPa) = 28.22647 66.28772 87.51072
#
# Poissons Ratio (x) = 0.27607 0.45443
# Poissons Ratio (y) = 0.11756 0.50631
# Poissons Ratio (z) = 0.14658 0.38352
#
# Static dielectric constant tensor:
#      x y z
#    x 1.809950 0.000000 -0.145870 
#    y 0.000000 1.740090 0.000000 
#    z -0.145870 0.000000 1.974380 
# 
# From -- ./inp_files/85872.got.cif
#   From: 2010.05.17/outbox.cif.g08.bks.cpg/sg10_43_cif.got.tgz:85872.got - 2010.06.03 11:33:40.
