data_PCOD9153029
_publ_section_title
;
Structure prediction by ZEFSAII (Michael W. Deem and Ramdas Pophale) SiO2 
 PCOD9153029
Probable space group: P 2/M
;
_chemical_formula_sum "Si O2"
_cell_formula_units_Z 32
_cell_length_a 21.000381
_cell_length_b 15.401014
_cell_length_c 16.112028
_cell_angle_alpha 90.000000
_cell_angle_beta 162.381383
_cell_angle_gamma 90.000000
_cell_volume 1577.283786
_symmetry_space_group_name_H-M "P 2/M"
_symmetry_group_IT_number 10
_symmetry_cell_setting 'monoclinic'
loop_
_space_group_symop_operation_xyz
x,y,z
-x,y,-z
-x,-y,-z
x,-y,z
loop_
_atom_site_type_symbol
_atom_site_label
_atom_site_fract_x
_atom_site_fract_y
_atom_site_fract_z
Si Si1 0.279840 0.404257 0.679357
Si Si2 0.000198 0.748695 0.402565
Si Si3 0.282829 0.302546 0.088338
Si Si4 0.258891 0.155950 0.194849
Si Si5 0.262845 0.733491 0.366356
Si Si6 0.076729 0.600302 0.260122
Si Si7 0.206465 0.095466 0.399880
Si Si8 0.277402 0.099983 0.683867
O O1 0.180646 0.500000 0.569369
O O2 0.155907 0.325863 0.564946
O O3 0.268011 0.391212 0.565047
O O4 0.500000 0.405858 0.000000
O O5 0.090841 0.839406 0.483116
O O6 0.000000 0.749511 0.500000
O O7 0.787926 0.722228 0.092095
O O8 0.258941 0.216305 0.114028
O O9 0.527675 0.322331 0.390764
O O10 0.128008 0.371035 0.940300
O O11 0.500000 0.119692 0.500000
O O12 0.218033 0.218436 0.223433
O O13 0.048749 0.098661 0.926681
O O14 0.114404 0.666801 0.231855
O O15 0.292048 0.818824 0.460753
O O16 0.060995 0.500000 0.214707
O O17 0.273131 0.102590 0.578764
O O18 0.276897 0.000000 0.455716
O O19 0.247135 0.000000 0.671889
O O20 0.500000 0.129413 0.000000
#
# Coordination Sequence:
#
# PCOD9153029 Si02
#       8
#     4   4   4   4   4   4   4   4
#     4   9  19  36  56  83 119 156 199 256 313 366
#     4  11  22  34  59  87 118 158 207 249 303 373
#     4  10  22  41  58  90 126 165 200 260 317 367
#     4  10  21  41  64  88 126 168 204 259 320 368
#     4  11  23  38  67  91 126 162 210 262 315 368
#     4  10  21  39  64  90 124 168 211 257 316 380
#     4  11  22  40  66  94 125 165 211 260 312 376
#     4  10  22  40  61  87 125 165 202 249 309 367
#
# _framework density 20.288042000000001
#
# number of rings (size 3 to 8) (size 9 to 14) (size 15 to 20)
#    0.000    1.750    2.500    1.500    3.500    2.250 
#    0.000    3.750    0.000    2.250    0.000    0.000 
#    0.000    0.000    0.000    0.000    0.000    0.000 
#
# Total GULP energy -178389.755637 kJ/mol
# GULP energy per Si atom -5574.679864 kJ/mol
# Density = 2.024187 g / cm^3
# Si number density = 20.288042 Si / 1000 Ang^3
#
#
#
# Elastic Constant Matrix: (Units=GPa)
#
#
# Indices 1 2 3 4 5 6 
#
# 1 80.0542 28.4579 14.5470 0.0000 -11.8032 0.0000
# 2 28.4579 79.8098 11.0644 0.0000 -2.0842 0.0000
# 3 14.5470 11.0644 84.1683 0.0000 -11.0096 0.0000
# 4 0.0000 0.0000 0.0000 56.5061 0.0000 3.7902
# 5 -11.8032 -2.0842 -11.0096 0.0000 26.9562 0.0000
# 6 0.0000 0.0000 0.0000 3.7902 0.0000 32.0236
#
#
#
# Elastic Compliance Matrix: (Units=1/GPa)
#
#
# Indices 1 2 3 4 5 6 
#
# 1 0.015415 -0.005175 -0.001219 0.000000 0.005852 0.000000
# 2 -0.005175 0.014502 -0.001227 0.000000 -0.001646 0.000000
# 3 -0.001219 -0.001227 0.012858 0.000000 0.004623 0.000000
# 4 0.000000 0.000000 0.000000 0.017839 0.000000 -0.002111
# 5 0.005852 -0.001646 0.004623 0.000000 0.041421 0.000000
# 6 0.000000 0.000000 0.000000 -0.002111 0.000000 0.031477
#
#
# Mechanical properties :
#
#
# Convention : Reuss Voigt Hill
#
# Bulk Modulus (GPa) = 36.31912 39.13007 37.72459
# Shear Modulus (GPa) = 31.65943 35.76138 33.71040
#
# Velocity S-wave (km/s) = 3.95460 4.20299 4.08068
# Velocity P-wave (km/s) = 6.22835 6.54848 6.39042
#
# Compressibility (1/GPa) = 0.02753371
#
# Stress axis : x y z
#
# Youngs Moduli (GPa) = 64.87022 68.95510 77.77504
#
# Poissons Ratio (x) = 0.35684 0.09477
# Poissons Ratio (y) = 0.33570 0.09545
# Poissons Ratio (z) = 0.07905 0.08463
#
# Static dielectric constant tensor:
#      x y z
#    x 1.722510 0.000000 -0.007650 
#    y 0.000000 1.678300 0.000000 
#    z -0.007650 0.000000 1.822370 
# 
# From -- ./inp_files/70775.got.cif
#   From: 2010.05.17/outbox.cif.g08.bks.cpg/sg10_36_cif.got.tgz:70775.got - 2010.06.03 11:33:40.
