data_PCOD9153435
_publ_section_title
;
Structure prediction by ZEFSAII (Michael W. Deem and Ramdas Pophale) SiO2 
 PCOD9153435
Probable space group: P 2/M
;
_chemical_formula_sum "Si O2"
_cell_formula_units_Z 28
_cell_length_a 9.591389
_cell_length_b 7.524700
_cell_length_c 29.533494
_cell_angle_alpha 90.000000
_cell_angle_beta 38.793942
_cell_angle_gamma 90.000000
_cell_volume 1335.430956
_symmetry_space_group_name_H-M "P 2/M"
_symmetry_group_IT_number 10
_symmetry_cell_setting 'monoclinic'
loop_
_space_group_symop_operation_xyz
x,y,z
-x,y,-z
-x,-y,-z
x,-y,z
loop_
_atom_site_type_symbol
_atom_site_label
_atom_site_fract_x
_atom_site_fract_y
_atom_site_fract_z
Si Si1 0.561724 0.210998 0.186567
Si Si2 0.734861 0.500000 0.073971
Si Si3 0.712716 0.500000 0.977532
Si Si4 0.124674 0.792304 0.732406
Si Si5 0.025883 0.787835 0.855855
Si Si6 0.051729 0.212869 0.318438
Si Si7 0.640660 0.715470 0.602376
Si Si8 0.948104 0.288975 0.443477
O O1 0.659060 0.328415 0.121390
O O2 0.308424 0.268730 0.259270
O O3 0.724799 0.238342 0.187855
O O4 0.563579 0.000000 0.175588
O O5 0.638945 0.500000 0.048029
O O6 0.000000 0.500000 0.000000
O O7 0.862351 0.671976 0.927897
O O8 0.500000 0.500000 0.000000
O O9 0.390355 0.780062 0.669541
O O10 0.018792 0.722557 0.805733
O O11 0.045747 0.716176 0.704218
O O12 0.063774 0.000000 0.747389
O O13 0.979070 0.000000 0.870105
O O14 0.921313 0.256499 0.397313
O O15 0.050488 0.000000 0.316097
O O16 0.630165 0.500000 0.606000
O O17 0.754892 0.774479 0.526147
O O18 0.813353 0.776440 0.597630
O O19 0.953630 0.500000 0.448609
#
# Coordination Sequence:
#
# PCOD9153435 Si02
#       8
#     4   2   2   4   4   4   4   4
#     4  10  22  41  67  92 122 161 201 251 303 353
#     4  12  24  44  66  98 125 152 205 248 294 365
#     4  12  28  44  64  98 127 158 203 242 298 371
#     4  10  22  38  57  84 119 157 197 241 297 356
#     4  10  22  43  66  90 123 163 203 247 300 358
#     4  10  22  38  57  86 118 155 198 243 297 353
#     4   9  19  36  57  83 115 155 198 247 298 348
#     4   9  19  36  57  83 115 153 201 248 295 347
#
# _framework density 20.967013000000001
#
# number of rings (size 3 to 8) (size 9 to 14) (size 15 to 20)
#    0.000    2.000    1.429    1.714    4.000    4.571 
#    0.000    4.286    0.000    0.000    0.000    0.000 
#    0.000    0.000    0.000    0.000    0.000    0.000 
#
# Total GULP energy -156378.892193 kJ/mol
# GULP energy per Si atom -5584.960435 kJ/mol
# Density = 2.091929 g / cm^3
# Si number density = 20.967013 Si / 1000 Ang^3
#
#
#
# Elastic Constant Matrix: (Units=GPa)
#
#
# Indices 1 2 3 4 5 6 
#
# 1 83.2796 16.2842 16.7079 0.0000 33.1983 0.0000
# 2 16.2842 55.3728 7.3811 0.0000 10.5318 0.0000
# 3 16.7079 7.3811 59.1749 0.0000 28.2523 0.0000
# 4 0.0000 0.0000 0.0000 15.8690 0.0000 8.0380
# 5 33.1983 10.5318 28.2523 0.0000 43.4484 0.0000
# 6 0.0000 0.0000 0.0000 8.0380 0.0000 20.0543
#
#
#
# Elastic Compliance Matrix: (Units=1/GPa)
#
#
# Indices 1 2 3 4 5 6 
#
# 1 0.017849 -0.002805 0.002171 0.000000 -0.014370 0.000000
# 2 -0.002805 0.019376 -0.000588 0.000000 -0.002170 0.000000
# 3 0.002171 -0.000588 0.024775 0.000000 -0.017626 0.000000
# 4 0.000000 0.000000 0.000000 0.079068 0.000000 -0.031691
# 5 -0.014370 -0.002170 -0.017626 0.000000 0.045983 0.000000
# 6 0.000000 0.000000 0.000000 -0.031691 0.000000 0.062567
#
#
# Mechanical properties :
#
#
# Convention : Reuss Voigt Hill
#
# Bulk Modulus (GPa) = 16.79150 30.95263 23.87207
# Shear Modulus (GPa) = 18.38815 26.37129 22.37972
#
# Velocity S-wave (km/s) = 2.96464 3.55033 3.27062
# Velocity P-wave (km/s) = 4.44350 5.62148 5.06684
#
# Compressibility (1/GPa) = 0.05955394
#
# Stress axis : x y z
#
# Youngs Moduli (GPa) = 56.02509 51.61106 40.36366
#
# Poissons Ratio (x) = 0.14479 -0.08763
# Poissons Ratio (y) = 0.15717 0.02375
# Poissons Ratio (z) = -0.12163 0.03037
#
# Static dielectric constant tensor:
#      x y z
#    x 1.772920 0.000000 0.025050 
#    y 0.000000 1.773250 0.000000 
#    z 0.025050 0.000000 1.730530 
# 
# From -- ./inp_files/37166.got.cif
#   From: 2010.05.17/outbox.cif.g08.bks.cpg/sg10_19_cif.got.tgz:37166.got - 2010.06.03 11:33:40.
