data_PCOD9153889
_publ_section_title
;
Structure prediction by ZEFSAII (Michael W. Deem and Ramdas Pophale) SiO2 
 PCOD9153889
Probable space group: P 2/M
;
_chemical_formula_sum "Si O2"
_cell_formula_units_Z 32
_cell_length_a 9.501324
_cell_length_b 22.386293
_cell_length_c 15.924999
_cell_angle_alpha 90.000000
_cell_angle_beta 151.319110
_cell_angle_gamma 90.000000
_cell_volume 1625.640276
_symmetry_space_group_name_H-M "P 2/M"
_symmetry_group_IT_number 10
_symmetry_cell_setting 'monoclinic'
loop_
_space_group_symop_operation_xyz
x,y,z
-x,y,-z
-x,-y,-z
x,-y,z
loop_
_atom_site_type_symbol
_atom_site_label
_atom_site_fract_x
_atom_site_fract_y
_atom_site_fract_z
Si Si1 0.349469 0.356481 0.685970
Si Si2 0.841124 0.359608 0.825399
Si Si3 0.297962 0.223811 0.708721
Si Si4 0.819992 0.164648 0.189275
Si Si5 0.308101 0.930806 0.484471
Si Si6 0.653308 0.571479 0.991972
Si Si7 0.750691 0.231075 0.702170
Si Si8 0.336084 0.137946 0.198908
O O1 0.507201 0.371990 0.680263
O O2 0.431952 0.287946 0.754581
O O3 0.462049 0.400464 0.816859
O O4 0.000000 0.358408 0.500000
O O5 0.844679 0.295271 0.784134
O O6 0.000000 0.359111 0.000000
O O7 0.020498 0.403455 0.858104
O O8 0.217736 0.218134 0.763788
O O9 0.495476 0.166241 0.791438
O O10 0.000000 0.217866 0.500000
O O11 0.034107 0.113935 0.337409
O O12 0.980045 0.193961 0.194136
O O13 0.500000 0.140721 0.000000
O O14 0.500000 0.919923 0.500000
O O15 0.502665 0.915320 0.668012
O O16 0.221328 0.000000 0.439008
O O17 0.658137 0.500000 0.990420
O O18 0.500000 0.588974 0.000000
O O19 0.500000 0.235605 0.500000
O O20 0.638868 0.192358 0.721473
O O21 0.000000 0.125377 0.000000
#
# Coordination Sequence:
#
# PCOD9153889 Si02
#       8
#     4   4   4   4   4   4   4   4
#     4  10  23  38  62  96 129 169 212 265 329 380
#     4  10  23  39  63  95 128 171 217 265 324 384
#     4  11  22  38  60  93 136 160 199 271 329 386
#     4  12  25  38  63  97 124 170 208 264 333 383
#     4  11  24  47  67  89 126 173 223 264 312 390
#     4  10  24  45  65  90 131 175 220 266 317 382
#     4  12  22  39  62  93 133 166 210 257 329 394
#     4  12  22  40  66  92 129 166 209 262 324 387
#
# _framework density 19.684552
#
# number of rings (size 3 to 8) (size 9 to 14) (size 15 to 20)
#    0.000    1.000    5.000    1.125    8.750    3.000 
#    0.000    1.250    0.000    1.875    0.000    0.000 
#    0.000    0.000    0.000    0.000    0.000    0.000 
#
# Total GULP energy -178729.132356 kJ/mol
# GULP energy per Si atom -5585.285386 kJ/mol
# Density = 1.963975 g / cm^3
# Si number density = 19.684552 Si / 1000 Ang^3
#
#
#
# Elastic Constant Matrix: (Units=GPa)
#
#
# Indices 1 2 3 4 5 6 
#
# 1 88.4040 47.3985 25.6584 0.0000 14.8887 0.0000
# 2 47.3985 77.6138 22.0044 0.0000 7.9890 0.0000
# 3 25.6584 22.0044 92.1977 0.0000 16.2572 0.0000
# 4 0.0000 0.0000 0.0000 21.2980 0.0000 -8.0324
# 5 14.8887 7.9890 16.2572 0.0000 32.8059 0.0000
# 6 0.0000 0.0000 0.0000 -8.0324 0.0000 15.7922
#
#
#
# Elastic Compliance Matrix: (Units=1/GPa)
#
#
# Indices 1 2 3 4 5 6 
#
# 1 0.018000 -0.009991 -0.001768 0.000000 -0.004860 0.000000
# 2 -0.009991 0.019474 -0.002006 0.000000 0.000786 0.000000
# 3 -0.001768 -0.002006 0.012699 0.000000 -0.005002 0.000000
# 4 0.000000 0.000000 0.000000 0.058098 0.000000 0.029550
# 5 -0.004860 0.000786 -0.005002 0.000000 0.034976 0.000000
# 6 0.000000 0.000000 0.000000 0.029550 0.000000 0.078353
#
#
# Mechanical properties :
#
#
# Convention : Reuss Voigt Hill
#
# Bulk Modulus (GPa) = 44.16344 49.81533 46.98938
# Shear Modulus (GPa) = 19.47979 24.85614 22.16797
#
# Velocity S-wave (km/s) = 3.14920 3.55734 3.35947
# Velocity P-wave (km/s) = 5.97558 6.49882 6.24268
#
# Compressibility (1/GPa) = 0.02264317
#
# Stress axis : x y z
#
# Youngs Moduli (GPa) = 55.55496 51.35145 78.74622
#
# Poissons Ratio (x) = 0.51306 0.13921
# Poissons Ratio (y) = 0.55506 0.15795
# Poissons Ratio (z) = 0.09821 0.10300
#
# Static dielectric constant tensor:
#      x y z
#    x 1.708940 0.000000 0.027840 
#    y 0.000000 1.653880 0.000000 
#    z 0.027840 0.000000 1.719730 
# 
# From -- ./inp_files/62701.got.cif
#   From: 2010.05.17/outbox.cif.g08.bks.cpg/sg10_32_cif.got.tgz:62701.got - 2010.06.03 11:33:40.
