data_PCOD9153613
_publ_section_title
;
Structure prediction by ZEFSAII (Michael W. Deem and Ramdas Pophale) SiO2 
 PCOD9153613
Probable space group: P 2/M
;
_chemical_formula_sum "Si O2"
_cell_formula_units_Z 20
_cell_length_a 21.616729
_cell_length_b 7.709886
_cell_length_c 15.482089
_cell_angle_alpha 90.000000
_cell_angle_beta 162.046208
_cell_angle_gamma 90.000000
_cell_volume 795.372217
_symmetry_space_group_name_H-M "P 2/M"
_symmetry_group_IT_number 10
_symmetry_cell_setting 'monoclinic'
loop_
_space_group_symop_operation_xyz
x,y,z
-x,y,-z
-x,-y,-z
x,-y,z
loop_
_atom_site_type_symbol
_atom_site_label
_atom_site_fract_x
_atom_site_fract_y
_atom_site_fract_z
Si Si1 0.695163 0.291382 0.147029
Si Si2 0.163663 0.702244 0.031706
Si Si3 0.355041 0.205598 0.105633
Si Si4 0.760963 0.288386 0.422035
Si Si5 0.777554 0.198734 0.709347
O O1 0.700880 0.500000 0.156217
O O2 0.756833 0.238266 0.133188
O O3 0.462750 0.234190 0.850272
O O4 0.800586 0.232026 0.375441
O O5 0.163228 0.500000 0.054283
O O6 0.256262 0.718133 0.059804
O O7 0.271199 0.797054 0.252995
O O8 0.936114 0.770244 0.717824
O O9 0.584380 0.277493 0.405679
O O10 0.367689 0.000000 0.135401
O O11 0.764348 0.500000 0.427492
O O12 0.796878 0.000000 0.705659
O O13 0.000000 0.280164 0.000000
#
# Coordination Sequence:
#
# PCOD9153613 Si02
#       5
#     4   4   4   4   4
#     4   9  17  35  60  81 105 139 180 221 264 313
#     4  11  22  36  56  82 110 140 178 220 263 314
#     4  11  23  37  53  78 112 144 176 217 267 318
#     4   8  17  34  57  83 108 137 175 223 270 310
#     4  10  22  40  59  78 105 141 177 218 270 320
#
# _framework density 25.145458999999999
#
# number of rings (size 3 to 8) (size 9 to 14) (size 15 to 20)
#    0.000    2.200    0.000    4.200    0.000    5.200 
#    0.000    9.000    0.000    0.000    0.000    0.000 
#    0.000    0.000    0.000    0.000    0.000    0.000 
#
# Total GULP energy -111830.566988 kJ/mol
# GULP energy per Si atom -5591.528349 kJ/mol
# Density = 2.508823 g / cm^3
# Si number density = 25.145459 Si / 1000 Ang^3
#
#
#
# Elastic Constant Matrix: (Units=GPa)
#
#
# Indices 1 2 3 4 5 6 
#
# 1 120.6021 1.5432 -0.7766 0.0000 -21.7847 0.0000
# 2 1.5432 65.4342 0.1279 0.0000 -0.9523 0.0000
# 3 -0.7766 0.1279 54.0068 0.0000 -20.7943 0.0000
# 4 0.0000 0.0000 0.0000 11.6328 0.0000 -9.1975
# 5 -21.7847 -0.9523 -20.7943 0.0000 48.6924 0.0000
# 6 0.0000 0.0000 0.0000 -9.1975 0.0000 38.7717
#
#
#
# Elastic Compliance Matrix: (Units=1/GPa)
#
#
# Indices 1 2 3 4 5 6 
#
# 1 0.009209 -0.000149 0.002056 0.000000 0.004995 0.000000
# 2 -0.000149 0.015290 0.000061 0.000000 0.000259 0.000000
# 3 0.002056 0.000061 0.022620 0.000000 0.010581 0.000000
# 4 0.000000 0.000000 0.000000 0.105809 0.000000 0.025100
# 5 0.004995 0.000259 0.010581 0.000000 0.027296 0.000000
# 6 0.000000 0.000000 0.000000 0.025100 0.000000 0.031746
#
#
# Mechanical properties :
#
#
# Convention : Reuss Voigt Hill
#
# Bulk Modulus (GPa) = 19.58623 26.87023 23.22823
# Shear Modulus (GPa) = 22.21720 35.76261 28.98990
#
# Velocity S-wave (km/s) = 2.97568 3.77534 3.39910
# Velocity P-wave (km/s) = 4.42858 5.45099 4.96617
#
# Compressibility (1/GPa) = 0.05105628
#
# Stress axis : x y z
#
# Youngs Moduli (GPa) = 108.58714 65.40360 44.20950
#
# Poissons Ratio (x) = 0.00971 -0.09090
# Poissons Ratio (y) = 0.01613 -0.00271
# Poissons Ratio (z) = -0.22327 -0.00401
#
# Static dielectric constant tensor:
#      x y z
#    x 2.028160 0.000000 0.067370 
#    y 0.000000 1.919330 0.000000 
#    z 0.067370 0.000000 2.003800 
# 
# From -- ./inp_files/22121.got.cif
#   From: 2010.05.17/outbox.cif.g08.bks.cpg/sg10_12_cif.got.tgz:22121.got - 2010.06.03 11:33:40.
