data_PCOD9153921
_publ_section_title
;
Structure prediction by ZEFSAII (Michael W. Deem and Ramdas Pophale) SiO2 
 PCOD9153921
Probable space group: P 2/M
;
_chemical_formula_sum "Si O2"
_cell_formula_units_Z 20
_cell_length_a 7.106832
_cell_length_b 20.918169
_cell_length_c 7.211760
_cell_angle_alpha 90.000000
_cell_angle_beta 51.756501
_cell_angle_gamma 90.000000
_cell_volume 842.024610
_symmetry_space_group_name_H-M "P 2/M"
_symmetry_group_IT_number 10
_symmetry_cell_setting 'monoclinic'
loop_
_space_group_symop_operation_xyz
x,y,z
-x,y,-z
-x,-y,-z
x,-y,z
loop_
_atom_site_type_symbol
_atom_site_label
_atom_site_fract_x
_atom_site_fract_y
_atom_site_fract_z
Si Si1 0.000000 0.133854 0.000000
Si Si2 0.489348 0.809286 0.219661
Si Si3 0.761735 0.311693 0.529758
Si Si4 0.013738 0.568455 0.717285
Si Si5 0.500000 0.609070 0.000000
Si Si6 0.737920 0.070981 0.483097
O O1 0.760167 0.174805 0.114735
O O2 0.947835 0.091165 0.213866
O O3 0.363813 0.755669 0.422143
O O4 0.326051 0.873014 0.334997
O O5 0.500000 0.787846 0.000000
O O6 0.844851 0.365355 0.328573
O O7 0.000000 0.295537 0.500000
O O8 0.589186 0.349058 0.774752
O O9 0.116188 0.500000 0.717004
O O10 0.000000 0.566969 0.500000
O O11 0.733154 0.572701 0.934694
O O12 0.500000 0.069279 0.500000
O O13 0.769476 0.000000 0.541353
#
# Coordination Sequence:
#
# PCOD9153921 Si02
#       6
#     2   4   4   4   2   4
#     4  10  23  40  62  88 113 154 198 238 293 348
#     4  11  23  37  61  87 120 156 193 240 292 349
#     4   9  18  29  48  75 110 151 189 233 288 336
#     4   8  14  23  39  66 104 145 187 233 280 333
#     4   8  13  24  40  68 101 146 184 230 287 332
#     4   9  20  40  62  87 118 151 193 244 292 345
#
# _framework density 23.752275000000001
#
# number of rings (size 3 to 8) (size 9 to 14) (size 15 to 20)
#    0.000    3.200    1.000    0.600    2.800    2.000 
#    0.000    1.000    0.000    0.000    0.000    0.700 
#    0.000    8.800    0.000    0.200    0.000    0.200 
#
# Total GULP energy -111558.667367 kJ/mol
# GULP energy per Si atom -5577.933368 kJ/mol
# Density = 2.369821 g / cm^3
# Si number density = 23.752275 Si / 1000 Ang^3
#
#
#
# Elastic Constant Matrix: (Units=GPa)
#
#
# Indices 1 2 3 4 5 6 
#
# 1 61.9551 44.6842 31.4861 0.0000 -6.8211 0.0000
# 2 44.6842 200.6916 53.4643 0.0000 -31.3538 0.0000
# 3 31.4861 53.4643 106.3478 0.0000 -33.0634 0.0000
# 4 0.0000 0.0000 0.0000 -1.0181 0.0000 -2.9538
# 5 -6.8211 -31.3538 -33.0634 0.0000 31.8003 0.0000
# 6 0.0000 0.0000 0.0000 -2.9538 0.0000 12.2273
#
#
#
# Elastic Compliance Matrix: (Units=1/GPa)
#
#
# Indices 1 2 3 4 5 6 
#
# 1 0.021553 -0.004066 -0.006126 0.000000 -0.005756 0.000000
# 2 -0.004066 0.006875 -0.000615 0.000000 0.005267 0.000000
# 3 -0.006126 -0.000615 0.016149 0.000000 0.014870 0.000000
# 4 0.000000 0.000000 0.000000 -0.577465 0.000000 -0.139502
# 5 -0.005756 0.005267 0.014870 0.000000 0.050865 0.000000
# 6 0.000000 0.000000 0.000000 -0.139502 0.000000 0.048084
#
#
# Mechanical properties :
#
#
# Convention : Reuss Voigt Hill
#
# Bulk Modulus (GPa) = 43.54957 69.80708 56.67833
# Shear Modulus (GPa) = -12.35575 24.55922 6.10173
#
# Velocity S-wave (km/s) = -2.28325 3.21903 1.60452
# Velocity P-wave (km/s) = 3.37990 6.57797 5.22941
#
# Compressibility (1/GPa) = 0.02296234
#
# Stress axis : x y z
#
# Youngs Moduli (GPa) = 46.39719 145.46177 61.92229
#
# Poissons Ratio (x) = 0.59143 0.37937
# Poissons Ratio (y) = 0.18865 0.03808
# Poissons Ratio (z) = 0.28425 0.08945
#
# Static dielectric constant tensor:
#      x y z
#    x 2.009370 0.000000 0.019250 
#    y 0.000000 1.981540 0.000000 
#    z 0.019250 0.000000 1.903710 
# 
# From -- ./inp_files/20105.got.cif
#   From: 2010.05.17/outbox.cif.g08.bks.cpg/sg10_11_cif.got.tgz:20105.got - 2010.06.03 11:33:40.
