data_PCOD9153440
_publ_section_title
;
Structure prediction by ZEFSAII (Michael W. Deem and Ramdas Pophale) SiO2 
 PCOD9153440
Probable space group: P 2/M
;
_chemical_formula_sum "Si O2"
_cell_formula_units_Z 28
_cell_length_a 17.283915
_cell_length_b 11.508449
_cell_length_c 24.143364
_cell_angle_alpha 90.000000
_cell_angle_beta 19.720151
_cell_angle_gamma 90.000000
_cell_volume 1620.450244
_symmetry_space_group_name_H-M "P 2/M"
_symmetry_group_IT_number 10
_symmetry_cell_setting 'monoclinic'
loop_
_space_group_symop_operation_xyz
x,y,z
-x,y,-z
-x,-y,-z
x,-y,z
loop_
_atom_site_type_symbol
_atom_site_label
_atom_site_fract_x
_atom_site_fract_y
_atom_site_fract_z
Si Si1 0.829552 0.638729 0.473038
Si Si2 0.612472 0.000000 0.985334
Si Si3 0.546186 0.640413 0.556706
Si Si4 0.678911 0.635319 0.020942
Si Si5 0.862149 0.641522 0.239332
Si Si6 0.252675 0.746357 0.356310
Si Si7 0.255678 0.249241 0.133909
Si Si8 0.276587 0.000000 0.319485
O O1 0.879578 0.500000 0.435130
O O2 0.647479 0.671473 0.547870
O O3 0.738442 0.669124 0.594972
O O4 0.053121 0.718578 0.312271
O O5 0.422331 0.000000 0.163125
O O6 0.500000 0.000000 0.000000
O O7 0.751540 0.878476 0.889988
O O8 0.540201 0.500000 0.559692
O O9 0.721419 0.675024 0.389595
O O10 0.293034 0.679542 0.707992
O O11 0.644002 0.500000 0.054583
O O12 0.439614 0.699409 0.187829
O O13 0.765977 0.657089 0.900347
O O14 0.876324 0.680199 0.929577
O O15 0.869344 0.500000 0.234114
O O16 0.321426 0.879902 0.320500
O O17 0.000000 0.741187 0.500000
O O18 0.500000 0.258835 0.000000
O O19 0.000000 0.000000 0.500000
#
# Coordination Sequence:
#
# PCOD9153440 Si02
#       8
#     4   2   4   4   4   4   4   2
#     4  11  22  35  52  82 115 145 177 214 269 333
#     4  10  22  38  58  80  99 131 193 247 265 292
#     4   8  14  28  49  75 106 137 173 220 265 311
#     4  11  20  33  52  80 110 143 178 213 270 337
#     4   8  14  27  50  76 104 138 174 216 267 316
#     4  11  24  38  54  73 109 150 185 220 261 316
#     4  11  22  34  53  77 108 139 182 229 264 306
#     4  10  22  40  58  74  99 142 194 232 264 305
#
# _framework density 17.279149
#
# number of rings (size 3 to 8) (size 9 to 14) (size 15 to 20)
#    0.000    2.000    2.857    2.571    6.000    3.429 
#    0.000    0.714    0.000    3.429    0.000    6.000 
#    0.000    0.000    0.000    0.000    0.000    0.000 
#
# Total GULP energy -155913.186730 kJ/mol
# GULP energy per Si atom -5568.328098 kJ/mol
# Density = 1.723982 g / cm^3
# Si number density = 17.279149 Si / 1000 Ang^3
#
#
#
# Elastic Constant Matrix: (Units=GPa)
#
#
# Indices 1 2 3 4 5 6 
#
# 1 72.2641 6.3002 -2.1218 0.0000 -12.9355 0.0000
# 2 6.3002 57.8299 8.5321 0.0000 -8.0319 0.0000
# 3 -2.1218 8.5321 34.8176 0.0000 -6.7528 0.0000
# 4 0.0000 0.0000 0.0000 12.1538 0.0000 13.8788
# 5 -12.9355 -8.0319 -6.7528 0.0000 29.4830 0.0000
# 6 0.0000 0.0000 0.0000 13.8788 0.0000 5.7692
#
#
#
# Elastic Compliance Matrix: (Units=1/GPa)
#
#
# Indices 1 2 3 4 5 6 
#
# 1 0.015256 -0.001067 0.002546 0.000000 0.006986 0.000000
# 2 -0.001067 0.018492 -0.003883 0.000000 0.003680 0.000000
# 3 0.002546 -0.003883 0.031226 0.000000 0.007212 0.000000
# 4 0.000000 0.000000 0.000000 -0.047094 0.000000 0.113294
# 5 0.006986 0.003680 0.007212 0.000000 0.039637 0.000000
# 6 0.000000 0.000000 0.000000 0.113294 0.000000 -0.099212
#
#
# Mechanical properties :
#
#
# Convention : Reuss Voigt Hill
#
# Bulk Modulus (GPa) = 16.62038 21.14806 18.88422
# Shear Modulus (GPa) = -297.08654 19.62793 -138.72930
#
# Velocity S-wave (km/s) = -13.12657 3.37402 -8.97003
# Velocity P-wave (km/s) = 14.83586 5.23873 9.81475
#
# Compressibility (1/GPa) = 0.06016711
#
# Stress axis : x y z
#
# Youngs Moduli (GPa) = 65.54589 54.07633 32.02414
#
# Poissons Ratio (x) = 0.05773 -0.08154
# Poissons Ratio (y) = 0.06997 0.12435
# Poissons Ratio (z) = -0.16690 0.20997
#
# Static dielectric constant tensor:
#      x y z
#    x 1.600780 0.000000 -0.025120 
#    y 0.000000 1.597530 0.000000 
#    z -0.025120 0.000000 1.586960 
# 
# From -- ./inp_files/90149.got.cif
#   From: 2010.05.17/outbox.cif.g08.bks.cpg/sg10_46_cif.got.tgz:90149.got - 2010.06.03 11:33:40.
