data_PCOD9153501
_publ_section_title
;
Structure prediction by ZEFSAII (Michael W. Deem and Ramdas Pophale) SiO2 
 PCOD9153501
Probable space group: P 2/M
;
_chemical_formula_sum "Si O2"
_cell_formula_units_Z 32
_cell_length_a 11.621778
_cell_length_b 14.174719
_cell_length_c 12.221660
_cell_angle_alpha 90.000000
_cell_angle_beta 69.021226
_cell_angle_gamma 90.000000
_cell_volume 1879.882455
_symmetry_space_group_name_H-M "P 2/M"
_symmetry_group_IT_number 10
_symmetry_cell_setting 'monoclinic'
loop_
_space_group_symop_operation_xyz
x,y,z
-x,y,-z
-x,-y,-z
x,-y,z
loop_
_atom_site_type_symbol
_atom_site_label
_atom_site_fract_x
_atom_site_fract_y
_atom_site_fract_z
Si Si1 0.178013 0.108487 0.030824
Si Si2 0.705541 0.298077 0.965067
Si Si3 0.803421 0.296078 0.322415
Si Si4 0.144259 0.612232 0.469772
Si Si5 0.029787 0.611819 0.117034
Si Si6 0.617001 0.611513 0.223555
Si Si7 0.900442 0.891187 0.196467
Si Si8 0.646020 0.390348 0.771642
O O1 0.277370 0.186532 0.027739
O O2 0.047934 0.125304 0.137589
O O3 0.214129 0.000000 0.037704
O O4 0.147332 0.119226 0.912243
O O5 0.842383 0.339394 0.898416
O O6 0.629620 0.327622 0.884603
O O7 0.661729 0.346695 0.092055
O O8 0.804084 0.327782 0.447193
O O9 0.684180 0.332035 0.296946
O O10 0.832307 0.186150 0.292477
O O11 0.918377 0.349692 0.226500
O O12 0.154899 0.500000 0.491280
O O13 0.227694 0.630055 0.334982
O O14 0.000000 0.632588 0.500000
O O15 0.041286 0.500000 0.127287
O O16 0.000000 0.631955 0.000000
O O17 0.649647 0.500000 0.218630
O O18 0.469397 0.620054 0.270580
O O19 0.880849 0.000000 0.236084
O O20 0.647866 0.500000 0.806726
#
# Coordination Sequence:
#
# PCOD9153501 Si02
#       8
#     4   4   4   4   4   4   4   4
#     4   9  17  30  50  79 111 140 173 218 275 330
#     4  12  19  32  54  77 110 145 177 218 272 323
#     4  12  20  33  55  80 106 140 182 228 266 311
#     4  10  22  39  56  77 108 144 181 218 265 322
#     4  11  19  26  43  77 111 131 160 214 271 314
#     4  11  22  34  52  80 109 142 185 224 262 319
#     4   9  17  31  50  79 113 138 170 220 277 328
#     4  10  23  39  52  73 110 154 185 213 261 321
#
# _framework density 17.022341999999998
#
# number of rings (size 3 to 8) (size 9 to 14) (size 15 to 20)
#    0.000    1.500    3.750    4.125    0.000    2.500 
#    0.000    1.875    0.000    3.375    0.000    0.875 
#    0.000    0.000    0.000    0.000    0.000    0.000 
#
# Total GULP energy -178695.783389 kJ/mol
# GULP energy per Si atom -5584.243231 kJ/mol
# Density = 1.698360 g / cm^3
# Si number density = 17.022342 Si / 1000 Ang^3
#
#
#
# Elastic Constant Matrix: (Units=GPa)
#
#
# Indices 1 2 3 4 5 6 
#
# 1 56.5390 28.0437 16.1884 0.0000 1.3196 0.0000
# 2 28.0437 83.1614 43.8629 0.0000 14.0364 0.0000
# 3 16.1884 43.8629 47.2345 0.0000 6.6527 0.0000
# 4 0.0000 0.0000 0.0000 18.8932 0.0000 2.0906
# 5 1.3196 14.0364 6.6527 0.0000 20.8650 0.0000
# 6 0.0000 0.0000 0.0000 2.0906 0.0000 18.3755
#
#
#
# Elastic Compliance Matrix: (Units=1/GPa)
#
#
# Indices 1 2 3 4 5 6 
#
# 1 0.021558 -0.007339 -0.001127 0.000000 0.003933 0.000000
# 2 -0.007339 0.027924 -0.021815 0.000000 -0.011366 0.000000
# 3 -0.001127 -0.021815 0.041607 0.000000 0.001481 0.000000
# 4 0.000000 0.000000 0.000000 0.053604 0.000000 -0.006098
# 5 0.003933 -0.011366 0.001481 0.000000 0.054852 0.000000
# 6 0.000000 0.000000 0.000000 -0.006098 0.000000 0.055114
#
#
# Mechanical properties :
#
#
# Convention : Reuss Voigt Hill
#
# Bulk Modulus (GPa) = 32.75856 40.34722 36.55289
# Shear Modulus (GPa) = 15.36584 18.21605 16.79095
#
# Velocity S-wave (km/s) = 3.00773 3.27483 3.14412
# Velocity P-wave (km/s) = 5.59894 6.16873 5.89073
#
# Compressibility (1/GPa) = 0.03052637
#
# Stress axis : x y z
#
# Youngs Moduli (GPa) = 46.38631 35.81127 24.03469
#
# Poissons Ratio (x) = 0.26282 0.02709
# Poissons Ratio (y) = 0.34044 0.52431
# Poissons Ratio (z) = 0.05228 0.78122
#
# Static dielectric constant tensor:
#      x y z
#    x 1.597100 0.000000 0.001110 
#    y 0.000000 1.576170 0.000000 
#    z 0.001110 0.000000 1.573390 
# 
# From -- ./inp_files/47377.got.cif
#   From: 2010.05.17/outbox.cif.g08.bks.cpg/sg10_24_cif.got.tgz:47377.got - 2010.06.03 11:33:40.
