data_PCOD9153967
_publ_section_title
;
Structure prediction by ZEFSAII (Michael W. Deem and Ramdas Pophale) SiO2 
 PCOD9153967
Probable space group: P 2/M
;
_chemical_formula_sum "Si O2"
_cell_formula_units_Z 28
_cell_length_a 17.565831
_cell_length_b 13.029972
_cell_length_c 12.309525
_cell_angle_alpha 90.000000
_cell_angle_beta 28.076048
_cell_angle_gamma 90.000000
_cell_volume 1326.004964
_symmetry_space_group_name_H-M "P 2/M"
_symmetry_group_IT_number 10
_symmetry_cell_setting 'monoclinic'
loop_
_space_group_symop_operation_xyz
x,y,z
-x,y,-z
-x,-y,-z
x,-y,z
loop_
_atom_site_type_symbol
_atom_site_label
_atom_site_fract_x
_atom_site_fract_y
_atom_site_fract_z
Si Si1 0.005059 0.623086 0.334031
Si Si2 0.285178 0.623543 0.145118
Si Si3 0.844159 0.876913 0.816760
Si Si4 0.090705 0.376902 0.776832
Si Si5 0.541782 0.876901 0.325754
Si Si6 0.215488 0.123543 0.354207
Si Si7 0.396326 0.750002 0.311033
O O1 0.012168 0.500000 0.338013
O O2 0.018096 0.645539 0.191566
O O3 0.972383 0.842021 0.395321
O O4 0.826913 0.645757 0.608266
O O5 0.310865 0.500000 0.108497
O O6 0.455855 0.679311 0.917433
O O7 0.159903 0.657980 0.207798
O O8 0.762099 0.854244 0.802728
O O9 0.862356 0.000000 0.787472
O O10 0.727775 0.854451 0.062568
O O11 0.116180 0.500000 0.751317
O O12 0.257490 0.321922 0.537157
O O13 0.000000 0.343172 0.000000
O O14 0.500000 0.843169 0.500000
O O15 0.447880 0.821933 0.346760
O O16 0.516352 0.000000 0.351141
O O17 0.329154 0.179312 0.297554
O O18 0.230234 0.000000 0.350396
#
# Coordination Sequence:
#
# PCOD9153967 Si02
#       7
#     4   4   4   4   4   4   4
#     4   8  17  38  63  82 112 157 196 236 293 356
#     4   9  19  37  61  90 119 150 193 244 297 349
#     4   8  17  38  63  82 112 157 196 236 293 356
#     4  10  23  42  59  80 117 161 199 238 287 345
#     4  10  23  42  59  80 117 161 199 238 287 345
#     4   9  19  37  61  90 119 150 193 244 297 349
#     4  12  24  35  60  94 122 151 194 250 298 345
#
# _framework density 21.116060999999998
#
# number of rings (size 3 to 8) (size 9 to 14) (size 15 to 20)
#    0.000    2.571    0.000    2.571    0.000    6.857 
#    0.000    7.143    0.000    8.571    0.000   12.000 
#    0.000    0.000    0.000    0.000    0.000    0.000 
#
# Total GULP energy -156482.240085 kJ/mol
# GULP energy per Si atom -5588.651432 kJ/mol
# Density = 2.106800 g / cm^3
# Si number density = 21.116061 Si / 1000 Ang^3
#
#
#
# Elastic Constant Matrix: (Units=GPa)
#
#
# Indices 1 2 3 4 5 6 
#
# 1 139.3397 66.8638 96.3232 0.0000 10.2091 0.0000
# 2 66.8638 108.3855 64.5160 0.0000 -1.2319 0.0000
# 3 96.3232 64.5160 188.2563 0.0000 15.2873 0.0000
# 4 0.0000 0.0000 0.0000 33.8957 0.0000 -4.4867
# 5 10.2091 -1.2319 15.2873 0.0000 33.9470 0.0000
# 6 0.0000 0.0000 0.0000 -4.4867 0.0000 42.4992
#
#
#
# Elastic Compliance Matrix: (Units=1/GPa)
#
#
# Indices 1 2 3 4 5 6 
#
# 1 0.013155 -0.005313 -0.004747 0.000000 -0.002011 0.000000
# 2 -0.005313 0.013911 -0.002304 0.000000 0.003140 0.000000
# 3 -0.004747 -0.002304 0.008741 0.000000 -0.002592 0.000000
# 4 0.000000 0.000000 0.000000 0.029920 0.000000 0.003159
# 5 -0.002011 0.003140 -0.002592 0.000000 0.031344 0.000000
# 6 0.000000 0.000000 0.000000 0.003159 0.000000 0.023863
#
#
# Mechanical properties :
#
#
# Convention : Reuss Voigt Hill
#
# Bulk Modulus (GPa) = 90.25671 99.04305 94.64988
# Shear Modulus (GPa) = 33.47751 35.95363 34.71557
#
# Velocity S-wave (km/s) = 3.98603 4.13082 4.05907
# Velocity P-wave (km/s) = 8.00129 8.35209 8.17857
#
# Compressibility (1/GPa) = 0.01107951
#
# Stress axis : x y z
#
# Youngs Moduli (GPa) = 76.01808 71.88619 114.40669
#
# Poissons Ratio (x) = 0.38190 0.54306
# Poissons Ratio (y) = 0.40386 0.26360
# Poissons Ratio (z) = 0.36084 0.16563
#
# Static dielectric constant tensor:
#      x y z
#    x 1.757900 0.000000 -0.017080 
#    y 0.000000 1.853390 0.000000 
#    z -0.017080 0.000000 1.725080 
# 
# From -- ./inp_files/56827.got.cif
#   From: 2010.05.17/outbox.cif.g08.bks.cpg/sg10_29_cif.got.tgz:56827.got - 2010.06.03 11:33:40.
