data_PCOD9153719
_publ_section_title
;
Structure prediction by ZEFSAII (Michael W. Deem and Ramdas Pophale) SiO2 
 PCOD9153719
Probable space group: P 2/M
;
_chemical_formula_sum "Si O2"
_cell_formula_units_Z 24
_cell_length_a 11.300824
_cell_length_b 7.588210
_cell_length_c 12.232870
_cell_angle_alpha 90.000000
_cell_angle_beta 80.297281
_cell_angle_gamma 90.000000
_cell_volume 1034.000085
_symmetry_space_group_name_H-M "P 2/M"
_symmetry_group_IT_number 10
_symmetry_cell_setting 'monoclinic'
loop_
_space_group_symop_operation_xyz
x,y,z
-x,y,-z
-x,-y,-z
x,-y,z
loop_
_atom_site_type_symbol
_atom_site_label
_atom_site_fract_x
_atom_site_fract_y
_atom_site_fract_z
Si Si1 0.496057 0.705402 0.626069
Si Si2 0.126373 0.707955 0.931723
Si Si3 0.228956 0.788455 0.692072
Si Si4 0.706864 0.200624 0.746482
Si Si5 0.634424 0.300292 0.990868
Si Si6 0.137390 0.214975 0.472419
O O1 0.500000 0.772509 0.500000
O O2 0.530359 0.500000 0.617674
O O3 0.363063 0.724037 0.694096
O O4 0.588048 0.801043 0.690540
O O5 0.128581 0.500000 0.959335
O O6 0.136902 0.729080 0.799630
O O7 0.253986 0.780908 0.958507
O O8 0.000000 0.778218 0.000000
O O9 0.199744 0.725226 0.574155
O O10 0.228244 0.000000 0.691237
O O11 0.683455 0.303682 0.860073
O O12 0.804719 0.277418 0.648783
O O13 0.738963 0.000000 0.772205
O O14 0.614764 0.500000 0.037193
O O15 0.500000 0.218917 0.000000
O O16 0.000000 0.263069 0.500000
O O17 0.147224 0.000000 0.468528
#
# Coordination Sequence:
#
# PCOD9153719 Si02
#       6
#     4   4   4   4   4   4
#     4  11  22  37  59  87 123 160 196 239 299 369
#     4  10  23  42  62  87 124 166 207 255 309 365
#     4  11  22  38  64  91 121 156 202 255 302 361
#     4  11  22  37  63  92 122 154 198 253 301 360
#     4  10  22  41  62  84 118 163 206 251 305 363
#     4   9  20  37  56  85 124 161 191 239 309 361
#
# _framework density 23.210830999999999
#
# number of rings (size 3 to 8) (size 9 to 14) (size 15 to 20)
#    0.000    1.667    1.667    2.500    2.333    3.333 
#    0.000    0.000    0.000    4.000    0.000    0.000 
#    0.000    0.000    0.000    0.000    0.000    0.000 
#
# Total GULP energy -134124.519456 kJ/mol
# GULP energy per Si atom -5588.521644 kJ/mol
# Density = 2.315800 g / cm^3
# Si number density = 23.210831 Si / 1000 Ang^3
#
#
#
# Elastic Constant Matrix: (Units=GPa)
#
#
# Indices 1 2 3 4 5 6 
#
# 1 89.8163 4.8317 15.7537 0.0000 -26.3280 0.0000
# 2 4.8317 59.5759 -1.8250 0.0000 1.3037 0.0000
# 3 15.7537 -1.8250 122.0603 0.0000 -23.8148 0.0000
# 4 0.0000 0.0000 0.0000 13.6391 0.0000 -156.2599
# 5 -26.3280 1.3037 -23.8148 0.0000 41.2908 0.0000
# 6 0.0000 0.0000 0.0000 -156.2599 0.0000 582.0675
#
#
#
# Elastic Compliance Matrix: (Units=1/GPa)
#
#
# Indices 1 2 3 4 5 6 
#
# 1 0.013796 -0.001314 -0.000085 0.000000 0.008789 0.000000
# 2 -0.001314 0.016925 0.000175 0.000000 -0.001271 0.000000
# 3 -0.000085 0.000175 0.009234 0.000000 0.005266 0.000000
# 4 0.000000 0.000000 0.000000 -0.035323 0.000000 -0.009483
# 5 0.008789 -0.001271 0.005266 0.000000 0.032899 0.000000
# 6 0.000000 0.000000 0.000000 -0.009483 0.000000 -0.000828
#
#
# Mechanical properties :
#
#
# Convention : Reuss Voigt Hill
#
# Bulk Modulus (GPa) = 26.66304 34.33036 30.49670
# Shear Modulus (GPa) = 96.79786 144.24562 120.52174
#
# Velocity S-wave (km/s) = 6.46485 7.89181 7.21370
# Velocity P-wave (km/s) = 8.19988 9.89261 9.08575
#
# Compressibility (1/GPa) = 0.03750510
#
# Stress axis : x y z
#
# Youngs Moduli (GPa) = 72.48607 59.08407 108.29938
#
# Poissons Ratio (x) = 0.07762 0.00925
# Poissons Ratio (y) = 0.09523 -0.01891
# Poissons Ratio (z) = 0.00619 -0.01031
#
# Static dielectric constant tensor:
#      x y z
#    x 1.888430 0.000000 -0.002440 
#    y 0.000000 1.883110 0.000000 
#    z -0.002440 0.000000 1.858330 
# 
# From -- ./inp_files/45050.got.cif
#   From: 2010.05.17/outbox.cif.g08.bks.cpg/sg10_23_cif.got.tgz:45050.got - 2010.06.03 11:33:40.
