data_PCOD9153960
_publ_section_title
;
Structure prediction by ZEFSAII (Michael W. Deem and Ramdas Pophale) SiO2 
 PCOD9153960
Probable space group: P 2/M
;
_chemical_formula_sum "Si O2"
_cell_formula_units_Z 20
_cell_length_a 9.056365
_cell_length_b 13.031355
_cell_length_c 8.716701
_cell_angle_alpha 90.000000
_cell_angle_beta 92.050382
_cell_angle_gamma 90.000000
_cell_volume 1028.057718
_symmetry_space_group_name_H-M "P 2/M"
_symmetry_group_IT_number 10
_symmetry_cell_setting 'monoclinic'
loop_
_space_group_symop_operation_xyz
x,y,z
-x,y,-z
-x,-y,-z
x,-y,z
loop_
_atom_site_type_symbol
_atom_site_label
_atom_site_fract_x
_atom_site_fract_y
_atom_site_fract_z
Si Si1 0.696674 0.791888 0.275724
Si Si2 0.925199 0.000000 0.667669
Si Si3 0.500000 0.661338 0.500000
Si Si4 0.279393 0.385027 0.226881
Si Si5 0.667438 0.000000 0.453339
Si Si6 0.500000 0.276774 0.000000
Si Si7 0.017326 0.777286 0.184400
O O1 0.602500 0.727197 0.391995
O O2 0.708287 0.902695 0.352222
O O3 0.601991 0.790365 0.116179
O O4 0.859058 0.747374 0.250572
O O5 0.956652 0.105472 0.758386
O O6 0.000000 0.000000 0.500000
O O7 0.754796 0.000000 0.615417
O O8 0.617427 0.609484 0.618293
O O9 0.222136 0.500000 0.192130
O O10 0.149111 0.300293 0.236222
O O11 0.388885 0.346082 0.096375
O O12 0.500000 0.000000 0.500000
O O13 0.000000 0.775287 0.000000
#
# Coordination Sequence:
#
# PCOD9153960 Si02
#       7
#     4   2   2   4   2   2   4
#     4  11  22  42  64  97 134 173 222 276 322 395
#     4  12  25  42  68  92 136 182 210 266 328 397
#     4  10  23  41  68  94 132 169 224 272 335 382
#     4  11  24  44  69  97 133 175 222 275 331 391
#     4  12  24  37  65 100 127 174 227 267 325 383
#     4  10  23  43  64  94 132 179 218 272 329 394
#     4  12  25  44  66 101 138 173 222 265 336 395
#
# _framework density 19.454160999999999
#
# number of rings (size 3 to 8) (size 9 to 14) (size 15 to 20)
#    0.000    0.800    5.000    2.100    2.800    0.800 
#    0.000    3.000    0.000    0.000    0.000    0.000 
#    0.000    0.000    0.000    0.000    0.000    0.000 
#
# Total GULP energy -111635.323666 kJ/mol
# GULP energy per Si atom -5581.766183 kJ/mol
# Density = 1.940988 g / cm^3
# Si number density = 19.454161 Si / 1000 Ang^3
#
#
#
# Elastic Constant Matrix: (Units=GPa)
#
#
# Indices 1 2 3 4 5 6 
#
# 1 166.8802 50.3877 42.8977 0.0000 -5.6818 0.0000
# 2 50.3877 115.4414 34.7553 0.0000 6.9052 0.0000
# 3 42.8977 34.7553 104.0543 0.0000 10.1408 0.0000
# 4 0.0000 0.0000 0.0000 -1.9313 0.0000 -3.0763
# 5 -5.6818 6.9052 10.1408 0.0000 36.3007 0.0000
# 6 0.0000 0.0000 0.0000 -3.0763 0.0000 -5.9939
#
#
#
# Elastic Compliance Matrix: (Units=1/GPa)
#
#
# Indices 1 2 3 4 5 6 
#
# 1 0.007509 -0.002688 -0.002428 0.000000 0.002365 0.000000
# 2 -0.002688 0.010626 -0.002265 0.000000 -0.001809 0.000000
# 3 -0.002428 -0.002265 0.011681 0.000000 -0.003212 0.000000
# 4 0.000000 0.000000 0.000000 -2.837839 0.000000 1.456490
# 5 0.002365 -0.001809 -0.003212 0.000000 0.029159 0.000000
# 6 0.000000 0.000000 0.000000 1.456490 0.000000 -0.914365
#
#
# Mechanical properties :
#
#
# Convention : Reuss Voigt Hill
#
# Bulk Modulus (GPa) = 66.42853 71.38414 68.90633
# Shear Modulus (GPa) = -1.36112 22.89746 10.76817
#
# Velocity S-wave (km/s) = -0.83736 3.43446 2.35524
# Velocity P-wave (km/s) = 5.76935 7.24572 6.54927
#
# Compressibility (1/GPa) = 0.01505377
#
# Stress axis : x y z
#
# Youngs Moduli (GPa) = 133.18131 94.11251 85.60956
#
# Poissons Ratio (x) = 0.25295 0.20788
# Poissons Ratio (y) = 0.35795 0.19388
# Poissons Ratio (z) = 0.32340 0.21314
#
# Static dielectric constant tensor:
#      x y z
#    x 1.716330 0.000000 0.019290 
#    y 0.000000 1.665700 0.000000 
#    z 0.019290 0.000000 1.674630 
# 
# From -- ./inp_files/17988.got.cif
#   From: 2010.05.17/outbox.cif.g08.bks.cpg/sg10_9_cif.got.tgz:17988.got - 2010.06.03 11:33:40.
