data_PCOD9153853
_publ_section_title
;
Structure prediction by ZEFSAII (Michael W. Deem and Ramdas Pophale) SiO2 
 PCOD9153853
Probable space group: P 2/M
;
_chemical_formula_sum "Si O2"
_cell_formula_units_Z 28
_cell_length_a 21.483177
_cell_length_b 14.120997
_cell_length_c 8.936612
_cell_angle_alpha 90.000000
_cell_angle_beta 151.048116
_cell_angle_gamma 90.000000
_cell_volume 1312.349129
_symmetry_space_group_name_H-M "P 2/M"
_symmetry_group_IT_number 10
_symmetry_cell_setting 'monoclinic'
loop_
_space_group_symop_operation_xyz
x,y,z
-x,y,-z
-x,-y,-z
x,-y,z
loop_
_atom_site_type_symbol
_atom_site_label
_atom_site_fract_x
_atom_site_fract_y
_atom_site_fract_z
Si Si1 0.677374 0.836019 0.793082
Si Si2 0.558480 0.634500 0.469226
Si Si3 0.704327 0.389764 0.249756
Si Si4 0.428243 0.000000 0.617073
Si Si5 0.797962 0.822679 0.364795
Si Si6 0.294351 0.000000 0.645648
Si Si7 0.802478 0.399838 0.790832
Si Si8 0.058509 0.226173 0.781548
O O1 0.603306 0.739318 0.606500
O O2 0.592669 0.912837 0.535135
O O3 0.711277 0.848645 0.037987
O O4 0.814998 0.831525 0.997931
O O5 0.500000 0.595588 0.500000
O O6 0.690644 0.596314 0.679546
O O7 0.444408 0.624378 0.109335
O O8 0.739332 0.500000 0.273884
O O9 0.771536 0.290889 0.335540
O O10 0.731719 0.388304 0.483801
O O11 0.323056 0.000000 0.529485
O O12 0.566007 0.000000 0.982986
O O13 0.769653 0.900819 0.433087
O O14 0.946496 0.829951 0.628629
O O15 0.874227 0.500000 0.939814
O O16 0.895122 0.313583 0.021263
O O17 0.000000 0.261552 0.500000
#
# Coordination Sequence:
#
# PCOD9153853 Si02
#       8
#     4   4   4   2   4   2   4   4
#     4  10  22  43  66  93 129 177 214 277 336 391
#     4  11  21  39  63  97 131 173 224 274 331 397
#     4  11  24  40  63  97 138 177 218 275 337 401
#     4  11  25  44  67 100 136 166 219 267 348 398
#     4  11  23  45  67  98 132 174 231 271 326 393
#     4  11  27  42  69 104 132 173 212 279 331 403
#     4  10  23  41  62  92 132 180 221 275 341 387
#     4   9  22  43  66  91 128 173 223 274 329 392
#
# _framework density 21.335785999999999
#
# number of rings (size 3 to 8) (size 9 to 14) (size 15 to 20)
#    0.000    1.571    1.429    2.143    4.000    4.857 
#    0.000    4.286    0.000    0.000    0.000    0.000 
#    0.000    0.000    0.000    0.000    0.000    0.000 
#
# Total GULP energy -156218.222366 kJ/mol
# GULP energy per Si atom -5579.222227 kJ/mol
# Density = 2.128723 g / cm^3
# Si number density = 21.335786 Si / 1000 Ang^3
#
#
#
# Elastic Constant Matrix: (Units=GPa)
#
#
# Indices 1 2 3 4 5 6 
#
# 1 88.0337 40.7833 19.0338 0.0000 4.0240 0.0000
# 2 40.7833 46.4416 5.2778 0.0000 15.2949 0.0000
# 3 19.0338 5.2778 73.9374 0.0000 5.0122 0.0000
# 4 0.0000 0.0000 0.0000 22.0341 0.0000 -3.6461
# 5 4.0240 15.2949 5.0122 0.0000 30.5320 0.0000
# 6 0.0000 0.0000 0.0000 -3.6461 0.0000 27.5565
#
#
#
# Elastic Compliance Matrix: (Units=1/GPa)
#
#
# Indices 1 2 3 4 5 6 
#
# 1 0.022023 -0.021679 -0.004714 0.000000 0.008732 0.000000
# 2 -0.021679 0.047198 0.003662 0.000000 -0.021388 0.000000
# 3 -0.004714 0.003662 0.014723 0.000000 -0.003630 0.000000
# 4 0.000000 0.000000 0.000000 0.046400 0.000000 0.006139
# 5 0.008732 -0.021388 -0.003630 0.000000 0.042912 0.000000
# 6 0.000000 0.000000 0.000000 0.006139 0.000000 0.037101
#
#
# Mechanical properties :
#
#
# Convention : Reuss Voigt Hill
#
# Bulk Modulus (GPa) = 25.98687 37.62251 31.80469
# Shear Modulus (GPa) = 18.61178 25.57904 22.09541
#
# Velocity S-wave (km/s) = 2.95672 3.46624 3.22157
# Velocity P-wave (km/s) = 4.88494 5.80444 5.36443
#
# Compressibility (1/GPa) = 0.03848097
#
# Stress axis : x y z
#
# Youngs Moduli (GPa) = 45.40759 21.18729 67.92045
#
# Poissons Ratio (x) = 0.45933 0.32016
# Poissons Ratio (y) = 0.98441 -0.24871
# Poissons Ratio (z) = 0.21404 -0.07758
#
# Static dielectric constant tensor:
#      x y z
#    x 1.784510 0.000000 0.017390 
#    y 0.000000 1.769650 0.000000 
#    z 0.017390 0.000000 1.724320 
# 
# From -- ./inp_files/35330.got.cif
#   From: 2010.05.17/outbox.cif.g08.bks.cpg/sg10_18_cif.got.tgz:35330.got - 2010.06.03 11:33:40.
