data_PCOD9153189
_publ_section_title
;
Structure prediction by ZEFSAII (Michael W. Deem and Ramdas Pophale) SiO2 
 PCOD9153189
Probable space group: P 2/M
;
_chemical_formula_sum "Si O2"
_cell_formula_units_Z 28
_cell_length_a 13.757043
_cell_length_b 22.371073
_cell_length_c 8.649553
_cell_angle_alpha 90.000000
_cell_angle_beta 149.302680
_cell_angle_gamma 90.000000
_cell_volume 1358.950430
_symmetry_space_group_name_H-M "P 2/M"
_symmetry_group_IT_number 10
_symmetry_cell_setting 'monoclinic'
loop_
_space_group_symop_operation_xyz
x,y,z
-x,y,-z
-x,-y,-z
x,-y,z
loop_
_atom_site_type_symbol
_atom_site_label
_atom_site_fract_x
_atom_site_fract_y
_atom_site_fract_z
Si Si1 0.624287 0.352174 0.314499
Si Si2 0.217097 0.931648 0.246235
Si Si3 0.961097 0.659651 0.268819
Si Si4 0.168829 0.069409 0.831092
Si Si5 0.612699 0.256508 0.815126
Si Si6 0.512484 0.137405 0.842467
Si Si7 0.795909 0.567488 0.807582
O O1 0.504922 0.298003 0.225609
O O2 0.657294 0.399955 0.496517
O O3 0.835349 0.333924 0.540192
O O4 0.500000 0.375366 0.000000
O O5 0.322328 0.885235 0.500637
O O6 0.297777 0.000000 0.362954
O O7 0.218243 0.909548 0.070947
O O8 0.000000 0.935491 0.000000
O O9 0.000000 0.643338 0.500000
O O10 0.825087 0.717676 0.084018
O O11 0.837659 0.609128 0.011933
O O12 0.000000 0.097894 0.500000
O O13 0.120344 0.000000 0.789133
O O14 0.352710 0.079595 0.979427
O O15 0.500000 0.258864 0.500000
O O16 0.607456 0.190151 0.874900
O O17 0.500000 0.158167 0.000000
O O18 0.736964 0.500000 0.765103
O O19 0.000000 0.564374 0.000000
#
# Coordination Sequence:
#
# PCOD9153189 Si02
#       7
#     4   4   4   4   4   4   4
#     4  11  22  42  67  96 133 172 218 263 326 391
#     4  10  21  41  67  96 130 169 212 262 330 395
#     4  11  23  41  70  94 130 177 214 269 327 384
#     4  10  21  40  66  94 127 166 208 262 323 384
#     4  12  25  45  66  93 127 172 226 271 324 386
#     4  12  26  42  61  94 129 166 214 271 319 385
#     4   9  20  40  66 100 136 171 216 270 324 388
#
# _framework density 20.604134999999999
#
# number of rings (size 3 to 8) (size 9 to 14) (size 15 to 20)
#    0.000    1.286    2.857    3.000    0.000    4.571 
#    5.143    1.429    0.000    0.000    0.000    0.000 
#    0.000    0.000    0.000    0.000    0.000    0.000 
#
# Total GULP energy -156333.891265 kJ/mol
# GULP energy per Si atom -5583.353259 kJ/mol
# Density = 2.055724 g / cm^3
# Si number density = 20.604135 Si / 1000 Ang^3
#
#
#
# Elastic Constant Matrix: (Units=GPa)
#
#
# Indices 1 2 3 4 5 6 
#
# 1 60.1892 26.5700 35.1451 0.0000 -5.6778 0.0000
# 2 26.5700 84.5016 48.3085 0.0000 -12.1132 0.0000
# 3 35.1451 48.3085 142.9211 0.0000 -22.8002 0.0000
# 4 0.0000 0.0000 0.0000 12.5490 0.0000 4.2208
# 5 -5.6778 -12.1132 -22.8002 0.0000 46.8530 0.0000
# 6 0.0000 0.0000 0.0000 4.2208 0.0000 15.9843
#
#
#
# Elastic Compliance Matrix: (Units=1/GPa)
#
#
# Indices 1 2 3 4 5 6 
#
# 1 0.020677 -0.004483 -0.003637 0.000000 -0.000423 0.000000
# 2 -0.004483 0.015738 -0.003962 0.000000 0.001597 0.000000
# 3 -0.003637 -0.003962 0.009754 0.000000 0.003281 0.000000
# 4 0.000000 0.000000 0.000000 0.087455 0.000000 -0.023093
# 5 -0.000423 0.001597 0.003281 0.000000 0.023302 0.000000
# 6 0.000000 0.000000 0.000000 -0.023093 0.000000 0.068660
#
#
# Mechanical properties :
#
#
# Convention : Reuss Voigt Hill
#
# Bulk Modulus (GPa) = 45.44518 56.40657 50.92588
# Shear Modulus (GPa) = 19.44887 26.91648 23.18268
#
# Velocity S-wave (km/s) = 3.07568 3.61829 3.35796
# Velocity P-wave (km/s) = 5.89214 6.70013 6.30908
#
# Compressibility (1/GPa) = 0.02200453
#
# Stress axis : x y z
#
# Youngs Moduli (GPa) = 48.36320 63.54098 102.52249
#
# Poissons Ratio (x) = 0.28486 0.37285
# Poissons Ratio (y) = 0.21681 0.40623
# Poissons Ratio (z) = 0.17589 0.25177
#
# Static dielectric constant tensor:
#      x y z
#    x 1.726890 0.000000 0.025330 
#    y 0.000000 1.745100 0.000000 
#    z 0.025330 0.000000 1.739830 
# 
# From -- ./inp_files/30405.got.cif
#   From: 2010.05.17/outbox.cif.g08.bks.cpg/sg10_16_cif.got.tgz:30405.got - 2010.06.03 11:33:40.
