data_PCOD9153591
_publ_section_title
;
Structure prediction by ZEFSAII (Michael W. Deem and Ramdas Pophale) SiO2 
 PCOD9153591
Probable space group: P 2/M
;
_chemical_formula_sum "Si O2"
_cell_formula_units_Z 22
_cell_length_a 14.202680
_cell_length_b 18.579878
_cell_length_c 8.182431
_cell_angle_alpha 90.000000
_cell_angle_beta 27.737189
_cell_angle_gamma 90.000000
_cell_volume 1004.933698
_symmetry_space_group_name_H-M "P 2/M"
_symmetry_group_IT_number 10
_symmetry_cell_setting 'monoclinic'
loop_
_space_group_symop_operation_xyz
x,y,z
-x,y,-z
-x,-y,-z
x,-y,z
loop_
_atom_site_type_symbol
_atom_site_label
_atom_site_fract_x
_atom_site_fract_y
_atom_site_fract_z
Si Si1 0.183269 0.500000 0.494712
Si Si2 0.211581 0.198699 0.569618
Si Si3 0.070953 0.921908 0.576090
Si Si4 0.761716 0.354025 0.408805
Si Si5 0.214389 0.500000 0.051755
Si Si6 0.348217 0.920454 0.583896
Si Si7 0.500000 0.376215 0.500000
O O1 0.275817 0.428616 0.435619
O O2 0.179824 0.500000 0.301214
O O3 0.937074 0.500000 0.874981
O O4 0.184976 0.149673 0.451620
O O5 0.269188 0.280354 0.443900
O O6 0.357116 0.148704 0.455483
O O7 0.000000 0.203116 0.000000
O O8 0.000000 0.917862 0.500000
O O9 0.174028 0.000000 0.438562
O O10 0.876206 0.922901 0.994129
O O11 0.628553 0.341233 0.449276
O O12 0.000000 0.358593 0.000000
O O13 0.340868 0.428079 0.832456
O O14 0.500000 0.912665 0.500000
O O15 0.385111 0.000000 0.452838
#
# Coordination Sequence:
#
# PCOD9153591 Si02
#       7
#     2   4   4   4   2   4   2
#     4  11  21  41  61  86 118 147 190 234 286 337
#     4   9  19  34  53  80 109 148 180 224 273 327
#     4   9  17  33  56  79 106 143 185 225 272 330
#     4  11  22  38  59  85 119 151 187 239 281 337
#     4  10  22  39  65  88 107 148 191 239 283 338
#     4   9  17  31  54  80 106 139 182 226 266 320
#     4  11  22  38  64  88 107 150 192 230 285 340
#
# _framework density 21.891991000000001
#
# number of rings (size 3 to 8) (size 9 to 14) (size 15 to 20)
#    0.000    2.182    1.818    1.909    1.273    3.636 
#    3.273    0.909    4.000    4.364    0.000    0.000 
#    0.000    0.000    0.000    0.000    0.000    0.000 
#
# Total GULP energy -122566.225564 kJ/mol
# GULP energy per Si atom -5571.192071 kJ/mol
# Density = 2.184216 g / cm^3
# Si number density = 21.891991 Si / 1000 Ang^3
#
#
#
# Elastic Constant Matrix: (Units=GPa)
#
#
# Indices 1 2 3 4 5 6 
#
# 1 140.2189 73.7085 4.3046 0.0000 -10.9694 0.0000
# 2 73.7085 215.0139 6.9604 0.0000 4.2813 0.0000
# 3 4.3046 6.9604 9.6061 0.0000 -7.9561 0.0000
# 4 0.0000 0.0000 0.0000 -1.9530 0.0000 5.3801
# 5 -10.9694 4.2813 -7.9561 0.0000 23.0716 0.0000
# 6 0.0000 0.0000 0.0000 5.3801 0.0000 -27.6328
#
#
#
# Elastic Compliance Matrix: (Units=1/GPa)
#
#
# Indices 1 2 3 4 5 6 
#
# 1 0.009320 -0.003434 0.003513 0.000000 0.006280 0.000000
# 2 -0.003434 0.006171 -0.007325 0.000000 -0.005304 0.000000
# 3 0.003513 -0.007325 0.154458 0.000000 0.056293 0.000000
# 4 0.000000 0.000000 0.000000 -1.104331 0.000000 -0.215012
# 5 0.006280 -0.005304 0.056293 0.000000 0.066726 0.000000
# 6 0.000000 0.000000 0.000000 -0.215012 0.000000 -0.078052
#
#
# Mechanical properties :
#
#
# Convention : Reuss Voigt Hill
#
# Bulk Modulus (GPa) = 6.43267 59.42065 32.92666
# Shear Modulus (GPa) = -5.68572 17.35484 5.83456
#
# Velocity S-wave (km/s) = -1.61332 2.81863 1.63430
# Velocity P-wave (km/s) = 0.72503 6.14772 4.31676
#
# Compressibility (1/GPa) = 0.15545646
#
# Stress axis : x y z
#
# Youngs Moduli (GPa) = 107.29420 162.05563 6.47425
#
# Poissons Ratio (x) = 0.55646 -0.02274
# Poissons Ratio (y) = 0.36842 0.04742
# Poissons Ratio (z) = -0.37689 1.18708
#
# Static dielectric constant tensor:
#      x y z
#    x 1.789560 0.000000 -0.010090 
#    y 0.000000 1.796350 0.000000 
#    z -0.010090 0.000000 2.066690 
# 
# From -- ./inp_files/30046.got.cif
#   From: 2010.05.17/outbox.cif.g08.bks.cpg/sg10_16_cif.got.tgz:30046.got - 2010.06.03 11:33:40.
