data_PCOD9153957
_publ_section_title
;
Structure prediction by ZEFSAII (Michael W. Deem and Ramdas Pophale) SiO2 
 PCOD9153957
Probable space group: P 2/M
;
_chemical_formula_sum "Si O2"
_cell_formula_units_Z 28
_cell_length_a 16.438443
_cell_length_b 14.239472
_cell_length_c 5.104749
_cell_angle_alpha 90.000000
_cell_angle_beta 80.923948
_cell_angle_gamma 90.000000
_cell_volume 1179.932574
_symmetry_space_group_name_H-M "P 2/M"
_symmetry_group_IT_number 10
_symmetry_cell_setting 'monoclinic'
loop_
_space_group_symop_operation_xyz
x,y,z
-x,y,-z
-x,-y,-z
x,-y,z
loop_
_atom_site_type_symbol
_atom_site_label
_atom_site_fract_x
_atom_site_fract_y
_atom_site_fract_z
Si Si1 0.056749 0.108085 0.228285
Si Si2 0.578018 0.394551 0.299610
Si Si3 0.199446 0.199205 0.868863
Si Si4 0.323218 0.289200 0.155413
Si Si5 0.765231 0.606638 0.426872
Si Si6 0.447982 0.830213 0.267926
Si Si7 0.649061 0.000000 0.928963
Si Si8 0.243929 0.000000 0.618139
O O1 0.130077 0.178167 0.120785
O O2 0.000000 0.136840 0.500000
O O3 0.085040 0.000000 0.263186
O O4 0.000000 0.105697 0.000000
O O5 0.500000 0.352261 0.500000
O O6 0.551184 0.500000 0.255972
O O7 0.668071 0.399171 0.393470
O O8 0.606445 0.348414 0.017496
O O9 0.285001 0.212631 0.979931
O O10 0.192533 0.300774 0.725824
O O11 0.200418 0.101048 0.702156
O O12 0.249045 0.358847 0.268238
O O13 0.367173 0.232910 0.367512
O O14 0.798562 0.500000 0.380090
O O15 0.500000 0.851824 0.500000
O O16 0.407575 0.916183 0.138251
O O17 0.500000 0.789111 0.000000
O O18 0.727551 0.000000 0.695322
O O19 0.679178 0.000000 0.213464
#
# Coordination Sequence:
#
# PCOD9153957 Si02
#       8
#     4   4   4   4   4   4   2   2
#     4  10  23  43  72 113 152 182 217 271 344 423
#     4   9  20  38  59  86 123 168 228 302 367 411
#     4  11  24  44  71 103 140 185 218 291 338 427
#     4  11  24  38  63  91 127 180 238 287 356 406
#     4  10  23  41  65  98 133 182 243 292 348 414
#     4  12  27  41  60  85 125 175 230 292 347 408
#     4  12  24  45  60  87 128 179 231 288 336 422
#     4  12  24  41  70 103 136 169 233 276 348 417
#
# _framework density 23.730169
#
# number of rings (size 3 to 8) (size 9 to 14) (size 15 to 20)
#    0.000    1.286    2.143    2.571    8.000    0.571 
#    0.000    2.143    0.000    2.143    0.000    0.000 
#    0.000    0.000    0.000    0.000    0.000    0.000 
#
# Total GULP energy -156258.928092 kJ/mol
# GULP energy per Si atom -5580.676003 kJ/mol
# Density = 2.367616 g / cm^3
# Si number density = 23.730169 Si / 1000 Ang^3
#
#
#
# Elastic Constant Matrix: (Units=GPa)
#
#
# Indices 1 2 3 4 5 6 
#
# 1 42.6778 28.7614 28.5076 0.0000 -13.4243 0.0000
# 2 28.7614 164.2545 31.9043 0.0000 -33.4767 0.0000
# 3 28.5076 31.9043 116.9499 0.0000 -29.6245 0.0000
# 4 0.0000 0.0000 0.0000 47.2401 0.0000 -24.1852
# 5 -13.4243 -33.4767 -29.6245 0.0000 41.6957 0.0000
# 6 0.0000 0.0000 0.0000 -24.1852 0.0000 27.3764
#
#
#
# Elastic Compliance Matrix: (Units=1/GPa)
#
#
# Indices 1 2 3 4 5 6 
#
# 1 0.030636 -0.003671 -0.005749 0.000000 0.002832 0.000000
# 2 -0.003671 0.007756 0.000069 0.000000 0.005094 0.000000
# 3 -0.005749 0.000069 0.011559 0.000000 0.006417 0.000000
# 4 0.000000 0.000000 0.000000 0.038649 0.000000 0.034143
# 5 0.002832 0.005094 0.006417 0.000000 0.033545 0.000000
# 6 0.000000 0.000000 0.000000 0.034143 0.000000 0.066691
#
#
# Mechanical properties :
#
#
# Convention : Reuss Voigt Hill
#
# Bulk Modulus (GPa) = 32.00029 55.80319 43.90174
# Shear Modulus (GPa) = 22.94085 38.90972 30.92529
#
# Velocity S-wave (km/s) = 3.11261 4.05368 3.61391
# Velocity P-wave (km/s) = 5.14122 6.74363 5.99619
#
# Compressibility (1/GPa) = 0.03124972
#
# Stress axis : x y z
#
# Youngs Moduli (GPa) = 32.64126 128.93827 86.51537
#
# Poissons Ratio (x) = 0.47328 0.49739
# Poissons Ratio (y) = 0.11981 -0.00601
# Poissons Ratio (z) = 0.18766 -0.00895
#
# Static dielectric constant tensor:
#      x y z
#    x 1.963370 0.000000 0.023210 
#    y 0.000000 2.000020 0.000000 
#    z 0.023210 0.000000 2.008510 
# 
# From -- ./inp_files/11281.got.cif
#   From: 2010.05.17/outbox.cif.g08.bks.cpg/sg10_6_cif.got.tgz:11281.got - 2010.06.03 11:33:40.
