data_PCOD9153321
_publ_section_title
;
Structure prediction by ZEFSAII (Michael W. Deem and Ramdas Pophale) SiO2 
 PCOD9153321
Probable space group: P 2/M
;
_chemical_formula_sum "Si O2"
_cell_formula_units_Z 14
_cell_length_a 5.289032
_cell_length_b 20.165008
_cell_length_c 5.040206
_cell_angle_alpha 90.000000
_cell_angle_beta 89.894823
_cell_angle_gamma 90.000000
_cell_volume 537.554063
_symmetry_space_group_name_H-M "P 2/M"
_symmetry_group_IT_number 10
_symmetry_cell_setting 'monoclinic'
loop_
_space_group_symop_operation_xyz
x,y,z
-x,y,-z
-x,-y,-z
x,-y,z
loop_
_atom_site_type_symbol
_atom_site_label
_atom_site_fract_x
_atom_site_fract_y
_atom_site_fract_z
Si Si1 0.250863 0.386274 0.685547
Si Si2 0.751563 0.093493 0.149977
Si Si3 0.749603 0.239497 0.321338
Si Si4 0.500000 0.000000 0.500000
Si Si5 0.000000 0.500000 0.000000
O O1 0.500000 0.395712 0.500000
O O2 0.256898 0.312265 0.807831
O O3 0.200460 0.442133 0.900647
O O4 0.000000 0.391219 0.500000
O O5 0.750534 0.173017 0.152657
O O6 0.709641 0.058875 0.430232
O O7 0.500000 0.069455 0.000000
O O8 0.000000 0.072130 0.000000
O O9 0.500000 0.235989 0.500000
O O10 0.000000 0.237034 0.500000
#
# Coordination Sequence:
#
# PCOD9153321 Si02
#       5
#     4   4   4   1   1
#     4  10  24  43  66  97 136 172 224 272 328 397
#     4  12  27  45  73 103 134 175 230 274 331 404
#     4  10  21  45  70  97 135 179 217 281 335 389
#     4  12  28  50  68 100 142 182 210 286 338 398
#     4  12  24  42  68 100 128 188 208 286 324 396
#
# _framework density 26.043889
#
# number of rings (size 3 to 8) (size 9 to 14) (size 15 to 20)
#    0.000    1.143    1.429    3.429    2.000    3.429 
#    0.000    0.000    0.000    0.000    0.000    0.000 
#    0.000    0.000    0.000    0.000    0.000    0.000 
#
# Total GULP energy -77943.238816 kJ/mol
# GULP energy per Si atom -5567.374201 kJ/mol
# Density = 2.598461 g / cm^3
# Si number density = 26.043889 Si / 1000 Ang^3
#
#
#
# Elastic Constant Matrix: (Units=GPa)
#
#
# Indices 1 2 3 4 5 6 
#
# 1 244.8122 52.1217 63.7098 0.0000 -48.0568 0.0000
# 2 52.1217 281.6672 45.1246 0.0000 -43.6414 0.0000
# 3 63.7098 45.1246 57.6687 0.0000 -36.7622 0.0000
# 4 0.0000 0.0000 0.0000 122.8908 0.0000 -25.8310
# 5 -48.0568 -43.6414 -36.7622 0.0000 76.8970 0.0000
# 6 0.0000 0.0000 0.0000 -25.8310 0.0000 43.6757
#
#
#
# Elastic Compliance Matrix: (Units=1/GPa)
#
#
# Indices 1 2 3 4 5 6 
#
# 1 0.005767 -0.000005 -0.005857 0.000000 0.000802 0.000000
# 2 -0.000005 0.004128 -0.002493 0.000000 0.001148 0.000000
# 3 -0.005857 -0.002493 0.032401 0.000000 0.010415 0.000000
# 4 0.000000 0.000000 0.000000 0.009293 0.000000 0.005496
# 5 0.000802 0.001148 0.010415 0.000000 0.019136 0.000000
# 6 0.000000 0.000000 0.000000 0.005496 0.000000 0.026146
#
#
# Mechanical properties :
#
#
# Convention : Reuss Voigt Hill
#
# Bulk Modulus (GPa) = 39.08257 100.67338 69.87797
# Shear Modulus (GPa) = 40.94677 76.90549 58.92613
#
# Velocity S-wave (km/s) = 3.96943 5.43997 4.76181
# Velocity P-wave (km/s) = 6.00395 8.84290 7.55792
#
# Compressibility (1/GPa) = 0.02558685
#
# Stress axis : x y z
#
# Youngs Moduli (GPa) = 173.39201 242.21877 30.86360
#
# Poissons Ratio (x) = 0.00115 0.18076
# Poissons Ratio (y) = 0.00082 0.07695
# Poissons Ratio (z) = 1.01550 0.60394
#
# Static dielectric constant tensor:
#      x y z
#    x 2.019990 0.000000 0.126420 
#    y 0.000000 2.013160 0.000000 
#    z 0.126420 0.000000 2.263220 
# 
# From -- ./inp_files/1104.got.cif
#   From: 2010.05.17/outbox.cif.g08.bks.cpg/sg10_1_cif.got.tgz:1104.got - 2010.06.03 11:33:40.
