data_PCOD9153822
_publ_section_title
;
Structure prediction by ZEFSAII (Michael W. Deem and Ramdas Pophale) SiO2 
 PCOD9153822
Probable space group: P 2/M
;
_chemical_formula_sum "Si O2"
_cell_formula_units_Z 16
_cell_length_a 8.382607
_cell_length_b 17.509700
_cell_length_c 8.664921
_cell_angle_alpha 90.000000
_cell_angle_beta 32.118806
_cell_angle_gamma 90.000000
_cell_volume 676.191900
_symmetry_space_group_name_H-M "P 2/M"
_symmetry_group_IT_number 10
_symmetry_cell_setting 'monoclinic'
loop_
_space_group_symop_operation_xyz
x,y,z
-x,y,-z
-x,-y,-z
x,-y,z
loop_
_atom_site_type_symbol
_atom_site_label
_atom_site_fract_x
_atom_site_fract_y
_atom_site_fract_z
Si Si1 0.711039 0.587836 0.628930
Si Si2 0.665305 0.085231 0.214886
Si Si3 0.925997 0.332796 0.885974
Si Si4 0.813570 0.812181 0.800299
O O1 0.637809 0.500000 0.722408
O O2 0.409562 0.637660 0.876310
O O3 0.000000 0.609289 0.500000
O O4 0.850749 0.600109 0.346362
O O5 0.500000 0.121610 0.500000
O O6 0.530690 0.000000 0.300486
O O7 0.705078 0.129142 0.021526
O O8 0.000000 0.077024 0.000000
O O9 0.992583 0.256776 0.732276
O O10 0.000000 0.312904 0.000000
O O11 0.000000 0.842767 0.500000
O O12 0.500000 0.778863 0.000000
#
# Coordination Sequence:
#
# PCOD9153822 Si02
#       4
#     4   4   4   4
#     4  11  24  43  66  92 126 168 215 271 334 395
#     4  10  22  42  67  95 130 170 213 264 324 388
#     4  12  25  41  64  93 128 170 219 272 327 390
#     4  12  25  41  65  95 132 173 218 271 324 387
#
# _framework density 23.661921
#
# number of rings (size 3 to 8) (size 9 to 14) (size 15 to 20)
#    0.000    0.750    0.000    8.250    0.000    8.000 
#    0.000    0.000    0.000    0.000    0.000    0.000 
#    0.000    0.000    0.000    0.000    0.000    0.000 
#
# Total GULP energy -89359.520716 kJ/mol
# GULP energy per Si atom -5584.970045 kJ/mol
# Density = 2.360807 g / cm^3
# Si number density = 23.661921 Si / 1000 Ang^3
#
#
#
# Elastic Constant Matrix: (Units=GPa)
#
#
# Indices 1 2 3 4 5 6 
#
# 1 96.4584 49.7890 44.9627 0.0000 27.1437 0.0000
# 2 49.7890 90.6364 36.0981 0.0000 26.1562 0.0000
# 3 44.9627 36.0981 163.5212 0.0000 26.5686 0.0000
# 4 0.0000 0.0000 0.0000 10.0950 0.0000 -6.4972
# 5 27.1437 26.1562 26.5686 0.0000 53.3252 0.0000
# 6 0.0000 0.0000 0.0000 -6.4972 0.0000 35.4440
#
#
#
# Elastic Compliance Matrix: (Units=1/GPa)
#
#
# Indices 1 2 3 4 5 6 
#
# 1 0.015980 -0.006810 -0.002298 0.000000 -0.003649 0.000000
# 2 -0.006810 0.016367 -0.001087 0.000000 -0.004020 0.000000
# 3 -0.002298 -0.001087 0.007302 0.000000 -0.001935 0.000000
# 4 0.000000 0.000000 0.000000 0.112309 0.000000 0.020587
# 5 -0.003649 -0.004020 -0.001935 0.000000 0.023546 0.000000
# 6 0.000000 0.000000 0.000000 0.020587 0.000000 0.031987
#
#
# Mechanical properties :
#
#
# Convention : Reuss Voigt Hill
#
# Bulk Modulus (GPa) = 51.92528 68.03509 59.98018
# Shear Modulus (GPa) = 21.34001 34.42392 27.88197
#
# Velocity S-wave (km/s) = 3.00638 3.81835 3.43643
# Velocity P-wave (km/s) = 5.83467 6.94659 6.41477
#
# Compressibility (1/GPa) = 0.01925844
#
# Stress axis : x y z
#
# Youngs Moduli (GPa) = 62.57694 61.09740 136.95501
#
# Poissons Ratio (x) = 0.41609 0.31469
# Poissons Ratio (y) = 0.42616 0.14893
# Poissons Ratio (z) = 0.14379 0.06644
#
# Static dielectric constant tensor:
#      x y z
#    x 1.938670 0.000000 0.061510 
#    y 0.000000 1.878940 0.000000 
#    z 0.061510 0.000000 1.985940 
# 
# From -- ./inp_files/19451.got.cif
#   From: 2010.05.17/outbox.cif.g08.bks.cpg/sg10_10_cif.got.tgz:19451.got - 2010.06.03 11:33:40.
