data_PCOD9153263
_publ_section_title
;
Structure prediction by ZEFSAII (Michael W. Deem and Ramdas Pophale) SiO2 
 PCOD9153263
Probable space group: P 2/M
;
_chemical_formula_sum "Si O2"
_cell_formula_units_Z 28
_cell_length_a 27.587829
_cell_length_b 8.977473
_cell_length_c 9.375813
_cell_angle_alpha 90.000000
_cell_angle_beta 142.131118
_cell_angle_gamma 90.000000
_cell_volume 1425.435148
_symmetry_space_group_name_H-M "P 2/M"
_symmetry_group_IT_number 10
_symmetry_cell_setting 'monoclinic'
loop_
_space_group_symop_operation_xyz
x,y,z
-x,y,-z
-x,-y,-z
x,-y,z
loop_
_atom_site_type_symbol
_atom_site_label
_atom_site_fract_x
_atom_site_fract_y
_atom_site_fract_z
Si Si1 0.477935 0.820427 0.286531
Si Si2 0.629212 0.178115 0.445814
Si Si3 0.194682 0.677857 0.637366
Si Si4 0.074803 0.672174 0.779817
Si Si5 0.975764 0.830450 0.779709
Si Si6 0.228167 0.822764 0.007075
Si Si7 0.660250 0.322137 0.211972
O O1 0.500000 0.777525 0.500000
O O2 0.549214 0.782541 0.343982
O O3 0.468101 0.000000 0.262817
O O4 0.399903 0.745193 0.043411
O O5 0.701770 0.211351 0.720135
O O6 0.640187 0.257319 0.320295
O O7 0.627835 0.000000 0.417703
O O8 0.184430 0.500000 0.622440
O O9 0.109622 0.755077 0.433275
O O10 0.250927 0.713962 0.634269
O O11 0.236594 0.737315 0.877645
O O12 0.099579 0.500000 0.850373
O O13 0.000000 0.678355 0.500000
O O14 0.041269 0.737624 0.847737
O O15 0.146031 0.768822 0.884281
O O16 0.972381 0.000000 0.715608
O O17 0.000000 0.834644 0.000000
O O18 0.227616 0.000000 0.980370
O O19 0.652573 0.500000 0.196165
#
# Coordination Sequence:
#
# PCOD9153263 Si02
#       7
#     4   4   4   4   4   4   4
#     4  10  21  41  68  94 123 161 205 249 302 362
#     4  10  23  41  63  93 125 160 203 251 304 362
#     4  11  24  42  61  88 123 163 206 250 309 373
#     4  11  23  40  63  91 124 164 204 250 311 372
#     4  11  25  42  63  91 121 158 209 262 308 360
#     4  11  23  40  65  93 121 158 208 260 306 359
#     4  11  25  41  61  92 128 164 203 249 303 363
#
# _framework density 19.643125999999999
#
# number of rings (size 3 to 8) (size 9 to 14) (size 15 to 20)
#    0.000    1.286    1.429    3.429    2.000    8.857 
#    0.000    0.000    0.000    0.000    0.000    0.000 
#    0.000    0.000    0.000    0.000    0.000    0.000 
#
# Total GULP energy -156597.823925 kJ/mol
# GULP energy per Si atom -5592.779426 kJ/mol
# Density = 1.959842 g / cm^3
# Si number density = 19.643126 Si / 1000 Ang^3
#
#
#
# Elastic Constant Matrix: (Units=GPa)
#
#
# Indices 1 2 3 4 5 6 
#
# 1 92.8826 5.8822 8.1332 0.0000 -7.2679 0.0000
# 2 5.8822 28.3422 16.2424 0.0000 -2.1164 0.0000
# 3 8.1332 16.2424 49.1438 0.0000 -1.3362 0.0000
# 4 0.0000 0.0000 0.0000 -237.3592 0.0000 34.2594
# 5 -7.2679 -2.1164 -1.3362 0.0000 34.7242 0.0000
# 6 0.0000 0.0000 0.0000 34.2594 0.0000 26.8210
#
#
#
# Elastic Compliance Matrix: (Units=1/GPa)
#
#
# Indices 1 2 3 4 5 6 
#
# 1 0.011142 -0.001389 -0.001325 0.000000 0.002196 0.000000
# 2 -0.001389 0.043854 -0.014214 0.000000 0.001835 0.000000
# 3 -0.001325 -0.014214 0.025261 0.000000 -0.000172 0.000000
# 4 0.000000 0.000000 0.000000 -0.003557 0.000000 0.004544
# 5 0.002196 0.001835 -0.000172 0.000000 0.029363 0.000000
# 6 0.000000 0.000000 0.000000 0.004544 0.000000 0.031480
#
#
# Mechanical properties :
#
#
# Convention : Reuss Voigt Hill
#
# Bulk Modulus (GPa) = 21.55158 25.65381 23.60270
# Shear Modulus (GPa) = 26.75684 -25.82208 0.46738
#
# Velocity S-wave (km/s) = 3.69473 -3.62962 0.48831
# Velocity P-wave (km/s) = 5.40340 2.11595 3.51565
#
# Compressibility (1/GPa) = 0.04640031
#
# Stress axis : x y z
#
# Youngs Moduli (GPa) = 89.74928 22.80273 39.58660
#
# Poissons Ratio (x) = 0.03167 0.05246
# Poissons Ratio (y) = 0.12466 0.56270
# Poissons Ratio (z) = 0.11894 0.32413
#
# Static dielectric constant tensor:
#      x y z
#    x 1.689280 0.000000 -0.005760 
#    y 0.000000 1.662010 0.000000 
#    z -0.005760 0.000000 1.667950 
# 
# From -- ./inp_files/37252.got.cif
#   From: 2010.05.17/outbox.cif.g08.bks.cpg/sg10_19_cif.got.tgz:37252.got - 2010.06.03 11:33:40.
