data_PCOD9153195
_publ_section_title
;
Structure prediction by ZEFSAII (Michael W. Deem and Ramdas Pophale) SiO2 
 PCOD9153195
Probable space group: P 2/M
;
_chemical_formula_sum "Si O2"
_cell_formula_units_Z 21
_cell_length_a 21.071152
_cell_length_b 7.585181
_cell_length_c 10.684476
_cell_angle_alpha 90.000000
_cell_angle_beta 34.751758
_cell_angle_gamma 90.000000
_cell_volume 973.417284
_symmetry_space_group_name_H-M "P 2/M"
_symmetry_group_IT_number 10
_symmetry_cell_setting 'monoclinic'
loop_
_space_group_symop_operation_xyz
x,y,z
-x,y,-z
-x,-y,-z
x,-y,z
loop_
_atom_site_type_symbol
_atom_site_label
_atom_site_fract_x
_atom_site_fract_y
_atom_site_fract_z
Si Si1 0.785019 0.288371 0.940290
Si Si2 0.919708 0.198060 0.959478
Si Si3 0.535416 0.699589 0.298921
Si Si4 0.143485 0.289101 0.443750
Si Si5 0.315269 0.000000 0.254504
Si Si6 0.000000 0.500000 0.000000
Si Si7 0.549028 0.000000 0.725769
O O1 0.781969 0.500000 0.960470
O O2 0.862973 0.250569 0.694429
O O3 0.824593 0.214023 0.007789
O O4 0.662139 0.231758 0.096807
O O5 0.032388 0.239088 0.697717
O O6 0.921136 0.344907 0.063732
O O7 0.920543 0.000000 0.007365
O O8 0.500000 0.693643 0.500000
O O9 0.535082 0.500000 0.248557
O O10 0.456414 0.827354 0.350581
O O11 0.161596 0.500000 0.429326
O O12 0.243068 0.171296 0.336352
O O13 0.349236 0.000000 0.344266
O O14 0.432167 0.000000 0.991363
#
# Coordination Sequence:
#
# PCOD9153195 Si02
#       7
#     4   4   4   4   2   1   2
#     4  10  21  40  67 100 129 167 216 270 327 376
#     4  12  25  42  70  96 130 177 212 263 327 386
#     4  10  22  42  65  94 130 171 222 269 319 383
#     4  11  22  42  68  98 133 165 216 272 324 387
#     4  11  24  40  64  99 131 171 219 262 337 382
#     4  12  26  52  54  90 146 174 214 262 304 406
#     4  11  23  42  63  93 136 172 212 277 323 382
#
# _framework density 21.573481999999998
#
# number of rings (size 3 to 8) (size 9 to 14) (size 15 to 20)
#    0.000    1.143    4.762    1.143    2.667    3.048 
#    3.429    1.905    0.000    0.000    0.000    0.000 
#    0.000    0.000    0.000    0.000    0.000    0.000 
#
# Total GULP energy -117169.125235 kJ/mol
# GULP energy per Si atom -5579.482154 kJ/mol
# Density = 2.152438 g / cm^3
# Si number density = 21.573482 Si / 1000 Ang^3
#
#
#
# Elastic Constant Matrix: (Units=GPa)
#
#
# Indices 1 2 3 4 5 6 
#
# 1 136.3571 69.5648 -16.8280 0.0000 19.1224 0.0000
# 2 69.5648 164.3416 -7.4338 0.0000 14.6368 0.0000
# 3 -16.8280 -7.4338 20.9212 0.0000 -6.3761 0.0000
# 4 0.0000 0.0000 0.0000 45.2029 0.0000 -3.5227
# 5 19.1224 14.6368 -6.3761 0.0000 18.2303 0.0000
# 6 0.0000 0.0000 0.0000 -3.5227 0.0000 46.6383
#
#
#
# Elastic Compliance Matrix: (Units=1/GPa)
#
#
# Indices 1 2 3 4 5 6 
#
# 1 0.010824 -0.003764 0.005406 0.000000 -0.006441 0.000000
# 2 -0.003764 0.007874 -0.001067 0.000000 -0.002748 0.000000
# 3 0.005406 -0.001067 0.056302 0.000000 0.014878 0.000000
# 4 0.000000 0.000000 0.000000 0.022253 0.000000 0.001681
# 5 -0.006441 -0.002748 0.014878 0.000000 0.069020 0.000000
# 6 0.000000 0.000000 0.000000 0.001681 0.000000 0.021569
#
#
# Mechanical properties :
#
#
# Convention : Reuss Voigt Hill
#
# Bulk Modulus (GPa) = 13.13156 45.80286 29.46721
# Shear Modulus (GPa) = 23.57657 40.43544 32.00600
#
# Velocity S-wave (km/s) = 3.30941 4.33403 3.85591
# Velocity P-wave (km/s) = 4.55006 6.80605 5.78901
#
# Compressibility (1/GPa) = 0.07615243
#
# Stress axis : x y z
#
# Youngs Moduli (GPa) = 92.38523 126.99288 17.76133
#
# Poissons Ratio (x) = 0.47795 -0.09602
# Poissons Ratio (y) = 0.34770 0.01894
# Poissons Ratio (z) = -0.49944 0.13546
#
# Static dielectric constant tensor:
#      x y z
#    x 1.758210 0.000000 0.008230 
#    y 0.000000 1.749670 0.000000 
#    z 0.008230 0.000000 1.833930 
# 
# From -- ./inp_files/31492.got.cif
#   From: 2010.05.17/outbox.cif.g08.bks.cpg/sg10_16_cif.got.tgz:31492.got - 2010.06.03 11:33:40.
