data_PCOD9153023
_publ_section_title
;
Structure prediction by ZEFSAII (Michael W. Deem and Ramdas Pophale) SiO2 
 PCOD9153023
Probable space group: P 2/M
;
_chemical_formula_sum "Si O2"
_cell_formula_units_Z 25
_cell_length_a 10.983038
_cell_length_b 9.352848
_cell_length_c 23.397265
_cell_angle_alpha 90.000000
_cell_angle_beta 30.809019
_cell_angle_gamma 90.000000
_cell_volume 1230.984075
_symmetry_space_group_name_H-M "P 2/M"
_symmetry_group_IT_number 10
_symmetry_cell_setting 'monoclinic'
loop_
_space_group_symop_operation_xyz
x,y,z
-x,y,-z
-x,-y,-z
x,-y,z
loop_
_atom_site_type_symbol
_atom_site_label
_atom_site_fract_x
_atom_site_fract_y
_atom_site_fract_z
Si Si1 0.003565 0.330629 0.638356
Si Si2 0.108754 0.826128 0.714198
Si Si3 0.538179 0.163196 0.825295
Si Si4 0.244438 0.763407 0.837089
Si Si5 0.800800 0.838349 0.941132
Si Si6 0.483787 0.669728 0.380418
Si Si7 0.000000 0.500000 0.000000
O O1 0.986881 0.500000 0.657099
O O2 0.072012 0.242414 0.667434
O O3 0.211613 0.310091 0.508293
O O4 0.751718 0.265907 0.721854
O O5 0.347087 0.759841 0.645363
O O6 0.892368 0.778857 0.843945
O O7 0.117636 0.000000 0.709612
O O8 0.351927 0.158918 0.848551
O O9 0.619755 0.000000 0.803581
O O10 0.404730 0.224170 0.935632
O O11 0.449986 0.723281 0.709275
O O12 0.038359 0.840777 0.884274
O O13 0.121915 0.622921 0.910858
O O14 0.723568 0.000000 0.960805
O O15 0.538832 0.500000 0.363278
#
# Coordination Sequence:
#
# PCOD9153023 Si02
#       7
#     4   4   4   4   4   4   1
#     4  11  25  41  57  81 117 161 196 235 286 346
#     4  10  21  39  64  89 113 146 194 246 291 341
#     4  11  23  39  60  84 120 158 194 238 287 347
#     4  11  21  36  61  92 117 148 190 239 287 342
#     4   9  19  37  61  87 114 146 187 240 296 342
#     4  10  22  40  61  85 118 153 192 235 289 344
#     4  12  20  32  62  94 120 148 184 246 282 348
#
# _framework density 20.308954
#
# number of rings (size 3 to 8) (size 9 to 14) (size 15 to 20)
#    0.000    1.600    2.400    1.920    1.120    6.400 
#    0.000    5.600    0.000    0.000    0.000    0.000 
#    0.000    0.000    0.000    0.000    0.000    0.000 
#
# Total GULP energy -139267.655331 kJ/mol
# GULP energy per Si atom -5570.706213 kJ/mol
# Density = 2.026273 g / cm^3
# Si number density = 20.308954 Si / 1000 Ang^3
#
#
#
# Elastic Constant Matrix: (Units=GPa)
#
#
# Indices 1 2 3 4 5 6 
#
# 1 671.0681 -14.2637 -737.9814 0.0000 256.0769 0.0000
# 2 -14.2637 86.3202 56.9187 0.0000 -4.1225 0.0000
# 3 -737.9814 56.9187 1020.1137 0.0000 -274.3828 0.0000
# 4 0.0000 0.0000 0.0000 25.3823 0.0000 -17.9583
# 5 256.0769 -4.1225 -274.3828 0.0000 119.0364 0.0000
# 6 0.0000 0.0000 0.0000 -17.9583 0.0000 22.7904
#
#
#
# Elastic Compliance Matrix: (Units=1/GPa)
#
#
# Indices 1 2 3 4 5 6 
#
# 1 0.016156 -0.002547 0.006468 0.000000 -0.019935 0.000000
# 2 -0.002547 0.012843 -0.002542 0.000000 0.000066 0.000000
# 3 0.006468 -0.002542 0.005355 0.000000 -0.001658 0.000000
# 4 0.000000 0.000000 0.000000 0.089035 0.000000 0.070157
# 5 -0.019935 0.000066 -0.001658 0.000000 0.047466 0.000000
# 6 0.000000 0.000000 0.000000 0.070157 0.000000 0.099161
#
#
# Mechanical properties :
#
#
# Convention : Reuss Voigt Hill
#
# Bulk Modulus (GPa) = 26.94568 42.98325 34.96447
# Shear Modulus (GPa) = 17.88093 198.29706 108.08900
#
# Velocity S-wave (km/s) = 2.97045 9.89203 7.30328
# Velocity P-wave (km/s) = 5.00614 12.31585 9.40058
#
# Compressibility (1/GPa) = 0.03711170
#
# Stress axis : x y z
#
# Youngs Moduli (GPa) = 61.89753 77.86420 186.73973
#
# Poissons Ratio (x) = 0.19834 -1.20778
# Poissons Ratio (y) = 0.15767 0.47460
# Poissons Ratio (z) = -0.40034 0.19789
#
# Static dielectric constant tensor:
#      x y z
#    x 1.729850 0.000000 -0.006520 
#    y 0.000000 1.702920 0.000000 
#    z -0.006520 0.000000 1.741050 
# 
# From -- ./inp_files/45225.got.cif
#   From: 2010.05.17/outbox.cif.g08.bks.cpg/sg10_23_cif.got.tgz:45225.got - 2010.06.03 11:33:40.
