data_PCOD9153443
_publ_section_title
;
Structure prediction by ZEFSAII (Michael W. Deem and Ramdas Pophale) SiO2 
 PCOD9153443
Probable space group: P 2/M
;
_chemical_formula_sum "Si O2"
_cell_formula_units_Z 18
_cell_length_a 8.329518
_cell_length_b 10.204290
_cell_length_c 12.505699
_cell_angle_alpha 90.000000
_cell_angle_beta 57.685737
_cell_angle_gamma 90.000000
_cell_volume 898.325091
_symmetry_space_group_name_H-M "P 2/M"
_symmetry_group_IT_number 10
_symmetry_cell_setting 'monoclinic'
loop_
_space_group_symop_operation_xyz
x,y,z
-x,y,-z
-x,-y,-z
x,-y,z
loop_
_atom_site_type_symbol
_atom_site_label
_atom_site_fract_x
_atom_site_fract_y
_atom_site_fract_z
Si Si1 0.594423 0.146878 0.080946
Si Si2 0.104844 0.846513 0.567674
Si Si3 0.009516 0.147977 0.836899
Si Si4 0.668354 0.647505 0.220119
Si Si5 0.500000 0.283877 0.500000
O O1 0.817937 0.148454 0.972550
O O2 0.542545 0.000000 0.138340
O O3 0.500000 0.167043 0.000000
O O4 0.552123 0.262127 0.178678
O O5 0.978392 0.833755 0.720573
O O6 0.312457 0.793857 0.526999
O O7 0.000000 0.789227 0.500000
O O8 0.131840 0.000000 0.537037
O O9 0.144620 0.264947 0.825457
O O10 0.095423 0.000000 0.817542
O O11 0.704674 0.500000 0.168273
O O12 0.566130 0.641516 0.370828
#
# Coordination Sequence:
#
# PCOD9153443 Si02
#       5
#     4   4   4   4   2
#     4  10  22  38  60  88 119 152 190 241 299 353
#     4   9  18  32  57  89 119 152 196 247 294 352
#     4   9  19  37  58  85 116 149 192 241 298 351
#     4  11  23  39  60  83 116 157 199 243 289 349
#     4  10  22  38  58  82 121 160 199 242 301 350
#
# _framework density 20.037289999999999
#
# number of rings (size 3 to 8) (size 9 to 14) (size 15 to 20)
#    0.000    2.222    0.000    2.000    3.111    6.667 
#    0.000    0.000    0.000    3.333    0.000    0.000 
#    0.000    0.000    0.000    0.000    0.000    0.000 
#
# Total GULP energy -100351.133643 kJ/mol
# GULP energy per Si atom -5575.062980 kJ/mol
# Density = 1.999168 g / cm^3
# Si number density = 20.037290 Si / 1000 Ang^3
#
#
#
# Elastic Constant Matrix: (Units=GPa)
#
#
# Indices 1 2 3 4 5 6 
#
# 1 77.9254 45.0626 29.6619 0.0000 30.8028 0.0000
# 2 45.0626 149.0431 47.8729 0.0000 25.6521 0.0000
# 3 29.6619 47.8729 80.0705 0.0000 21.3729 0.0000
# 4 0.0000 0.0000 0.0000 17.7668 0.0000 -20.5522
# 5 30.8028 25.6521 21.3729 0.0000 35.2645 0.0000
# 6 0.0000 0.0000 0.0000 -20.5522 0.0000 53.3543
#
#
#
# Elastic Compliance Matrix: (Units=1/GPa)
#
#
# Indices 1 2 3 4 5 6 
#
# 1 0.021462 -0.003245 -0.001952 0.000000 -0.015203 0.000000
# 2 -0.003245 0.009200 -0.003900 0.000000 -0.001494 0.000000
# 3 -0.001952 -0.003900 0.017097 0.000000 -0.005820 0.000000
# 4 0.000000 0.000000 0.000000 0.101522 0.000000 0.039107
# 5 -0.015203 -0.001494 -0.005820 0.000000 0.046251 0.000000
# 6 0.000000 0.000000 0.000000 0.039107 0.000000 0.033807
#
#
# Mechanical properties :
#
#
# Convention : Reuss Voigt Hill
#
# Bulk Modulus (GPa) = 33.82338 61.35931 47.59135
# Shear Modulus (GPa) = 19.42582 33.57324 26.49953
#
# Velocity S-wave (km/s) = 3.11703 4.09777 3.64058
# Velocity P-wave (km/s) = 5.46547 7.28547 6.44009
#
# Compressibility (1/GPa) = 0.02956534
#
# Stress axis : x y z
#
# Youngs Moduli (GPa) = 46.59398 108.69008 58.48861
#
# Poissons Ratio (x) = 0.35274 0.11418
# Poissons Ratio (y) = 0.15121 0.22809
# Poissons Ratio (z) = 0.09096 0.42386
#
# Static dielectric constant tensor:
#      x y z
#    x 1.770310 0.000000 0.029430 
#    y 0.000000 1.685350 0.000000 
#    z 0.029430 0.000000 1.748150 
# 
# From -- ./inp_files/22389.got.cif
#   From: 2010.05.17/outbox.cif.g08.bks.cpg/sg10_12_cif.got.tgz:22389.got - 2010.06.03 11:33:40.
