data_PCOD9153983
_publ_section_title
;
Structure prediction by ZEFSAII (Michael W. Deem and Ramdas Pophale) SiO2 
 PCOD9153983
Probable space group: P 2/M
;
_chemical_formula_sum "Si O2"
_cell_formula_units_Z 28
_cell_length_a 15.011809
_cell_length_b 8.537237
_cell_length_c 11.167925
_cell_angle_alpha 90.000000
_cell_angle_beta 112.704135
_cell_angle_gamma 90.000000
_cell_volume 1320.365143
_symmetry_space_group_name_H-M "P 2/M"
_symmetry_group_IT_number 10
_symmetry_cell_setting 'monoclinic'
loop_
_space_group_symop_operation_xyz
x,y,z
-x,y,-z
-x,-y,-z
x,-y,z
loop_
_atom_site_type_symbol
_atom_site_label
_atom_site_fract_x
_atom_site_fract_y
_atom_site_fract_z
Si Si1 0.588266 0.823692 0.952730
Si Si2 0.951478 0.688725 0.849465
Si Si3 0.257827 0.687067 0.339344
Si Si4 0.658103 0.820109 0.392652
Si Si5 0.542372 0.320180 0.686736
Si Si6 0.046671 0.811780 0.652264
Si Si7 0.260899 0.317703 0.798207
O O1 0.564303 0.701923 0.837571
O O2 0.593575 0.000000 0.904903
O O3 0.500000 0.821428 0.000000
O O4 0.685908 0.778757 0.070757
O O5 0.963740 0.500000 0.851226
O O6 0.837031 0.723728 0.786265
O O7 0.993875 0.755404 0.746821
O O8 0.000000 0.742719 0.000000
O O9 0.256576 0.500000 0.363985
O O10 0.263127 0.780391 0.466054
O O11 0.357625 0.723075 0.324445
O O12 0.551723 0.782840 0.388002
O O13 0.676779 0.710343 0.289132
O O14 0.664121 0.000000 0.357396
O O15 0.519003 0.500000 0.646109
O O16 0.154706 0.745422 0.716395
O O17 0.000000 0.761384 0.500000
O O18 0.048411 0.000000 0.653209
O O19 0.258027 0.500000 0.828169
#
# Coordination Sequence:
#
# PCOD9153983 Si02
#       7
#     4   4   4   4   4   4   4
#     4  11  23  40  62  92 130 168 208 262 321 380
#     4  10  23  44  69  97 131 172 221 276 330 392
#     4  10  23  42  64  92 127 167 214 263 315 378
#     4  12  24  40  62  93 130 168 211 263 321 380
#     4  11  23  39  63  93 127 170 216 259 311 380
#     4  11  25  45  69 100 135 171 217 277 337 399
#     4  12  25  41  67  95 126 169 215 264 321 385
#
# _framework density 21.206254999999999
#
# number of rings (size 3 to 8) (size 9 to 14) (size 15 to 20)
#    0.000    1.000    1.429    5.143    2.000    7.714 
#    0.000    0.000    0.000    0.000    0.000    0.000 
#    0.000    0.000    0.000    0.000    0.000    0.000 
#
# Total GULP energy -156588.259070 kJ/mol
# GULP energy per Si atom -5592.437824 kJ/mol
# Density = 2.115799 g / cm^3
# Si number density = 21.206255 Si / 1000 Ang^3
#
#
#
# Elastic Constant Matrix: (Units=GPa)
#
#
# Indices 1 2 3 4 5 6 
#
# 1 78.9652 19.0412 32.0833 0.0000 12.6730 0.0000
# 2 19.0412 41.7410 24.9579 0.0000 5.0126 0.0000
# 3 32.0833 24.9579 130.4738 0.0000 18.0546 0.0000
# 4 0.0000 0.0000 0.0000 123.9675 0.0000 59.9463
# 5 12.6730 5.0126 18.0546 0.0000 39.6270 0.0000
# 6 0.0000 0.0000 0.0000 59.9463 0.0000 15.0664
#
#
#
# Elastic Compliance Matrix: (Units=1/GPa)
#
#
# Indices 1 2 3 4 5 6 
#
# 1 0.015390 -0.005238 -0.002341 0.000000 -0.003193 0.000000
# 2 -0.005238 0.028882 -0.004230 0.000000 -0.000051 0.000000
# 3 -0.002341 -0.004230 0.009468 0.000000 -0.003030 0.000000
# 4 0.000000 0.000000 0.000000 -0.008730 0.000000 0.034735
# 5 -0.003193 -0.000051 -0.003030 0.000000 0.027644 0.000000
# 6 0.000000 0.000000 0.000000 0.034735 0.000000 -0.071832
#
#
# Mechanical properties :
#
#
# Convention : Reuss Voigt Hill
#
# Bulk Modulus (GPa) = 33.19584 44.81608 39.00596
# Shear Modulus (GPa) = 145.01229 47.40535 96.20882
#
# Velocity S-wave (km/s) = 8.27830 4.73318 6.74289
# Velocity P-wave (km/s) = 10.34705 7.14492 8.89133
#
# Compressibility (1/GPa) = 0.03012425
#
# Stress axis : x y z
#
# Youngs Moduli (GPa) = 64.97624 34.62397 105.61494
#
# Poissons Ratio (x) = 0.18135 0.24721
# Poissons Ratio (y) = 0.34032 0.44672
# Poissons Ratio (z) = 0.15209 0.14645
#
# Static dielectric constant tensor:
#      x y z
#    x 1.762520 0.000000 -0.009090 
#    y 0.000000 1.714120 0.000000 
#    z -0.009090 0.000000 1.768800 
# 
# From -- ./inp_files/50035.got.cif
#   From: 2010.05.17/outbox.cif.g08.bks.cpg/sg10_26_cif.got.tgz:50035.got - 2010.06.03 11:33:40.
