data_PCOD9153057
_publ_section_title
;
Structure prediction by ZEFSAII (Michael W. Deem and Ramdas Pophale) SiO2 
 PCOD9153057
Probable space group: P 2/M
;
_chemical_formula_sum "Si O2"
_cell_formula_units_Z 30
_cell_length_a 11.274593
_cell_length_b 7.622700
_cell_length_c 22.146007
_cell_angle_alpha 90.000000
_cell_angle_beta 131.125219
_cell_angle_gamma 90.000000
_cell_volume 1433.699375
_symmetry_space_group_name_H-M "P 2/M"
_symmetry_group_IT_number 10
_symmetry_cell_setting 'monoclinic'
loop_
_space_group_symop_operation_xyz
x,y,z
-x,y,-z
-x,-y,-z
x,-y,z
loop_
_atom_site_type_symbol
_atom_site_label
_atom_site_fract_x
_atom_site_fract_y
_atom_site_fract_z
Si Si1 0.490917 0.711686 0.680532
Si Si2 0.136304 0.287445 0.590530
Si Si3 0.792925 0.794798 0.252399
Si Si4 0.021554 0.000000 0.864265
Si Si5 0.062483 0.698781 0.256870
Si Si6 0.439302 0.207054 0.162594
Si Si7 0.389903 0.712016 0.409477
Si Si8 0.128655 0.303641 0.990395
O O1 0.494565 0.500000 0.681868
O O2 0.309059 0.767734 0.625860
O O3 0.577158 0.769152 0.770735
O O4 0.559230 0.774266 0.640035
O O5 0.133172 0.500000 0.590812
O O6 0.123397 0.224453 0.654819
O O7 0.000000 0.227571 0.500000
O O8 0.896836 0.704325 0.236452
O O9 0.614050 0.728744 0.202321
O O10 0.784434 0.000000 0.233163
O O11 0.941691 0.844804 0.795549
O O12 0.105728 0.846177 0.933903
O O13 0.093565 0.500000 0.245168
O O14 0.203462 0.743259 0.350979
O O15 0.433477 0.000000 0.148552
O O16 0.298854 0.293237 0.079029
O O17 0.500000 0.780452 0.500000
O O18 0.410612 0.500000 0.416328
O O19 0.105191 0.500000 0.957873
O O20 0.000000 0.274055 0.000000
#
# Coordination Sequence:
#
# PCOD9153057 Si02
#       8
#     4   4   4   2   4   4   4   4
#     4   9  18  33  55  86 121 158 205 260 314 371
#     4   9  18  31  55  87 117 157 211 267 318 374
#     4  10  21  40  61  88 126 169 217 265 325 383
#     4  12  25  46  66  98 133 166 215 270 316 389
#     4  11  24  42  68  93 127 179 220 263 320 386
#     4  10  21  39  65  92 125 167 209 263 326 384
#     4   9  20  37  60  90 125 169 217 264 313 372
#     4  11  25  43  69 102 134 168 209 264 327 389
#
# _framework density 20.924889
#
# number of rings (size 3 to 8) (size 9 to 14) (size 15 to 20)
#    0.000    2.000    1.333    1.400    3.733    1.867 
#    0.000    1.667    0.000    1.600    0.000    0.000 
#    0.000    0.000    0.000    0.000    0.000    0.000 
#
# Total GULP energy -167039.739487 kJ/mol
# GULP energy per Si atom -5567.991316 kJ/mol
# Density = 2.087726 g / cm^3
# Si number density = 20.924889 Si / 1000 Ang^3
#
#
#
# Elastic Constant Matrix: (Units=GPa)
#
#
# Indices 1 2 3 4 5 6 
#
# 1 44.0945 16.3736 24.8882 0.0000 6.0091 0.0000
# 2 16.3736 97.1280 49.9017 0.0000 -1.7344 0.0000
# 3 24.8882 49.9017 152.3939 0.0000 2.5918 0.0000
# 4 0.0000 0.0000 0.0000 22.0300 0.0000 -9.0154
# 5 6.0091 -1.7344 2.5918 0.0000 12.2863 0.0000
# 6 0.0000 0.0000 0.0000 -9.0154 0.0000 6.4469
#
#
#
# Elastic Compliance Matrix: (Units=1/GPa)
#
#
# Indices 1 2 3 4 5 6 
#
# 1 0.027488 -0.003221 -0.003210 0.000000 -0.013222 0.000000
# 2 -0.003221 0.012840 -0.003749 0.000000 0.004179 0.000000
# 3 -0.003210 -0.003749 0.008326 0.000000 -0.000716 0.000000
# 4 0.000000 0.000000 0.000000 0.106125 0.000000 0.148405
# 5 -0.013222 0.004179 -0.000716 0.000000 0.088599 0.000000
# 6 0.000000 0.000000 0.000000 0.148405 0.000000 0.362643
#
#
# Mechanical properties :
#
#
# Convention : Reuss Voigt Hill
#
# Bulk Modulus (GPa) = 35.34356 52.88263 44.11310
# Shear Modulus (GPa) = 7.86397 21.64950 14.75674
#
# Velocity S-wave (km/s) = 1.94071 3.22005 2.65849
# Velocity P-wave (km/s) = 4.68499 6.25719 5.52728
#
# Compressibility (1/GPa) = 0.02829370
#
# Stress axis : x y z
#
# Youngs Moduli (GPa) = 36.37953 77.88380 120.10498
#
# Poissons Ratio (x) = 0.25086 0.38549
# Poissons Ratio (y) = 0.11718 0.45032
# Poissons Ratio (z) = 0.11676 0.29202
#
# Static dielectric constant tensor:
#      x y z
#    x 1.750080 0.000000 0.013310 
#    y 0.000000 1.767610 0.000000 
#    z 0.013310 0.000000 1.715170 
# 
# From -- ./inp_files/88732.got.cif
#   From: 2010.05.17/outbox.cif.g08.bks.cpg/sg10_45_cif.got.tgz:88732.got - 2010.06.03 11:33:40.
