data_PCOD9153776
_publ_section_title
;
Structure prediction by ZEFSAII (Michael W. Deem and Ramdas Pophale) SiO2 
 PCOD9153776
Probable space group: P 2/M
;
_chemical_formula_sum "Si O2"
_cell_formula_units_Z 18
_cell_length_a 21.377595
_cell_length_b 7.782118
_cell_length_c 11.546409
_cell_angle_alpha 90.000000
_cell_angle_beta 22.994658
_cell_angle_gamma 90.000000
_cell_volume 750.388554
_symmetry_space_group_name_H-M "P 2/M"
_symmetry_group_IT_number 10
_symmetry_cell_setting 'monoclinic'
loop_
_space_group_symop_operation_xyz
x,y,z
-x,y,-z
-x,-y,-z
x,-y,z
loop_
_atom_site_type_symbol
_atom_site_label
_atom_site_fract_x
_atom_site_fract_y
_atom_site_fract_z
Si Si1 0.140882 0.792649 0.844108
Si Si2 0.709287 0.312600 0.197828
Si Si3 0.203756 0.311182 0.222625
Si Si4 0.000000 0.000000 0.500000
Si Si5 0.509943 0.792495 0.848340
Si Si6 0.500000 0.000000 0.500000
O O1 0.141259 0.716604 0.972297
O O2 0.314851 0.744146 0.497052
O O3 0.130535 0.000000 0.868732
O O4 0.000000 0.733385 0.000000
O O5 0.639649 0.500000 0.342511
O O6 0.593596 0.151100 0.413193
O O7 0.750182 0.304307 0.992574
O O8 0.135455 0.500000 0.363901
O O9 0.363574 0.284193 0.024930
O O10 0.086524 0.150514 0.431448
O O11 0.496063 0.000000 0.864017
O O12 0.500000 0.744357 0.000000
#
# Coordination Sequence:
#
# PCOD9153776 Si02
#       6
#     4   4   4   1   4   1
#     4  10  22  41  67 100 139 182 236 288 344 410
#     4  11  24  40  65 100 134 172 224 287 348 408
#     4  11  25  44  68 102 137 177 232 288 350 419
#     4  12  24  44  70  96 136 186 224 284 346 420
#     4  10  22  42  66  99 139 187 232 283 347 417
#     4  12  20  36  62  92 130 170 212 270 338 406
#
# _framework density 23.987573000000001
#
# number of rings (size 3 to 8) (size 9 to 14) (size 15 to 20)
#    0.000    1.333    2.222    2.667    3.111    5.333 
#    4.000    0.000    0.000    0.000    0.000    0.000 
#    0.000    0.000    0.000    0.000    0.000    0.000 
#
# Total GULP energy -100225.594020 kJ/mol
# GULP energy per Si atom -5568.088557 kJ/mol
# Density = 2.393298 g / cm^3
# Si number density = 23.987573 Si / 1000 Ang^3
#
#
#
# Elastic Constant Matrix: (Units=GPa)
#
#
# Indices 1 2 3 4 5 6 
#
# 1 221.5383 46.4419 64.8394 0.0000 -45.2686 0.0000
# 2 46.4419 199.4822 55.8224 0.0000 -17.2602 0.0000
# 3 64.8394 55.8224 75.4515 0.0000 -33.4796 0.0000
# 4 0.0000 0.0000 0.0000 6.8963 0.0000 -13.1292
# 5 -45.2686 -17.2602 -33.4796 0.0000 60.1859 0.0000
# 6 0.0000 0.0000 0.0000 -13.1292 0.0000 57.5980
#
#
#
# Elastic Compliance Matrix: (Units=1/GPa)
#
#
# Indices 1 2 3 4 5 6 
#
# 1 0.006258 -0.000048 -0.004328 0.000000 0.002285 0.000000
# 2 -0.000048 0.006372 -0.005149 0.000000 -0.001073 0.000000
# 3 -0.004328 -0.005149 0.024806 0.000000 0.009067 0.000000
# 4 0.000000 0.000000 0.000000 0.256177 0.000000 0.058394
# 5 0.002285 -0.001073 0.009067 0.000000 0.023070 0.000000
# 6 0.000000 0.000000 0.000000 0.058394 0.000000 0.030672
#
#
# Mechanical properties :
#
#
# Convention : Reuss Voigt Hill
#
# Bulk Modulus (GPa) = 54.39264 92.29772 73.34518
# Shear Modulus (GPa) = 13.42159 46.89392 30.15776
#
# Velocity S-wave (km/s) = 2.36799 4.42625 3.54958
# Velocity P-wave (km/s) = 5.49555 8.04258 6.88782
#
# Compressibility (1/GPa) = 0.01838484
#
# Stress axis : x y z
#
# Youngs Moduli (GPa) = 159.80493 156.92916 40.31350
#
# Poissons Ratio (x) = 0.00753 0.17447
# Poissons Ratio (y) = 0.00767 0.20759
# Poissons Ratio (z) = 0.69162 0.80810
#
# Static dielectric constant tensor:
#      x y z
#    x 1.935450 0.000000 0.039040 
#    y 0.000000 1.890730 0.000000 
#    z 0.039040 0.000000 1.969730 
# 
# From -- ./inp_files/53007.got.cif
#   From: 2010.05.17/outbox.cif.g08.bks.cpg/sg10_27_cif.got.tgz:53007.got - 2010.06.03 11:33:40.
