data_PCOD9153399
_publ_section_title
;
Structure prediction by ZEFSAII (Michael W. Deem and Ramdas Pophale) SiO2 
 PCOD9153399
Probable space group: P 2/M
;
_chemical_formula_sum "Si O2"
_cell_formula_units_Z 32
_cell_length_a 16.074243
_cell_length_b 20.147688
_cell_length_c 9.635936
_cell_angle_alpha 90.000000
_cell_angle_beta 28.728577
_cell_angle_gamma 90.000000
_cell_volume 1499.990372
_symmetry_space_group_name_H-M "P 2/M"
_symmetry_group_IT_number 10
_symmetry_cell_setting 'monoclinic'
loop_
_space_group_symop_operation_xyz
x,y,z
-x,y,-z
-x,-y,-z
x,-y,z
loop_
_atom_site_type_symbol
_atom_site_label
_atom_site_fract_x
_atom_site_fract_y
_atom_site_fract_z
Si Si1 0.172390 0.376150 0.837163
Si Si2 0.547286 0.383354 0.780628
Si Si3 0.809590 0.191022 0.766648
Si Si4 0.314404 0.759170 0.324581
Si Si5 0.342551 0.422950 0.838169
Si Si6 0.802927 0.134178 0.280198
Si Si7 0.536736 0.926555 0.111644
Si Si8 0.706649 0.239139 0.205628
O O1 0.308168 0.412499 0.534276
O O2 0.177227 0.410699 0.981504
O O3 0.227693 0.301477 0.801111
O O4 0.000000 0.373556 0.000000
O O5 0.633462 0.312171 0.691824
O O6 0.380789 0.381903 0.922222
O O7 0.500000 0.413104 0.000000
O O8 0.800661 0.237255 0.643628
O O9 0.000000 0.161290 0.500000
O O10 0.668395 0.132096 0.961350
O O11 0.771777 0.236316 0.954087
O O12 0.227028 0.806933 0.563309
O O13 0.500000 0.785527 0.000000
O O14 0.500000 0.407054 0.500000
O O15 0.351241 0.500000 0.863774
O O16 0.647587 0.084555 0.542922
O O17 0.767952 0.171082 0.186983
O O18 0.000000 0.109425 0.000000
O O19 0.605468 0.000000 0.045219
O O20 0.500000 0.925519 0.000000
O O21 0.500000 0.241799 0.500000
#
# Coordination Sequence:
#
# PCOD9153399 Si02
#       8
#     4   4   4   4   4   4   4   4
#     4  11  24  39  60  97 131 164 215 265 331 385
#     4  10  22  37  63  93 126 167 212 267 317 386
#     4  12  25  40  64  97 128 166 215 261 326 391
#     4  11  20  39  61  90 130 168 205 259 327 393
#     4   9  20  41  65  89 124 176 226 261 312 386
#     4  12  22  39  65  93 128 162 210 262 326 383
#     4  11  24  46  68  88 124 175 221 260 314 385
#     4  12  23  38  62  93 129 167 199 269 330 393
#
# _framework density 21.333469999999998
#
# number of rings (size 3 to 8) (size 9 to 14) (size 15 to 20)
#    0.000    1.000    5.000    2.250    7.000    1.000 
#    0.000    1.875    0.000    0.750    0.000    0.000 
#    0.000    0.000    0.000    0.000    0.000    0.000 
#
# Total GULP energy -178531.006442 kJ/mol
# GULP energy per Si atom -5579.093951 kJ/mol
# Density = 2.128491 g / cm^3
# Si number density = 21.333470 Si / 1000 Ang^3
#
#
#
# Elastic Constant Matrix: (Units=GPa)
#
#
# Indices 1 2 3 4 5 6 
#
# 1 170.8722 31.0927 37.8015 0.0000 -1.2758 0.0000
# 2 31.0927 70.7246 9.5414 0.0000 -3.7545 0.0000
# 3 37.8015 9.5414 58.9967 0.0000 -19.9110 0.0000
# 4 0.0000 0.0000 0.0000 6.8470 0.0000 4.4077
# 5 -1.2758 -3.7545 -19.9110 0.0000 47.7805 0.0000
# 6 0.0000 0.0000 0.0000 4.4077 0.0000 4.2755
#
#
#
# Elastic Compliance Matrix: (Units=1/GPa)
#
#
# Indices 1 2 3 4 5 6 
#
# 1 0.007445 -0.002705 -0.005048 0.000000 -0.002117 0.000000
# 2 -0.002705 0.015439 -0.000441 0.000000 0.000957 0.000000
# 3 -0.005048 -0.000441 0.023504 0.000000 0.009625 0.000000
# 4 0.000000 0.000000 0.000000 0.434224 0.000000 -0.447652
# 5 -0.002117 0.000957 0.009625 0.000000 0.024959 0.000000
# 6 0.000000 0.000000 0.000000 -0.447652 0.000000 0.695388
#
#
# Mechanical properties :
#
#
# Convention : Reuss Voigt Hill
#
# Bulk Modulus (GPa) = 33.33130 50.82942 42.08036
# Shear Modulus (GPa) = 4.07383 26.59112 15.33247
#
# Velocity S-wave (km/s) = 1.38338 3.53434 2.68378
# Velocity P-wave (km/s) = 4.26726 6.36658 5.41954
#
# Compressibility (1/GPa) = 0.03000183
#
# Stress axis : x y z
#
# Youngs Moduli (GPa) = 134.31234 64.77238 42.54592
#
# Poissons Ratio (x) = 0.17518 0.21476
# Poissons Ratio (y) = 0.36326 0.01876
# Poissons Ratio (z) = 0.67796 0.02856
#
# Static dielectric constant tensor:
#      x y z
#    x 1.875230 0.000000 -0.020980 
#    y 0.000000 1.786790 0.000000 
#    z -0.020980 0.000000 1.831790 
# 
# From -- ./inp_files/30595.got.cif
#   From: 2010.05.17/outbox.cif.g08.bks.cpg/sg10_16_cif.got.tgz:30595.got - 2010.06.03 11:33:40.
