data_PCOD9153566
_publ_section_title
;
Structure prediction by ZEFSAII (Michael W. Deem and Ramdas Pophale) SiO2 
 PCOD9153566
Probable space group: P 2/M
;
_chemical_formula_sum "Si O2"
_cell_formula_units_Z 28
_cell_length_a 12.489131
_cell_length_b 14.608924
_cell_length_c 7.150043
_cell_angle_alpha 90.000000
_cell_angle_beta 93.913469
_cell_angle_gamma 90.000000
_cell_volume 1301.503263
_symmetry_space_group_name_H-M "P 2/M"
_symmetry_group_IT_number 10
_symmetry_cell_setting 'monoclinic'
loop_
_space_group_symop_operation_xyz
x,y,z
-x,y,-z
-x,-y,-z
x,-y,z
loop_
_atom_site_type_symbol
_atom_site_label
_atom_site_fract_x
_atom_site_fract_y
_atom_site_fract_z
Si Si1 0.202080 0.700295 0.251005
Si Si2 0.707266 0.101959 0.317706
Si Si3 0.474564 0.890177 0.204440
Si Si4 0.231024 0.103530 0.258589
Si Si5 0.225800 0.294128 0.705406
Si Si6 0.373471 0.390710 0.998318
Si Si7 0.986000 0.602438 0.272855
O O1 0.168968 0.805017 0.195691
O O2 0.225814 0.702061 0.478646
O O3 0.303907 0.661199 0.149550
O O4 0.098913 0.636413 0.207444
O O5 0.581481 0.126677 0.337424
O O6 0.771770 0.094841 0.517421
O O7 0.753551 0.190342 0.222987
O O8 0.708219 0.000000 0.228957
O O9 0.354413 0.865457 0.239392
O O10 0.468180 0.000000 0.199418
O O11 0.500000 0.855728 0.000000
O O12 0.210083 0.000000 0.182094
O O13 0.112895 0.330055 0.767922
O O14 0.317592 0.358433 0.799938
O O15 0.363457 0.500000 0.023905
O O16 0.500000 0.368368 0.000000
O O17 0.959088 0.500000 0.207357
O O18 0.000000 0.600036 0.500000
#
# Coordination Sequence:
#
# PCOD9153566 Si02
#       7
#     4   4   4   4   4   4   4
#     4  10  22  39  62  89 119 156 198 243 297 351
#     4   9  18  32  50  77 114 152 190 231 279 342
#     4   9  17  27  45  73 105 148 193 232 274 326
#     4   9  18  32  50  77 114 152 190 231 279 342
#     4  10  22  39  62  89 119 156 198 243 297 351
#     4  11  26  43  60  88 121 153 195 247 303 364
#     4   9  18  37  64  88 110 146 203 259 298 342
#
# _framework density 21.513583000000001
#
# number of rings (size 3 to 8) (size 9 to 14) (size 15 to 20)
#    0.000    2.429    0.000    1.286    4.000    4.571 
#    0.000    3.571    0.000    4.286    0.000    2.000 
#    0.000    0.000    0.000    0.000    0.000    0.000 
#
# Total GULP energy -156116.697220 kJ/mol
# GULP energy per Si atom -5575.596329 kJ/mol
# Density = 2.146462 g / cm^3
# Si number density = 21.513583 Si / 1000 Ang^3
#
#
#
# Elastic Constant Matrix: (Units=GPa)
#
#
# Indices 1 2 3 4 5 6 
#
# 1 90.9775 54.1543 8.8540 0.0000 -18.6934 0.0000
# 2 54.1543 155.4929 13.8324 0.0000 -19.3155 0.0000
# 3 8.8540 13.8324 67.0009 0.0000 -14.4157 0.0000
# 4 0.0000 0.0000 0.0000 15.3716 0.0000 0.2215
# 5 -18.6934 -19.3155 -14.4157 0.0000 20.6290 0.0000
# 6 0.0000 0.0000 0.0000 0.2215 0.0000 5.6050
#
#
#
# Elastic Compliance Matrix: (Units=1/GPa)
#
#
# Indices 1 2 3 4 5 6 
#
# 1 0.015640 -0.004175 0.001181 0.000000 0.011089 0.000000
# 2 -0.004175 0.008392 -0.000358 0.000000 0.003825 0.000000
# 3 0.001181 -0.000358 0.017656 0.000000 0.013073 0.000000
# 4 0.000000 0.000000 0.000000 0.065092 0.000000 -0.002573
# 5 0.011089 0.003825 0.013073 0.000000 0.071240 0.000000
# 6 0.000000 0.000000 0.000000 -0.002573 0.000000 0.178515
#
#
# Mechanical properties :
#
#
# Convention : Reuss Voigt Hill
#
# Bulk Modulus (GPa) = 28.58400 51.90589 40.24494
# Shear Modulus (GPa) = 13.33688 24.09650 18.71669
#
# Velocity S-wave (km/s) = 2.49254 3.35036 2.95277
# Velocity P-wave (km/s) = 4.64747 6.25667 5.51112
#
# Compressibility (1/GPa) = 0.03498461
#
# Stress axis : x y z
#
# Youngs Moduli (GPa) = 63.93752 119.16056 56.63875
#
# Poissons Ratio (x) = 0.49746 -0.06689
# Poissons Ratio (y) = 0.26692 0.02028
# Poissons Ratio (z) = -0.07551 0.04266
#
# Static dielectric constant tensor:
#      x y z
#    x 1.769710 0.000000 0.012190 
#    y 0.000000 1.801160 0.000000 
#    z 0.012190 0.000000 1.858550 
# 
# From -- ./inp_files/24905.got.cif
#   From: 2010.05.17/outbox.cif.g08.bks.cpg/sg10_13_cif.got.tgz:24905.got - 2010.06.03 11:33:40.
