data_PCOD9153594
_publ_section_title
;
Structure prediction by ZEFSAII (Michael W. Deem and Ramdas Pophale) SiO2 
 PCOD9153594
Probable space group: P 2/M
;
_chemical_formula_sum "Si O2"
_cell_formula_units_Z 32
_cell_length_a 14.466588
_cell_length_b 16.541387
_cell_length_c 12.283826
_cell_angle_alpha 90.000000
_cell_angle_beta 31.591597
_cell_angle_gamma 90.000000
_cell_volume 1539.883083
_symmetry_space_group_name_H-M "P 2/M"
_symmetry_group_IT_number 10
_symmetry_cell_setting 'monoclinic'
loop_
_space_group_symop_operation_xyz
x,y,z
-x,y,-z
-x,-y,-z
x,-y,z
loop_
_atom_site_type_symbol
_atom_site_label
_atom_site_fract_x
_atom_site_fract_y
_atom_site_fract_z
Si Si1 0.242232 0.912427 0.053619
Si Si2 0.719987 0.407158 0.516462
Si Si3 0.565847 0.311767 0.316514
Si Si4 0.537486 0.122012 0.586208
Si Si5 0.057720 0.877549 0.823149
Si Si6 0.025238 0.700330 0.144951
Si Si7 0.864034 0.752972 0.730004
Si Si8 0.289142 0.410328 0.218388
O O1 0.246726 0.832764 0.125167
O O2 0.076173 0.903562 0.137156
O O3 0.230403 0.000000 0.121614
O O4 0.409520 0.912003 0.805890
O O5 0.692593 0.500000 0.516045
O O6 0.542333 0.358548 0.667221
O O7 0.760136 0.402556 0.604989
O O8 0.881638 0.369836 0.286266
O O9 0.500000 0.341869 0.500000
O O10 0.508059 0.217971 0.366978
O O11 0.776338 0.318577 0.092518
O O12 0.500000 0.095100 0.500000
O O13 0.740706 0.103333 0.404733
O O14 0.046897 0.780087 0.840584
O O15 0.000000 0.908271 0.000000
O O16 0.040189 0.727356 0.255434
O O17 0.772515 0.670153 0.781401
O O18 0.000000 0.777293 0.500000
O O19 0.225050 0.500000 0.243457
O O20 0.500000 0.412502 0.000000
#
# Coordination Sequence:
#
# PCOD9153594 Si02
#       8
#     4   4   4   4   4   4   4   4
#     4  11  26  43  62  97 133 170 222 267 316 392
#     4  11  24  39  60  95 131 166 216 274 323 387
#     4  11  22  39  65  92 128 175 218 260 315 388
#     4  11  20  38  66  95 125 171 215 266 323 379
#     4  11  20  38  66  94 125 168 218 264 320 382
#     4  11  22  38  63  93 124 169 216 264 320 388
#     4  11  22  42  67  91 124 174 210 266 340 383
#     4  10  22  39  65  99 128 161 214 278 332 383
#
# _framework density 20.780798000000001
#
# number of rings (size 3 to 8) (size 9 to 14) (size 15 to 20)
#    0.000    1.125    6.250    1.500    0.000    2.750 
#    0.000    0.625    0.000    0.375    0.000    0.000 
#    0.000    0.000    0.000    0.000    0.000    0.000 
#
# Total GULP energy -178763.551338 kJ/mol
# GULP energy per Si atom -5586.360979 kJ/mol
# Density = 2.073350 g / cm^3
# Si number density = 20.780798 Si / 1000 Ang^3
#
#
#
# Elastic Constant Matrix: (Units=GPa)
#
#
# Indices 1 2 3 4 5 6 
#
# 1 47.3190 30.5093 26.6289 0.0000 0.4224 0.0000
# 2 30.5093 165.6958 34.7684 0.0000 4.0288 0.0000
# 3 26.6289 34.7684 154.5967 0.0000 -16.7481 0.0000
# 4 0.0000 0.0000 0.0000 6.2870 0.0000 -16.7664
# 5 0.4224 4.0288 -16.7481 0.0000 38.7512 0.0000
# 6 0.0000 0.0000 0.0000 -16.7664 0.0000 17.9124
#
#
#
# Elastic Compliance Matrix: (Units=1/GPa)
#
#
# Indices 1 2 3 4 5 6 
#
# 1 0.025771 -0.003930 -0.003715 0.000000 -0.001478 0.000000
# 2 -0.003930 0.007000 -0.001019 0.000000 -0.001125 0.000000
# 3 -0.003715 -0.001019 0.007715 0.000000 0.003481 0.000000
# 4 0.000000 0.000000 0.000000 -0.106307 0.000000 -0.099505
# 5 -0.001478 -0.001125 0.003481 0.000000 0.027443 0.000000
# 6 0.000000 0.000000 0.000000 -0.099505 0.000000 -0.037312
#
#
# Mechanical properties :
#
#
# Convention : Reuss Voigt Hill
#
# Bulk Modulus (GPa) = 43.18355 61.26941 52.22648
# Shear Modulus (GPa) = -98.73141 30.97043 -33.88049
#
# Velocity S-wave (km/s) = -6.90029 3.86468 -4.04217
# Velocity P-wave (km/s) = 6.53144 7.03292 1.84421
#
# Compressibility (1/GPa) = 0.02315697
#
# Stress axis : x y z
#
# Youngs Moduli (GPa) = 38.80359 142.85784 129.62219
#
# Poissons Ratio (x) = 0.56138 0.48159
# Poissons Ratio (y) = 0.15248 0.13213
# Poissons Ratio (z) = 0.14417 0.14562
#
# Static dielectric constant tensor:
#      x y z
#    x 1.758270 0.000000 0.015630 
#    y 0.000000 1.772190 0.000000 
#    z 0.015630 0.000000 1.745660 
# 
# From -- ./inp_files/51922.got.cif
#   From: 2010.05.17/outbox.cif.g08.bks.cpg/sg10_26_cif.got.tgz:51922.got - 2010.06.03 11:33:40.
