data_PCOD9153777
_publ_section_title
;
Structure prediction by ZEFSAII (Michael W. Deem and Ramdas Pophale) SiO2 
 PCOD9153777
Probable space group: P 2/M
;
_chemical_formula_sum "Si O2"
_cell_formula_units_Z 24
_cell_length_a 7.920369
_cell_length_b 16.129561
_cell_length_c 13.830376
_cell_angle_alpha 90.000000
_cell_angle_beta 40.190386
_cell_angle_gamma 90.000000
_cell_volume 1140.206414
_symmetry_space_group_name_H-M "P 2/M"
_symmetry_group_IT_number 10
_symmetry_cell_setting 'monoclinic'
loop_
_space_group_symop_operation_xyz
x,y,z
-x,y,-z
-x,-y,-z
x,-y,z
loop_
_atom_site_type_symbol
_atom_site_label
_atom_site_fract_x
_atom_site_fract_y
_atom_site_fract_z
Si Si1 0.616304 0.906318 0.840527
Si Si2 0.949707 0.798628 0.408469
Si Si3 0.508331 0.675690 0.359213
Si Si4 0.300933 0.500000 0.175037
Si Si5 0.078102 0.669507 0.204081
Si Si6 0.286813 0.751341 0.920175
Si Si7 0.305999 0.500000 0.390311
O O1 0.443996 0.837155 0.861587
O O2 0.924544 0.881137 0.694642
O O3 0.582111 0.000000 0.818863
O O4 0.500000 0.903859 0.000000
O O5 0.664748 0.754438 0.529711
O O6 0.000000 0.804814 0.500000
O O7 0.116183 0.731987 0.275589
O O8 0.572936 0.694083 0.219432
O O9 0.377775 0.584593 0.414927
O O10 0.780174 0.671580 0.296990
O O11 0.137133 0.581490 0.223704
O O12 0.422848 0.500000 0.229263
O O13 0.500000 0.500000 0.000000
O O14 0.245988 0.702371 0.039150
O O15 0.000000 0.768788 0.000000
O O16 0.000000 0.500000 0.500000
#
# Coordination Sequence:
#
# PCOD9153777 Si02
#       7
#     4   4   4   2   4   4   2
#     4  11  24  43  70  96 126 161 204 261 321 384
#     4  12  23  39  67  92 127 164 213 255 315 375
#     4  11  23  42  62  91 128 173 214 259 313 370
#     4  12  25  36  61  96 128 168 220 272 306 355
#     4  11  24  41  63  90 130 173 213 262 313 369
#     4  10  22  41  67  91 125 170 211 258 318 380
#     4  12  25  38  59  90 129 166 217 259 308 367
#
# _framework density 21.048821
#
# number of rings (size 3 to 8) (size 9 to 14) (size 15 to 20)
#    0.000    0.833    3.333    4.500    2.333    0.667 
#    0.000    5.833    0.000    2.000    0.000    0.000 
#    0.000    0.000    0.000    0.000    0.000    0.000 
#
# Total GULP energy -133922.172414 kJ/mol
# GULP energy per Si atom -5580.090517 kJ/mol
# Density = 2.100091 g / cm^3
# Si number density = 21.048821 Si / 1000 Ang^3
#
#
#
# Elastic Constant Matrix: (Units=GPa)
#
#
# Indices 1 2 3 4 5 6 
#
# 1 62.9975 29.8903 16.4914 0.0000 -0.9893 0.0000
# 2 29.8903 141.4368 22.4459 0.0000 -7.3154 0.0000
# 3 16.4914 22.4459 110.6860 0.0000 13.5419 0.0000
# 4 0.0000 0.0000 0.0000 11.6210 0.0000 4.6458
# 5 -0.9893 -7.3154 13.5419 0.0000 37.4276 0.0000
# 6 0.0000 0.0000 0.0000 4.6458 0.0000 10.1976
#
#
#
# Elastic Compliance Matrix: (Units=1/GPa)
#
#
# Indices 1 2 3 4 5 6 
#
# 1 0.018063 -0.003463 -0.002056 0.000000 0.000544 0.000000
# 2 -0.003463 0.008124 -0.001375 0.000000 0.001994 0.000000
# 3 -0.002056 -0.001375 0.010107 0.000000 -0.003980 0.000000
# 4 0.000000 0.000000 0.000000 0.105213 0.000000 -0.047933
# 5 0.000544 0.001994 -0.003980 0.000000 0.028562 0.000000
# 6 0.000000 0.000000 0.000000 -0.047933 0.000000 0.119899
#
#
# Mechanical properties :
#
#
# Convention : Reuss Voigt Hill
#
# Bulk Modulus (GPa) = 44.43338 50.30837 47.37088
# Shear Modulus (GPa) = 16.06383 28.26877 22.16630
#
# Velocity S-wave (km/s) = 2.76555 3.66869 3.24866
# Velocity P-wave (km/s) = 5.59939 6.47289 6.05192
#
# Compressibility (1/GPa) = 0.02250560
#
# Stress axis : x y z
#
# Youngs Moduli (GPa) = 55.36056 123.09911 98.94453
#
# Poissons Ratio (x) = 0.42629 0.20340
# Poissons Ratio (y) = 0.19171 0.13608
# Poissons Ratio (z) = 0.11380 0.16930
#
# Static dielectric constant tensor:
#      x y z
#    x 1.758510 0.000000 -0.025550 
#    y 0.000000 1.360250 0.000000 
#    z -0.025550 0.000000 1.880340 
# 
# From -- ./inp_files/29716.got.cif
#   From: 2010.05.17/outbox.cif.g08.bks.cpg/sg10_15_cif.got.tgz:29716.got - 2010.06.03 11:33:40.
