data_PCOD9153131
_publ_section_title
;
Structure prediction by ZEFSAII (Michael W. Deem and Ramdas Pophale) SiO2 
 PCOD9153131
Probable space group: P 2/M
;
_chemical_formula_sum "Si O2"
_cell_formula_units_Z 26
_cell_length_a 14.032339
_cell_length_b 7.362461
_cell_length_c 18.845569
_cell_angle_alpha 90.000000
_cell_angle_beta 149.597637
_cell_angle_gamma 90.000000
_cell_volume 985.308780
_symmetry_space_group_name_H-M "P 2/M"
_symmetry_group_IT_number 10
_symmetry_cell_setting 'monoclinic'
loop_
_space_group_symop_operation_xyz
x,y,z
-x,y,-z
-x,-y,-z
x,-y,z
loop_
_atom_site_type_symbol
_atom_site_label
_atom_site_fract_x
_atom_site_fract_y
_atom_site_fract_z
Si Si1 0.100725 0.708574 0.223092
Si Si2 0.218977 0.793019 0.081110
Si Si3 0.770423 0.717524 0.200122
Si Si4 0.794136 0.279788 0.500358
Si Si5 0.842882 0.000000 0.139695
Si Si6 0.455546 0.292162 0.370422
Si Si7 0.435534 0.718373 0.786057
O O1 0.108872 0.500000 0.254858
O O2 0.308463 0.777151 0.334304
O O3 0.985868 0.842375 0.198540
O O4 0.972611 0.705725 0.068956
O O5 0.336319 0.707480 0.220142
O O6 0.362692 0.797425 0.106319
O O7 0.181613 0.000000 0.076974
O O8 0.755840 0.500000 0.177433
O O9 0.989522 0.770831 0.354599
O O10 0.658418 0.760099 0.199778
O O11 0.720206 0.839867 0.101692
O O12 0.788283 0.500000 0.498348
O O13 0.655153 0.212609 0.473650
O O14 0.705032 0.225496 0.367938
O O15 0.489360 0.500000 0.412035
O O16 0.458113 0.500000 0.797317
#
# Coordination Sequence:
#
# PCOD9153131 Si02
#       7
#     4   4   4   4   2   4   4
#     4  11  23  42  62  82 116 158 197 243 291 338
#     4  11  21  34  59  94 124 148 183 236 297 360
#     4  10  21  40  63  84 117 158 195 243 290 334
#     4   8  15  34  62  92 120 148 186 231 290 360
#     4  12  26  42  58  84 114 154 216 250 276 334
#     4   9  19  36  62  91 119 152 186 229 295 362
#     4   9  18  35  61  91 120 153 187 228 295 362
#
# _framework density 26.387667
#
# number of rings (size 3 to 8) (size 9 to 14) (size 15 to 20)
#    0.000    2.154    0.769    3.692    2.154    3.692 
#    5.538    3.846    0.000    6.462    0.000    0.000 
#    0.000    0.000    0.000    0.000    0.000    0.000 
#
# Total GULP energy -145146.045387 kJ/mol
# GULP energy per Si atom -5582.540207 kJ/mol
# Density = 2.632761 g / cm^3
# Si number density = 26.387667 Si / 1000 Ang^3
#
#
#
# Elastic Constant Matrix: (Units=GPa)
#
#
# Indices 1 2 3 4 5 6 
#
# 1 183.1067 37.6598 41.6600 0.0000 33.2653 0.0000
# 2 37.6598 135.6456 11.8281 0.0000 1.6868 0.0000
# 3 41.6600 11.8281 155.7785 0.0000 24.7702 0.0000
# 4 0.0000 0.0000 0.0000 -24.4807 0.0000 -41.9133
# 5 33.2653 1.6868 24.7702 0.0000 43.5070 0.0000
# 6 0.0000 0.0000 0.0000 -41.9133 0.0000 78.8858
#
#
#
# Elastic Compliance Matrix: (Units=1/GPa)
#
#
# Indices 1 2 3 4 5 6 
#
# 1 0.006890 -0.001771 -0.000969 0.000000 -0.004648 0.000000
# 2 -0.001771 0.007876 -0.000320 0.000000 0.001231 0.000000
# 3 -0.000969 -0.000320 0.007238 0.000000 -0.003368 0.000000
# 4 0.000000 0.000000 0.000000 -0.021390 0.000000 -0.011365
# 5 -0.004648 0.001231 -0.003368 0.000000 0.028408 0.000000
# 6 0.000000 0.000000 0.000000 -0.011365 0.000000 0.006638
#
#
# Mechanical properties :
#
#
# Convention : Reuss Voigt Hill
#
# Bulk Modulus (GPa) = 62.95284 72.98073 67.96679
# Shear Modulus (GPa) = 106.21077 45.14127 75.67602
#
# Velocity S-wave (km/s) = 6.35118 4.14054 5.36105
# Velocity P-wave (km/s) = 8.81431 7.11168 8.00837
#
# Compressibility (1/GPa) = 0.01588491
#
# Stress axis : x y z
#
# Youngs Moduli (GPa) = 145.12981 126.96201 138.15282
#
# Poissons Ratio (x) = 0.22481 0.13390
# Poissons Ratio (y) = 0.25698 0.04424
# Poissons Ratio (z) = 0.14066 0.04066
#
# Static dielectric constant tensor:
#      x y z
#    x 2.090830 0.000000 -0.083490 
#    y 0.000000 1.988900 0.000000 
#    z -0.083490 0.000000 2.113810 
# 
# From -- ./inp_files/89210.got.cif
#   From: 2010.05.17/outbox.cif.g08.bks.cpg/sg10_45_cif.got.tgz:89210.got - 2010.06.03 11:33:40.
