data_PCOD9153148
_publ_section_title
;
Structure prediction by ZEFSAII (Michael W. Deem and Ramdas Pophale) SiO2 
 PCOD9153148
Probable space group: P 2/M
;
_chemical_formula_sum "Si O2"
_cell_formula_units_Z 24
_cell_length_a 11.970670
_cell_length_b 11.814800
_cell_length_c 18.001195
_cell_angle_alpha 90.000000
_cell_angle_beta 31.278463
_cell_angle_gamma 90.000000
_cell_volume 1321.840607
_symmetry_space_group_name_H-M "P 2/M"
_symmetry_group_IT_number 10
_symmetry_cell_setting 'monoclinic'
loop_
_space_group_symop_operation_xyz
x,y,z
-x,y,-z
-x,-y,-z
x,-y,z
loop_
_atom_site_type_symbol
_atom_site_label
_atom_site_fract_x
_atom_site_fract_y
_atom_site_fract_z
Si Si1 0.739753 0.000000 0.637102
Si Si2 0.465799 0.365612 0.165160
Si Si3 0.305532 0.754611 0.403440
Si Si4 0.415649 0.632856 0.632554
Si Si5 0.878300 0.246280 0.734611
Si Si6 0.947934 0.634292 0.849380
Si Si7 0.700802 0.000000 0.830268
O O1 0.676472 0.113992 0.630083
O O2 0.000000 0.000000 0.500000
O O3 0.641989 0.000000 0.775938
O O4 0.436700 0.500000 0.175356
O O5 0.366775 0.318789 0.297171
O O6 0.340048 0.304518 0.169883
O O7 0.720232 0.340643 0.017173
O O8 0.457345 0.713805 0.384166
O O9 0.061970 0.734824 0.568890
O O10 0.500000 0.644761 0.500000
O O11 0.448099 0.500000 0.635080
O O12 0.160984 0.657895 0.775730
O O13 0.952709 0.299614 0.769371
O O14 0.836124 0.113344 0.766449
O O15 0.953368 0.500000 0.829585
O O16 0.500000 0.000000 0.000000
#
# Coordination Sequence:
#
# PCOD9153148 Si02
#       7
#     2   4   4   4   4   4   2
#     4  12  22  44  60  90 129 162 198 255 314 365
#     4  11  23  36  58  93 126 158 200 256 319 373
#     4  12  23  39  63  89 123 162 207 253 309 367
#     4  10  21  40  64  89 120 167 214 252 302 366
#     4  12  22  38  62  92 123 160 204 252 312 374
#     4  10  22  40  61  88 127 164 203 256 308 365
#     4  12  24  40  65  90 123 169 205 243 307 380
#
# _framework density 18.156500999999999
#
# number of rings (size 3 to 8) (size 9 to 14) (size 15 to 20)
#    0.000    0.833    5.000    3.000    0.000    4.667 
#    0.000    3.750    0.000    1.000    0.000    0.000 
#    0.000    0.000    0.000    0.000    0.000    0.000 
#
# Total GULP energy -134152.842511 kJ/mol
# GULP energy per Si atom -5589.701771 kJ/mol
# Density = 1.811518 g / cm^3
# Si number density = 18.156501 Si / 1000 Ang^3
#
#
#
# Elastic Constant Matrix: (Units=GPa)
#
#
# Indices 1 2 3 4 5 6 
#
# 1 99.6398 56.2084 32.1595 0.0000 -12.0757 0.0000
# 2 56.2084 85.6517 45.5012 0.0000 -12.2724 0.0000
# 3 32.1595 45.5012 116.1768 0.0000 -5.1411 0.0000
# 4 0.0000 0.0000 0.0000 1.7833 0.0000 -1.6064
# 5 -12.0757 -12.2724 -5.1411 0.0000 32.9556 0.0000
# 6 0.0000 0.0000 0.0000 -1.6064 0.0000 71.0079
#
#
#
# Elastic Compliance Matrix: (Units=1/GPa)
#
#
# Indices 1 2 3 4 5 6 
#
# 1 0.016085 -0.010026 -0.000433 0.000000 0.002093 0.000000
# 2 -0.010026 0.021725 -0.005577 0.000000 0.003547 0.000000
# 3 -0.000433 -0.005577 0.010888 0.000000 -0.000537 0.000000
# 4 0.000000 0.000000 0.000000 0.572426 0.000000 0.012950
# 5 0.002093 0.003547 -0.000537 0.000000 0.032348 0.000000
# 6 0.000000 0.000000 0.000000 0.012950 0.000000 0.014376
#
#
# Mechanical properties :
#
#
# Convention : Reuss Voigt Hill
#
# Bulk Modulus (GPa) = 60.14335 63.24517 61.69426
# Shear Modulus (GPa) = 7.08756 32.32264 19.70510
#
# Velocity S-wave (km/s) = 1.97789 4.22385 3.29795
# Velocity P-wave (km/s) = 6.19782 7.66138 6.96813
#
# Compressibility (1/GPa) = 0.01662694
#
# Stress axis : x y z
#
# Youngs Moduli (GPa) = 62.16818 46.02950 91.84539
#
# Poissons Ratio (x) = 0.46148 0.03981
# Poissons Ratio (y) = 0.62329 0.51218
# Poissons Ratio (z) = 0.02694 0.25669
#
# Static dielectric constant tensor:
#      x y z
#    x 1.602170 0.000000 -0.000880 
#    y 0.000000 1.598370 0.000000 
#    z -0.000880 0.000000 1.644540 
# 
# From -- ./inp_files/46823.got.cif
#   From: 2010.05.17/outbox.cif.g08.bks.cpg/sg10_24_cif.got.tgz:46823.got - 2010.06.03 11:33:40.
