data_PCOD9153255
_publ_section_title
;
Structure prediction by ZEFSAII (Michael W. Deem and Ramdas Pophale) SiO2 
 PCOD9153255
Probable space group: P 2/M
;
_chemical_formula_sum "Si O2"
_cell_formula_units_Z 24
_cell_length_a 11.454430
_cell_length_b 13.098258
_cell_length_c 17.167878
_cell_angle_alpha 90.000000
_cell_angle_beta 151.188974
_cell_angle_gamma 90.000000
_cell_volume 1241.311177
_symmetry_space_group_name_H-M "P 2/M"
_symmetry_group_IT_number 10
_symmetry_cell_setting 'monoclinic'
loop_
_space_group_symop_operation_xyz
x,y,z
-x,y,-z
-x,-y,-z
x,-y,z
loop_
_atom_site_type_symbol
_atom_site_label
_atom_site_fract_x
_atom_site_fract_y
_atom_site_fract_z
Si Si1 0.949824 0.118161 0.562893
Si Si2 0.524806 0.250294 0.363309
Si Si3 0.033859 0.669402 0.104877
Si Si4 0.509819 0.620952 0.807044
Si Si5 0.189064 0.610735 0.361381
Si Si6 0.255566 0.698077 0.808135
O O1 0.676300 0.152940 0.424302
O O2 0.000000 0.131513 0.500000
O O3 0.124581 0.195429 0.711150
O O4 0.989552 0.000000 0.605587
O O5 0.234645 0.243288 0.204383
O O6 0.573168 0.336002 0.324732
O O7 0.645611 0.297931 0.510644
O O8 0.148569 0.612836 0.245226
O O9 0.000000 0.617939 0.000000
O O10 0.756442 0.685449 0.967731
O O11 0.561875 0.500000 0.835775
O O12 0.322424 0.644689 0.765673
O O13 0.286761 0.500000 0.441345
O O14 0.931105 0.629859 0.251843
O O15 0.500000 0.711708 0.000000
#
# Coordination Sequence:
#
# PCOD9153255 Si02
#       6
#     4   4   4   4   4   4
#     4  10  21  41  67  87 108 145 194 246 308 355
#     4  10  22  38  57  85 117 149 196 246 284 339
#     4  10  22  36  54  78 118 161 197 231 273 337
#     4  11  21  35  56  86 123 164 193 225 278 342
#     4  11  22  34  54  84 118 161 200 235 279 335
#     4  11  22  37  58  87 121 150 191 247 291 340
#
# _framework density 19.334394
#
# number of rings (size 3 to 8) (size 9 to 14) (size 15 to 20)
#    0.000    1.500    3.333    2.000    0.000    9.000 
#    0.000    2.500    0.000   13.500    0.000    0.000 
#    0.000    0.000    0.000    0.000    0.000    0.000 
#
# Total GULP energy -133778.734916 kJ/mol
# GULP energy per Si atom -5574.113955 kJ/mol
# Density = 1.929039 g / cm^3
# Si number density = 19.334394 Si / 1000 Ang^3
#
#
#
# Elastic Constant Matrix: (Units=GPa)
#
#
# Indices 1 2 3 4 5 6 
#
# 1 114.3947 21.6280 27.0539 0.0000 5.1545 0.0000
# 2 21.6280 69.1465 12.9534 0.0000 2.6471 0.0000
# 3 27.0539 12.9534 64.5997 0.0000 0.6279 0.0000
# 4 0.0000 0.0000 0.0000 13.4990 0.0000 -1.7665
# 5 5.1545 2.6471 0.6279 0.0000 42.4274 0.0000
# 6 0.0000 0.0000 0.0000 -1.7665 0.0000 9.3943
#
#
#
# Elastic Compliance Matrix: (Units=1/GPa)
#
#
# Indices 1 2 3 4 5 6 
#
# 1 0.010133 -0.002428 -0.003747 0.000000 -0.001024 0.000000
# 2 -0.002428 0.015642 -0.002113 0.000000 -0.000650 0.000000
# 3 -0.003747 -0.002113 0.017470 0.000000 0.000328 0.000000
# 4 0.000000 0.000000 0.000000 0.075948 0.000000 0.014282
# 5 -0.001024 -0.000650 0.000328 0.000000 0.023730 0.000000
# 6 0.000000 0.000000 0.000000 0.014282 0.000000 0.109133
#
#
# Mechanical properties :
#
#
# Convention : Reuss Voigt Hill
#
# Bulk Modulus (GPa) = 37.49785 41.26797 39.38291
# Shear Modulus (GPa) = 18.01655 25.49784 21.75720
#
# Velocity S-wave (km/s) = 3.05592 3.63544 3.35820
# Velocity P-wave (km/s) = 5.64694 6.24601 5.95401
#
# Compressibility (1/GPa) = 0.02666819
#
# Stress axis : x y z
#
# Youngs Moduli (GPa) = 98.68724 63.92899 57.24217
#
# Poissons Ratio (x) = 0.15524 0.21447
# Poissons Ratio (y) = 0.23965 0.12097
# Poissons Ratio (z) = 0.36976 0.13510
#
# Static dielectric constant tensor:
#      x y z
#    x 1.722290 0.000000 0.022470 
#    y 0.000000 1.602820 0.000000 
#    z 0.022470 0.000000 1.720980 
# 
# From -- ./inp_files/46515.got.cif
#   From: 2010.05.17/outbox.cif.g08.bks.cpg/sg10_24_cif.got.tgz:46515.got - 2010.06.03 11:33:40.
