data_PCOD9153014
_publ_section_title
;
Structure prediction by ZEFSAII (Michael W. Deem and Ramdas Pophale) SiO2 
 PCOD9153014
Probable space group: P 2/M
;
_chemical_formula_sum "Si O2"
_cell_formula_units_Z 17
_cell_length_a 9.732027
_cell_length_b 8.622101
_cell_length_c 22.098836
_cell_angle_alpha 90.000000
_cell_angle_beta 27.374705
_cell_angle_gamma 90.000000
_cell_volume 852.632988
_symmetry_space_group_name_H-M "P 2/M"
_symmetry_group_IT_number 10
_symmetry_cell_setting 'monoclinic'
loop_
_space_group_symop_operation_xyz
x,y,z
-x,y,-z
-x,-y,-z
x,-y,z
loop_
_atom_site_type_symbol
_atom_site_label
_atom_site_fract_x
_atom_site_fract_y
_atom_site_fract_z
Si Si1 0.594076 0.812654 0.529492
Si Si2 0.693946 0.827303 0.043264
Si Si3 0.762738 0.317641 0.687229
Si Si4 0.500000 0.000000 0.000000
Si Si5 0.341016 0.187379 0.753016
O O1 0.500000 0.755229 0.500000
O O2 0.375465 0.764235 0.669597
O O3 0.924857 0.760122 0.417600
O O4 0.589128 0.000000 0.529360
O O5 0.473826 0.722455 0.167578
O O6 0.704459 0.000000 0.069702
O O7 0.573748 0.867711 0.023289
O O8 0.028622 0.763712 0.905145
O O9 0.803838 0.500000 0.664401
O O10 0.618675 0.248435 0.682723
O O11 0.337628 0.000000 0.754748
#
# Coordination Sequence:
#
# PCOD9153014 Si02
#       5
#     4   4   4   1   4
#     4  10  23  40  67  91 116 154 207 258 304 354
#     4   9  20  37  67  90 120 150 201 250 305 350
#     4  12  25  39  58  89 129 166 197 241 300 365
#     4   8  20  36  68  94 124 148 192 266 312 340
#     4  10  21  39  63  93 117 154 206 256 302 349
#
# _framework density 19.938238999999999
#
# number of rings (size 3 to 8) (size 9 to 14) (size 15 to 20)
#    0.706    1.176    0.000    3.529    3.294    8.000 
#    0.000    0.588    0.000    0.000    0.000    0.000 
#    0.000    0.000    0.000    0.000    0.000    0.000 
#
# Total GULP energy -94639.486166 kJ/mol
# GULP energy per Si atom -5567.028598 kJ/mol
# Density = 1.989286 g / cm^3
# Si number density = 19.938239 Si / 1000 Ang^3
#
#
#
# Elastic Constant Matrix: (Units=GPa)
#
#
# Indices 1 2 3 4 5 6 
#
# 1 76.1936 -6.3343 -0.8426 0.0000 21.9238 0.0000
# 2 -6.3343 -7.8629 -2.8885 0.0000 7.2358 0.0000
# 3 -0.8426 -2.8885 72.4275 0.0000 9.7816 0.0000
# 4 0.0000 0.0000 0.0000 -13.8544 0.0000 -6.0730
# 5 21.9238 7.2358 9.7816 0.0000 16.0555 0.0000
# 6 0.0000 0.0000 0.0000 -6.0730 0.0000 -18.4736
#
#
#
# Elastic Compliance Matrix: (Units=1/GPa)
#
#
# Indices 1 2 3 4 5 6 
#
# 1 0.014344 -0.021380 0.000717 0.000000 -0.010389 0.000000
# 2 -0.021380 -0.051993 -0.010275 0.000000 0.058886 0.000000
# 3 0.000717 -0.010275 0.014070 0.000000 -0.004921 0.000000
# 4 0.000000 0.000000 0.000000 -0.084331 0.000000 0.027723
# 5 -0.010389 0.058886 -0.004921 0.000000 0.052930 0.000000
# 6 0.000000 0.000000 0.000000 0.027723 0.000000 -0.063245
#
#
# Mechanical properties :
#
#
# Convention : Reuss Voigt Hill
#
# Bulk Modulus (GPa) = -11.70234 13.40304 0.85035
# Shear Modulus (GPa) = -58.93809 6.80042 -26.06884
#
# Velocity S-wave (km/s) = -5.44284 1.84882 -3.61983
# Velocity P-wave (km/s) = 6.73657 3.36071 4.12838
#
# Compressibility (1/GPa) = -0.08545298
#
# Stress axis : x y z
#
# Youngs Moduli (GPa) = 69.71413 -19.23347 71.07294
#
# Poissons Ratio (x) = -0.41121 -0.05098
# Poissons Ratio (y) = 1.49047 0.73027
# Poissons Ratio (z) = -0.05001 -0.19762
#
# Static dielectric constant tensor:
#      x y z
#    x 1.703980 0.000000 0.017910 
#    y 0.000000 1.679960 0.000000 
#    z 0.017910 0.000000 1.724890 
# 
# From -- ./inp_files/33623.got.cif
#   From: 2010.05.17/outbox.cif.g08.bks.cpg/sg10_17_cif.got.tgz:33623.got - 2010.06.03 11:33:40.
