data_PCOD9153565
_publ_section_title
;
Structure prediction by ZEFSAII (Michael W. Deem and Ramdas Pophale) SiO2 
 PCOD9153565
Probable space group: P 2/M
;
_chemical_formula_sum "Si O2"
_cell_formula_units_Z 21
_cell_length_a 15.119701
_cell_length_b 7.210933
_cell_length_c 25.553953
_cell_angle_alpha 90.000000
_cell_angle_beta 19.697100
_cell_angle_gamma 90.000000
_cell_volume 939.039804
_symmetry_space_group_name_H-M "P 2/M"
_symmetry_group_IT_number 10
_symmetry_cell_setting 'monoclinic'
loop_
_space_group_symop_operation_xyz
x,y,z
-x,y,-z
-x,-y,-z
x,-y,z
loop_
_atom_site_type_symbol
_atom_site_label
_atom_site_fract_x
_atom_site_fract_y
_atom_site_fract_z
Si Si1 0.188922 0.775309 0.251795
Si Si2 0.237857 0.225978 0.904402
Si Si3 0.246639 0.225312 0.019669
Si Si4 0.178726 0.774501 0.449666
Si Si5 0.896931 0.222025 0.310617
Si Si6 0.500000 0.500000 0.500000
O O1 0.472893 0.713495 0.113581
O O2 0.104734 0.728310 0.240093
O O3 0.965470 0.716251 0.417106
O O4 0.198030 0.000000 0.248293
O O5 0.209631 0.284059 0.980550
O O6 0.522265 0.284366 0.724710
O O7 0.237474 0.000000 0.904832
O O8 0.000000 0.285295 0.000000
O O9 0.250097 0.000000 0.017863
O O10 0.019065 0.279326 0.186584
O O11 0.000000 0.718621 0.500000
O O12 0.180979 0.000000 0.448411
O O13 0.634164 0.337308 0.462116
O O14 0.856856 0.000000 0.334518
#
# Coordination Sequence:
#
# PCOD9153565 Si02
#       6
#     4   4   4   4   4   1
#     4   9  16  29  53  84 117 153 195 248 301 351
#     4   9  16  24  39  71 115 158 196 240 295 350
#     4   9  16  30  52  80 117 152 191 248 301 351
#     4   9  14  23  42  73 116 156 193 243 291 338
#     4  10  22  39  62  88 116 154 198 242 298 358
#     4  12  26  44  58  82 124 162 196 242 294 358
#
# _framework density 22.363268999999999
#
# number of rings (size 3 to 8) (size 9 to 14) (size 15 to 20)
#    0.000    2.667    1.905    0.857    0.000    3.810 
#    0.000    7.619    0.000    0.000    0.000    6.667 
#    0.000    0.000    0.000    0.000    0.000    0.000 
#
# Total GULP energy -117096.689199 kJ/mol
# GULP energy per Si atom -5576.032819 kJ/mol
# Density = 2.231237 g / cm^3
# Si number density = 22.363269 Si / 1000 Ang^3
#
#
#
# Elastic Constant Matrix: (Units=GPa)
#
#
# Indices 1 2 3 4 5 6 
#
# 1 115.4476 17.7771 40.8951 0.0000 -19.0413 0.0000
# 2 17.7771 121.8734 8.1616 0.0000 -6.5916 0.0000
# 3 40.8951 8.1616 82.5424 0.0000 -10.5466 0.0000
# 4 0.0000 0.0000 0.0000 91.4092 0.0000 -59.6116
# 5 -19.0413 -6.5916 -10.5466 0.0000 46.7386 0.0000
# 6 0.0000 0.0000 0.0000 -59.6116 0.0000 -0.5101
#
#
#
# Elastic Compliance Matrix: (Units=1/GPa)
#
#
# Indices 1 2 3 4 5 6 
#
# 1 0.011139 -0.001114 -0.004993 0.000000 0.003254 0.000000
# 2 -0.001114 0.008418 -0.000192 0.000000 0.000690 0.000000
# 3 -0.004993 -0.000192 0.014770 0.000000 0.001272 0.000000
# 4 0.000000 0.000000 0.000000 0.000142 0.000000 -0.016558
# 5 0.003254 0.000690 0.001272 0.000000 0.023106 0.000000
# 6 0.000000 0.000000 0.000000 -0.016558 0.000000 -0.025390
#
#
# Mechanical properties :
#
#
# Convention : Reuss Voigt Hill
#
# Bulk Modulus (GPa) = 46.02247 50.39233 48.20740
# Shear Modulus (GPa) = 96.10755 44.39620 70.25187
#
# Velocity S-wave (km/s) = 6.56269 4.46042 5.61090
# Velocity P-wave (km/s) = 8.83456 7.00783 7.97368
#
# Compressibility (1/GPa) = 0.02172852
#
# Stress axis : x y z
#
# Youngs Moduli (GPa) = 89.77611 118.79362 67.70449
#
# Poissons Ratio (x) = 0.13239 0.33803
# Poissons Ratio (y) = 0.10005 0.01300
# Poissons Ratio (z) = 0.44822 0.02282
#
# Static dielectric constant tensor:
#      x y z
#    x 1.770220 0.000000 0.004760 
#    y 0.000000 1.456480 0.000000 
#    z 0.004760 0.000000 1.826810 
# 
# From -- ./inp_files/44649.got.cif
#   From: 2010.05.17/outbox.cif.g08.bks.cpg/sg10_23_cif.got.tgz:44649.got - 2010.06.03 11:33:40.
