data_PCOD9153798
_publ_section_title
;
Structure prediction by ZEFSAII (Michael W. Deem and Ramdas Pophale) SiO2 
 PCOD9153798
Probable space group: P 2/M
;
_chemical_formula_sum "Si O2"
_cell_formula_units_Z 32
_cell_length_a 13.775282
_cell_length_b 8.402521
_cell_length_c 13.577336
_cell_angle_alpha 90.000000
_cell_angle_beta 89.972733
_cell_angle_gamma 90.000000
_cell_volume 1571.537039
_symmetry_space_group_name_H-M "P 2/M"
_symmetry_group_IT_number 10
_symmetry_cell_setting 'monoclinic'
loop_
_space_group_symop_operation_xyz
x,y,z
-x,y,-z
-x,-y,-z
x,-y,z
loop_
_atom_site_type_symbol
_atom_site_label
_atom_site_fract_x
_atom_site_fract_y
_atom_site_fract_z
Si Si1 0.894902 0.181460 0.242230
Si Si2 0.968509 0.320093 0.611822
Si Si3 0.607294 0.307394 0.465429
Si Si4 0.677405 0.307324 0.249346
Si Si5 0.047418 0.314371 0.098334
Si Si6 0.249083 0.191275 0.363416
Si Si7 0.259067 0.811502 0.143063
Si Si8 0.393917 0.308182 0.966465
O O1 0.787182 0.245800 0.252212
O O2 0.955397 0.197855 0.341905
O O3 0.960084 0.291638 0.173374
O O4 0.894036 0.000000 0.206907
O O5 0.976461 0.500000 0.653938
O O6 0.858534 0.262689 0.624770
O O7 0.000000 0.331366 0.500000
O O8 0.500000 0.258880 0.500000
O O9 0.612593 0.500000 0.467098
O O10 0.627596 0.256444 0.352351
O O11 0.684435 0.244826 0.545401
O O12 0.677049 0.500000 0.248529
O O13 0.632100 0.253162 0.144622
O O14 0.071822 0.500000 0.083805
O O15 0.145014 0.227636 0.131139
O O16 0.000000 0.246455 0.000000
O O17 0.287505 0.242376 0.254281
O O18 0.242577 0.000000 0.362715
O O19 0.273348 0.000000 0.138246
O O20 0.317208 0.737718 0.051364
O O21 0.396187 0.500000 0.962488
O O22 0.500000 0.250527 0.000000
#
# Coordination Sequence:
#
# PCOD9153798 Si02
#       8
#     4   4   4   4   4   4   4   4
#     4  12  24  38  59  90 125 166 207 248 308 372
#     4  11  23  39  62  91 124 166 212 257 305 364
#     4  10  23  42  68  96 123 164 214 266 321 376
#     4  10  22  42  63  92 129 162 209 264 314 378
#     4  11  23  39  62  91 124 166 212 257 305 364
#     4  11  24  41  62  94 132 169 210 260 318 380
#     4  11  24  41  62  94 132 169 210 260 318 380
#     4  10  23  42  68  96 123 164 214 266 321 376
#
# _framework density 20.362231000000001
#
# number of rings (size 3 to 8) (size 9 to 14) (size 15 to 20)
#    0.000    1.250    1.250    4.125    1.750   11.000 
#    0.000    0.000    0.000    0.000    0.000    0.000 
#    0.000    0.000    0.000    0.000    0.000    0.000 
#
# Total GULP energy -178707.690977 kJ/mol
# GULP energy per Si atom -5584.615343 kJ/mol
# Density = 2.031589 g / cm^3
# Si number density = 20.362231 Si / 1000 Ang^3
#
#
#
# Elastic Constant Matrix: (Units=GPa)
#
#
# Indices 1 2 3 4 5 6 
#
# 1 139.2847 13.7674 83.2622 0.0000 -1.1738 0.0000
# 2 13.7674 24.6700 23.2806 0.0000 3.3209 0.0000
# 3 83.2622 23.2806 180.2805 0.0000 0.7917 0.0000
# 4 0.0000 0.0000 0.0000 18.5323 0.0000 5.5673
# 5 -1.1738 3.3209 0.7917 0.0000 29.5166 0.0000
# 6 0.0000 0.0000 0.0000 5.5673 0.0000 -133.4788
#
#
#
# Elastic Compliance Matrix: (Units=1/GPa)
#
#
# Indices 1 2 3 4 5 6 
#
# 1 0.009973 -0.001489 -0.004416 0.000000 0.000683 0.000000
# 2 -0.001489 0.047143 -0.005377 0.000000 -0.005219 0.000000
# 3 -0.004416 -0.005377 0.008280 0.000000 0.000207 0.000000
# 4 0.000000 0.000000 0.000000 0.053292 0.000000 0.002223
# 5 0.000683 -0.005219 0.000207 0.000000 0.034488 0.000000
# 6 0.000000 0.000000 0.000000 0.002223 0.000000 -0.007399
#
#
# Mechanical properties :
#
#
# Convention : Reuss Voigt Hill
#
# Bulk Modulus (GPa) = 23.34827 64.98395 44.16611
# Shear Modulus (GPa) = 27.37939 -2.15765 12.61087
#
# Velocity S-wave (km/s) = 3.67088 -1.03050 2.49133
# Velocity P-wave (km/s) = 5.42757 5.52877 5.47840
#
# Compressibility (1/GPa) = 0.04282972
#
# Stress axis : x y z
#
# Youngs Moduli (GPa) = 100.27450 21.21210 120.77146
#
# Poissons Ratio (x) = 0.03160 0.53339
# Poissons Ratio (y) = 0.14936 0.64938
# Poissons Ratio (z) = 0.44286 0.11406
#
# Static dielectric constant tensor:
#      x y z
#    x 1.670480 0.000000 0.006440 
#    y 0.000000 1.707830 0.000000 
#    z 0.006440 0.000000 1.749310 
# 
# From -- ./inp_files/63765.got.cif
#   From: 2010.05.17/outbox.cif.g08.bks.cpg/sg10_32_cif.got.tgz:63765.got - 2010.06.03 11:33:40.
