data_PCOD9153495
_publ_section_title
;
Structure prediction by ZEFSAII (Michael W. Deem and Ramdas Pophale) SiO2 
 PCOD9153495
Probable space group: P 2/M
;
_chemical_formula_sum "Si O2"
_cell_formula_units_Z 20
_cell_length_a 9.403203
_cell_length_b 19.761462
_cell_length_c 5.145375
_cell_angle_alpha 90.000000
_cell_angle_beta 92.725510
_cell_angle_gamma 90.000000
_cell_volume 955.037368
_symmetry_space_group_name_H-M "P 2/M"
_symmetry_group_IT_number 10
_symmetry_cell_setting 'monoclinic'
loop_
_space_group_symop_operation_xyz
x,y,z
-x,y,-z
-x,-y,-z
x,-y,z
loop_
_atom_site_type_symbol
_atom_site_label
_atom_site_fract_x
_atom_site_fract_y
_atom_site_fract_z
Si Si1 0.100031 0.000000 0.259647
Si Si2 0.638550 0.758629 0.895135
Si Si3 0.500000 0.351051 0.500000
Si Si4 0.147177 0.660596 0.921713
Si Si5 0.104243 0.849468 0.260364
Si Si6 0.787405 0.579561 0.549286
O O1 0.169766 0.925986 0.272986
O O2 0.000000 0.000000 0.500000
O O3 0.000000 0.000000 0.000000
O O4 0.566564 0.699811 0.716831
O O5 0.734421 0.717800 0.112652
O O6 0.759000 0.800562 0.752785
O O7 0.500000 0.796298 0.000000
O O8 0.371582 0.400958 0.561320
O O9 0.191264 0.612240 0.165265
O O10 0.123016 0.616105 0.666908
O O11 0.000000 0.693672 0.000000
O O12 0.000000 0.837973 0.500000
O O13 0.000000 0.846086 0.000000
O O14 0.810976 0.500000 0.559950
#
# Coordination Sequence:
#
# PCOD9153495 Si02
#       6
#     2   4   2   4   4   4
#     4   8  16  36  59  91 124 158 198 243 288 349
#     4  11  23  40  61  87 124 162 202 247 299 356
#     4  10  23  40  58  83 120 156 198 240 304 353
#     4  11  24  40  60  86 117 149 192 248 305 357
#     4  10  22  38  66  94 124 161 204 246 295 349
#     4  11  23  40  62  84 112 150 196 245 302 363
#
# _framework density 20.941590999999999
#
# number of rings (size 3 to 8) (size 9 to 14) (size 15 to 20)
#    0.000    1.600    2.000    2.100    2.800    5.600 
#    0.000    3.500    0.000    0.600    0.000    0.000 
#    0.000    0.000    0.000    0.000    0.000    0.000 
#
# Total GULP energy -111523.533198 kJ/mol
# GULP energy per Si atom -5576.176660 kJ/mol
# Density = 2.089393 g / cm^3
# Si number density = 20.941591 Si / 1000 Ang^3
#
#
#
# Elastic Constant Matrix: (Units=GPa)
#
#
# Indices 1 2 3 4 5 6 
#
# 1 138.1760 43.7705 35.9671 0.0000 -19.8225 0.0000
# 2 43.7705 102.3457 27.0861 0.0000 -9.5187 0.0000
# 3 35.9671 27.0861 118.6805 0.0000 -4.3093 0.0000
# 4 0.0000 0.0000 0.0000 22.8400 0.0000 -9.3254
# 5 -19.8225 -9.5187 -4.3093 0.0000 32.8778 0.0000
# 6 0.0000 0.0000 0.0000 -9.3254 0.0000 25.6450
#
#
#
# Elastic Compliance Matrix: (Units=1/GPa)
#
#
# Indices 1 2 3 4 5 6 
#
# 1 0.009368 -0.003065 -0.001976 0.000000 0.004502 0.000000
# 2 -0.003065 0.011648 -0.001682 0.000000 0.001304 0.000000
# 3 -0.001976 -0.001682 0.009393 0.000000 -0.000447 0.000000
# 4 0.000000 0.000000 0.000000 0.051417 0.000000 0.018697
# 5 0.004502 0.001304 -0.000447 0.000000 0.033449 0.000000
# 6 0.000000 0.000000 0.000000 0.018697 0.000000 0.045793
#
#
# Mechanical properties :
#
#
# Convention : Reuss Voigt Hill
#
# Bulk Modulus (GPa) = 58.95409 63.64997 61.30203
# Shear Modulus (GPa) = 27.75190 33.09779 30.42484
#
# Velocity S-wave (km/s) = 3.64429 3.97984 3.81575
# Velocity P-wave (km/s) = 6.77647 7.18184 6.98210
#
# Compressibility (1/GPa) = 0.01696235
#
# Stress axis : x y z
#
# Youngs Moduli (GPa) = 106.74357 85.85132 106.46722
#
# Poissons Ratio (x) = 0.26312 0.21040
# Poissons Ratio (y) = 0.32715 0.17910
# Poissons Ratio (z) = 0.21094 0.14442
#
# Static dielectric constant tensor:
#      x y z
#    x 1.833630 0.000000 -0.032690 
#    y 0.000000 1.785600 0.000000 
#    z -0.032690 0.000000 1.787770 
# 
# From -- ./inp_files/4767.got.cif
#   From: 2010.05.17/outbox.cif.g08.bks.cpg/sg10_3_cif.got.tgz:4767.got - 2010.06.03 11:33:40.
