data_PCOD9153449
_publ_section_title
;
Structure prediction by ZEFSAII (Michael W. Deem and Ramdas Pophale) SiO2 
 PCOD9153449
Probable space group: P 2/M
;
_chemical_formula_sum "Si O2"
_cell_formula_units_Z 32
_cell_length_a 14.041944
_cell_length_b 8.759010
_cell_length_c 13.341390
_cell_angle_alpha 90.000000
_cell_angle_beta 68.065233
_cell_angle_gamma 90.000000
_cell_volume 1522.119135
_symmetry_space_group_name_H-M "P 2/M"
_symmetry_group_IT_number 10
_symmetry_cell_setting 'monoclinic'
loop_
_space_group_symop_operation_xyz
x,y,z
-x,y,-z
-x,-y,-z
x,-y,z
loop_
_atom_site_type_symbol
_atom_site_label
_atom_site_fract_x
_atom_site_fract_y
_atom_site_fract_z
Si Si1 0.761744 0.317629 0.704953
Si Si2 0.346633 0.183924 0.447815
Si Si3 0.453365 0.175266 0.728314
Si Si4 0.975242 0.681479 0.710167
Si Si5 0.761762 0.321364 0.145724
Si Si6 0.420661 0.824398 0.113028
Si Si7 0.818472 0.818385 0.328628
Si Si8 0.083358 0.820362 0.055337
O O1 0.757830 0.500000 0.702410
O O2 0.718044 0.250195 0.619242
O O3 0.878666 0.271010 0.680311
O O4 0.685086 0.261710 0.823196
O O5 0.465160 0.230047 0.387006
O O6 0.286229 0.222349 0.572350
O O7 0.346741 0.000000 0.438772
O O8 0.355371 0.277758 0.786149
O O9 0.518771 0.172465 0.805332
O O10 0.420646 0.000000 0.718357
O O11 0.990320 0.500000 0.694823
O O12 0.082057 0.766716 0.648342
O O13 0.942600 0.724561 0.836237
O O14 0.775281 0.500000 0.123035
O O15 0.820594 0.267845 0.222554
O O16 0.808205 0.227872 0.034839
O O17 0.397406 0.000000 0.093134
O O18 0.500000 0.759722 0.000000
O O19 0.821751 0.000000 0.310590
O O20 0.080841 0.000000 0.080972
O O21 0.000000 0.793033 0.000000
#
# Coordination Sequence:
#
# PCOD9153449 Si02
#       8
#     4   4   4   4   4   4   4   4
#     4  10  22  38  58  87 122 156 192 239 297 357
#     4   9  21  42  66  88 115 154 201 251 294 340
#     4   9  19  38  60  85 118 154 197 245 292 344
#     4  11  24  40  59  90 125 158 195 239 298 356
#     4  12  25  39  59  89 124 158 193 240 299 360
#     4   9  19  36  58  85 114 153 201 244 288 343
#     4  11  23  41  64  89 115 153 205 250 292 346
#     4  11  23  40  63  87 115 157 203 245 291 346
#
# _framework density 21.023320999999999
#
# number of rings (size 3 to 8) (size 9 to 14) (size 15 to 20)
#    0.000    1.750    1.250    3.375    1.750    6.750 
#    0.000    5.000    0.000    0.000    0.000    0.000 
#    0.000    0.000    0.000    0.000    0.000    0.000 
#
# Total GULP energy -178868.492204 kJ/mol
# GULP energy per Si atom -5589.640381 kJ/mol
# Density = 2.097547 g / cm^3
# Si number density = 21.023321 Si / 1000 Ang^3
#
#
#
# Elastic Constant Matrix: (Units=GPa)
#
#
# Indices 1 2 3 4 5 6 
#
# 1 58.0547 5.8535 -6.5804 0.0000 -20.1996 0.0000
# 2 5.8535 16.1896 -3.4271 0.0000 -3.4551 0.0000
# 3 -6.5804 -3.4271 65.9485 0.0000 -21.7760 0.0000
# 4 0.0000 0.0000 0.0000 -15.7394 0.0000 -14.1379
# 5 -20.1996 -3.4551 -21.7760 0.0000 29.4810 0.0000
# 6 0.0000 0.0000 0.0000 -14.1379 0.0000 26.9307
#
#
#
# Elastic Compliance Matrix: (Units=1/GPa)
#
#
# Indices 1 2 3 4 5 6 
#
# 1 0.028662 -0.001727 0.012152 0.000000 0.028412 0.000000
# 2 -0.001727 0.066471 0.007226 0.000000 0.011944 0.000000
# 3 0.012152 0.007226 0.026161 0.000000 0.028497 0.000000
# 4 0.000000 0.000000 0.000000 -0.043175 0.000000 -0.022666
# 5 0.028412 0.011944 0.028497 0.000000 0.075836 0.000000
# 6 0.000000 0.000000 0.000000 -0.022666 0.000000 0.025233
#
#
# Mechanical properties :
#
#
# Convention : Reuss Voigt Hill
#
# Bulk Modulus (GPa) = 6.38588 14.65384 10.51986
# Shear Modulus (GPa) = 25.49897 17.75757 21.62827
#
# Velocity S-wave (km/s) = 3.48644 2.90946 3.21093
# Velocity P-wave (km/s) = 4.38761 4.27458 4.33146
#
# Compressibility (1/GPa) = 0.15659557
#
# Stress axis : x y z
#
# Youngs Moduli (GPa) = 34.88888 15.04411 38.22503
#
# Poissons Ratio (x) = 0.02598 -0.46450
# Poissons Ratio (y) = 0.06026 -0.27621
# Poissons Ratio (z) = -0.42396 -0.10871
#
# Static dielectric constant tensor:
#      x y z
#    x 1.783650 0.000000 -0.017060 
#    y 0.000000 1.701930 0.000000 
#    z -0.017060 0.000000 1.767650 
# 
# From -- ./inp_files/66494.got.cif
#   From: 2010.05.17/outbox.cif.g08.bks.cpg/sg10_34_cif.got.tgz:66494.got - 2010.06.03 11:33:40.
