data_PCOD9153747
_publ_section_title
;
Structure prediction by ZEFSAII (Michael W. Deem and Ramdas Pophale) SiO2 
 PCOD9153747
Probable space group: P 2/M
;
_chemical_formula_sum "Si O2"
_cell_formula_units_Z 32
_cell_length_a 22.388938
_cell_length_b 8.576929
_cell_length_c 15.049740
_cell_angle_alpha 90.000000
_cell_angle_beta 147.996036
_cell_angle_gamma 90.000000
_cell_volume 1531.623758
_symmetry_space_group_name_H-M "P 2/M"
_symmetry_group_IT_number 10
_symmetry_cell_setting 'monoclinic'
loop_
_space_group_symop_operation_xyz
x,y,z
-x,y,-z
-x,-y,-z
x,-y,z
loop_
_atom_site_type_symbol
_atom_site_label
_atom_site_fract_x
_atom_site_fract_y
_atom_site_fract_z
Si Si1 0.866552 0.686415 0.325802
Si Si2 0.084083 0.186842 0.252921
Si Si3 0.293820 0.814756 0.391051
Si Si4 0.527286 0.317754 0.755748
Si Si5 0.236203 0.818668 0.983134
Si Si6 0.791948 0.312939 0.429139
Si Si7 0.548079 0.815602 0.158320
Si Si8 0.843354 0.682696 0.937307
O O1 0.851399 0.500000 0.294207
O O2 0.812790 0.729519 0.352877
O O3 0.000000 0.717204 0.500000
O O4 0.811365 0.772923 0.173377
O O5 0.190799 0.231118 0.326468
O O6 0.108640 0.254422 0.381693
O O7 0.077597 0.000000 0.247683
O O8 0.967009 0.253540 0.069871
O O9 0.408631 0.729801 0.562491
O O10 0.250356 0.770837 0.238782
O O11 0.310771 0.000000 0.421113
O O12 0.549738 0.500000 0.771324
O O13 0.631200 0.219710 0.849389
O O14 0.514873 0.278640 0.844556
O O15 0.177611 0.718512 0.985873
O O16 0.215589 0.000000 0.974843
O O17 0.782840 0.500000 0.423790
O O18 0.678279 0.233371 0.320579
O O19 0.537793 0.000000 0.163985
O O20 0.500000 0.783570 0.000000
O O21 0.836513 0.500000 0.910724
#
# Coordination Sequence:
#
# PCOD9153747 Si02
#       8
#     4   4   4   4   4   4   4   4
#     4  10  22  41  64  94 132 174 219 271 326 385
#     4  11  23  41  67  98 136 173 215 271 330 391
#     4  11  24  44  69  99 134 171 217 270 330 391
#     4  12  25  43  68  96 131 171 219 271 328 390
#     4  12  26  45  68  95 131 174 222 272 330 393
#     4  11  22  36  61  94 129 169 215 264 321 385
#     4  11  23  39  60  89 126 168 214 263 319 381
#     4  12  26  44  68  97 131 171 221 273 327 391
#
# _framework density 20.892859999999999
#
# number of rings (size 3 to 8) (size 9 to 14) (size 15 to 20)
#    0.000    0.750    1.250    6.750    0.000    8.750 
#    0.000    2.500    0.000    0.000    0.000    0.000 
#    0.000    0.000    0.000    0.000    0.000    0.000 
#
# Total GULP energy -179211.369408 kJ/mol
# GULP energy per Si atom -5600.355294 kJ/mol
# Density = 2.084531 g / cm^3
# Si number density = 20.892860 Si / 1000 Ang^3
#
#
#
# Elastic Constant Matrix: (Units=GPa)
#
#
# Indices 1 2 3 4 5 6 
#
# 1 46.2948 -11.0813 2.6387 0.0000 -0.0223 0.0000
# 2 -11.0813 24.7109 7.8521 0.0000 -4.0471 0.0000
# 3 2.6387 7.8521 71.4940 0.0000 1.5528 0.0000
# 4 0.0000 0.0000 0.0000 22.5199 0.0000 -3.5193
# 5 -0.0223 -4.0471 1.5528 0.0000 34.2340 0.0000
# 6 0.0000 0.0000 0.0000 -3.5193 0.0000 47.8123
#
#
#
# Elastic Compliance Matrix: (Units=1/GPa)
#
#
# Indices 1 2 3 4 5 6 
#
# 1 0.024603 0.012003 -0.002260 0.000000 0.001537 0.000000
# 2 0.012003 0.048722 -0.005925 0.000000 0.006036 0.000000
# 3 -0.002260 -0.005925 0.014751 0.000000 -0.001371 0.000000
# 4 0.000000 0.000000 0.000000 0.044922 0.000000 0.003307
# 5 0.001537 0.006036 -0.001371 0.000000 0.029988 0.000000
# 6 0.000000 0.000000 0.000000 0.003307 0.000000 0.021158
#
#
# Mechanical properties :
#
#
# Convention : Reuss Voigt Hill
#
# Bulk Modulus (GPa) = 10.44800 15.70210 13.07505
# Shear Modulus (GPa) = 23.99089 30.45259 27.22174
#
# Velocity S-wave (km/s) = 3.39231 3.82194 3.61352
# Velocity P-wave (km/s) = 4.51168 5.19694 4.86639
#
# Compressibility (1/GPa) = 0.09571214
#
# Stress axis : x y z
#
# Youngs Moduli (GPa) = 40.64502 20.52466 67.79148
#
# Poissons Ratio (x) = -0.24635 0.15319
# Poissons Ratio (y) = -0.48786 0.40168
# Poissons Ratio (z) = 0.09185 0.12161
#
# Static dielectric constant tensor:
#      x y z
#    x 1.740300 0.000000 -0.007490 
#    y 0.000000 1.695170 0.000000 
#    z -0.007490 0.000000 1.742240 
# 
# From -- ./inp_files/71588.got.cif
#   From: 2010.05.17/outbox.cif.g08.bks.cpg/sg10_36_cif.got.tgz:71588.got - 2010.06.03 11:33:40.
