data_PCOD9153422
_publ_section_title
;
Structure prediction by ZEFSAII (Michael W. Deem and Ramdas Pophale) SiO2 
 PCOD9153422
Probable space group: P 2/M
;
_chemical_formula_sum "Si O2"
_cell_formula_units_Z 30
_cell_length_a 19.367392
_cell_length_b 7.712478
_cell_length_c 32.023166
_cell_angle_alpha 90.000000
_cell_angle_beta 17.209470
_cell_angle_gamma 90.000000
_cell_volume 1415.221167
_symmetry_space_group_name_H-M "P 2/M"
_symmetry_group_IT_number 10
_symmetry_cell_setting 'monoclinic'
loop_
_space_group_symop_operation_xyz
x,y,z
-x,y,-z
-x,-y,-z
x,-y,z
loop_
_atom_site_type_symbol
_atom_site_label
_atom_site_fract_x
_atom_site_fract_y
_atom_site_fract_z
Si Si1 0.873881 0.800951 0.615207
Si Si2 0.305369 0.294547 0.670851
Si Si3 0.467809 0.301818 0.800960
Si Si4 0.976748 0.700547 0.380854
Si Si5 0.045881 0.807092 0.902302
Si Si6 0.493739 0.292333 0.693824
Si Si7 0.160152 0.707852 0.660221
Si Si8 0.932601 0.000000 0.735192
O O1 0.601004 0.792515 0.761107
O O2 0.000000 0.735382 0.500000
O O3 0.934071 0.704195 0.622919
O O4 0.945989 0.000000 0.579405
O O5 0.286672 0.500000 0.690289
O O6 0.178289 0.200291 0.781737
O O7 0.580748 0.256853 0.508323
O O8 0.189878 0.261671 0.692605
O O9 0.548538 0.500000 0.756112
O O10 0.531639 0.224874 0.718695
O O11 0.189078 0.301344 0.964155
O O12 0.988891 0.500000 0.358849
O O13 0.703704 0.758738 0.541896
O O14 0.100159 0.844679 0.281608
O O15 0.239865 0.753295 0.823672
O O16 0.966962 0.000000 0.957759
O O17 0.506131 0.500000 0.689122
O O18 0.111394 0.500000 0.682865
O O19 0.991368 0.844496 0.735892
#
# Coordination Sequence:
#
# PCOD9153422 Si02
#       8
#     4   4   4   4   4   4   4   2
#     4  11  22  39  63  87 116 152 202 257 302 348
#     4   9  19  37  56  80 116 157 200 240 290 356
#     4  11  23  40  60  80 112 162 209 246 294 350
#     4  11  23  38  58  89 121 159 201 247 303 352
#     4  12  25  35  54  86 121 158 198 248 294 352
#     4  10  22  38  56  79 117 161 204 243 290 352
#     4   9  20  36  58  85 118 159 196 242 299 363
#     4  12  22  33  55  88 118 150 186 250 297 362
#
# _framework density 21.198101000000001
#
# number of rings (size 3 to 8) (size 9 to 14) (size 15 to 20)
#    0.000    1.467    2.000    4.400    4.667    5.867 
#    0.000    0.000    0.000    0.000    0.000    1.867 
#    0.000    4.267    0.000    0.000    0.000    0.000 
#
# Total GULP energy -167086.114643 kJ/mol
# GULP energy per Si atom -5569.537155 kJ/mol
# Density = 2.114985 g / cm^3
# Si number density = 21.198101 Si / 1000 Ang^3
#
#
#
# Elastic Constant Matrix: (Units=GPa)
#
#
# Indices 1 2 3 4 5 6 
#
# 1 184.3995 30.0724 -22.3603 0.0000 -15.1539 0.0000
# 2 30.0724 83.1292 -1.7537 0.0000 -3.4705 0.0000
# 3 -22.3603 -1.7537 30.4057 0.0000 -12.0692 0.0000
# 4 0.0000 0.0000 0.0000 14.9812 0.0000 0.7210
# 5 -15.1539 -3.4705 -12.0692 0.0000 23.6194 0.0000
# 6 0.0000 0.0000 0.0000 0.7210 0.0000 49.3775
#
#
#
# Elastic Compliance Matrix: (Units=1/GPa)
#
#
# Indices 1 2 3 4 5 6 
#
# 1 0.007658 -0.002189 0.009193 0.000000 0.009289 0.000000
# 2 -0.002189 0.012805 -0.000855 0.000000 0.000040 0.000000
# 3 0.009193 -0.000855 0.052550 0.000000 0.032625 0.000000
# 4 0.000000 0.000000 0.000000 0.066797 0.000000 -0.000975
# 5 0.009289 0.000040 0.032625 0.000000 0.064975 0.000000
# 6 0.000000 0.000000 0.000000 -0.000975 0.000000 0.020266
#
#
# Mechanical properties :
#
#
# Convention : Reuss Voigt Hill
#
# Bulk Modulus (GPa) = 11.72184 34.42789 23.07487
# Shear Modulus (GPa) = 20.73062 37.06069 28.89566
#
# Velocity S-wave (km/s) = 3.13061 4.18581 3.69606
# Velocity P-wave (km/s) = 4.31385 6.29584 5.39661
#
# Compressibility (1/GPa) = 0.08531082
#
# Stress axis : x y z
#
# Youngs Moduli (GPa) = 130.58225 78.09534 19.02964
#
# Poissons Ratio (x) = 0.17092 -0.17493
# Poissons Ratio (y) = 0.28579 0.01627
# Poissons Ratio (z) = -1.20040 0.06676
#
# Static dielectric constant tensor:
#      x y z
#    x 1.772250 0.000000 -0.009110 
#    y 0.000000 1.767790 0.000000 
#    z -0.009110 0.000000 1.795160 
# 
# From -- ./inp_files/95503.got.cif
#   From: 2010.05.17/outbox.cif.g08.bks.cpg/sg10_48_cif.got.tgz:95503.got - 2010.06.03 11:33:40.
