data_PCOD9153833
_publ_section_title
;
Structure prediction by ZEFSAII (Michael W. Deem and Ramdas Pophale) SiO2 
 PCOD9153833
Probable space group: P 2/M
;
_chemical_formula_sum "Si O2"
_cell_formula_units_Z 22
_cell_length_a 5.739149
_cell_length_b 11.037867
_cell_length_c 15.829249
_cell_angle_alpha 90.000000
_cell_angle_beta 72.160631
_cell_angle_gamma 90.000000
_cell_volume 954.537549
_symmetry_space_group_name_H-M "P 2/M"
_symmetry_group_IT_number 10
_symmetry_cell_setting 'monoclinic'
loop_
_space_group_symop_operation_xyz
x,y,z
-x,y,-z
-x,-y,-z
x,-y,z
loop_
_atom_site_type_symbol
_atom_site_label
_atom_site_fract_x
_atom_site_fract_y
_atom_site_fract_z
Si Si1 0.753034 0.368470 0.582164
Si Si2 0.347162 0.199530 0.645834
Si Si3 0.483822 0.136294 0.814064
Si Si4 0.203511 0.000000 0.548520
Si Si5 0.898903 0.685958 0.754922
Si Si6 0.136929 0.366637 0.895860
O O1 0.355331 0.500000 0.426344
O O2 0.586880 0.254572 0.578147
O O3 0.777937 0.363736 0.682157
O O4 0.000000 0.359744 0.500000
O O5 0.423135 0.129505 0.721349
O O6 0.174639 0.118915 0.607699
O O7 0.180950 0.308973 0.695237
O O8 0.760468 0.186878 0.788073
O O9 0.313681 0.248524 0.865991
O O10 0.452890 0.000000 0.853515
O O11 0.500000 0.000000 0.500000
O O12 0.000000 0.000000 0.500000
O O13 0.932073 0.632143 0.844289
O O14 0.264545 0.500000 0.877611
O O15 0.000000 0.357277 0.000000
#
# Coordination Sequence:
#
# PCOD9153833 Si02
#       6
#     4   4   4   2   4   4
#     4  10  23  42  66  97 138 182 234 299 362 431
#     4  10  24  42  64  95 134 178 233 287 353 425
#     4  10  22  42  68  99 136 178 226 287 360 432
#     4  12  30  42  70 100 139 188 245 306 360 426
#     4  10  23  38  67  95 135 177 229 284 359 431
#     4  10  23  44  68  98 135 177 230 289 353 435
#
# _framework density 23.047809999999998
#
# number of rings (size 3 to 8) (size 9 to 14) (size 15 to 20)
#    0.000    1.818    0.909    0.545    8.909    9.818 
#    0.000    4.545    0.000    0.545    0.000    0.000 
#    0.000    0.000    0.000    0.000    0.000    0.000 
#
# Total GULP energy -122630.892184 kJ/mol
# GULP energy per Si atom -5574.131463 kJ/mol
# Density = 2.299535 g / cm^3
# Si number density = 23.047810 Si / 1000 Ang^3
#
#
#
# Elastic Constant Matrix: (Units=GPa)
#
#
# Indices 1 2 3 4 5 6 
#
# 1 78.6512 34.8070 39.1337 0.0000 5.1420 0.0000
# 2 34.8070 171.2620 51.5338 0.0000 -14.4962 0.0000
# 3 39.1337 51.5338 126.2880 0.0000 20.6684 0.0000
# 4 0.0000 0.0000 0.0000 19.2400 0.0000 -0.8926
# 5 5.1420 -14.4962 20.6684 0.0000 30.7924 0.0000
# 6 0.0000 0.0000 0.0000 -0.8926 0.0000 14.9579
#
#
#
# Elastic Compliance Matrix: (Units=1/GPa)
#
#
# Indices 1 2 3 4 5 6 
#
# 1 0.015612 -0.002118 -0.003801 0.000000 -0.001053 0.000000
# 2 -0.002118 0.007918 -0.003643 0.000000 0.006526 0.000000
# 3 -0.003801 -0.003643 0.012087 0.000000 -0.009193 0.000000
# 4 0.000000 0.000000 0.000000 0.052119 0.000000 0.003110
# 5 -0.001053 0.006526 -0.009193 0.000000 0.041895 0.000000
# 6 0.000000 0.000000 0.000000 0.003110 0.000000 0.067040
#
#
# Mechanical properties :
#
#
# Convention : Reuss Voigt Hill
#
# Bulk Modulus (GPa) = 60.63153 69.68335 65.15744
# Shear Modulus (GPa) = 22.59447 29.71318 26.15382
#
# Velocity S-wave (km/s) = 3.13442 3.59444 3.37228
# Velocity P-wave (km/s) = 6.28199 6.89395 6.59507
#
# Compressibility (1/GPa) = 0.01649307
#
# Stress axis : x y z
#
# Youngs Moduli (GPa) = 64.05373 126.29296 82.73097
#
# Poissons Ratio (x) = 0.26753 0.31446
# Poissons Ratio (y) = 0.13569 0.30137
# Poissons Ratio (z) = 0.24347 0.46006
#
# Static dielectric constant tensor:
#      x y z
#    x 1.908490 0.000000 -0.003750 
#    y 0.000000 1.923290 0.000000 
#    z -0.003750 0.000000 1.910240 
# 
# From -- ./inp_files/73156.got.cif
#   From: 2010.05.17/outbox.cif.g08.bks.cpg/sg10_37_cif.got.tgz:73156.got - 2010.06.03 11:33:40.
