data_PCOD9153237
_publ_section_title
;
Structure prediction by ZEFSAII (Michael W. Deem and Ramdas Pophale) SiO2 
 PCOD9153237
Probable space group: P 2/M
;
_chemical_formula_sum "Si O2"
_cell_formula_units_Z 32
_cell_length_a 13.272034
_cell_length_b 21.961949
_cell_length_c 5.341017
_cell_angle_alpha 90.000000
_cell_angle_beta 87.712443
_cell_angle_gamma 90.000000
_cell_volume 1555.557581
_symmetry_space_group_name_H-M "P 2/M"
_symmetry_group_IT_number 10
_symmetry_cell_setting 'monoclinic'
loop_
_space_group_symop_operation_xyz
x,y,z
-x,y,-z
-x,-y,-z
x,-y,z
loop_
_atom_site_type_symbol
_atom_site_label
_atom_site_fract_x
_atom_site_fract_y
_atom_site_fract_z
Si Si1 0.891522 0.678870 0.891609
Si Si2 0.195104 0.433196 0.353842
Si Si3 0.616122 0.834219 0.014321
Si Si4 0.760348 0.230986 0.619267
Si Si5 0.718934 0.609991 0.146576
Si Si6 0.211140 0.071146 0.998911
Si Si7 0.602564 0.289006 0.339668
Si Si8 0.117867 0.123315 0.528417
O O1 0.881650 0.623134 0.691667
O O2 0.845600 0.740902 0.788323
O O3 0.812317 0.656999 0.106856
O O4 0.000000 0.685491 0.000000
O O5 0.145819 0.500000 0.355058
O O6 0.256983 0.425700 0.603281
O O7 0.270236 0.428110 0.108080
O O8 0.688054 0.890321 0.077055
O O9 0.611375 0.775132 0.194749
O O10 0.500000 0.853590 0.000000
O O11 0.672532 0.807597 0.764072
O O12 0.697886 0.287211 0.516601
O O13 0.820827 0.186123 0.432001
O O14 0.620472 0.652124 0.168543
O O15 0.137493 0.082301 0.770181
O O16 0.232734 0.000000 0.024322
O O17 0.163465 0.095614 0.265060
O O18 0.500000 0.291481 0.500000
O O19 0.000000 0.133963 0.500000
#
# Coordination Sequence:
#
# PCOD9153237 Si02
#       8
#     4   4   4   4   4   4   4   4
#     4  10  23  39  61  94 133 169 209 259 320 378
#     4  10  21  41  65  86 127 175 217 260 311 371
#     4  11  22  39  64  93 129 164 212 262 326 388
#     4  11  22  40  60  95 130 163 208 263 326 385
#     4  10  22  40  60  96 126 161 212 267 316 373
#     4  11  25  44  67  95 132 173 221 270 311 374
#     4  12  21  38  68  93 123 164 207 265 330 388
#     4  11  25  43  68  96 130 174 219 265 321 379
#
# _framework density 20.571403
#
# number of rings (size 3 to 8) (size 9 to 14) (size 15 to 20)
#    0.750    0.500    5.000    1.125    0.000    5.500 
#    0.000    0.625    0.000    4.875    0.000    0.000 
#    0.000    0.000    0.000    0.000    0.000    0.000 
#
# Total GULP energy -178440.535452 kJ/mol
# GULP energy per Si atom -5576.266733 kJ/mol
# Density = 2.052458 g / cm^3
# Si number density = 20.571403 Si / 1000 Ang^3
#
#
#
# Elastic Constant Matrix: (Units=GPa)
#
#
# Indices 1 2 3 4 5 6 
#
# 1 66.4852 22.7311 -5.2422 0.0000 -4.4712 0.0000
# 2 22.7311 52.6386 1.7195 0.0000 1.1076 0.0000
# 3 -5.2422 1.7195 75.5075 0.0000 2.1042 0.0000
# 4 0.0000 0.0000 0.0000 21.7047 0.0000 -8.8120
# 5 -4.4712 1.1076 2.1042 0.0000 20.8044 0.0000
# 6 0.0000 0.0000 0.0000 -8.8120 0.0000 11.2226
#
#
#
# Elastic Compliance Matrix: (Units=1/GPa)
#
#
# Indices 1 2 3 4 5 6 
#
# 1 0.018152 -0.007970 0.001325 0.000000 0.004192 0.000000
# 2 -0.007970 0.022531 -0.000988 0.000000 -0.002812 0.000000
# 3 0.001325 -0.000988 0.013387 0.000000 -0.001017 0.000000
# 4 0.000000 0.000000 0.000000 0.067634 0.000000 0.053106
# 5 0.004192 -0.002812 -0.001017 0.000000 0.049220 0.000000
# 6 0.000000 0.000000 0.000000 0.053106 0.000000 0.130804
#
#
# Mechanical properties :
#
#
# Convention : Reuss Voigt Hill
#
# Bulk Modulus (GPa) = 25.77129 25.89423 25.83276
# Shear Modulus (GPa) = 15.15479 22.44122 18.79800
#
# Velocity S-wave (km/s) = 2.71715 3.30645 3.02618
# Velocity P-wave (km/s) = 4.73274 5.21456 4.97948
#
# Compressibility (1/GPa) = 0.03880287
#
# Stress axis : x y z
#
# Youngs Moduli (GPa) = 55.08945 44.38379 74.70194
#
# Poissons Ratio (x) = 0.35375 -0.09898
# Poissons Ratio (y) = 0.43908 0.07381
# Poissons Ratio (z) = -0.07299 0.04385
#
# Static dielectric constant tensor:
#      x y z
#    x 1.709220 0.000000 0.030690 
#    y 0.000000 1.828840 0.000000 
#    z 0.030690 0.000000 1.816320 
# 
# From -- ./inp_files/8037.got.cif
#   From: 2010.05.17/outbox.cif.g08.bks.cpg/sg10_5_cif.got.tgz:8037.got - 2010.06.03 11:33:40.
