data_PCOD9153935
_publ_section_title
;
Structure prediction by ZEFSAII (Michael W. Deem and Ramdas Pophale) SiO2 
 PCOD9153935
Probable space group: P 2/M
;
_chemical_formula_sum "Si O2"
_cell_formula_units_Z 28
_cell_length_a 9.340709
_cell_length_b 18.969834
_cell_length_c 15.011615
_cell_angle_alpha 90.000000
_cell_angle_beta 148.880836
_cell_angle_gamma 90.000000
_cell_volume 1374.706069
_symmetry_space_group_name_H-M "P 2/M"
_symmetry_group_IT_number 10
_symmetry_cell_setting 'monoclinic'
loop_
_space_group_symop_operation_xyz
x,y,z
-x,y,-z
-x,-y,-z
x,-y,z
loop_
_atom_site_type_symbol
_atom_site_label
_atom_site_fract_x
_atom_site_fract_y
_atom_site_fract_z
Si Si1 0.121651 0.421173 0.464429
Si Si2 0.990641 0.811610 0.397611
Si Si3 0.693469 0.355036 0.824937
Si Si4 0.368507 0.682478 0.832557
Si Si5 0.551745 0.228590 0.633539
Si Si6 0.814407 0.920493 0.168324
Si Si7 0.833504 0.921039 0.819709
O O1 0.104834 0.500000 0.417040
O O2 0.442368 0.397288 0.642695
O O3 0.000000 0.423852 0.500000
O O4 0.904282 0.367239 0.305032
O O5 0.732145 0.760519 0.247681
O O6 0.992706 0.870201 0.324107
O O7 0.000000 0.843930 0.500000
O O8 0.258991 0.764035 0.527037
O O9 0.568202 0.340594 0.857363
O O10 0.737069 0.285701 0.784682
O O11 0.000000 0.387744 0.000000
O O12 0.500000 0.683784 0.000000
O O13 0.500000 0.239778 0.500000
O O14 0.651197 0.148310 0.704614
O O15 0.940909 0.921088 0.138321
O O16 0.813001 0.000000 0.203305
O O17 0.500000 0.895022 0.000000
O O18 0.697372 0.000000 0.745438
O O19 0.000000 0.914183 0.000000
#
# Coordination Sequence:
#
# PCOD9153935 Si02
#       7
#     4   4   4   4   4   4   4
#     4   9  19  41  67  93 130 170 208 250 302 368
#     4  12  23  40  62  88 123 161 208 262 308 372
#     4  11  24  40  64  97 129 163 209 260 310 364
#     4  11  23  41  65  93 128 170 209 252 307 370
#     4  12  24  39  63  89 121 161 208 261 316 368
#     4  10  23  41  59  84 118 159 208 261 316 375
#     4  10  23  41  59  83 118 160 207 259 317 379
#
# _framework density 20.367989999999999
#
# number of rings (size 3 to 8) (size 9 to 14) (size 15 to 20)
#    0.000    1.286    4.286    1.286    4.000    4.000 
#    0.000    0.000    0.000    3.000    0.000    0.000 
#    0.000    0.000    0.000    0.000    0.000    0.000 
#
# Total GULP energy -156182.257727 kJ/mol
# GULP energy per Si atom -5577.937776 kJ/mol
# Density = 2.032163 g / cm^3
# Si number density = 20.367990 Si / 1000 Ang^3
#
#
#
# Elastic Constant Matrix: (Units=GPa)
#
#
# Indices 1 2 3 4 5 6 
#
# 1 77.3869 14.1924 35.1523 0.0000 -18.0471 0.0000
# 2 14.1924 80.0635 36.1159 0.0000 -6.5874 0.0000
# 3 35.1523 36.1159 102.3002 0.0000 -4.5312 0.0000
# 4 0.0000 0.0000 0.0000 20.2974 0.0000 1.4403
# 5 -18.0471 -6.5874 -4.5312 0.0000 45.3501 0.0000
# 6 0.0000 0.0000 0.0000 1.4403 0.0000 12.5116
#
#
#
# Elastic Compliance Matrix: (Units=1/GPa)
#
#
# Indices 1 2 3 4 5 6 
#
# 1 0.016868 0.000010 -0.005527 0.000000 0.006162 0.000000
# 2 0.000010 0.014979 -0.005218 0.000000 0.001658 0.000000
# 3 -0.005527 -0.005218 0.013445 0.000000 -0.001614 0.000000
# 4 0.000000 0.000000 0.000000 0.049673 0.000000 -0.005718
# 5 0.006162 0.001658 -0.001614 0.000000 0.024582 0.000000
# 6 0.000000 0.000000 0.000000 -0.005718 0.000000 0.080584
#
#
# Mechanical properties :
#
#
# Convention : Reuss Voigt Hill
#
# Bulk Modulus (GPa) = 41.97846 47.85242 44.91544
# Shear Modulus (GPa) = 21.78267 27.25115 24.51691
#
# Velocity S-wave (km/s) = 3.27380 3.66175 3.47320
# Velocity P-wave (km/s) = 5.91144 6.43606 6.17932
#
# Compressibility (1/GPa) = 0.02382174
#
# Stress axis : x y z
#
# Youngs Moduli (GPa) = 59.28509 66.76222 74.37781
#
# Poissons Ratio (x) = -0.00066 0.41106
# Poissons Ratio (y) = -0.00059 0.38810
# Poissons Ratio (z) = 0.32765 0.34836
#
# Static dielectric constant tensor:
#      x y z
#    x 1.691420 0.000000 0.034100 
#    y 0.000000 1.753570 0.000000 
#    z 0.034100 0.000000 1.794040 
# 
# From -- ./inp_files/62627.got.cif
#   From: 2010.05.17/outbox.cif.g08.bks.cpg/sg10_32_cif.got.tgz:62627.got - 2010.06.03 11:33:40.
