data_PCOD9153021
_publ_section_title
;
Structure prediction by ZEFSAII (Michael W. Deem and Ramdas Pophale) SiO2 
 PCOD9153021
Probable space group: P 2/M
;
_chemical_formula_sum "Si O2"
_cell_formula_units_Z 24
_cell_length_a 11.433289
_cell_length_b 15.812876
_cell_length_c 19.206091
_cell_angle_alpha 90.000000
_cell_angle_beta 157.678282
_cell_angle_gamma 90.000000
_cell_volume 1318.814773
_symmetry_space_group_name_H-M "P 2/M"
_symmetry_group_IT_number 10
_symmetry_cell_setting 'monoclinic'
loop_
_space_group_symop_operation_xyz
x,y,z
-x,y,-z
-x,-y,-z
x,-y,z
loop_
_atom_site_type_symbol
_atom_site_label
_atom_site_fract_x
_atom_site_fract_y
_atom_site_fract_z
Si Si1 0.999746 0.836421 0.811279
Si Si2 0.664026 0.158418 0.479744
Si Si3 0.407124 0.000000 0.028937
Si Si4 0.075451 0.000000 0.460082
Si Si5 0.528829 0.324557 0.697633
Si Si6 0.770646 0.500000 0.463445
Si Si7 0.467087 0.500000 0.829448
Si Si8 0.211261 0.325465 0.008291
O O1 0.682506 0.849213 0.679919
O O2 0.893765 0.835682 0.672196
O O3 0.212822 0.917173 0.939745
O O4 0.176121 0.752037 0.934913
O O5 0.657360 0.246188 0.435112
O O6 0.751362 0.081658 0.476875
O O7 0.500000 0.000000 0.000000
O O8 0.732519 0.000000 0.243328
O O9 0.000000 0.000000 0.500000
O O10 0.365361 0.411511 0.587128
O O11 0.574721 0.309911 0.805768
O O12 0.867990 0.332035 0.850980
O O13 0.647966 0.500000 0.315066
O O14 0.132080 0.500000 0.679445
O O15 0.664177 0.415241 0.951500
#
# Coordination Sequence:
#
# PCOD9153021 Si02
#       8
#     4   4   2   2   4   2   2   4
#     4  10  21  39  64  83 112 154 196 232 278 343
#     4  10  21  41  60  85 114 153 193 234 282 339
#     4  12  23  41  59  85 114 152 189 228 286 349
#     4  12  27  41  57  87 120 149 185 238 293 338
#     4   9  18  33  55  81 111 145 192 234 280 327
#     4   9  17  31  50  79 114 152 179 228 286 341
#     4   9  17  31  50  81 114 146 189 226 283 337
#     4   9  18  33  56  82 108 147 191 237 274 329
#
# _framework density 18.198157999999999
#
# number of rings (size 3 to 8) (size 9 to 14) (size 15 to 20)
#    0.000    2.167    1.667    1.000    2.333    4.667 
#    3.000    1.667    0.000    5.000    0.000    0.000 
#    0.000    0.000    0.000    0.000    0.000    0.000 
#
# Total GULP energy -133710.927751 kJ/mol
# GULP energy per Si atom -5571.288656 kJ/mol
# Density = 1.815674 g / cm^3
# Si number density = 18.198158 Si / 1000 Ang^3
#
#
#
# Elastic Constant Matrix: (Units=GPa)
#
#
# Indices 1 2 3 4 5 6 
#
# 1 71.5233 59.0059 19.9963 0.0000 -13.1606 0.0000
# 2 59.0059 198.2357 64.8315 0.0000 1.8758 0.0000
# 3 19.9963 64.8315 68.5301 0.0000 -5.1472 0.0000
# 4 0.0000 0.0000 0.0000 23.2292 0.0000 -22.9043
# 5 -13.1606 1.8758 -5.1472 0.0000 8.2317 0.0000
# 6 0.0000 0.0000 0.0000 -22.9043 0.0000 -6.0416
#
#
#
# Elastic Compliance Matrix: (Units=1/GPa)
#
#
# Indices 1 2 3 4 5 6 
#
# 1 0.034238 -0.013087 0.007057 0.000000 0.062133 0.000000
# 2 -0.013087 0.012630 -0.010406 0.000000 -0.030308 0.000000
# 3 0.007057 -0.010406 0.024556 0.000000 0.029009 0.000000
# 4 0.000000 0.000000 0.000000 0.009086 0.000000 -0.034445
# 5 0.062133 -0.030308 0.029009 0.000000 0.245862 0.000000
# 6 0.000000 0.000000 0.000000 -0.034445 0.000000 -0.034934
#
#
# Mechanical properties :
#
#
# Convention : Reuss Voigt Hill
#
# Bulk Modulus (GPa) = 25.93884 69.55074 47.74479
# Shear Modulus (GPa) = 14.82976 18.04756 16.43866
#
# Velocity S-wave (km/s) = 2.85775 3.15258 3.00878
# Velocity P-wave (km/s) = 5.01732 7.18006 6.19382
#
# Compressibility (1/GPa) = 0.03855222
#
# Stress axis : x y z
#
# Youngs Moduli (GPa) = 29.20753 79.17720 40.72306
#
# Poissons Ratio (x) = 1.03619 -0.28739
# Poissons Ratio (y) = 0.38224 0.42376
# Poissons Ratio (z) = -0.20612 0.82392
#
# Static dielectric constant tensor:
#      x y z
#    x 1.648920 0.000000 0.011710 
#    y 0.000000 1.611610 0.000000 
#    z 0.011710 0.000000 1.598150 
# 
# From -- ./inp_files/84181.got.cif
#   From: 2010.05.17/outbox.cif.g08.bks.cpg/sg10_43_cif.got.tgz:84181.got - 2010.06.03 11:33:40.
