data_PCOD9153622
_publ_section_title
;
Structure prediction by ZEFSAII (Michael W. Deem and Ramdas Pophale) SiO2 
 PCOD9153622
Probable space group: P 2/M
;
_chemical_formula_sum "Si O2"
_cell_formula_units_Z 24
_cell_length_a 10.333568
_cell_length_b 8.674244
_cell_length_c 14.020127
_cell_angle_alpha 90.000000
_cell_angle_beta 90.019479
_cell_angle_gamma 90.000000
_cell_volume 1256.706492
_symmetry_space_group_name_H-M "P 2/M"
_symmetry_group_IT_number 10
_symmetry_cell_setting 'monoclinic'
loop_
_space_group_symop_operation_xyz
x,y,z
-x,y,-z
-x,-y,-z
x,-y,z
loop_
_atom_site_type_symbol
_atom_site_label
_atom_site_fract_x
_atom_site_fract_y
_atom_site_fract_z
Si Si1 0.108439 0.813944 0.575246
Si Si2 0.740353 0.684999 0.075090
Si Si3 0.609553 0.686085 0.425021
Si Si4 0.488877 0.685974 0.783818
Si Si5 0.035472 0.186464 0.790563
Si Si6 0.248341 0.184546 0.137894
O O1 0.250004 0.751642 0.551201
O O2 0.071525 0.766565 0.682949
O O3 0.000000 0.762314 0.500000
O O4 0.111811 0.000000 0.573284
O O5 0.741676 0.500000 0.069218
O O6 0.611604 0.732135 0.133283
O O7 0.863275 0.741800 0.135558
O O8 0.742601 0.753745 0.969742
O O9 0.500000 0.734429 0.500000
O O10 0.616561 0.500000 0.426213
O O11 0.568166 0.734378 0.318388
O O12 0.496742 0.500000 0.784287
O O13 0.629778 0.752676 0.803693
O O14 0.889305 0.231558 0.817195
O O15 0.044450 0.000000 0.796613
O O16 0.252759 0.000000 0.136671
#
# Coordination Sequence:
#
# PCOD9153622 Si02
#       6
#     4   4   4   4   4   4
#     4  10  22  40  63  89 119 154 194 240 291 347
#     4  11  22  39  62  86 116 155 199 243 292 347
#     4  10  22  41  63  89 120 154 193 240 293 347
#     4  10  22  40  59  85 120 154 194 243 290 343
#     4  10  22  40  59  85 121 156 193 242 292 344
#     4  11  24  38  58  88 120 155 197 241 290 348
#
# _framework density 19.097536000000002
#
# number of rings (size 3 to 8) (size 9 to 14) (size 15 to 20)
#    0.000    1.667    1.667    2.000    2.333    8.000 
#    0.000    0.000    0.000    0.000    0.000    0.000 
#    0.000    0.000    0.000    0.000    0.000    0.000 
#
# Total GULP energy -134160.497099 kJ/mol
# GULP energy per Si atom -5590.020712 kJ/mol
# Density = 1.905407 g / cm^3
# Si number density = 19.097536 Si / 1000 Ang^3
#
#
#
# Elastic Constant Matrix: (Units=GPa)
#
#
# Indices 1 2 3 4 5 6 
#
# 1 135.8726 22.7698 39.2015 0.0000 0.7924 0.0000
# 2 22.7698 9.0107 12.0430 0.0000 -1.5709 0.0000
# 3 39.2015 12.0430 84.1491 0.0000 0.4836 0.0000
# 4 0.0000 0.0000 0.0000 15.4241 0.0000 2.4993
# 5 0.7924 -1.5709 0.4836 0.0000 42.9065 0.0000
# 6 0.0000 0.0000 0.0000 2.4993 0.0000 39.2100
#
#
#
# Elastic Compliance Matrix: (Units=1/GPa)
#
#
# Indices 1 2 3 4 5 6 
#
# 1 0.013031 -0.030989 -0.001628 0.000000 -0.001357 0.000000
# 2 -0.030989 0.212117 -0.015969 0.000000 0.008518 0.000000
# 3 -0.001628 -0.015969 0.014932 0.000000 -0.000723 0.000000
# 4 0.000000 0.000000 0.000000 0.065510 0.000000 -0.004176
# 5 -0.001357 0.008518 -0.000723 0.000000 0.023652 0.000000
# 6 0.000000 0.000000 0.000000 -0.004176 0.000000 0.025770
#
#
# Mechanical properties :
#
#
# Convention : Reuss Voigt Hill
#
# Bulk Modulus (GPa) = 6.99756 41.89564 24.44660
# Shear Modulus (GPa) = 10.00362 29.84266 19.92314
#
# Velocity S-wave (km/s) = 2.29119 3.95732 3.23341
# Velocity P-wave (km/s) = 3.26672 6.54720 5.17384
#
# Compressibility (1/GPa) = 0.14290688
#
# Stress axis : x y z
#
# Youngs Moduli (GPa) = 76.74260 4.71437 66.97246
#
# Poissons Ratio (x) = 0.14609 0.10900
# Poissons Ratio (y) = 2.37820 1.06951
# Poissons Ratio (z) = 0.12490 0.07529
#
# Static dielectric constant tensor:
#      x y z
#    x 1.631250 0.000000 -0.012430 
#    y 0.000000 1.650510 0.000000 
#    z -0.012430 0.000000 1.642700 
# 
# From -- ./inp_files/60284.got.cif
#   From: 2010.05.17/outbox.cif.g08.bks.cpg/sg10_31_cif.got.tgz:60284.got - 2010.06.03 11:33:40.
