data_PCOD9153066
_publ_section_title
;
Structure prediction by ZEFSAII (Michael W. Deem and Ramdas Pophale) SiO2 
 PCOD9153066
Probable space group: P 2/M
;
_chemical_formula_sum "Si O2"
_cell_formula_units_Z 32
_cell_length_a 16.949215
_cell_length_b 14.220272
_cell_length_c 7.288505
_cell_angle_alpha 90.000000
_cell_angle_beta 61.033899
_cell_angle_gamma 90.000000
_cell_volume 1536.942208
_symmetry_space_group_name_H-M "P 2/M"
_symmetry_group_IT_number 10
_symmetry_cell_setting 'monoclinic'
loop_
_space_group_symop_operation_xyz
x,y,z
-x,y,-z
-x,-y,-z
x,-y,z
loop_
_atom_site_type_symbol
_atom_site_label
_atom_site_fract_x
_atom_site_fract_y
_atom_site_fract_z
Si Si1 0.762868 0.608804 0.255329
Si Si2 0.407020 0.741955 0.537811
Si Si3 0.655398 0.103890 0.104858
Si Si4 0.900135 0.312628 0.376571
Si Si5 0.870195 0.900655 0.820226
Si Si6 0.631297 0.106339 0.700748
Si Si7 0.099560 0.694075 0.184215
Si Si8 0.846894 0.895905 0.410736
O O1 0.743235 0.500000 0.246452
O O2 0.673063 0.668291 0.392354
O O3 0.829179 0.623154 0.352895
O O4 0.818528 0.651138 0.020645
O O5 0.500000 0.697135 0.500000
O O6 0.379655 0.815779 0.726163
O O7 0.416694 0.808847 0.348904
O O8 0.628498 0.116704 0.923187
O O9 0.625156 0.000000 0.198887
O O10 0.764372 0.103475 0.987897
O O11 0.884793 0.311849 0.614112
O O12 0.884640 0.206380 0.313304
O O13 0.002716 0.347172 0.238781
O O14 0.911808 0.805174 0.842529
O O15 0.873941 0.900779 0.595144
O O16 0.909257 0.000000 0.839608
O O17 0.737666 0.110860 0.525503
O O18 0.599368 0.000000 0.692791
O O19 0.869966 0.000000 0.305435
#
# Coordination Sequence:
#
# PCOD9153066 Si02
#       8
#     4   4   4   4   4   4   4   4
#     4  12  27  46  65  83 113 154 199 260 321 360
#     4  12  25  40  63  90 116 155 206 251 298 360
#     4   9  18  35  60  90 126 164 198 235 285 350
#     4  10  21  39  65  95 124 156 197 241 292 360
#     4   8  14  28  54  87 123 162 195 223 268 338
#     4   9  18  35  60  90 126 164 198 235 285 350
#     4  10  21  39  65  95 124 156 197 241 292 360
#     4   8  14  28  54  87 123 162 195 223 268 338
#
# _framework density 20.820561000000001
#
# number of rings (size 3 to 8) (size 9 to 14) (size 15 to 20)
#    0.000    2.250    2.500    2.250    0.000    3.750 
#    0.000    5.625    0.000    1.500    0.000    3.500 
#    0.000    0.000    0.000    0.000    0.000    0.000 
#
# Total GULP energy -178757.548527 kJ/mol
# GULP energy per Si atom -5586.173391 kJ/mol
# Density = 2.077317 g / cm^3
# Si number density = 20.820561 Si / 1000 Ang^3
#
#
#
# Elastic Constant Matrix: (Units=GPa)
#
#
# Indices 1 2 3 4 5 6 
#
# 1 83.1169 20.8662 9.1567 0.0000 -2.5250 0.0000
# 2 20.8662 80.8974 0.0429 0.0000 -5.3916 0.0000
# 3 9.1567 0.0429 29.3836 0.0000 8.3194 0.0000
# 4 0.0000 0.0000 0.0000 5.5780 0.0000 12.3489
# 5 -2.5250 -5.3916 8.3194 0.0000 18.5699 0.0000
# 6 0.0000 0.0000 0.0000 12.3489 0.0000 4.0467
#
#
#
# Elastic Compliance Matrix: (Units=1/GPa)
#
#
# Indices 1 2 3 4 5 6 
#
# 1 0.013511 -0.003271 -0.005104 0.000000 0.003174 0.000000
# 2 -0.003271 0.013435 0.000024 0.000000 0.003445 0.000000
# 3 -0.005104 0.000024 0.041021 0.000000 -0.019065 0.000000
# 4 0.000000 0.000000 0.000000 -0.031147 0.000000 0.095048
# 5 0.003174 0.003445 -0.019065 0.000000 0.063824 0.000000
# 6 0.000000 0.000000 0.000000 0.095048 0.000000 -0.042934
#
#
# Mechanical properties :
#
#
# Convention : Reuss Voigt Hill
#
# Bulk Modulus (GPa) = 19.50651 28.16994 23.83822
# Shear Modulus (GPa) = 54.64504 16.52772 35.58638
#
# Velocity S-wave (km/s) = 5.12861 2.82053 4.13873
# Velocity P-wave (km/s) = 6.66779 4.91594 5.85773
#
# Compressibility (1/GPa) = 0.05126494
#
# Stress axis : x y z
#
# Youngs Moduli (GPa) = 74.01309 74.43490 24.37770
#
# Poissons Ratio (x) = 0.24345 0.12443
# Poissons Ratio (y) = 0.24207 -0.00059
# Poissons Ratio (z) = 0.37779 -0.00180
#
# Static dielectric constant tensor:
#      x y z
#    x 1.769150 0.000000 -0.008780 
#    y 0.000000 1.739190 0.000000 
#    z -0.008780 0.000000 1.776860 
# 
# From -- ./inp_files/29498.got.cif
#   From: 2010.05.17/outbox.cif.g08.bks.cpg/sg10_15_cif.got.tgz:29498.got - 2010.06.03 11:33:40.
