data_PCOD9153823
_publ_section_title
;
Structure prediction by ZEFSAII (Michael W. Deem and Ramdas Pophale) SiO2 
 PCOD9153823
Probable space group: P 2/M
;
_chemical_formula_sum "Si O2"
_cell_formula_units_Z 20
_cell_length_a 23.101184
_cell_length_b 7.282226
_cell_length_c 5.124116
_cell_angle_alpha 90.000000
_cell_angle_beta 98.587059
_cell_angle_gamma 90.000000
_cell_volume 852.356874
_symmetry_space_group_name_H-M "P 2/M"
_symmetry_group_IT_number 10
_symmetry_cell_setting 'monoclinic'
loop_
_space_group_symop_operation_xyz
x,y,z
-x,y,-z
-x,-y,-z
x,-y,z
loop_
_atom_site_type_symbol
_atom_site_label
_atom_site_fract_x
_atom_site_fract_y
_atom_site_fract_z
Si Si1 0.214622 0.778554 0.976133
Si Si2 0.958761 0.500000 0.722690
Si Si3 0.143468 0.779235 0.423926
Si Si4 0.615079 0.500000 0.563556
Si Si5 0.553419 0.787357 0.850414
Si Si6 0.327229 0.213263 0.734720
O O1 0.165353 0.731512 0.728463
O O2 0.275681 0.719423 0.889686
O O3 0.218985 0.000000 0.988873
O O4 0.193156 0.722725 0.246911
O O5 0.915640 0.674853 0.685137
O O6 0.000000 0.500000 0.500000
O O7 0.000000 0.500000 0.000000
O O8 0.136776 0.000000 0.404758
O O9 0.661862 0.340011 0.503803
O O10 0.567699 0.659442 0.619177
O O11 0.612317 0.770229 0.063915
O O12 0.545328 0.000000 0.771828
O O13 0.500000 0.730563 0.000000
O O14 0.317004 0.000000 0.656530
#
# Coordination Sequence:
#
# PCOD9153823 Si02
#       6
#     4   2   4   2   4   4
#     4   9  20  40  66  93 129 172 215 269 326 385
#     4  12  26  42  66  98 135 174 213 263 315 373
#     4  10  22  42  67  95 130 173 218 264 317 377
#     4  12  23  37  61  87 115 157 211 267 325 401
#     4  10  23  42  61  85 123 167 213 273 338 400
#     4  10  23  40  60  90 125 163 212 271 336 398
#
# _framework density 23.46435
#
# number of rings (size 3 to 8) (size 9 to 14) (size 15 to 20)
#    0.000    1.800    0.000    2.700    2.800    4.000 
#    0.000    3.000    0.000    0.000    0.000    0.000 
#    0.000    0.000    0.000    0.000    0.000    0.000 
#
# Total GULP energy -111470.029372 kJ/mol
# GULP energy per Si atom -5573.501469 kJ/mol
# Density = 2.341094 g / cm^3
# Si number density = 23.464350 Si / 1000 Ang^3
#
#
#
# Elastic Constant Matrix: (Units=GPa)
#
#
# Indices 1 2 3 4 5 6 
#
# 1 107.2328 30.7275 17.1769 0.0000 -27.4126 0.0000
# 2 30.7275 104.8488 15.4911 0.0000 -12.6781 0.0000
# 3 17.1769 15.4911 80.2641 0.0000 -16.3109 0.0000
# 4 0.0000 0.0000 0.0000 -23.7023 0.0000 -30.1272
# 5 -27.4126 -12.6781 -16.3109 0.0000 47.5763 0.0000
# 6 0.0000 0.0000 0.0000 -30.1272 0.0000 35.9884
#
#
#
# Elastic Compliance Matrix: (Units=1/GPa)
#
#
# Indices 1 2 3 4 5 6 
#
# 1 0.011674 -0.002604 -0.000827 0.000000 0.005749 0.000000
# 2 -0.002604 0.010600 -0.001311 0.000000 0.000875 0.000000
# 3 -0.000827 -0.001311 0.013674 0.000000 0.003862 0.000000
# 4 0.000000 0.000000 0.000000 -0.020440 0.000000 -0.017111
# 5 0.005749 0.000875 0.003862 0.000000 0.025888 0.000000
# 6 0.000000 0.000000 0.000000 -0.017111 0.000000 0.013462
#
#
# Mechanical properties :
#
#
# Convention : Reuss Voigt Hill
#
# Bulk Modulus (GPa) = 37.78800 46.57073 42.17936
# Shear Modulus (GPa) = 68.34060 27.23583 47.78821
#
# Velocity S-wave (km/s) = 5.40264 3.41065 4.51780
# Velocity P-wave (km/s) = 7.42007 5.94984 6.72525
#
# Compressibility (1/GPa) = 0.02646343
#
# Stress axis : x y z
#
# Youngs Moduli (GPa) = 85.66243 94.33876 73.13300
#
# Poissons Ratio (x) = 0.24564 0.06052
# Poissons Ratio (y) = 0.22305 0.09586
# Poissons Ratio (z) = 0.07088 0.12366
#
# Static dielectric constant tensor:
#      x y z
#    x 1.862910 0.000000 0.048160 
#    y 0.000000 1.887120 0.000000 
#    z 0.048160 0.000000 1.925650 
# 
# From -- ./inp_files/11903.got.cif
#   From: 2010.05.17/outbox.cif.g08.bks.cpg/sg10_6_cif.got.tgz:11903.got - 2010.06.03 11:33:40.
