data_PCOD9153574
_publ_section_title
;
Structure prediction by ZEFSAII (Michael W. Deem and Ramdas Pophale) SiO2 
 PCOD9153574
Probable space group: P 2/M
;
_chemical_formula_sum "Si O2"
_cell_formula_units_Z 17
_cell_length_a 9.862855
_cell_length_b 7.738550
_cell_length_c 9.941601
_cell_angle_alpha 90.000000
_cell_angle_beta 68.938240
_cell_angle_gamma 90.000000
_cell_volume 708.093029
_symmetry_space_group_name_H-M "P 2/M"
_symmetry_group_IT_number 10
_symmetry_cell_setting 'monoclinic'
loop_
_space_group_symop_operation_xyz
x,y,z
-x,y,-z
-x,-y,-z
x,-y,z
loop_
_atom_site_type_symbol
_atom_site_label
_atom_site_fract_x
_atom_site_fract_y
_atom_site_fract_z
Si Si1 0.126314 0.295703 0.361596
Si Si2 0.369312 0.204645 0.642130
Si Si3 0.500000 0.500000 0.000000
Si Si4 0.048529 0.791467 0.833425
Si Si5 0.583773 0.191316 0.800577
O O1 0.138499 0.500000 0.378805
O O2 0.277598 0.208819 0.344877
O O3 0.000000 0.224938 0.500000
O O4 0.075556 0.256062 0.228671
O O5 0.500000 0.277150 0.500000
O O6 0.204699 0.274176 0.718318
O O7 0.438684 0.217878 0.766793
O O8 0.358322 0.000000 0.613122
O O9 0.598630 0.346946 0.897445
O O10 0.061603 0.000000 0.836156
O O11 0.000000 0.731409 0.000000
O O12 0.589390 0.000000 0.855976
#
# Coordination Sequence:
#
# PCOD9153574 Si02
#       5
#     4   4   1   4   4
#     4  11  24  43  65  98 137 174 223 279 330 400
#     4   9  19  38  64  95 127 167 221 272 327 402
#     4  12  26  44  60 100 140 168 224 282 312 402
#     4  10  22  39  62  93 129 168 219 276 334 397
#     4  11  24  43  71  96 130 178 220 271 335 393
#
# _framework density 24.008144000000001
#
# number of rings (size 3 to 8) (size 9 to 14) (size 15 to 20)
#    0.000    1.647    1.176    2.471    3.294    4.235 
#    2.118    0.588    0.000    0.000    0.000    0.000 
#    0.000    0.000    0.000    0.000    0.000    0.000 
#
# Total GULP energy -94705.262389 kJ/mol
# GULP energy per Si atom -5570.897788 kJ/mol
# Density = 2.395350 g / cm^3
# Si number density = 24.008144 Si / 1000 Ang^3
#
#
#
# Elastic Constant Matrix: (Units=GPa)
#
#
# Indices 1 2 3 4 5 6 
#
# 1 89.4159 19.6652 2.7161 0.0000 -17.2407 0.0000
# 2 19.6652 101.9108 26.3369 0.0000 -3.1274 0.0000
# 3 2.7161 26.3369 79.4334 0.0000 -9.2236 0.0000
# 4 0.0000 0.0000 0.0000 -5.0359 0.0000 -6.4658
# 5 -17.2407 -3.1274 -9.2236 0.0000 38.8602 0.0000
# 6 0.0000 0.0000 0.0000 -6.4658 0.0000 10.6105
#
#
#
# Elastic Compliance Matrix: (Units=1/GPa)
#
#
# Indices 1 2 3 4 5 6 
#
# 1 0.012824 -0.002578 0.001083 0.000000 0.005739 0.000000
# 2 -0.002578 0.011250 -0.003774 0.000000 -0.001134 0.000000
# 3 0.001083 -0.003774 0.014216 0.000000 0.003551 0.000000
# 4 0.000000 0.000000 0.000000 -0.111408 0.000000 -0.067889
# 5 0.005739 -0.001134 0.003551 0.000000 0.029031 0.000000
# 6 0.000000 0.000000 0.000000 -0.067889 0.000000 0.052876
#
#
# Mechanical properties :
#
#
# Convention : Reuss Voigt Hill
#
# Bulk Modulus (GPa) = 36.03347 40.91071 38.47209
# Shear Modulus (GPa) = 174.95237 23.68975 99.32106
#
# Velocity S-wave (km/s) = 8.54578 3.14465 6.43891
# Velocity P-wave (km/s) = 10.60260 5.50113 8.44623
#
# Compressibility (1/GPa) = 0.02775197
#
# Stress axis : x y z
#
# Youngs Moduli (GPa) = 77.97587 88.88500 70.34490
#
# Poissons Ratio (x) = 0.22918 -0.07617
# Poissons Ratio (y) = 0.20105 0.26546
# Poissons Ratio (z) = -0.08443 0.33543
#
# Static dielectric constant tensor:
#      x y z
#    x 1.951970 0.000000 0.007590 
#    y 0.000000 1.847410 0.000000 
#    z 0.007590 0.000000 2.139940 
# 
# From -- ./inp_files/40687.got.cif
#   From: 2010.05.17/outbox.cif.g08.bks.cpg/sg10_21_cif.got.tgz:40687.got - 2010.06.03 11:33:40.
