data_PCOD9153944
_publ_section_title
;
Structure prediction by ZEFSAII (Michael W. Deem and Ramdas Pophale) SiO2 
 PCOD9153944
Probable space group: P 2/M
;
_chemical_formula_sum "Si O2"
_cell_formula_units_Z 28
_cell_length_a 9.089537
_cell_length_b 23.743135
_cell_length_c 14.551490
_cell_angle_alpha 90.000000
_cell_angle_beta 152.105397
_cell_angle_gamma 90.000000
_cell_volume 1469.233204
_symmetry_space_group_name_H-M "P 2/M"
_symmetry_group_IT_number 10
_symmetry_cell_setting 'monoclinic'
loop_
_space_group_symop_operation_xyz
x,y,z
-x,y,-z
-x,-y,-z
x,-y,z
loop_
_atom_site_type_symbol
_atom_site_label
_atom_site_fract_x
_atom_site_fract_y
_atom_site_fract_z
Si Si1 0.805786 0.723024 0.303228
Si Si2 0.262446 0.648815 0.447714
Si Si3 0.277646 0.934904 0.462840
Si Si4 0.795385 0.433863 0.093794
Si Si5 0.384858 0.938838 0.720193
Si Si6 0.332546 0.349748 0.141237
Si Si7 0.270891 0.848125 0.793230
O O1 0.470098 0.697844 0.147574
O O2 0.833553 0.789807 0.308119
O O3 0.000000 0.706598 0.500000
O O4 0.979055 0.691963 0.315177
O O5 0.500000 0.670667 0.500000
O O6 0.448715 0.638734 0.647291
O O7 0.092526 0.594956 0.308405
O O8 0.500000 0.925429 0.500000
O O9 0.482666 0.931859 0.669284
O O10 0.006388 0.888454 0.322475
O O11 0.154334 0.000000 0.390823
O O12 0.847552 0.500000 0.107848
O O13 0.500000 0.426954 0.000000
O O14 0.719974 0.402901 0.955587
O O15 0.458471 0.887197 0.825057
O O16 0.000000 0.939418 0.500000
O O17 0.484924 0.000000 0.811061
O O18 0.000000 0.332126 0.000000
O O19 0.500000 0.831320 0.000000
#
# Coordination Sequence:
#
# PCOD9153944 Si02
#       7
#     4   4   4   4   4   4   4
#     4  10  23  41  61  84 118 159 207 252 298 363
#     4  11  23  41  65  91 123 166 204 251 312 368
#     4   9  18  35  58  81 112 152 192 240 297 354
#     4  11  24  42  67  94 127 165 202 257 304 364
#     4   8  15  31  53  74 106 146 183 228 283 342
#     4  11  23  42  66  91 124 164 204 255 313 370
#     4  11  22  33  55  85 112 150 193 246 290 350
#
# _framework density 19.057559000000001
#
# number of rings (size 3 to 8) (size 9 to 14) (size 15 to 20)
#    0.000    1.857    2.857    2.571    2.000    2.857 
#    0.000    5.000    0.000    2.571    0.000    0.000 
#    0.000    0.000    0.000    0.000    0.000    0.000 
#
# Total GULP energy -155972.465420 kJ/mol
# GULP energy per Si atom -5570.445194 kJ/mol
# Density = 1.901418 g / cm^3
# Si number density = 19.057559 Si / 1000 Ang^3
#
#
#
# Elastic Constant Matrix: (Units=GPa)
#
#
# Indices 1 2 3 4 5 6 
#
# 1 153.6353 57.3356 28.1684 0.0000 9.1146 0.0000
# 2 57.3356 90.3161 13.2559 0.0000 15.2717 0.0000
# 3 28.1684 13.2559 49.8364 0.0000 -6.2902 0.0000
# 4 0.0000 0.0000 0.0000 -15.4509 0.0000 -7.8856
# 5 9.1146 15.2717 -6.2902 0.0000 29.4928 0.0000
# 6 0.0000 0.0000 0.0000 -7.8856 0.0000 13.7987
#
#
#
# Elastic Compliance Matrix: (Units=1/GPa)
#
#
# Indices 1 2 3 4 5 6 
#
# 1 0.009195 -0.005073 -0.003982 0.000000 -0.001064 0.000000
# 2 -0.005073 0.015822 -0.002238 0.000000 -0.007102 0.000000
# 3 -0.003982 -0.002238 0.023855 0.000000 0.007477 0.000000
# 4 0.000000 0.000000 0.000000 -0.050107 0.000000 -0.028635
# 5 -0.001064 -0.007102 0.007477 0.000000 0.039508 0.000000
# 6 0.000000 0.000000 0.000000 -0.028635 0.000000 0.056106
#
#
# Mechanical properties :
#
#
# Convention : Reuss Voigt Hill
#
# Bulk Modulus (GPa) = 38.04157 54.58972 46.31565
# Shear Modulus (GPa) = 39.76815 18.56999 29.16907
#
# Velocity S-wave (km/s) = 4.57304 3.12495 3.91650
# Velocity P-wave (km/s) = 6.92014 6.45966 6.69386
#
# Compressibility (1/GPa) = 0.02628704
#
# Stress axis : x y z
#
# Youngs Moduli (GPa) = 108.74936 63.20249 41.91915
#
# Poissons Ratio (x) = 0.32063 0.16694
# Poissons Ratio (y) = 0.55170 0.09380
# Poissons Ratio (z) = 0.43308 0.14142
#
# Static dielectric constant tensor:
#      x y z
#    x 1.705060 0.000000 0.005070 
#    y 0.000000 1.645520 0.000000 
#    z 0.005070 0.000000 1.705800 
# 
# From -- ./inp_files/30419.got.cif
#   From: 2010.05.17/outbox.cif.g08.bks.cpg/sg10_16_cif.got.tgz:30419.got - 2010.06.03 11:33:40.
