data_PCOD9153600
_publ_section_title
;
Structure prediction by ZEFSAII (Michael W. Deem and Ramdas Pophale) SiO2 
 PCOD9153600
Probable space group: P 2/M
;
_chemical_formula_sum "Si O2"
_cell_formula_units_Z 26
_cell_length_a 9.319677
_cell_length_b 20.609095
_cell_length_c 9.208432
_cell_angle_alpha 90.000000
_cell_angle_beta 132.744790
_cell_angle_gamma 90.000000
_cell_volume 1298.879344
_symmetry_space_group_name_H-M "P 2/M"
_symmetry_group_IT_number 10
_symmetry_cell_setting 'monoclinic'
loop_
_space_group_symop_operation_xyz
x,y,z
-x,y,-z
-x,-y,-z
x,-y,z
loop_
_atom_site_type_symbol
_atom_site_label
_atom_site_fract_x
_atom_site_fract_y
_atom_site_fract_z
Si Si1 0.930429 0.199541 0.229948
Si Si2 0.668871 0.810538 0.310285
Si Si3 0.379011 0.575643 0.065346
Si Si4 0.564161 0.071363 0.710498
Si Si5 0.409277 0.321340 0.590672
Si Si6 0.000000 0.111447 0.000000
Si Si7 0.011349 0.657357 0.831818
O O1 0.741437 0.181867 0.195216
O O2 0.126784 0.190466 0.459602
O O3 0.905561 0.273476 0.162638
O O4 0.974567 0.156767 0.121565
O O5 0.530418 0.868739 0.267555
O O6 0.587547 0.739422 0.296498
O O7 0.383058 0.500000 0.107699
O O8 0.472012 0.620500 0.254352
O O9 0.500000 0.584505 0.000000
O O10 0.159295 0.600714 0.890791
O O11 0.500000 0.078757 0.500000
O O12 0.798188 0.073127 0.863402
O O13 0.499478 0.000000 0.720048
O O14 0.500000 0.298328 0.500000
O O15 0.194579 0.345593 0.394317
O O16 0.000000 0.657710 0.000000
#
# Coordination Sequence:
#
# PCOD9153600 Si02
#       7
#     4   4   4   4   4   2   4
#     4  10  22  39  66  99 129 162 214 267 319 375
#     4  10  22  42  65  97 129 168 211 267 322 377
#     4  11  26  45  65  95 132 170 214 262 321 386
#     4  11  24  43  65  92 130 173 211 261 324 380
#     4  11  23  41  68  98 129 166 219 271 314 378
#     4  12  23  40  66  96 125 164 216 264 309 388
#     4  11  22  41  65  97 129 166 211 264 322 374
#
# _framework density 20.017254999999999
#
# number of rings (size 3 to 8) (size 9 to 14) (size 15 to 20)
#    0.000    1.231    3.846    1.615    4.308    3.692 
#    0.000    5.385    0.000    0.000    0.000    0.000 
#    0.000    0.000    0.000    0.000    0.000    0.000 
#
# Total GULP energy -145238.243538 kJ/mol
# GULP energy per Si atom -5586.086290 kJ/mol
# Density = 1.997170 g / cm^3
# Si number density = 20.017255 Si / 1000 Ang^3
#
#
#
# Elastic Constant Matrix: (Units=GPa)
#
#
# Indices 1 2 3 4 5 6 
#
# 1 123.0275 60.5399 20.2432 0.0000 3.3943 0.0000
# 2 60.5399 122.4587 23.9491 0.0000 2.5117 0.0000
# 3 20.2432 23.9491 48.0352 0.0000 10.3891 0.0000
# 4 0.0000 0.0000 0.0000 17.6231 0.0000 -4.8792
# 5 3.3943 2.5117 10.3891 0.0000 36.4029 0.0000
# 6 0.0000 0.0000 0.0000 -4.8792 0.0000 43.8637
#
#
#
# Elastic Compliance Matrix: (Units=1/GPa)
#
#
# Indices 1 2 3 4 5 6 
#
# 1 0.010933 -0.004992 -0.002102 0.000000 -0.000075 0.000000
# 2 -0.004992 0.011345 -0.003713 0.000000 0.000742 0.000000
# 3 -0.002102 -0.003713 0.025001 0.000000 -0.006683 0.000000
# 4 0.000000 0.000000 0.000000 0.058547 0.000000 0.006513
# 5 -0.000075 0.000742 -0.006683 0.000000 0.029333 0.000000
# 6 0.000000 0.000000 0.000000 0.006513 0.000000 0.023522
#
#
# Mechanical properties :
#
#
# Convention : Reuss Voigt Hill
#
# Bulk Modulus (GPa) = 38.96574 55.88730 47.42652
# Shear Modulus (GPa) = 26.47605 32.16390 29.31997
#
# Velocity S-wave (km/s) = 3.64079 4.01285 3.83134
# Velocity P-wave (km/s) = 6.09771 7.03213 6.58152
#
# Compressibility (1/GPa) = 0.02566357
#
# Stress axis : x y z
#
# Youngs Moduli (GPa) = 91.46783 88.14504 39.99909
#
# Poissons Ratio (x) = 0.44004 0.08408
# Poissons Ratio (y) = 0.45663 0.14852
# Poissons Ratio (z) = 0.19228 0.32729
#
# Static dielectric constant tensor:
#      x y z
#    x 1.714420 0.000000 0.017800 
#    y 0.000000 1.671820 0.000000 
#    z 0.017800 0.000000 1.724930 
# 
# From -- ./inp_files/20477.got.cif
#   From: 2010.05.17/outbox.cif.g08.bks.cpg/sg10_11_cif.got.tgz:20477.got - 2010.06.03 11:33:40.
