data_PCOD9153217
_publ_section_title
;
Structure prediction by ZEFSAII (Michael W. Deem and Ramdas Pophale) SiO2 
 PCOD9153217
Probable space group: P 2/M
;
_chemical_formula_sum "Si O2"
_cell_formula_units_Z 16
_cell_length_a 20.360155
_cell_length_b 7.339347
_cell_length_c 9.592131
_cell_angle_alpha 90.000000
_cell_angle_beta 148.539451
_cell_angle_gamma 90.000000
_cell_volume 748.083970
_symmetry_space_group_name_H-M "P 2/M"
_symmetry_group_IT_number 10
_symmetry_cell_setting 'monoclinic'
loop_
_space_group_symop_operation_xyz
x,y,z
-x,y,-z
-x,-y,-z
x,-y,z
loop_
_atom_site_type_symbol
_atom_site_label
_atom_site_fract_x
_atom_site_fract_y
_atom_site_fract_z
Si Si1 0.811847 0.720106 0.248113
Si Si2 0.407732 0.000000 0.702146
Si Si3 0.475179 0.718988 0.291226
Si Si4 0.930333 0.718203 0.164163
Si Si5 0.135474 0.000000 0.176544
O O1 0.810975 0.500000 0.250921
O O2 0.861501 0.767859 0.183941
O O3 0.922987 0.775554 0.554147
O O4 0.668269 0.776265 0.005311
O O5 0.435838 0.172038 0.652299
O O6 0.264115 0.000000 0.493890
O O7 0.500000 0.000000 0.000000
O O8 0.500000 0.759632 0.500000
O O9 0.488066 0.500000 0.298728
O O10 0.924653 0.500000 0.138531
O O11 0.865009 0.822803 0.922332
O O12 0.000000 0.000000 0.000000
#
# Coordination Sequence:
#
# PCOD9153217 Si02
#       5
#     4   2   4   4   2
#     4   8  16  33  64  99 120 150 196 251 317 370
#     4  12  29  45  61  91 134 172 208 257 316 380
#     4  10  21  40  69  97 125 163 212 262 316 375
#     4   9  19  38  62  91 126 152 195 260 309 355
#     4  12  28  42  59  86 115 168 222 241 289 370
#
# _framework density 21.387974
#
# number of rings (size 3 to 8) (size 9 to 14) (size 15 to 20)
#    0.000    2.250    0.000    3.375    3.500    7.000 
#    0.000    0.000    0.000    0.000    0.000    0.000 
#    0.000    0.000    0.000    0.000    0.000    0.000 
#
# Total GULP energy -89383.683142 kJ/mol
# GULP energy per Si atom -5586.480196 kJ/mol
# Density = 2.133929 g / cm^3
# Si number density = 21.387974 Si / 1000 Ang^3
#
#
#
# Elastic Constant Matrix: (Units=GPa)
#
#
# Indices 1 2 3 4 5 6 
#
# 1 66.5640 22.8834 43.0713 0.0000 19.9479 0.0000
# 2 22.8834 93.3182 24.9118 0.0000 -3.6087 0.0000
# 3 43.0713 24.9118 140.5806 0.0000 22.0855 0.0000
# 4 0.0000 0.0000 0.0000 19.7095 0.0000 2.3401
# 5 19.9479 -3.6087 22.0855 0.0000 42.1697 0.0000
# 6 0.0000 0.0000 0.0000 2.3401 0.0000 2.2810
#
#
#
# Elastic Compliance Matrix: (Units=1/GPa)
#
#
# Indices 1 2 3 4 5 6 
#
# 1 0.022100 -0.004502 -0.004653 0.000000 -0.008402 0.000000
# 2 -0.004502 0.012353 -0.001428 0.000000 0.003935 0.000000
# 3 -0.004653 -0.001428 0.009224 0.000000 -0.002752 0.000000
# 4 0.000000 0.000000 0.000000 0.057774 0.000000 -0.059271
# 5 -0.008402 0.003935 -0.002752 0.000000 0.029466 0.000000
# 6 0.000000 0.000000 0.000000 -0.059271 0.000000 0.499219
#
#
# Mechanical properties :
#
#
# Convention : Reuss Voigt Hill
#
# Bulk Modulus (GPa) = 44.42202 53.57730 48.99966
# Shear Modulus (GPa) = 7.58949 26.80513 17.19731
#
# Velocity S-wave (km/s) = 1.88579 3.54401 2.83868
# Velocity P-wave (km/s) = 5.05532 6.46926 5.80550
#
# Compressibility (1/GPa) = 0.02251136
#
# Stress axis : x y z
#
# Youngs Moduli (GPa) = 45.24946 80.94982 108.40821
#
# Poissons Ratio (x) = 0.36444 0.50444
# Poissons Ratio (y) = 0.20371 0.15479
# Poissons Ratio (z) = 0.21055 0.11559
#
# Static dielectric constant tensor:
#      x y z
#    x 1.772490 0.000000 0.039520 
#    y 0.000000 1.767410 0.000000 
#    z 0.039520 0.000000 1.786330 
# 
# From -- ./inp_files/34137.got.cif
#   From: 2010.05.17/outbox.cif.g08.bks.cpg/sg10_18_cif.got.tgz:34137.got - 2010.06.03 11:33:40.
