data_PCOD9153858
_publ_section_title
;
Structure prediction by ZEFSAII (Michael W. Deem and Ramdas Pophale) SiO2 
 PCOD9153858
Probable space group: P 2/M
;
_chemical_formula_sum "Si O2"
_cell_formula_units_Z 28
_cell_length_a 11.600565
_cell_length_b 15.309120
_cell_length_c 8.937254
_cell_angle_alpha 90.000000
_cell_angle_beta 62.267992
_cell_angle_gamma 90.000000
_cell_volume 1404.890249
_symmetry_space_group_name_H-M "P 2/M"
_symmetry_group_IT_number 10
_symmetry_cell_setting 'monoclinic'
loop_
_space_group_symop_operation_xyz
x,y,z
-x,y,-z
-x,-y,-z
x,-y,z
loop_
_atom_site_type_symbol
_atom_site_label
_atom_site_fract_x
_atom_site_fract_y
_atom_site_fract_z
Si Si1 0.063565 0.598744 0.129696
Si Si2 0.878668 0.906919 0.774815
Si Si3 0.702646 0.192032 0.700709
Si Si4 0.801114 0.898824 0.169228
Si Si5 0.447685 0.786772 0.689135
Si Si6 0.640238 0.335214 0.990862
Si Si7 0.080703 0.233172 0.666874
O O1 0.038348 0.500000 0.197842
O O2 0.221352 0.614565 0.056629
O O3 0.981993 0.673286 0.264110
O O4 0.000000 0.604163 0.000000
O O5 0.756355 0.895433 0.742218
O O6 0.966221 0.826843 0.674868
O O7 0.943960 0.000000 0.714759
O O8 0.838947 0.897771 0.971777
O O9 0.567766 0.173559 0.704313
O O10 0.680792 0.261300 0.846796
O O11 0.797674 0.232194 0.517482
O O12 0.656137 0.862820 0.273905
O O13 0.880497 0.824350 0.210186
O O14 0.818490 0.000000 0.208877
O O15 0.500000 0.751095 0.500000
O O16 0.393648 0.711251 0.831020
O O17 0.500000 0.371287 0.000000
#
# Coordination Sequence:
#
# PCOD9153858 Si02
#       7
#     4   4   4   4   4   4   4
#     4  11  24  42  72 103 129 168 217 273 332 393
#     4  11  23  38  59  88 124 170 215 263 318 377
#     4  11  23  37  61  91 127 171 208 259 325 381
#     4  11  23  39  61  91 128 176 225 269 318 373
#     4  11  21  40  63  89 119 174 220 264 312 379
#     4  10  22  43  67  95 131 169 214 262 333 394
#     4  12  22  40  63  92 129 166 213 267 318 389
#
# _framework density 19.930382999999999
#
# number of rings (size 3 to 8) (size 9 to 14) (size 15 to 20)
#    0.000    1.000    4.286    3.000    0.000    4.000 
#    0.000    2.857    0.000    1.286    0.000    0.000 
#    0.000    0.000    0.000    0.000    0.000    0.000 
#
# Total GULP energy -156034.026991 kJ/mol
# GULP energy per Si atom -5572.643821 kJ/mol
# Density = 1.988502 g / cm^3
# Si number density = 19.930383 Si / 1000 Ang^3
#
#
#
# Elastic Constant Matrix: (Units=GPa)
#
#
# Indices 1 2 3 4 5 6 
#
# 1 128.9700 49.1875 16.9101 0.0000 -0.8940 0.0000
# 2 49.1875 126.6873 48.4686 0.0000 -3.7240 0.0000
# 3 16.9101 48.4686 103.6856 0.0000 -3.2455 0.0000
# 4 0.0000 0.0000 0.0000 7.1813 0.0000 -6.8234
# 5 -0.8940 -3.7240 -3.2455 0.0000 28.9776 0.0000
# 6 0.0000 0.0000 0.0000 -6.8234 0.0000 30.8399
#
#
#
# Elastic Compliance Matrix: (Units=1/GPa)
#
#
# Indices 1 2 3 4 5 6 
#
# 1 0.009106 -0.003617 0.000201 0.000000 -0.000161 0.000000
# 2 -0.003617 0.011065 -0.004557 0.000000 0.000800 0.000000
# 3 0.000201 -0.004557 0.011765 0.000000 0.000738 0.000000
# 4 0.000000 0.000000 0.000000 0.176315 0.000000 0.039010
# 5 -0.000161 0.000800 0.000738 0.000000 0.034690 0.000000
# 6 0.000000 0.000000 0.000000 0.039010 0.000000 0.041056
#
#
# Mechanical properties :
#
#
# Convention : Reuss Voigt Hill
#
# Bulk Modulus (GPa) = 62.54472 65.38614 63.96543
# Shear Modulus (GPa) = 16.37870 29.71824 23.04847
#
# Velocity S-wave (km/s) = 2.86981 3.86567 3.40435
# Velocity P-wave (km/s) = 6.51389 7.26657 6.90050
#
# Compressibility (1/GPa) = 0.01598856
#
# Stress axis : x y z
#
# Youngs Moduli (GPa) = 109.82067 90.37620 84.99554
#
# Poissons Ratio (x) = 0.32688 -0.01705
# Poissons Ratio (y) = 0.39721 0.38736
# Poissons Ratio (z) = -0.02203 0.41188
#
# Static dielectric constant tensor:
#      x y z
#    x 1.891110 0.000000 -0.023250 
#    y 0.000000 1.676010 0.000000 
#    z -0.023250 0.000000 1.719310 
# 
# From -- ./inp_files/25185.got.cif
#   From: 2010.05.17/outbox.cif.g08.bks.cpg/sg10_13_cif.got.tgz:25185.got - 2010.06.03 11:33:40.
