data_PCOD9153367
_publ_section_title
;
Structure prediction by ZEFSAII (Michael W. Deem and Ramdas Pophale) SiO2 
 PCOD9153367
Probable space group: P 2/M
;
_chemical_formula_sum "Si O2"
_cell_formula_units_Z 28
_cell_length_a 5.129383
_cell_length_b 30.706849
_cell_length_c 9.380667
_cell_angle_alpha 90.000000
_cell_angle_beta 113.885932
_cell_angle_gamma 90.000000
_cell_volume 1350.977719
_symmetry_space_group_name_H-M "P 2/M"
_symmetry_group_IT_number 10
_symmetry_cell_setting 'monoclinic'
loop_
_space_group_symop_operation_xyz
x,y,z
-x,y,-z
-x,-y,-z
x,-y,z
loop_
_atom_site_type_symbol
_atom_site_label
_atom_site_fract_x
_atom_site_fract_y
_atom_site_fract_z
Si Si1 0.320429 0.166795 0.105696
Si Si2 0.332796 0.000000 0.611829
Si Si3 0.123224 0.314533 0.184478
Si Si4 0.722439 0.771839 0.657080
Si Si5 0.000000 0.160557 0.500000
Si Si6 0.255046 0.357886 0.675846
Si Si7 0.468272 0.095230 0.666437
Si Si8 0.666881 0.452916 0.388316
O O1 0.422739 0.203424 0.241602
O O2 0.303795 0.120925 0.188569
O O3 0.500000 0.164057 0.000000
O O4 0.000000 0.180241 0.000000
O O5 0.500000 0.000000 0.500000
O O6 0.413249 0.045809 0.701241
O O7 0.000000 0.000000 0.500000
O O8 0.083395 0.266812 0.245388
O O9 0.458453 0.328242 0.270887
O O10 0.921047 0.347706 0.222265
O O11 0.000000 0.312081 0.000000
O O12 0.500000 0.750530 0.500000
O O13 0.860055 0.809221 0.589090
O O14 0.201894 0.127110 0.628600
O O15 0.369314 0.407433 0.699507
O O16 0.000000 0.352201 0.500000
O O17 0.500000 0.095454 0.500000
O O18 0.500000 0.449489 0.500000
O O19 0.589611 0.500000 0.304348
O O20 0.000000 0.454464 0.500000
#
# Coordination Sequence:
#
# PCOD9153367 Si02
#       8
#     4   2   4   4   2   4   4   4
#     4  12  26  42  65  95 134 170 207 261 325 385
#     4  10  22  36  68  98 124 158 211 266 303 370
#     4  12  28  44  62  92 137 176 212 269 333 390
#     4  12  26  43  67  97 122 170 226 273 318 386
#     4  12  20  41  72  92 128 152 217 272 320 360
#     4  11  22  43  68  95 127 176 225 267 319 388
#     4  11  22  42  66  97 126 168 213 261 315 374
#     4   9  17  32  60  98 130 158 210 280 330 367
#
# _framework density 20.725729999999999
#
# number of rings (size 3 to 8) (size 9 to 14) (size 15 to 20)
#    0.000    0.857    3.571    4.714    3.000    1.143 
#    0.000    0.714    0.000    2.571    0.000    0.000 
#    0.000    0.000    0.000    0.000    0.000    0.000 
#
# Total GULP energy -156197.155442 kJ/mol
# GULP energy per Si atom -5578.469837 kJ/mol
# Density = 2.067856 g / cm^3
# Si number density = 20.725730 Si / 1000 Ang^3
#
#
#
# Elastic Constant Matrix: (Units=GPa)
#
#
# Indices 1 2 3 4 5 6 
#
# 1 106.0041 18.5634 26.8577 0.0000 -9.1353 0.0000
# 2 18.5634 124.7864 53.5870 0.0000 -3.3681 0.0000
# 3 26.8577 53.5870 95.7539 0.0000 -16.1225 0.0000
# 4 0.0000 0.0000 0.0000 2.2958 0.0000 -1.2482
# 5 -9.1353 -3.3681 -16.1225 0.0000 28.9466 0.0000
# 6 0.0000 0.0000 0.0000 -1.2482 0.0000 14.4150
#
#
#
# Elastic Compliance Matrix: (Units=1/GPa)
#
#
# Indices 1 2 3 4 5 6 
#
# 1 0.010263 -0.000497 -0.002279 0.000000 0.001912 0.000000
# 2 -0.000497 0.010710 -0.006258 0.000000 -0.002396 0.000000
# 3 -0.002279 -0.006258 0.015825 0.000000 0.007367 0.000000
# 4 0.000000 0.000000 0.000000 0.457098 0.000000 0.039579
# 5 0.001912 -0.002396 0.007367 0.000000 0.038974 0.000000
# 6 0.000000 0.000000 0.000000 0.039579 0.000000 0.072799
#
#
# Mechanical properties :
#
#
# Convention : Reuss Voigt Hill
#
# Bulk Modulus (GPa) = 53.38582 58.28452 55.83517
# Shear Modulus (GPa) = 7.93676 24.30058 16.11867
#
# Velocity S-wave (km/s) = 1.95901 3.42787 2.79178
# Velocity P-wave (km/s) = 5.56158 6.62193 6.11478
#
# Compressibility (1/GPa) = 0.01873157
#
# Stress axis : x y z
#
# Youngs Moduli (GPa) = 97.44060 93.36863 63.19060
#
# Poissons Ratio (x) = 0.04636 0.14400
# Poissons Ratio (y) = 0.04838 0.39544
# Poissons Ratio (z) = 0.22204 0.58430
#
# Static dielectric constant tensor:
#      x y z
#    x 1.786930 0.000000 0.055720 
#    y 0.000000 1.780280 0.000000 
#    z 0.055720 0.000000 1.845820 
# 
# From -- ./inp_files/15926.got.cif
#   From: 2010.05.17/outbox.cif.g08.bks.cpg/sg10_8_cif.got.tgz:15926.got - 2010.06.03 11:33:40.
