data_PCOD9153681
_publ_section_title
;
Structure prediction by ZEFSAII (Michael W. Deem and Ramdas Pophale) SiO2 
 PCOD9153681
Probable space group: P 2/M
;
_chemical_formula_sum "Si O2"
_cell_formula_units_Z 30
_cell_length_a 13.703318
_cell_length_b 18.681571
_cell_length_c 5.671936
_cell_angle_alpha 90.000000
_cell_angle_beta 69.734622
_cell_angle_gamma 90.000000
_cell_volume 1362.130917
_symmetry_space_group_name_H-M "P 2/M"
_symmetry_group_IT_number 10
_symmetry_cell_setting 'monoclinic'
loop_
_space_group_symop_operation_xyz
x,y,z
-x,y,-z
-x,-y,-z
x,-y,z
loop_
_atom_site_type_symbol
_atom_site_label
_atom_site_fract_x
_atom_site_fract_y
_atom_site_fract_z
Si Si1 0.500000 0.168128 0.000000
Si Si2 0.313397 0.084245 0.989496
Si Si3 0.728963 0.189521 0.351894
Si Si4 0.898371 0.727867 0.939894
Si Si5 0.192439 0.581537 0.891996
Si Si6 0.317533 0.418653 0.285375
Si Si7 0.884545 0.149317 0.608363
Si Si8 0.445932 0.291297 0.318304
O O1 0.399392 0.117651 0.094430
O O2 0.473696 0.229260 0.827935
O O3 0.330266 0.125913 0.730730
O O4 0.325101 0.000000 0.963535
O O5 0.196172 0.106105 0.160616
O O6 0.788940 0.243609 0.130652
O O7 0.822388 0.154154 0.419233
O O8 0.653754 0.240249 0.561642
O O9 0.890603 0.643086 0.978690
O O10 0.898795 0.769163 0.691774
O O11 0.000000 0.752892 0.000000
O O12 0.152217 0.500000 0.909406
O O13 0.261670 0.584021 0.075577
O O14 0.249345 0.594860 0.587116
O O15 0.356994 0.500000 0.280760
O O16 0.403129 0.356860 0.205955
O O17 0.000000 0.117887 0.500000
O O18 0.500000 0.324240 0.500000
#
# Coordination Sequence:
#
# PCOD9153681 Si02
#       8
#     2   4   4   4   4   4   4   4
#     4  12  25  44  67 102 132 172 226 278 341 418
#     4  11  26  44  67  98 135 171 217 278 344 420
#     4  11  22  43  62  95 131 171 219 274 339 407
#     4  11  22  36  66  96 128 171 224 282 337 401
#     4  10  22  40  63  95 135 183 229 283 347 410
#     4  10  23  42  65  94 137 184 228 283 349 405
#     4  11  23  42  69  97 129 173 225 275 336 408
#     4  12  24  40  67  96 129 174 228 278 338 412
#
# _framework density 22.024314
#
# number of rings (size 3 to 8) (size 9 to 14) (size 15 to 20)
#    0.000    1.067    5.333    1.000    3.733    1.333 
#    0.000    1.667    0.000    2.800    0.000    0.000 
#    0.000    0.000    0.000    0.000    0.000    0.000 
#
# Total GULP energy -167096.450064 kJ/mol
# GULP energy per Si atom -5569.881669 kJ/mol
# Density = 2.197419 g / cm^3
# Si number density = 22.024314 Si / 1000 Ang^3
#
#
#
# Elastic Constant Matrix: (Units=GPa)
#
#
# Indices 1 2 3 4 5 6 
#
# 1 78.4525 36.9172 11.9213 0.0000 4.2921 0.0000
# 2 36.9172 146.0184 22.2327 0.0000 -5.8543 0.0000
# 3 11.9213 22.2327 60.1683 0.0000 7.5130 0.0000
# 4 0.0000 0.0000 0.0000 12.8645 0.0000 3.7104
# 5 4.2921 -5.8543 7.5130 0.0000 28.3558 0.0000
# 6 0.0000 0.0000 0.0000 3.7104 0.0000 24.2101
#
#
#
# Elastic Compliance Matrix: (Units=1/GPa)
#
#
# Indices 1 2 3 4 5 6 
#
# 1 0.014804 -0.003660 -0.001248 0.000000 -0.002666 0.000000
# 2 -0.003660 0.008307 -0.002718 0.000000 0.002989 0.000000
# 3 -0.001248 -0.002718 0.018531 0.000000 -0.005282 0.000000
# 4 0.000000 0.000000 0.000000 0.081328 0.000000 -0.012464
# 5 -0.002666 0.002989 -0.005282 0.000000 0.037686 0.000000
# 6 0.000000 0.000000 0.000000 -0.012464 0.000000 0.043215
#
#
# Mechanical properties :
#
#
# Convention : Reuss Voigt Hill
#
# Bulk Modulus (GPa) = 37.89083 47.42018 42.65550
# Shear Modulus (GPa) = 21.93745 27.32395 24.63070
#
# Velocity S-wave (km/s) = 3.15946 3.52607 3.34779
# Velocity P-wave (km/s) = 5.52730 6.17699 5.86115
#
# Compressibility (1/GPa) = 0.02639161
#
# Stress axis : x y z
#
# Youngs Moduli (GPa) = 67.54842 120.37492 53.96327
#
# Poissons Ratio (x) = 0.44054 0.06735
# Poissons Ratio (y) = 0.24721 0.14666
# Poissons Ratio (z) = 0.08430 0.32715
#
# Static dielectric constant tensor:
#      x y z
#    x 1.848660 0.000000 0.024300 
#    y 0.000000 1.761660 0.000000 
#    z 0.024300 0.000000 2.095910 
# 
# From -- ./inp_files/9793.got.cif
#   From: 2010.05.17/outbox.cif.g08.bks.cpg/sg10_5_cif.got.tgz:9793.got - 2010.06.03 11:33:40.
