data_PCOD9153624
_publ_section_title
;
Structure prediction by ZEFSAII (Michael W. Deem and Ramdas Pophale) SiO2 
 PCOD9153624
Probable space group: P 2/M
;
_chemical_formula_sum "Si O2"
_cell_formula_units_Z 22
_cell_length_a 15.296875
_cell_length_b 7.176568
_cell_length_c 18.512562
_cell_angle_alpha 90.000000
_cell_angle_beta 26.729011
_cell_angle_gamma 90.000000
_cell_volume 914.066466
_symmetry_space_group_name_H-M "P 2/M"
_symmetry_group_IT_number 10
_symmetry_cell_setting 'monoclinic'
loop_
_space_group_symop_operation_xyz
x,y,z
-x,y,-z
-x,-y,-z
x,-y,z
loop_
_atom_site_type_symbol
_atom_site_label
_atom_site_fract_x
_atom_site_fract_y
_atom_site_fract_z
Si Si1 0.314308 0.773935 0.183547
Si Si2 0.412855 0.225350 0.271041
Si Si3 0.942896 0.223268 0.362989
Si Si4 0.772789 0.223063 0.255259
Si Si5 0.227059 0.224987 0.906431
Si Si6 0.181082 0.500000 0.664397
O O1 0.341659 0.710166 0.245487
O O2 0.118824 0.722733 0.286210
O O3 0.311734 0.000000 0.187865
O O4 0.500000 0.717570 0.000000
O O5 0.255741 0.268711 0.448067
O O6 0.623065 0.289003 0.143527
O O7 0.422081 0.000000 0.260123
O O8 0.935999 0.337751 0.295301
O O9 0.953859 0.000000 0.342172
O O10 0.703502 0.275188 0.225664
O O11 0.703974 0.336580 0.374223
O O12 0.754487 0.000000 0.277003
O O13 0.004084 0.280403 0.082242
O O14 0.223022 0.000000 0.910177
#
# Coordination Sequence:
#
# PCOD9153624 Si02
#       6
#     4   4   4   4   4   2
#     4   9  18  33  61  94 118 150 198 246 294 350
#     4   9  17  34  62  89 118 159 198 238 296 360
#     4  10  22  40  59  85 124 162 196 238 293 353
#     4   9  19  37  60  88 121 154 194 253 298 341
#     4   8  16  33  61  91 117 154 201 240 298 359
#     4  12  24  37  59  86 119 162 203 241 294 351
#
# _framework density 24.068273999999999
#
# number of rings (size 3 to 8) (size 9 to 14) (size 15 to 20)
#    0.000    2.727    0.000    2.182    2.545    3.636 
#    0.000    5.909    0.000    4.364    0.000    0.000 
#    0.000    0.000    0.000    0.000    0.000    0.000 
#
# Total GULP energy -122521.400372 kJ/mol
# GULP energy per Si atom -5569.154562 kJ/mol
# Density = 2.401349 g / cm^3
# Si number density = 24.068274 Si / 1000 Ang^3
#
#
#
# Elastic Constant Matrix: (Units=GPa)
#
#
# Indices 1 2 3 4 5 6 
#
# 1 171.5994 25.0948 13.4139 0.0000 -17.5975 0.0000
# 2 25.0948 144.5622 -7.6715 0.0000 3.2060 0.0000
# 3 13.4139 -7.6715 38.0040 0.0000 -13.7924 0.0000
# 4 0.0000 0.0000 0.0000 205.0209 0.0000 712.5199
# 5 -17.5975 3.2060 -13.7924 0.0000 26.6805 0.0000
# 6 0.0000 0.0000 0.0000 712.5199 0.0000 2195.0812
#
#
#
# Elastic Compliance Matrix: (Units=1/GPa)
#
#
# Indices 1 2 3 4 5 6 
#
# 1 0.006498 -0.001275 -0.001157 0.000000 0.003841 0.000000
# 2 -0.001275 0.007243 0.001589 0.000000 -0.000890 0.000000
# 3 -0.001157 0.001589 0.032861 0.000000 0.016033 0.000000
# 4 0.000000 0.000000 0.000000 -0.038078 0.000000 0.012360
# 5 0.003841 -0.000890 0.016033 0.000000 0.048409 0.000000
# 6 0.000000 0.000000 0.000000 0.012360 0.000000 -0.003556
#
#
# Mechanical properties :
#
#
# Convention : Reuss Voigt Hill
#
# Bulk Modulus (GPa) = 22.26326 46.20443 34.23385
# Shear Modulus (GPa) = 71.39389 506.91175 289.15282
#
# Velocity S-wave (km/s) = 5.45229 14.52829 10.97267
# Velocity P-wave (km/s) = 6.99334 17.33976 13.22070
#
# Compressibility (1/GPa) = 0.04491705
#
# Stress axis : x y z
#
# Youngs Moduli (GPa) = 153.88712 138.06894 30.43131
#
# Poissons Ratio (x) = 0.17599 0.03521
# Poissons Ratio (y) = 0.19615 -0.04836
# Poissons Ratio (z) = 0.17803 -0.21940
#
# Static dielectric constant tensor:
#      x y z
#    x 1.886990 0.000000 0.028260 
#    y 0.000000 3.839150 0.000000 
#    z 0.028260 0.000000 1.971940 
# 
# From -- ./inp_files/77635.got.cif
#   From: 2010.05.17/outbox.cif.g08.bks.cpg/sg10_39_cif.got.tgz:77635.got - 2010.06.03 11:33:40.
