data_PCOD9153774
_publ_section_title
;
Structure prediction by ZEFSAII (Michael W. Deem and Ramdas Pophale) SiO2 
 PCOD9153774
Probable space group: P 2/M
;
_chemical_formula_sum "Si O2"
_cell_formula_units_Z 17
_cell_length_a 5.286164
_cell_length_b 23.608769
_cell_length_c 5.313338
_cell_angle_alpha 90.000000
_cell_angle_beta 85.846997
_cell_angle_gamma 90.000000
_cell_volume 661.362484
_symmetry_space_group_name_H-M "P 2/M"
_symmetry_group_IT_number 10
_symmetry_cell_setting 'monoclinic'
loop_
_space_group_symop_operation_xyz
x,y,z
-x,y,-z
-x,-y,-z
x,-y,z
loop_
_atom_site_type_symbol
_atom_site_label
_atom_site_fract_x
_atom_site_fract_y
_atom_site_fract_z
Si Si1 0.664396 0.683377 0.231264
Si Si2 0.763808 0.439426 0.326789
Si Si3 0.229312 0.802719 0.658788
Si Si4 0.740064 0.077656 0.150181
Si Si5 0.000000 0.000000 0.500000
O O1 0.500000 0.679504 0.500000
O O2 0.773565 0.620389 0.185054
O O3 0.835884 0.738861 0.250115
O O4 0.500000 0.696318 0.000000
O O5 0.500000 0.439762 0.500000
O O6 0.768182 0.500000 0.184084
O O7 0.000000 0.439007 0.500000
O O8 0.500000 0.799066 0.500000
O O9 0.261651 0.854202 0.846613
O O10 0.000000 0.820751 0.500000
O O11 0.792287 0.049570 0.418131
O O12 0.500000 0.060006 0.000000
O O13 0.000000 0.058628 0.000000
#
# Coordination Sequence:
#
# PCOD9153774 Si02
#       5
#     4   4   4   4   1
#     4  10  22  41  66  99 135 181 231 287 349 415
#     4   9  18  36  61  92 131 176 226 282 344 411
#     4  11  23  45  71 100 136 177 225 286 347 409
#     4  12  27  47  74 105 137 183 234 282 349 421
#     4  12  28  50  72 104 146 180 224 294 346 422
#
# _framework density 25.704509000000002
#
# number of rings (size 3 to 8) (size 9 to 14) (size 15 to 20)
#    0.000    1.412    1.176    3.529    0.000    3.294 
#    0.000   14.118    0.000   12.706    0.000    0.000 
#    0.000    0.000    0.000    0.000    0.000    0.000 
#
# Total GULP energy -94769.489243 kJ/mol
# GULP energy per Si atom -5574.675838 kJ/mol
# Density = 2.564600 g / cm^3
# Si number density = 25.704509 Si / 1000 Ang^3
#
#
#
# Elastic Constant Matrix: (Units=GPa)
#
#
# Indices 1 2 3 4 5 6 
#
# 1 184.5798 7.8084 51.2773 0.0000 27.3855 0.0000
# 2 7.8084 254.5031 0.5536 0.0000 12.7377 0.0000
# 3 51.2773 0.5536 87.0359 0.0000 24.8591 0.0000
# 4 0.0000 0.0000 0.0000 27.3174 0.0000 42.1198
# 5 27.3855 12.7377 24.8591 0.0000 71.6612 0.0000
# 6 0.0000 0.0000 0.0000 42.1198 0.0000 30.3696
#
#
#
# Elastic Compliance Matrix: (Units=1/GPa)
#
#
# Indices 1 2 3 4 5 6 
#
# 1 0.006589 -0.000131 -0.003517 0.000000 -0.001275 0.000000
# 2 -0.000131 0.003970 0.000265 0.000000 -0.000748 0.000000
# 3 -0.003517 0.000265 0.014640 0.000000 -0.003782 0.000000
# 4 0.000000 0.000000 0.000000 -0.032156 0.000000 0.044597
# 5 -0.001275 -0.000748 -0.003782 0.000000 0.015887 0.000000
# 6 0.000000 0.000000 0.000000 0.044597 0.000000 -0.028924
#
#
# Mechanical properties :
#
#
# Convention : Reuss Voigt Hill
#
# Bulk Modulus (GPa) = 54.24631 71.71081 62.97856
# Shear Modulus (GPa) = -705.88465 56.96827 -324.45819
#
# Velocity S-wave (km/s) = -16.58949 4.71284 -11.24723
# Velocity P-wave (km/s) = 18.59566 7.58770 12.00470
#
# Compressibility (1/GPa) = 0.01843444
#
# Stress axis : x y z
#
# Youngs Moduli (GPa) = 151.75664 251.88388 68.30536
#
# Poissons Ratio (x) = 0.03293 0.24025
# Poissons Ratio (y) = 0.01984 -0.01812
# Poissons Ratio (z) = 0.53377 -0.06683
#
# Static dielectric constant tensor:
#      x y z
#    x 1.935580 0.000000 -0.105770 
#    y 0.000000 2.070980 0.000000 
#    z -0.105770 0.000000 2.161780 
# 
# From -- ./inp_files/1701.got.cif
#   From: 2010.05.17/outbox.cif.g08.bks.cpg/sg10_1_cif.got.tgz:1701.got - 2010.06.03 11:33:40.
