data_PCOD9153641
_publ_section_title
;
Structure prediction by ZEFSAII (Michael W. Deem and Ramdas Pophale) SiO2 
 PCOD9153641
Probable space group: P 2/M
;
_chemical_formula_sum "Si O2"
_cell_formula_units_Z 24
_cell_length_a 17.182978
_cell_length_b 8.918139
_cell_length_c 14.930328
_cell_angle_alpha 90.000000
_cell_angle_beta 29.856545
_cell_angle_gamma 90.000000
_cell_volume 1138.998581
_symmetry_space_group_name_H-M "P 2/M"
_symmetry_group_IT_number 10
_symmetry_cell_setting 'monoclinic'
loop_
_space_group_symop_operation_xyz
x,y,z
-x,y,-z
-x,-y,-z
x,-y,z
loop_
_atom_site_type_symbol
_atom_site_label
_atom_site_fract_x
_atom_site_fract_y
_atom_site_fract_z
Si Si1 0.172515 0.821953 0.532964
Si Si2 0.659137 0.821387 0.139322
Si Si3 0.168520 0.321055 0.874929
Si Si4 0.669016 0.322179 0.788706
Si Si5 0.833758 0.179427 0.787205
Si Si6 0.337961 0.321048 0.527260
O O1 0.299320 0.764659 0.334674
O O2 0.204521 0.739948 0.594176
O O3 0.003786 0.788606 0.658603
O O4 0.185472 0.000000 0.532607
O O5 0.793467 0.767830 0.073412
O O6 0.500027 0.746553 0.331393
O O7 0.644032 0.000000 0.157856
O O8 0.708969 0.780335 0.988914
O O9 0.177922 0.500000 0.883204
O O10 0.295243 0.281997 0.671894
O O11 0.000000 0.290313 0.000000
O O12 0.680719 0.500000 0.761579
O O13 0.794771 0.267136 0.736177
O O14 0.500000 0.288751 0.000000
O O15 0.825474 0.000000 0.778027
O O16 0.344002 0.500000 0.515594
#
# Coordination Sequence:
#
# PCOD9153641 Si02
#       6
#     4   4   4   4   4   4
#     4  11  23  40  62  87 117 152 193 241 291 344
#     4  11  23  39  61  88 119 155 195 240 290 345
#     4  10  22  40  61  86 118 156 196 241 293 345
#     4  11  24  40  60  88 119 153 194 238 286 344
#     4  10  23  41  60  86 118 153 193 239 291 344
#     4  11  23  39  60  87 119 154 195 241 289 345
#
# _framework density 21.071141000000001
#
# number of rings (size 3 to 8) (size 9 to 14) (size 15 to 20)
#    0.000    1.333    0.000    5.000    0.000   12.333 
#    0.000    0.000    0.000    0.000    0.000    0.000 
#    0.000    0.000    0.000    0.000    0.000    0.000 
#
# Total GULP energy -134353.838034 kJ/mol
# GULP energy per Si atom -5598.076585 kJ/mol
# Density = 2.102318 g / cm^3
# Si number density = 21.071141 Si / 1000 Ang^3
#
#
#
# Elastic Constant Matrix: (Units=GPa)
#
#
# Indices 1 2 3 4 5 6 
#
# 1 61.4372 8.1938 -13.6479 0.0000 8.4435 0.0000
# 2 8.1938 20.1178 11.3976 0.0000 5.2475 0.0000
# 3 -13.6479 11.3976 61.7235 0.0000 0.0633 0.0000
# 4 0.0000 0.0000 0.0000 31.6361 0.0000 -2.5561
# 5 8.4435 5.2475 0.0633 0.0000 33.2684 0.0000
# 6 0.0000 0.0000 0.0000 -2.5561 0.0000 31.6195
#
#
#
# Elastic Compliance Matrix: (Units=1/GPa)
#
#
# Indices 1 2 3 4 5 6 
#
# 1 0.019551 -0.010672 0.006297 0.000000 -0.003291 0.000000
# 2 -0.010672 0.064002 -0.014170 0.000000 -0.007359 0.000000
# 3 0.006297 -0.014170 0.020210 0.000000 0.000598 0.000000
# 4 0.000000 0.000000 0.000000 0.031817 0.000000 0.002572
# 5 -0.003291 -0.007359 0.000598 0.000000 0.032053 0.000000
# 6 0.000000 0.000000 0.000000 0.002572 0.000000 0.031834
#
#
# Mechanical properties :
#
#
# Convention : Reuss Voigt Hill
#
# Bulk Modulus (GPa) = 14.99895 17.24061 16.11978
# Shear Modulus (GPa) = 19.32128 28.46047 23.89087
#
# Velocity S-wave (km/s) = 3.03141 3.67915 3.37088
# Velocity P-wave (km/s) = 4.40299 5.12329 4.77673
#
# Compressibility (1/GPa) = 0.06667132
#
# Stress axis : x y z
#
# Youngs Moduli (GPa) = 51.14771 15.62463 49.48120
#
# Poissons Ratio (x) = 0.16675 -0.31159
# Poissons Ratio (y) = 0.54586 0.70117
# Poissons Ratio (z) = -0.32208 0.22141
#
# Static dielectric constant tensor:
#      x y z
#    x 1.749040 0.000000 -0.018600 
#    y 0.000000 1.694200 0.000000 
#    z -0.018600 0.000000 1.778180 
# 
# From -- ./inp_files/27026.got.cif
#   From: 2010.05.17/outbox.cif.g08.bks.cpg/sg10_14_cif.got.tgz:27026.got - 2010.06.03 11:33:40.
