data_PCOD9153174
_publ_section_title
;
Structure prediction by ZEFSAII (Michael W. Deem and Ramdas Pophale) SiO2 
 PCOD9153174
Probable space group: P 2/M
;
_chemical_formula_sum "Si O2"
_cell_formula_units_Z 28
_cell_length_a 8.918693
_cell_length_b 8.907090
_cell_length_c 19.803865
_cell_angle_alpha 90.000000
_cell_angle_beta 130.630289
_cell_angle_gamma 90.000000
_cell_volume 1193.952684
_symmetry_space_group_name_H-M "P 2/M"
_symmetry_group_IT_number 10
_symmetry_cell_setting 'monoclinic'
loop_
_space_group_symop_operation_xyz
x,y,z
-x,y,-z
-x,-y,-z
x,-y,z
loop_
_atom_site_type_symbol
_atom_site_label
_atom_site_fract_x
_atom_site_fract_y
_atom_site_fract_z
Si Si1 0.122137 0.235866 0.772701
Si Si2 0.693141 0.179161 0.667402
Si Si3 0.715811 0.320802 0.457564
Si Si4 0.859525 0.162829 0.068659
Si Si5 0.249388 0.672635 0.176936
Si Si6 0.878748 0.170398 0.379656
Si Si7 0.544427 0.338724 0.905561
O O1 0.131491 0.154136 0.847601
O O2 0.166486 0.166443 0.712736
O O3 0.308769 0.342936 0.836468
O O4 0.887900 0.269403 0.700023
O O5 0.490719 0.248593 0.580761
O O6 0.689091 0.211910 0.746578
O O7 0.712959 0.000000 0.659556
O O8 0.723906 0.500000 0.469917
O O9 0.748060 0.281124 0.387345
O O10 0.899493 0.234321 0.545422
O O11 0.022801 0.284156 0.094726
O O12 0.911991 0.000000 0.056134
O O13 0.646148 0.212598 0.980343
O O14 0.262410 0.500000 0.205524
O O15 0.378374 0.684625 0.147785
O O16 0.858205 0.000000 0.399503
O O17 0.619232 0.500000 0.952165
#
# Coordination Sequence:
#
# PCOD9153174 Si02
#       7
#     4   4   4   4   4   4   4
#     4  11  25  41  63  92 126 162 207 260 311 368
#     4  11  23  42  65  93 128 166 209 254 307 368
#     4  11  24  43  66  96 130 163 204 254 306 365
#     4  11  24  42  63  91 126 164 209 260 313 369
#     4  10  21  40  65  93 126 164 209 260 312 368
#     4  11  22  42  70  97 125 162 207 254 309 367
#     4  11  25  42  63  91 124 165 212 260 312 370
#
# _framework density 23.451516999999999
#
# number of rings (size 3 to 8) (size 9 to 14) (size 15 to 20)
#    0.000    1.143    0.000    7.714    0.000   12.000 
#    0.000    2.143    0.000    0.000    0.000    0.000 
#    0.000    0.000    0.000    0.000    0.000    0.000 
#
# Total GULP energy -156342.030055 kJ/mol
# GULP energy per Si atom -5583.643931 kJ/mol
# Density = 2.339814 g / cm^3
# Si number density = 23.451517 Si / 1000 Ang^3
#
#
#
# Elastic Constant Matrix: (Units=GPa)
#
#
# Indices 1 2 3 4 5 6 
#
# 1 99.5446 21.9758 29.6747 0.0000 20.5092 0.0000
# 2 21.9758 95.8499 16.8999 0.0000 10.3291 0.0000
# 3 29.6747 16.8999 56.7347 0.0000 9.4380 0.0000
# 4 0.0000 0.0000 0.0000 42.1505 0.0000 11.2417
# 5 20.5092 10.3291 9.4380 0.0000 53.6287 0.0000
# 6 0.0000 0.0000 0.0000 11.2417 0.0000 12.1803
#
#
#
# Elastic Compliance Matrix: (Units=1/GPa)
#
#
# Indices 1 2 3 4 5 6 
#
# 1 0.012813 -0.001555 -0.005639 0.000000 -0.003608 0.000000
# 2 -0.001555 0.011333 -0.002368 0.000000 -0.001172 0.000000
# 3 -0.005639 -0.002368 0.021475 0.000000 -0.001167 0.000000
# 4 0.000000 0.000000 0.000000 0.031471 0.000000 -0.029046
# 5 -0.003608 -0.001172 -0.001167 0.000000 0.020458 0.000000
# 6 0.000000 0.000000 0.000000 -0.029046 0.000000 0.108907
#
#
# Mechanical properties :
#
#
# Convention : Reuss Voigt Hill
#
# Bulk Modulus (GPa) = 37.73744 43.24778 40.49261
# Shear Modulus (GPa) = 21.32996 33.83050 27.58023
#
# Velocity S-wave (km/s) = 3.01912 3.80224 3.43308
# Velocity P-wave (km/s) = 5.31790 6.14471 5.74619
#
# Compressibility (1/GPa) = 0.02649888
#
# Stress axis : x y z
#
# Youngs Moduli (GPa) = 78.04394 88.23664 46.56679
#
# Poissons Ratio (x) = 0.13718 0.26257
# Poissons Ratio (y) = 0.12134 0.11026
# Poissons Ratio (z) = 0.44005 0.20893
#
# Static dielectric constant tensor:
#      x y z
#    x 1.899710 0.000000 0.004890 
#    y 0.000000 1.788620 0.000000 
#    z 0.004890 0.000000 1.913030 
# 
# From -- ./inp_files/82218.got.cif
#   From: 2010.05.17/outbox.cif.g08.bks.cpg/sg10_42_cif.got.tgz:82218.got - 2010.06.03 11:33:40.
