data_PCOD9153200
_publ_section_title
;
Structure prediction by ZEFSAII (Michael W. Deem and Ramdas Pophale) SiO2 
 PCOD9153200
Probable space group: P 2/M
;
_chemical_formula_sum "Si O2"
_cell_formula_units_Z 28
_cell_length_a 15.133340
_cell_length_b 15.134591
_cell_length_c 8.851094
_cell_angle_alpha 90.000000
_cell_angle_beta 42.199097
_cell_angle_gamma 90.000000
_cell_volume 1361.706602
_symmetry_space_group_name_H-M "P 2/M"
_symmetry_group_IT_number 10
_symmetry_cell_setting 'monoclinic'
loop_
_space_group_symop_operation_xyz
x,y,z
-x,y,-z
-x,-y,-z
x,-y,z
loop_
_atom_site_type_symbol
_atom_site_label
_atom_site_fract_x
_atom_site_fract_y
_atom_site_fract_z
Si Si1 0.060623 0.399637 0.593323
Si Si2 0.639178 0.340610 0.757309
Si Si3 0.205894 0.102427 0.755553
Si Si4 0.074459 0.770081 0.154465
Si Si5 0.130057 0.905282 0.501172
Si Si6 0.441454 0.229441 0.423206
Si Si7 0.309496 0.811234 0.069014
O O1 0.026789 0.500000 0.678096
O O2 0.779691 0.389916 0.598954
O O3 0.990331 0.325483 0.785852
O O4 0.000000 0.384987 0.500000
O O5 0.617722 0.303363 0.614743
O O6 0.661103 0.254139 0.831107
O O7 0.500000 0.380236 0.000000
O O8 0.184719 0.100704 0.602228
O O9 0.341006 0.154649 0.603772
O O10 0.200356 0.000000 0.814799
O O11 0.106572 0.165521 0.973418
O O12 0.207305 0.765967 0.083335
O O13 0.967313 0.823887 0.385633
O O14 0.240167 0.894361 0.234061
O O15 0.062676 0.000000 0.574253
O O16 0.500000 0.272578 0.500000
O O17 0.554770 0.178412 0.188497
#
# Coordination Sequence:
#
# PCOD9153200 Si02
#       7
#     4   4   4   4   4   4   4
#     4  11  22  40  71 107 137 169 217 278 337 401
#     4  10  21  40  67  96 133 172 219 270 330 398
#     4  11  24  40  60  90 131 182 232 273 325 388
#     4  12  21  39  63  92 133 169 215 274 330 397
#     4  11  23  38  59  90 125 171 222 274 330 387
#     4  11  22  41  64  91 125 183 229 267 327 392
#     4  11  21  37  62  93 125 171 216 272 327 385
#
# _framework density 20.562432000000001
#
# number of rings (size 3 to 8) (size 9 to 14) (size 15 to 20)
#    0.000    1.000    5.714    1.286    0.000    4.000 
#    0.000    1.429    0.000    7.286    0.000    0.000 
#    0.000    0.000    0.000    0.000    0.000    0.000 
#
# Total GULP energy -156170.022741 kJ/mol
# GULP energy per Si atom -5577.500812 kJ/mol
# Density = 2.051563 g / cm^3
# Si number density = 20.562432 Si / 1000 Ang^3
#
#
#
# Elastic Constant Matrix: (Units=GPa)
#
#
# Indices 1 2 3 4 5 6 
#
# 1 125.1224 24.3086 24.9153 0.0000 5.5038 0.0000
# 2 24.3086 124.0481 47.8745 0.0000 -6.0610 0.0000
# 3 24.9153 47.8745 95.4675 0.0000 -4.2351 0.0000
# 4 0.0000 0.0000 0.0000 19.4235 0.0000 -8.1755
# 5 5.5038 -6.0610 -4.2351 0.0000 36.1698 0.0000
# 6 0.0000 0.0000 0.0000 -8.1755 0.0000 17.1828
#
#
#
# Elastic Compliance Matrix: (Units=1/GPa)
#
#
# Indices 1 2 3 4 5 6 
#
# 1 0.008633 -0.001087 -0.001784 0.000000 -0.001705 0.000000
# 2 -0.001087 0.010176 -0.004761 0.000000 0.001313 0.000000
# 3 -0.001784 -0.004761 0.013374 0.000000 0.001040 0.000000
# 4 0.000000 0.000000 0.000000 0.064376 0.000000 0.030630
# 5 -0.001705 0.001313 0.001040 0.000000 0.028248 0.000000
# 6 0.000000 0.000000 0.000000 0.030630 0.000000 0.072772
#
#
# Mechanical properties :
#
#
# Convention : Reuss Voigt Hill
#
# Bulk Modulus (GPa) = 59.10113 59.87052 59.48583
# Shear Modulus (GPa) = 22.88502 31.05786 26.97144
#
# Velocity S-wave (km/s) = 3.33971 3.89063 3.62565
# Velocity P-wave (km/s) = 6.60880 7.02583 6.82050
#
# Compressibility (1/GPa) = 0.01692015
#
# Stress axis : x y z
#
# Youngs Moduli (GPa) = 115.82795 98.27066 74.77172
#
# Poissons Ratio (x) = 0.10679 0.13338
# Poissons Ratio (y) = 0.12587 0.35600
# Poissons Ratio (z) = 0.20662 0.46788
#
# Static dielectric constant tensor:
#      x y z
#    x 1.824890 0.000000 -0.032550 
#    y 0.000000 1.694460 0.000000 
#    z -0.032550 0.000000 1.841200 
# 
# From -- ./inp_files/29425.got.cif
#   From: 2010.05.17/outbox.cif.g08.bks.cpg/sg10_15_cif.got.tgz:29425.got - 2010.06.03 11:33:40.
