data_PCOD9153509
_publ_section_title
;
Structure prediction by ZEFSAII (Michael W. Deem and Ramdas Pophale) SiO2 
 PCOD9153509
Probable space group: P 2/M
;
_chemical_formula_sum "Si O2"
_cell_formula_units_Z 18
_cell_length_a 10.286441
_cell_length_b 17.438273
_cell_length_c 12.478755
_cell_angle_alpha 90.000000
_cell_angle_beta 154.640687
_cell_angle_gamma 90.000000
_cell_volume 958.697072
_symmetry_space_group_name_H-M "P 2/M"
_symmetry_group_IT_number 10
_symmetry_cell_setting 'monoclinic'
loop_
_space_group_symop_operation_xyz
x,y,z
-x,y,-z
-x,-y,-z
x,-y,z
loop_
_atom_site_type_symbol
_atom_site_label
_atom_site_fract_x
_atom_site_fract_y
_atom_site_fract_z
Si Si1 0.560204 0.500000 0.169193
Si Si2 0.848146 0.327349 0.767712
Si Si3 0.132044 0.083879 0.719401
Si Si4 0.161644 0.250750 0.804007
Si Si5 0.944002 0.500000 0.832537
Si Si6 0.000000 0.639033 0.500000
O O1 0.730272 0.420859 0.315542
O O2 0.500000 0.500000 0.000000
O O3 0.263132 0.500000 0.014340
O O4 0.500000 0.295606 0.500000
O O5 0.811648 0.416933 0.704973
O O6 0.084382 0.285657 0.862508
O O7 0.000000 0.324545 0.000000
O O8 0.049342 0.162880 0.716148
O O9 0.000000 0.090302 0.500000
O O10 0.027277 0.000000 0.682533
O O11 0.500000 0.081825 0.000000
O O12 0.991852 0.306279 0.595611
O O13 0.500000 0.251699 0.000000
O O14 0.000000 0.500000 0.000000
#
# Coordination Sequence:
#
# PCOD9153509 Si02
#       6
#     2   4   4   4   2   2
#     4  11  23  39  52  84 119 156 199 253 309 361
#     4  11  26  42  61  86 123 161 206 255 307 359
#     4   9  18  34  58  92 125 153 191 246 303 357
#     4  11  23  38  64  91 122 155 209 251 306 363
#     4  10  22  39  58  76 111 160 206 247 292 359
#     4  11  22  34  63  84 118 154 201 258 308 353
#
# _framework density 18.775483000000001
#
# number of rings (size 3 to 8) (size 9 to 14) (size 15 to 20)
#    0.000    1.556    1.111    3.667    9.333    0.889 
#    0.000    0.000    0.000    1.333    0.000    0.000 
#    0.000    0.000    0.000    0.000    0.000    0.000 
#
# Total GULP energy -100204.259534 kJ/mol
# GULP energy per Si atom -5566.903307 kJ/mol
# Density = 1.873275 g / cm^3
# Si number density = 18.775483 Si / 1000 Ang^3
#
#
#
# Elastic Constant Matrix: (Units=GPa)
#
#
# Indices 1 2 3 4 5 6 
#
# 1 124.7765 54.2341 36.5735 0.0000 7.1386 0.0000
# 2 54.2341 180.1582 26.5926 0.0000 -6.4795 0.0000
# 3 36.5735 26.5926 85.8714 0.0000 4.1974 0.0000
# 4 0.0000 0.0000 0.0000 -12.5280 0.0000 -13.8100
# 5 7.1386 -6.4795 4.1974 0.0000 30.1426 0.0000
# 6 0.0000 0.0000 0.0000 -13.8100 0.0000 22.6630
#
#
#
# Elastic Compliance Matrix: (Units=1/GPa)
#
#
# Indices 1 2 3 4 5 6 
#
# 1 0.010342 -0.002696 -0.003445 0.000000 -0.002549 0.000000
# 2 -0.002696 0.006589 -0.000999 0.000000 0.002194 0.000000
# 3 -0.003445 -0.000999 0.013484 0.000000 -0.001277 0.000000
# 4 0.000000 0.000000 0.000000 -0.047748 0.000000 -0.029096
# 5 -0.002549 0.002194 -0.001277 0.000000 0.034429 0.000000
# 6 0.000000 0.000000 0.000000 -0.029096 0.000000 0.026395
#
#
# Mechanical properties :
#
#
# Convention : Reuss Voigt Hill
#
# Bulk Modulus (GPa) = 61.98215 69.51184 65.74699
# Shear Modulus (GPa) = 79.17598 26.28257 52.72928
#
# Velocity S-wave (km/s) = 6.50088 3.74550 5.30519
# Velocity P-wave (km/s) = 9.45688 7.47048 8.52175
#
# Compressibility (1/GPa) = 0.01613368
#
# Stress axis : x y z
#
# Youngs Moduli (GPa) = 96.69318 151.77237 74.15936
#
# Poissons Ratio (x) = 0.40925 0.25549
# Poissons Ratio (y) = 0.26073 0.07410
# Poissons Ratio (z) = 0.33312 0.15165
#
# Static dielectric constant tensor:
#      x y z
#    x 1.619280 0.000000 0.001900 
#    y 0.000000 1.670110 0.000000 
#    z 0.001900 0.000000 1.760620 
# 
# From -- ./inp_files/43441.got.cif
#   From: 2010.05.17/outbox.cif.g08.bks.cpg/sg10_22_cif.got.tgz:43441.got - 2010.06.03 11:33:40.
