data_PCOD9153527
_publ_section_title
;
Structure prediction by ZEFSAII (Michael W. Deem and Ramdas Pophale) SiO2 
 PCOD9153527
Probable space group: P 2/M
;
_chemical_formula_sum "Si O2"
_cell_formula_units_Z 28
_cell_length_a 12.234522
_cell_length_b 7.833010
_cell_length_c 16.054597
_cell_angle_alpha 90.000000
_cell_angle_beta 120.684685
_cell_angle_gamma 90.000000
_cell_volume 1323.146232
_symmetry_space_group_name_H-M "P 2/M"
_symmetry_group_IT_number 10
_symmetry_cell_setting 'monoclinic'
loop_
_space_group_symop_operation_xyz
x,y,z
-x,y,-z
-x,-y,-z
x,-y,z
loop_
_atom_site_type_symbol
_atom_site_label
_atom_site_fract_x
_atom_site_fract_y
_atom_site_fract_z
Si Si1 0.816573 0.291491 0.978122
Si Si2 0.618879 0.198264 0.288970
Si Si3 0.122418 0.198548 0.359234
Si Si4 0.079993 0.706540 0.158545
Si Si5 0.452994 0.298114 0.069406
Si Si6 0.907846 0.301062 0.391708
Si Si7 0.396960 0.790799 0.529758
O O1 0.817139 0.500000 0.977345
O O2 0.842591 0.240160 0.893183
O O3 0.683073 0.225534 0.957892
O O4 0.934935 0.242165 0.081942
O O5 0.550093 0.280722 0.183440
O O6 0.771038 0.214630 0.338010
O O7 0.579599 0.265184 0.365632
O O8 0.584044 0.000000 0.273714
O O9 0.129434 0.218097 0.263132
O O10 0.253970 0.265160 0.449768
O O11 0.994552 0.285680 0.343421
O O12 0.111988 0.000000 0.377681
O O13 0.084617 0.500000 0.166630
O O14 0.432364 0.500000 0.048140
O O15 0.500000 0.225183 0.000000
O O16 0.883225 0.500000 0.399572
O O17 0.000000 0.231669 0.500000
O O18 0.500000 0.737356 0.500000
O O19 0.396770 0.000000 0.529384
#
# Coordination Sequence:
#
# PCOD9153527 Si02
#       7
#     4   4   4   4   4   4   4
#     4   8  17  36  58  80 112 154 198 243 293 347
#     4  11  23  40  63  88 119 157 198 247 297 349
#     4  11  22  36  59  89 120 152 192 240 294 351
#     4   9  18  35  59  83 111 152 198 242 291 345
#     4  10  22  39  59  84 117 157 201 245 295 351
#     4  11  23  40  62  85 115 151 194 240 289 351
#     4   9  20  38  58  83 121 164 196 228 288 359
#
# _framework density 21.161681999999999
#
# number of rings (size 3 to 8) (size 9 to 14) (size 15 to 20)
#    0.000    2.143    1.429    2.143    4.000    0.857 
#    0.000    2.143    0.000    3.429    0.000    0.000 
#    0.000    0.000    0.000    0.000    0.000    0.000 
#
# Total GULP energy -156367.530359 kJ/mol
# GULP energy per Si atom -5584.554656 kJ/mol
# Density = 2.111352 g / cm^3
# Si number density = 21.161682 Si / 1000 Ang^3
#
#
#
# Elastic Constant Matrix: (Units=GPa)
#
#
# Indices 1 2 3 4 5 6 
#
# 1 141.1764 -0.1516 58.0630 0.0000 -1.4542 0.0000
# 2 -0.1516 24.8780 -6.6768 0.0000 -1.9192 0.0000
# 3 58.0630 -6.6768 115.5756 0.0000 -22.1393 0.0000
# 4 0.0000 0.0000 0.0000 58.1283 0.0000 4.6884
# 5 -1.4542 -1.9192 -22.1393 0.0000 17.5460 0.0000
# 6 0.0000 0.0000 0.0000 4.6884 0.0000 6.5978
#
#
#
# Elastic Compliance Matrix: (Units=1/GPa)
#
#
# Indices 1 2 3 4 5 6 
#
# 1 0.009644 -0.002247 -0.006420 0.000000 -0.007548 0.000000
# 2 -0.002247 0.042676 0.005872 0.000000 0.011891 0.000000
# 3 -0.006420 0.005872 0.016139 0.000000 0.020474 0.000000
# 4 0.000000 0.000000 0.000000 0.018249 0.000000 -0.012968
# 5 -0.007548 0.011891 0.020474 0.000000 0.083502 0.000000
# 6 0.000000 0.000000 0.000000 -0.012968 0.000000 0.160781
#
#
# Mechanical properties :
#
#
# Convention : Reuss Voigt Hill
#
# Bulk Modulus (GPa) = 15.90642 42.67770 29.29206
# Shear Modulus (GPa) = 13.98455 31.81411 22.89933
#
# Velocity S-wave (km/s) = 2.57348 3.88155 3.29312
# Velocity P-wave (km/s) = 4.04516 6.34822 5.32274
#
# Compressibility (1/GPa) = 0.06286769
#
# Stress axis : x y z
#
# Youngs Moduli (GPa) = 103.69366 23.43262 61.96148
#
# Poissons Ratio (x) = 0.05264 0.39782
# Poissons Ratio (y) = 0.23296 -0.36382
# Poissons Ratio (z) = 0.66576 -0.13759
#
# Static dielectric constant tensor:
#      x y z
#    x 1.770910 0.000000 -0.020130 
#    y 0.000000 1.767340 0.000000 
#    z -0.020130 0.000000 1.733170 
# 
# From -- ./inp_files/63926.got.cif
#   From: 2010.05.17/outbox.cif.g08.bks.cpg/sg10_32_cif.got.tgz:63926.got - 2010.06.03 11:33:40.
