data_PCOD9153700
_publ_section_title
;
Structure prediction by ZEFSAII (Michael W. Deem and Ramdas Pophale) SiO2 
 PCOD9153700
Probable space group: P 2/M
;
_chemical_formula_sum "Si O2"
_cell_formula_units_Z 16
_cell_length_a 15.846467
_cell_length_b 10.674671
_cell_length_c 8.405395
_cell_angle_alpha 90.000000
_cell_angle_beta 28.757234
_cell_angle_gamma 90.000000
_cell_volume 684.037552
_symmetry_space_group_name_H-M "P 2/M"
_symmetry_group_IT_number 10
_symmetry_cell_setting 'monoclinic'
loop_
_space_group_symop_operation_xyz
x,y,z
-x,y,-z
-x,-y,-z
x,-y,z
loop_
_atom_site_type_symbol
_atom_site_label
_atom_site_fract_x
_atom_site_fract_y
_atom_site_fract_z
Si Si1 0.188800 0.242353 0.771025
Si Si2 0.317802 0.000000 0.393938
Si Si3 0.795530 0.500000 0.387918
Si Si4 0.684983 0.244353 0.103587
Si Si5 0.198622 0.500000 0.241773
Si Si6 0.185617 0.000000 0.280327
O O1 0.277322 0.371967 0.566242
O O2 0.173831 0.242511 0.985546
O O3 0.295017 0.122484 0.537381
O O4 0.000000 0.235083 0.000000
O O5 0.173853 0.000000 0.490318
O O6 0.500000 0.000000 0.000000
O O7 0.792928 0.500000 0.581600
O O8 0.000000 0.500000 0.000000
O O9 0.500000 0.237734 0.500000
O O10 0.709759 0.374261 0.972175
O O11 0.715645 0.125099 0.941353
O O12 0.000000 0.500000 0.500000
O O13 0.000000 0.000000 0.500000
#
# Coordination Sequence:
#
# PCOD9153700 Si02
#       6
#     4   2   2   4   2   2
#     4  11  22  42  65  90 124 169 212 258 317 385
#     4  12  24  40  62  94 128 166 212 265 317 373
#     4  10  22  40  65  95 124 160 211 269 319 374
#     4  12  25  43  65  97 135 173 214 271 331 383
#     4  12  23  42  68  97 129 172 222 269 318 394
#     4  12  24  42  66  96 128 174 226 269 317 389
#
# _framework density 23.390529999999998
#
# number of rings (size 3 to 8) (size 9 to 14) (size 15 to 20)
#    0.000    0.500    0.000   10.875    0.000    0.000 
#    0.000    1.875    0.000    0.000    0.000    0.000 
#    0.000    0.000    0.000    0.000    0.000    0.000 
#
# Total GULP energy -89724.083512 kJ/mol
# GULP energy per Si atom -5607.755220 kJ/mol
# Density = 2.333729 g / cm^3
# Si number density = 23.390530 Si / 1000 Ang^3
#
#
#
# Elastic Constant Matrix: (Units=GPa)
#
#
# Indices 1 2 3 4 5 6 
#
# 1 104.5354 19.8932 -6.6439 0.0000 27.7419 0.0000
# 2 19.8932 264.8641 60.3802 0.0000 35.7981 0.0000
# 3 -6.6439 60.3802 68.8087 0.0000 9.2880 0.0000
# 4 0.0000 0.0000 0.0000 31.6325 0.0000 28.4314
# 5 27.7419 35.7981 9.2880 0.0000 57.1250 0.0000
# 6 0.0000 0.0000 0.0000 28.4314 0.0000 -1.3978
#
#
#
# Elastic Compliance Matrix: (Units=1/GPa)
#
#
# Indices 1 2 3 4 5 6 
#
# 1 0.011294 -0.000658 0.002406 0.000000 -0.005464 0.000000
# 2 -0.000658 0.005084 -0.004231 0.000000 -0.002178 0.000000
# 3 0.002406 -0.004231 0.018688 0.000000 -0.001556 0.000000
# 4 0.000000 0.000000 0.000000 0.001640 0.000000 0.033348
# 5 -0.005464 -0.002178 -0.001556 0.000000 0.021777 0.000000
# 6 0.000000 0.000000 0.000000 0.033348 0.000000 -0.037103
#
#
# Mechanical properties :
#
#
# Convention : Reuss Voigt Hill
#
# Bulk Modulus (GPa) = 33.22338 65.05191 49.13765
# Shear Modulus (GPa) = 137.44325 41.77718 89.61022
#
# Velocity S-wave (km/s) = 7.67384 4.23078 6.19626
# Velocity P-wave (km/s) = 9.63077 7.19288 8.49968
#
# Compressibility (1/GPa) = 0.03009928
#
# Stress axis : x y z
#
# Youngs Moduli (GPa) = 88.54080 196.70278 53.51111
#
# Poissons Ratio (x) = 0.12948 -0.12873
# Poissons Ratio (y) = 0.05828 0.22638
# Poissons Ratio (z) = -0.21300 0.83217
#
# Static dielectric constant tensor:
#      x y z
#    x 1.925340 0.000000 -0.094370 
#    y 0.000000 1.847640 0.000000 
#    z -0.094370 0.000000 1.873790 
# 
# From -- ./inp_files/31415.got.cif
#   From: 2010.05.17/outbox.cif.g08.bks.cpg/sg10_16_cif.got.tgz:31415.got - 2010.06.03 11:33:40.
