data_PCOD9153508
_publ_section_title
;
Structure prediction by ZEFSAII (Michael W. Deem and Ramdas Pophale) SiO2 
 PCOD9153508
Probable space group: P 2/M
;
_chemical_formula_sum "Si O2"
_cell_formula_units_Z 28
_cell_length_a 8.287048
_cell_length_b 23.682915
_cell_length_c 13.111812
_cell_angle_alpha 90.000000
_cell_angle_beta 32.308306
_cell_angle_gamma 90.000000
_cell_volume 1375.387338
_symmetry_space_group_name_H-M "P 2/M"
_symmetry_group_IT_number 10
_symmetry_cell_setting 'monoclinic'
loop_
_space_group_symop_operation_xyz
x,y,z
-x,y,-z
-x,-y,-z
x,-y,z
loop_
_atom_site_type_symbol
_atom_site_label
_atom_site_fract_x
_atom_site_fract_y
_atom_site_fract_z
Si Si1 0.730334 0.155790 0.967080
Si Si2 0.697845 0.865203 0.612234
Si Si3 0.196190 0.651865 0.499561
Si Si4 0.355594 0.436730 0.787673
Si Si5 0.817205 0.063464 0.204878
Si Si6 0.726663 0.563434 0.800340
Si Si7 0.819479 0.229265 0.383206
O O1 0.984143 0.107237 0.837062
O O2 0.911434 0.212095 0.837487
O O3 0.500000 0.142716 0.000000
O O4 0.537697 0.156611 0.174774
O O5 0.505877 0.909031 0.647405
O O6 0.817691 0.813820 0.479365
O O7 0.000000 0.891146 0.500000
O O8 0.530057 0.624178 0.314876
O O9 0.170924 0.707650 0.579330
O O10 0.000000 0.662505 0.500000
O O11 0.023967 0.598886 0.638745
O O12 0.404262 0.500000 0.712397
O O13 0.559676 0.439265 0.781331
O O14 0.000000 0.433857 0.000000
O O15 0.797378 0.000000 0.256570
O O16 0.000000 0.060363 0.000000
O O17 0.792332 0.500000 0.799869
O O18 0.500000 0.591316 0.000000
O O19 0.500000 0.220508 0.500000
#
# Coordination Sequence:
#
# PCOD9153508 Si02
#       7
#     4   4   4   4   4   4   4
#     4  11  23  41  68  92 126 172 208 259 314 370
#     4  11  22  42  67  92 129 167 210 256 314 375
#     4  10  22  39  57  86 119 156 203 257 303 367
#     4   9  18  36  60  86 118 156 195 243 315 377
#     4   9  20  40  66  98 132 165 207 260 313 373
#     4   9  18  35  59  84 114 152 194 245 304 368
#     4  12  25  43  62  90 123 166 220 258 311 373
#
# _framework density 20.357900999999998
#
# number of rings (size 3 to 8) (size 9 to 14) (size 15 to 20)
#    0.000    1.857    2.857    0.857    0.000    4.000 
#    5.143    1.429    0.000    4.286    0.000    0.000 
#    0.000    0.000    0.000    0.000    0.000    0.000 
#
# Total GULP energy -156106.507385 kJ/mol
# GULP energy per Si atom -5575.232407 kJ/mol
# Density = 2.031157 g / cm^3
# Si number density = 20.357901 Si / 1000 Ang^3
#
#
#
# Elastic Constant Matrix: (Units=GPa)
#
#
# Indices 1 2 3 4 5 6 
#
# 1 42.9960 19.6627 10.8857 0.0000 -26.8048 0.0000
# 2 19.6627 107.1373 33.0848 0.0000 -15.3086 0.0000
# 3 10.8857 33.0848 87.9400 0.0000 -15.9427 0.0000
# 4 0.0000 0.0000 0.0000 -189.6299 0.0000 133.1661
# 5 -26.8048 -15.3086 -15.9427 0.0000 40.6074 0.0000
# 6 0.0000 0.0000 0.0000 133.1661 0.0000 -70.5889
#
#
#
# Elastic Compliance Matrix: (Units=1/GPa)
#
#
# Indices 1 2 3 4 5 6 
#
# 1 0.041090 -0.004197 0.001209 0.000000 0.026016 0.000000
# 2 -0.004197 0.011252 -0.003711 0.000000 0.000014 0.000000
# 3 0.001209 -0.003711 0.013468 0.000000 0.004687 0.000000
# 4 0.000000 0.000000 0.000000 0.016237 0.000000 0.030631
# 5 0.026016 0.000014 0.004687 0.000000 0.043644 0.000000
# 6 0.000000 0.000000 0.000000 0.030631 0.000000 0.043619
#
#
# Mechanical properties :
#
#
# Convention : Reuss Voigt Hill
#
# Bulk Modulus (GPa) = 19.07974 40.59330 29.83652
# Shear Modulus (GPa) = 24.97764 -32.29293 -3.65764
#
# Velocity S-wave (km/s) = 3.50655 -3.98711 -1.34185
# Velocity P-wave (km/s) = 5.07809 1.10134 3.50529
#
# Compressibility (1/GPa) = 0.05241161
#
# Stress axis : x y z
#
# Youngs Moduli (GPa) = 24.33663 88.87143 74.25253
#
# Poissons Ratio (x) = 0.37302 -0.08978
# Poissons Ratio (y) = 0.10215 0.27556
# Poissons Ratio (z) = -0.02943 0.32982
#
# Static dielectric constant tensor:
#      x y z
#    x 1.734110 0.000000 0.090870 
#    y 0.000000 1.715670 0.000000 
#    z 0.090870 0.000000 1.622490 
# 
# From -- ./inp_files/30477.got.cif
#   From: 2010.05.17/outbox.cif.g08.bks.cpg/sg10_16_cif.got.tgz:30477.got - 2010.06.03 11:33:40.
