data_PCOD9153988
_publ_section_title
;
Structure prediction by ZEFSAII (Michael W. Deem and Ramdas Pophale) SiO2 
 PCOD9153988
Probable space group: P 2/M
;
_chemical_formula_sum "Si O2"
_cell_formula_units_Z 28
_cell_length_a 5.168873
_cell_length_b 10.382535
_cell_length_c 25.640996
_cell_angle_alpha 90.000000
_cell_angle_beta 114.680449
_cell_angle_gamma 90.000000
_cell_volume 1250.348646
_symmetry_space_group_name_H-M "P 2/M"
_symmetry_group_IT_number 10
_symmetry_cell_setting 'monoclinic'
loop_
_space_group_symop_operation_xyz
x,y,z
-x,y,-z
-x,-y,-z
x,-y,z
loop_
_atom_site_type_symbol
_atom_site_label
_atom_site_fract_x
_atom_site_fract_y
_atom_site_fract_z
Si Si1 0.125527 0.243330 0.335595
Si Si2 0.789494 0.862359 0.108484
Si Si3 0.710756 0.355268 0.382291
Si Si4 0.746712 0.646267 0.854860
Si Si5 0.655186 0.857221 0.219024
Si Si6 0.425104 0.856343 0.553056
Si Si7 0.662927 0.696408 0.963045
O O1 0.935544 0.335139 0.355650
O O2 0.921811 0.173867 0.277966
O O3 0.393978 0.320121 0.334653
O O4 0.283199 0.147276 0.388783
O O5 0.754296 0.865959 0.167604
O O6 0.481950 0.835919 0.057483
O O7 0.982707 0.738903 0.113080
O O8 0.910609 0.000000 0.101137
O O9 0.715414 0.500000 0.402668
O O10 0.757135 0.251632 0.432404
O O11 0.802491 0.500000 0.841478
O O12 0.556384 0.734566 0.800275
O O13 0.609690 0.636566 0.901283
O O14 0.534379 0.000000 0.222981
O O15 0.500000 0.824280 0.500000
O O16 0.304612 0.000000 0.545691
O O17 0.500000 0.641526 0.000000
O O18 0.000000 0.693720 0.000000
#
# Coordination Sequence:
#
# PCOD9153988 Si02
#       7
#     4   4   4   4   4   4   4
#     4  10  23  42  68  98 130 175 225 274 334 396
#     4  10  23  44  69 100 137 175 222 276 332 393
#     4  10  23  42  65  95 133 174 221 273 332 397
#     4  11  25  43  67 100 137 175 220 275 335 395
#     4  10  23  44  68  95 129 176 227 275 331 399
#     4   9  21  41  66  99 137 177 226 282 338 399
#     4  11  23  46  68 103 132 176 221 274 328 394
#
# _framework density 22.393754000000001
#
# number of rings (size 3 to 8) (size 9 to 14) (size 15 to 20)
#    0.857    1.000    1.429    1.286    2.000    7.143 
#    0.000    2.143    0.000    0.000    0.000    0.000 
#    0.000    0.000    0.000    0.000    0.000    0.000 
#
# Total GULP energy -156084.737632 kJ/mol
# GULP energy per Si atom -5574.454915 kJ/mol
# Density = 2.234278 g / cm^3
# Si number density = 22.393754 Si / 1000 Ang^3
#
#
#
# Elastic Constant Matrix: (Units=GPa)
#
#
# Indices 1 2 3 4 5 6 
#
# 1 82.5654 33.4041 11.6396 0.0000 19.1673 0.0000
# 2 33.4041 160.4440 12.1005 0.0000 3.9890 0.0000
# 3 11.6396 12.1005 97.1373 0.0000 10.7418 0.0000
# 4 0.0000 0.0000 0.0000 -38.7665 0.0000 22.2855
# 5 19.1673 3.9890 10.7418 0.0000 27.8057 0.0000
# 6 0.0000 0.0000 0.0000 22.2855 0.0000 15.2025
#
#
#
# Elastic Compliance Matrix: (Units=1/GPa)
#
#
# Indices 1 2 3 4 5 6 
#
# 1 0.015767 -0.002998 -0.000378 0.000000 -0.010293 0.000000
# 2 -0.002998 0.006872 -0.000644 0.000000 0.001330 0.000000
# 3 -0.000378 -0.000644 0.010844 0.000000 -0.003837 0.000000
# 4 0.000000 0.000000 0.000000 -0.013999 0.000000 0.020521
# 5 -0.010293 0.001330 -0.003837 0.000000 0.044351 0.000000
# 6 0.000000 0.000000 0.000000 0.020521 0.000000 0.035697
#
#
# Mechanical properties :
#
#
# Convention : Reuss Voigt Hill
#
# Bulk Modulus (GPa) = 39.30104 50.49279 44.89692
# Shear Modulus (GPa) = 43.08338 19.71519 31.39928
#
# Velocity S-wave (km/s) = 4.39099 2.97035 3.74858
# Velocity P-wave (km/s) = 6.57996 5.86180 6.23123
#
# Compressibility (1/GPa) = 0.02544462
#
# Stress axis : x y z
#
# Youngs Moduli (GPa) = 63.42207 145.50838 92.21319
#
# Poissons Ratio (x) = 0.43629 0.03482
# Poissons Ratio (y) = 0.19016 0.05937
# Poissons Ratio (z) = 0.02395 0.09369
#
# Static dielectric constant tensor:
#      x y z
#    x 1.872550 0.000000 0.033360 
#    y 0.000000 1.863560 0.000000 
#    z 0.033360 0.000000 1.817050 
# 
# From -- ./inp_files/94354.got.cif
#   From: 2010.05.17/outbox.cif.g08.bks.cpg/sg10_48_cif.got.tgz:94354.got - 2010.06.03 11:33:40.
