data_PCOD9153336
_publ_section_title
;
Structure prediction by ZEFSAII (Michael W. Deem and Ramdas Pophale) SiO2 
 PCOD9153336
Probable space group: P 2/M
;
_chemical_formula_sum "Si O2"
_cell_formula_units_Z 24
_cell_length_a 25.303693
_cell_length_b 11.292271
_cell_length_c 9.397246
_cell_angle_alpha 90.000000
_cell_angle_beta 147.918286
_cell_angle_gamma 90.000000
_cell_volume 1426.149824
_symmetry_space_group_name_H-M "P 2/M"
_symmetry_group_IT_number 10
_symmetry_cell_setting 'monoclinic'
loop_
_space_group_symop_operation_xyz
x,y,z
-x,y,-z
-x,-y,-z
x,-y,z
loop_
_atom_site_type_symbol
_atom_site_label
_atom_site_fract_x
_atom_site_fract_y
_atom_site_fract_z
Si Si1 0.356462 0.500000 0.134611
Si Si2 0.707823 0.500000 0.694128
Si Si3 0.550440 0.251557 0.757474
Si Si4 0.914234 0.500000 0.063940
Si Si5 0.866840 0.500000 0.484252
Si Si6 0.304468 0.140374 0.688352
Si Si7 0.109588 0.702582 0.227688
Si Si8 0.587661 0.294913 0.293721
O O1 0.354071 0.500000 0.300626
O O2 0.408428 0.382478 0.190507
O O3 0.239860 0.500000 0.831162
O O4 0.826849 0.500000 0.980477
O O5 0.673809 0.386571 0.526505
O O6 0.500000 0.200398 0.500000
O O7 0.464012 0.257870 0.678073
O O8 0.640081 0.182783 0.040293
O O9 0.896796 0.615224 0.923428
O O10 0.030429 0.500000 0.370903
O O11 0.871887 0.613773 0.598501
O O12 0.198324 0.204234 0.428324
O O13 0.371192 0.189268 0.709628
O O14 0.296538 0.000000 0.667637
O O15 0.000000 0.756848 0.000000
O O16 0.500000 0.353636 0.000000
#
# Coordination Sequence:
#
# PCOD9153336 Si02
#       8
#     2   2   4   2   2   4   4   4
#     4  12  21  33  58  84 113 137 177 222 274 346
#     4  12  19  32  56  84 109 141 173 216 280 339
#     4  11  22  38  55  80 113 145 180 225 275 321
#     4   9  18  31  55  83 111 138 169 213 288 340
#     4   9  18  33  53  83 111 138 167 221 281 337
#     4  11  23  38  57  79 106 148 194 227 262 310
#     4   9  17  33  57  82 107 136 175 223 279 330
#     4  10  22  34  53  79 111 140 179 224 272 319
#
# _framework density 16.828527000000001
#
# number of rings (size 3 to 8) (size 9 to 14) (size 15 to 20)
#    0.000    1.667    5.000    2.000    0.000    6.000 
#    0.000    0.000    0.000    0.000    0.000    0.000 
#    0.000    8.000    0.000    0.000    0.000    0.000 
#
# Total GULP energy -133795.388958 kJ/mol
# GULP energy per Si atom -5574.807873 kJ/mol
# Density = 1.679022 g / cm^3
# Si number density = 16.828527 Si / 1000 Ang^3
#
#
#
# Elastic Constant Matrix: (Units=GPa)
#
#
# Indices 1 2 3 4 5 6 
#
# 1 98.9403 37.5951 43.5629 0.0000 8.4223 0.0000
# 2 37.5951 107.3680 42.0931 0.0000 9.6113 0.0000
# 3 43.5629 42.0931 115.5428 0.0000 15.5563 0.0000
# 4 0.0000 0.0000 0.0000 10.5125 0.0000 1.5302
# 5 8.4223 9.6113 15.5563 0.0000 35.3801 0.0000
# 6 0.0000 0.0000 0.0000 1.5302 0.0000 14.9718
#
#
#
# Elastic Compliance Matrix: (Units=1/GPa)
#
#
# Indices 1 2 3 4 5 6 
#
# 1 0.012935 -0.003026 -0.003689 0.000000 -0.000635 0.000000
# 2 -0.003026 0.011629 -0.002941 0.000000 -0.001145 0.000000
# 3 -0.003689 -0.002941 0.011577 0.000000 -0.003413 0.000000
# 4 0.000000 0.000000 0.000000 0.096561 0.000000 -0.009869
# 5 -0.000635 -0.001145 -0.003413 0.000000 0.030227 0.000000
# 6 0.000000 0.000000 0.000000 -0.009869 0.000000 0.067801
#
#
# Mechanical properties :
#
#
# Convention : Reuss Voigt Hill
#
# Bulk Modulus (GPa) = 59.42486 63.15036 61.28761
# Shear Modulus (GPa) = 19.55774 25.41289 22.48532
#
# Velocity S-wave (km/s) = 3.41277 3.89023 3.65929
# Velocity P-wave (km/s) = 7.13568 7.60169 7.37237
#
# Compressibility (1/GPa) = 0.01682797
#
# Stress axis : x y z
#
# Youngs Moduli (GPa) = 77.30776 85.99131 86.38023
#
# Poissons Ratio (x) = 0.26023 0.31866
# Poissons Ratio (y) = 0.23395 0.25408
# Poissons Ratio (z) = 0.28519 0.25293
#
# Static dielectric constant tensor:
#      x y z
#    x 1.581100 0.000000 0.011320 
#    y 0.000000 1.531220 0.000000 
#    z 0.011320 0.000000 1.590400 
# 
# From -- ./inp_files/28035.got.cif
#   From: 2010.05.17/outbox.cif.g08.bks.cpg/sg10_15_cif.got.tgz:28035.got - 2010.06.03 11:33:40.
