data_PCOD9153723
_publ_section_title
;
Structure prediction by ZEFSAII (Michael W. Deem and Ramdas Pophale) SiO2 
 PCOD9153723
Probable space group: P 2/M
;
_chemical_formula_sum "Si O2"
_cell_formula_units_Z 28
_cell_length_a 11.583012
_cell_length_b 7.638605
_cell_length_c 15.467688
_cell_angle_alpha 90.000000
_cell_angle_beta 67.472188
_cell_angle_gamma 90.000000
_cell_volume 1264.121819
_symmetry_space_group_name_H-M "P 2/M"
_symmetry_group_IT_number 10
_symmetry_cell_setting 'monoclinic'
loop_
_space_group_symop_operation_xyz
x,y,z
-x,y,-z
-x,-y,-z
x,-y,z
loop_
_atom_site_type_symbol
_atom_site_label
_atom_site_fract_x
_atom_site_fract_y
_atom_site_fract_z
Si Si1 0.321704 0.203621 0.750872
Si Si2 0.057551 0.203381 0.246381
Si Si3 0.641111 0.701990 0.454061
Si Si4 0.423912 0.710160 0.892706
Si Si5 0.094822 0.298301 0.545080
Si Si6 0.063076 0.785990 0.895870
Si Si7 0.311649 0.289439 0.096778
O O1 0.331702 0.295233 0.656323
O O2 0.425803 0.220667 0.794442
O O3 0.203870 0.269840 0.839535
O O4 0.303253 0.000000 0.734748
O O5 0.204953 0.218105 0.190027
O O6 0.988487 0.296300 0.344325
O O7 0.008334 0.270688 0.168970
O O8 0.022410 0.000000 0.265597
O O9 0.500000 0.781753 0.500000
O O10 0.629407 0.500000 0.486693
O O11 0.765554 0.773336 0.468870
O O12 0.413347 0.500000 0.891121
O O13 0.555674 0.751899 0.898853
O O14 0.320196 0.772940 0.993636
O O15 0.117174 0.500000 0.511691
O O16 0.000000 0.218491 0.500000
O O17 0.060570 0.000000 0.899712
O O18 0.000000 0.719278 0.000000
O O19 0.298421 0.500000 0.097962
#
# Coordination Sequence:
#
# PCOD9153723 Si02
#       7
#     4   4   4   4   4   4   4
#     4  11  21  35  57  85 118 152 190 239 296 354
#     4  11  21  35  57  85 118 152 190 239 296 354
#     4  10  22  41  63  85 113 153 202 253 306 365
#     4   9  19  36  56  80 115 158 200 241 286 343
#     4  10  22  41  63  85 113 153 202 253 306 365
#     4   9  18  32  51  79 117 155 185 221 280 345
#     4   9  19  36  56  80 115 158 200 241 286 343
#
# _framework density 22.149764000000001
#
# number of rings (size 3 to 8) (size 9 to 14) (size 15 to 20)
#    0.000    2.143    1.429    2.571    0.000    4.000 
#    0.000    4.286    0.000    3.429    0.000    0.000 
#    0.000    0.000    0.000    0.000    0.000    0.000 
#
# Total GULP energy -156060.146293 kJ/mol
# GULP energy per Si atom -5573.576653 kJ/mol
# Density = 2.209935 g / cm^3
# Si number density = 22.149764 Si / 1000 Ang^3
#
#
#
# Elastic Constant Matrix: (Units=GPa)
#
#
# Indices 1 2 3 4 5 6 
#
# 1 134.5343 5.8257 58.0895 0.0000 8.6630 0.0000
# 2 5.8257 43.5729 -4.2177 0.0000 -0.1774 0.0000
# 3 58.0895 -4.2177 96.7597 0.0000 14.7270 0.0000
# 4 0.0000 0.0000 0.0000 -78.7875 0.0000 -21.5292
# 5 8.6630 -0.1774 14.7270 0.0000 21.5033 0.0000
# 6 0.0000 0.0000 0.0000 -21.5292 0.0000 18.9863
#
#
#
# Elastic Compliance Matrix: (Units=1/GPa)
#
#
# Indices 1 2 3 4 5 6 
#
# 1 0.010199 -0.001966 -0.006230 0.000000 0.000142 0.000000
# 2 -0.001966 0.023432 0.002291 0.000000 -0.000583 0.000000
# 3 -0.006230 0.002291 0.015395 0.000000 -0.008015 0.000000
# 4 0.000000 0.000000 0.000000 -0.009690 0.000000 -0.010988
# 5 0.000142 -0.000583 -0.008015 0.000000 0.051932 0.000000
# 6 0.000000 0.000000 0.000000 -0.010988 0.000000 0.040210
#
#
# Mechanical properties :
#
#
# Convention : Reuss Voigt Hill
#
# Bulk Modulus (GPa) = 26.87127 43.80688 35.33908
# Shear Modulus (GPa) = 32.11408 6.68506 19.39957
#
# Velocity S-wave (km/s) = 3.81183 1.73916 2.96266
# Velocity P-wave (km/s) = 5.61528 4.88400 5.26236
#
# Compressibility (1/GPa) = 0.03721447
#
# Stress axis : x y z
#
# Youngs Moduli (GPa) = 98.04682 42.67626 64.95642
#
# Poissons Ratio (x) = 0.08391 0.40470
# Poissons Ratio (y) = 0.19277 -0.14878
# Poissons Ratio (z) = 0.61087 -0.09775
#
# Static dielectric constant tensor:
#      x y z
#    x 1.594900 0.000000 0.048900 
#    y 0.000000 1.843880 0.000000 
#    z 0.048900 0.000000 1.775590 
# 
# From -- ./inp_files/63631.got.cif
#   From: 2010.05.17/outbox.cif.g08.bks.cpg/sg10_32_cif.got.tgz:63631.got - 2010.06.03 11:33:40.
