data_PCOD9153518
_publ_section_title
;
Structure prediction by ZEFSAII (Michael W. Deem and Ramdas Pophale) SiO2 
 PCOD9153518
Probable space group: P 2/M
;
_chemical_formula_sum "Si O2"
_cell_formula_units_Z 32
_cell_length_a 29.107507
_cell_length_b 7.997869
_cell_length_c 22.480499
_cell_angle_alpha 90.000000
_cell_angle_beta 161.973275
_cell_angle_gamma 90.000000
_cell_volume 1619.535851
_symmetry_space_group_name_H-M "P 2/M"
_symmetry_group_IT_number 10
_symmetry_cell_setting 'monoclinic'
loop_
_space_group_symop_operation_xyz
x,y,z
-x,y,-z
-x,-y,-z
x,-y,z
loop_
_atom_site_type_symbol
_atom_site_label
_atom_site_fract_x
_atom_site_fract_y
_atom_site_fract_z
Si Si1 0.401499 0.298040 0.966778
Si Si2 0.278712 0.296441 0.693011
Si Si3 0.964478 0.295187 0.699541
Si Si4 0.836976 0.196721 0.787448
Si Si5 0.541356 0.202463 0.484964
Si Si6 0.454187 0.192747 0.159312
Si Si7 0.221894 0.305898 0.416746
Si Si8 0.299161 0.299859 0.088749
O O1 0.397652 0.500000 0.964563
O O2 0.568663 0.248869 0.152547
O O3 0.373843 0.230575 0.998260
O O4 0.294995 0.242952 0.781643
O O5 0.277055 0.500000 0.691436
O O6 0.137809 0.240195 0.481727
O O7 0.962164 0.500000 0.697125
O O8 0.885376 0.241251 0.663217
O O9 0.133824 0.240337 0.901425
O O10 0.700920 0.267030 0.658599
O O11 0.796562 0.214489 0.668502
O O12 0.844937 0.000000 0.812233
O O13 0.000000 0.270217 0.000000
O O14 0.500000 0.261476 0.500000
O O15 0.416716 0.250759 0.283890
O O16 0.547324 0.000000 0.493522
O O17 0.608022 0.294175 0.352389
O O18 0.354944 0.232893 0.094180
O O19 0.497861 0.000000 0.215083
O O20 0.185937 0.500000 0.361875
O O21 0.295455 0.500000 0.080119
#
# Coordination Sequence:
#
# PCOD9153518 Si02
#       8
#     4   4   4   4   4   4   4   4
#     4   9  16  30  58  86 110 146 189 234 285 335
#     4   8  14  29  55  86 115 143 182 235 286 335
#     4   9  19  35  57  87 117 144 184 237 288 334
#     4  10  22  39  58  84 118 152 187 227 277 340
#     4  10  22  40  59  81 115 155 189 225 275 339
#     4  12  23  37  56  82 116 154 192 235 285 342
#     4  11  21  37  62  87 114 146 190 244 287 330
#     4  11  23  39  60  84 113 151 193 237 280 333
#
# _framework density 19.758748000000001
#
# number of rings (size 3 to 8) (size 9 to 14) (size 15 to 20)
#    0.000    2.000    2.500    2.625    1.750    0.500 
#    0.000    3.750    0.000    3.750    0.000    0.000 
#    0.000    0.000    0.000    0.000    0.000    0.000 
#
# Total GULP energy -178671.474275 kJ/mol
# GULP energy per Si atom -5583.483571 kJ/mol
# Density = 1.971378 g / cm^3
# Si number density = 19.758748 Si / 1000 Ang^3
#
#
#
# Elastic Constant Matrix: (Units=GPa)
#
#
# Indices 1 2 3 4 5 6 
#
# 1 170.8539 0.6442 75.0167 0.0000 -3.1908 0.0000
# 2 0.6442 20.4125 1.3633 0.0000 0.8425 0.0000
# 3 75.0167 1.3633 115.2389 0.0000 10.0793 0.0000
# 4 0.0000 0.0000 0.0000 11.8614 0.0000 -10.3674
# 5 -3.1908 0.8425 10.0793 0.0000 28.2107 0.0000
# 6 0.0000 0.0000 0.0000 -10.3674 0.0000 16.7132
#
#
#
# Elastic Compliance Matrix: (Units=1/GPa)
#
#
# Indices 1 2 3 4 5 6 
#
# 1 0.008436 -0.000006 -0.005755 0.000000 0.003010 0.000000
# 2 -0.000006 0.049074 -0.000463 0.000000 -0.001301 0.000000
# 3 -0.005755 -0.000463 0.012888 0.000000 -0.005242 0.000000
# 4 0.000000 0.000000 0.000000 0.184148 0.000000 0.114229
# 5 0.003010 -0.001301 -0.005242 0.000000 0.037700 0.000000
# 6 0.000000 0.000000 0.000000 0.114229 0.000000 0.130690
#
#
# Mechanical properties :
#
#
# Convention : Reuss Voigt Hill
#
# Bulk Modulus (GPa) = 17.25605 51.17265 34.21435
# Shear Modulus (GPa) = 10.99625 26.65578 18.82602
#
# Velocity S-wave (km/s) = 2.36164 3.67694 3.09009
# Velocity P-wave (km/s) = 4.02353 6.63186 5.48499
#
# Compressibility (1/GPa) = 0.05795069
#
# Stress axis : x y z
#
# Youngs Moduli (GPa) = 118.54053 20.37722 77.59327
#
# Poissons Ratio (x) = 0.00013 0.44653
# Poissons Ratio (y) = 0.00073 0.03591
# Poissons Ratio (z) = 0.68217 0.00943
#
# Static dielectric constant tensor:
#      x y z
#    x 1.677550 0.000000 0.002030 
#    y 0.000000 1.715770 0.000000 
#    z 0.002030 0.000000 1.682170 
# 
# From -- ./inp_files/86985.got.cif
#   From: 2010.05.17/outbox.cif.g08.bks.cpg/sg10_44_cif.got.tgz:86985.got - 2010.06.03 11:33:40.
