data_PCOD9153572
_publ_section_title
;
Structure prediction by ZEFSAII (Michael W. Deem and Ramdas Pophale) SiO2 
 PCOD9153572
Probable space group: P 2/M
;
_chemical_formula_sum "Si O2"
_cell_formula_units_Z 18
_cell_length_a 7.459963
_cell_length_b 9.803414
_cell_length_c 12.400802
_cell_angle_alpha 90.000000
_cell_angle_beta 60.935760
_cell_angle_gamma 90.000000
_cell_volume 792.707162
_symmetry_space_group_name_H-M "P 2/M"
_symmetry_group_IT_number 10
_symmetry_cell_setting 'monoclinic'
loop_
_space_group_symop_operation_xyz
x,y,z
-x,y,-z
-x,-y,-z
x,-y,z
loop_
_atom_site_type_symbol
_atom_site_label
_atom_site_fract_x
_atom_site_fract_y
_atom_site_fract_z
Si Si1 0.656359 0.151941 0.052535
Si Si2 0.040489 0.846773 0.615012
Si Si3 0.941425 0.345064 0.835001
Si Si4 0.576297 0.647695 0.252883
Si Si5 0.500000 0.239097 0.500000
O O1 0.827914 0.253362 0.956347
O O2 0.730018 0.000000 0.060174
O O3 0.500000 0.140534 0.000000
O O4 0.543273 0.225651 0.184277
O O5 0.285569 0.841519 0.567091
O O6 0.000000 0.823157 0.500000
O O7 0.939393 0.733566 0.721279
O O8 0.965191 0.000000 0.663766
O O9 0.860667 0.500000 0.854482
O O10 0.179488 0.353648 0.797902
O O11 0.515363 0.500000 0.225780
O O12 0.480893 0.671810 0.397698
#
# Coordination Sequence:
#
# PCOD9153572 Si02
#       5
#     4   4   4   4   2
#     4  11  25  41  60  90 126 163 206 257 311 370
#     4  10  22  39  62  91 127 168 210 259 310 372
#     4  10  22  41  63  90 121 159 207 256 313 373
#     4  10  22  41  65  91 124 162 205 258 311 371
#     4  10  22  40  64  96 128 166 210 260 312 374
#
# _framework density 22.706999
#
# number of rings (size 3 to 8) (size 9 to 14) (size 15 to 20)
#    0.000    1.778    0.000    2.667    3.111   11.111 
#    0.000    0.000    0.000    0.000    0.000    0.000 
#    0.000    0.000    0.000    0.000    0.000    0.000 
#
# Total GULP energy -100642.604388 kJ/mol
# GULP energy per Si atom -5591.255799 kJ/mol
# Density = 2.265532 g / cm^3
# Si number density = 22.706999 Si / 1000 Ang^3
#
#
#
# Elastic Constant Matrix: (Units=GPa)
#
#
# Indices 1 2 3 4 5 6 
#
# 1 48.8508 16.3177 0.4500 0.0000 7.6228 0.0000
# 2 16.3177 211.4375 79.9526 0.0000 14.4738 0.0000
# 3 0.4500 79.9526 115.3372 0.0000 16.4693 0.0000
# 4 0.0000 0.0000 0.0000 -34.7642 0.0000 23.9492
# 5 7.6228 14.4738 16.4693 0.0000 37.2527 0.0000
# 6 0.0000 0.0000 0.0000 23.9492 0.0000 7.3331
#
#
#
# Elastic Compliance Matrix: (Units=1/GPa)
#
#
# Indices 1 2 3 4 5 6 
#
# 1 0.021882 -0.002156 0.002059 0.000000 -0.004550 0.000000
# 2 -0.002156 0.006633 -0.004573 0.000000 -0.000114 0.000000
# 3 0.002059 -0.004573 0.012423 0.000000 -0.004137 0.000000
# 4 0.000000 0.000000 0.000000 -0.008851 0.000000 0.028907
# 5 -0.004550 -0.000114 -0.004137 0.000000 0.029648 0.000000
# 6 0.000000 0.000000 0.000000 0.028907 0.000000 0.041961
#
#
# Mechanical properties :
#
#
# Convention : Reuss Voigt Hill
#
# Bulk Modulus (GPa) = 31.64849 63.22957 47.43903
# Shear Modulus (GPa) = 40.46341 20.55799 30.51070
#
# Velocity S-wave (km/s) = 4.22593 3.01218 3.66959
# Velocity P-wave (km/s) = 6.14649 6.32487 6.23632
#
# Compressibility (1/GPa) = 0.03159708
#
# Stress axis : x y z
#
# Youngs Moduli (GPa) = 45.70044 150.75938 80.49463
#
# Poissons Ratio (x) = 0.32499 -0.16571
# Poissons Ratio (y) = 0.09852 0.36813
# Poissons Ratio (z) = -0.09408 0.68948
#
# Static dielectric constant tensor:
#      x y z
#    x 1.861340 0.000000 -0.005650 
#    y 0.000000 1.860180 0.000000 
#    z -0.005650 0.000000 1.837610 
# 
# From -- ./inp_files/22024.got.cif
#   From: 2010.05.17/outbox.cif.g08.bks.cpg/sg10_12_cif.got.tgz:22024.got - 2010.06.03 11:33:40.
