data_PCOD9153525
_publ_section_title
;
Structure prediction by ZEFSAII (Michael W. Deem and Ramdas Pophale) SiO2 
 PCOD9153525
Probable space group: P 2/M
;
_chemical_formula_sum "Si O2"
_cell_formula_units_Z 21
_cell_length_a 24.164286
_cell_length_b 7.179669
_cell_length_c 5.306641
_cell_angle_alpha 90.000000
_cell_angle_beta 77.303412
_cell_angle_gamma 90.000000
_cell_volume 898.145251
_symmetry_space_group_name_H-M "P 2/M"
_symmetry_group_IT_number 10
_symmetry_cell_setting 'monoclinic'
loop_
_space_group_symop_operation_xyz
x,y,z
-x,y,-z
-x,-y,-z
x,-y,z
loop_
_atom_site_type_symbol
_atom_site_label
_atom_site_fract_x
_atom_site_fract_y
_atom_site_fract_z
Si Si1 0.230260 0.773123 0.499838
Si Si2 0.966751 0.226692 0.783077
Si Si3 0.163934 0.773356 0.066469
Si Si4 0.500000 0.500000 0.500000
Si Si5 0.360291 0.775313 0.413018
Si Si6 0.429272 0.223958 0.846018
O O1 0.200016 0.715091 0.272736
O O2 0.295395 0.712903 0.455057
O O3 0.230817 0.000000 0.498312
O O4 0.194088 0.715647 0.778523
O O5 0.901351 0.285516 0.851362
O O6 0.000000 0.285267 0.500000
O O7 0.966442 0.000000 0.782601
O O8 0.000000 0.284459 0.000000
O O9 0.163667 0.000000 0.066804
O O10 0.485181 0.336498 0.724370
O O11 0.389364 0.721392 0.646321
O O12 0.359149 0.000000 0.415415
O O13 0.396732 0.722176 0.132988
O O14 0.438217 0.000000 0.838208
#
# Coordination Sequence:
#
# PCOD9153525 Si02
#       6
#     4   4   4   1   4   4
#     4   9  15  24  40  60  82 110 151 207 264 311
#     4   9  15  21  27  38  65 106 150 201 258 307
#     4   9  15  21  32  52  75 106 155 210 260 312
#     4  12  26  42  64  88 116 150 186 226 260 316
#     4   9  18  34  54  76 104 136 170 219 279 329
#     4  10  22  39  59  84 113 145 182 223 272 322
#
# _framework density 23.381516999999999
#
# number of rings (size 3 to 8) (size 9 to 14) (size 15 to 20)
#    0.000    2.667    0.000    2.571    0.000   11.429 
#    0.000    2.857    0.000    0.000    0.000    0.000 
#    0.000    0.000    0.000    0.000    0.000    0.000 
#
# Total GULP energy -117269.444547 kJ/mol
# GULP energy per Si atom -5584.259264 kJ/mol
# Density = 2.332830 g / cm^3
# Si number density = 23.381517 Si / 1000 Ang^3
#
#
#
# Elastic Constant Matrix: (Units=GPa)
#
#
# Indices 1 2 3 4 5 6 
#
# 1 134.0249 5.7792 75.6614 0.0000 3.0892 0.0000
# 2 5.7792 134.2041 7.6254 0.0000 -7.2340 0.0000
# 3 75.6614 7.6254 171.4787 0.0000 -2.1007 0.0000
# 4 0.0000 0.0000 0.0000 -76.8002 0.0000 49.2288
# 5 3.0892 -7.2340 -2.1007 0.0000 48.7680 0.0000
# 6 0.0000 0.0000 0.0000 49.2288 0.0000 -80.1724
#
#
#
# Elastic Compliance Matrix: (Units=1/GPa)
#
#
# Indices 1 2 3 4 5 6 
#
# 1 0.009976 -0.000226 -0.004402 0.000000 -0.000855 0.000000
# 2 -0.000226 0.007534 -0.000222 0.000000 0.001122 0.000000
# 3 -0.004402 -0.000222 0.007791 0.000000 0.000582 0.000000
# 4 0.000000 0.000000 0.000000 -0.021472 0.000000 -0.013185
# 5 -0.000855 0.001122 0.000582 0.000000 0.020751 0.000000
# 6 0.000000 0.000000 0.000000 -0.013185 0.000000 -0.020569
#
#
# Mechanical properties :
#
#
# Convention : Reuss Voigt Hill
#
# Bulk Modulus (GPa) = 64.09375 68.64887 66.37131
# Shear Modulus (GPa) = 264.40718 1.73519 133.07119
#
# Velocity S-wave (km/s) = 10.64563 0.86240 7.55225
# Velocity P-wave (km/s) = 13.36329 5.51504 10.22236
#
# Compressibility (1/GPa) = 0.01560215
#
# Stress axis : x y z
#
# Youngs Moduli (GPa) = 100.24206 132.72909 128.35421
#
# Poissons Ratio (x) = 0.02994 0.56503
# Poissons Ratio (y) = 0.02261 0.02846
# Poissons Ratio (z) = 0.44127 0.02943
#
# Static dielectric constant tensor:
#      x y z
#    x 1.876550 0.000000 0.018360 
#    y 0.000000 1.871040 0.000000 
#    z 0.018360 0.000000 1.800020 
# 
# From -- ./inp_files/12036.got.cif
#   From: 2010.05.17/outbox.cif.g08.bks.cpg/sg10_7_cif.got.tgz:12036.got - 2010.06.03 11:33:40.
