data_PCOD9153928
_publ_section_title
;
Structure prediction by ZEFSAII (Michael W. Deem and Ramdas Pophale) SiO2 
 PCOD9153928
Probable space group: P 2/M
;
_chemical_formula_sum "Si O2"
_cell_formula_units_Z 28
_cell_length_a 9.781695
_cell_length_b 17.732490
_cell_length_c 16.773633
_cell_angle_alpha 90.000000
_cell_angle_beta 29.160536
_cell_angle_gamma 90.000000
_cell_volume 1417.653905
_symmetry_space_group_name_H-M "P 2/M"
_symmetry_group_IT_number 10
_symmetry_cell_setting 'monoclinic'
loop_
_space_group_symop_operation_xyz
x,y,z
-x,y,-z
-x,-y,-z
x,-y,z
loop_
_atom_site_type_symbol
_atom_site_label
_atom_site_fract_x
_atom_site_fract_y
_atom_site_fract_z
Si Si1 0.717430 0.819933 0.094369
Si Si2 0.785305 0.914657 0.903658
Si Si3 0.705625 0.081908 0.604060
Si Si4 0.679767 0.352073 0.135465
Si Si5 0.762800 0.830493 0.423764
Si Si6 0.345315 0.587780 0.160968
Si Si7 0.848992 0.314292 0.492165
O O1 0.468503 0.848532 0.275652
O O2 0.681232 0.731923 0.095487
O O3 0.721749 0.878037 0.020492
O O4 0.000000 0.826992 0.000000
O O5 0.979374 0.853640 0.762187
O O6 0.903871 0.000000 0.849494
O O7 0.500000 0.920069 0.000000
O O8 0.732805 0.097472 0.497051
O O9 0.000000 0.082017 0.500000
O O10 0.572094 0.000000 0.686848
O O11 0.558607 0.404336 0.127300
O O12 0.453806 0.347647 0.323956
O O13 0.000000 0.368404 0.000000
O O14 0.500000 0.818818 0.500000
O O15 0.810812 0.758251 0.455285
O O16 0.275115 0.500000 0.184268
O O17 0.063923 0.631484 0.333784
O O18 0.500000 0.614738 0.000000
O O19 0.000000 0.296222 0.500000
#
# Coordination Sequence:
#
# PCOD9153928 Si02
#       7
#     4   4   4   4   4   4   4
#     4  11  23  39  61  88 121 163 214 262 313 378
#     4  11  26  41  57  86 122 166 216 270 328 379
#     4  11  23  40  62  84 119 167 216 266 316 375
#     4  10  23  40  67 100 133 170 214 264 313 378
#     4  12  25  38  60  91 126 163 212 269 326 378
#     4  10  24  45  71 103 133 168 207 250 310 382
#     4  10  23  42  67  96 128 171 216 261 309 385
#
# _framework density 19.750941000000001
#
# number of rings (size 3 to 8) (size 9 to 14) (size 15 to 20)
#    0.000    1.286    1.429    3.000   10.000    8.571 
#    0.000    0.000    0.000    2.143    0.000    0.000 
#    0.000    0.000    0.000    0.000    0.000    0.000 
#
# Total GULP energy -156252.410943 kJ/mol
# GULP energy per Si atom -5580.443248 kJ/mol
# Density = 1.970599 g / cm^3
# Si number density = 19.750941 Si / 1000 Ang^3
#
#
#
# Elastic Constant Matrix: (Units=GPa)
#
#
# Indices 1 2 3 4 5 6 
#
# 1 79.7304 43.5415 52.5272 0.0000 10.1888 0.0000
# 2 43.5415 74.7661 37.8093 0.0000 1.8032 0.0000
# 3 52.5272 37.8093 144.6733 0.0000 9.3283 0.0000
# 4 0.0000 0.0000 0.0000 27.3854 0.0000 9.8959
# 5 10.1888 1.8032 9.3283 0.0000 40.1819 0.0000
# 6 0.0000 0.0000 0.0000 9.8959 0.0000 21.1279
#
#
#
# Elastic Compliance Matrix: (Units=1/GPa)
#
#
# Indices 1 2 3 4 5 6 
#
# 1 0.021887 -0.010095 -0.005055 0.000000 -0.003923 0.000000
# 2 -0.010095 0.020071 -0.001713 0.000000 0.002057 0.000000
# 3 -0.005055 -0.001713 0.009246 0.000000 -0.000788 0.000000
# 4 0.000000 0.000000 0.000000 0.043955 0.000000 -0.020588
# 5 -0.003923 0.002057 -0.000788 0.000000 0.025972 0.000000
# 6 0.000000 0.000000 0.000000 -0.020588 0.000000 0.056974
#
#
# Mechanical properties :
#
#
# Convention : Reuss Voigt Hill
#
# Bulk Modulus (GPa) = 57.21704 62.99176 60.10440
# Shear Modulus (GPa) = 22.97181 28.75848 25.86515
#
# Velocity S-wave (km/s) = 3.41409 3.81997 3.62272
# Velocity P-wave (km/s) = 6.67634 7.17067 6.92791
#
# Compressibility (1/GPa) = 0.01747731
#
# Stress axis : x y z
#
# Youngs Moduli (GPa) = 45.68848 49.82378 108.15511
#
# Poissons Ratio (x) = 0.50299 0.54677
# Poissons Ratio (y) = 0.46124 0.18522
# Poissons Ratio (z) = 0.23097 0.08533
#
# Static dielectric constant tensor:
#      x y z
#    x 1.645680 0.000000 -0.015200 
#    y 0.000000 1.642120 0.000000 
#    z -0.015200 0.000000 1.701530 
# 
# From -- ./inp_files/62545.got.cif
#   From: 2010.05.17/outbox.cif.g08.bks.cpg/sg10_32_cif.got.tgz:62545.got - 2010.06.03 11:33:40.
