data_PCOD9153659
_publ_section_title
;
Structure prediction by ZEFSAII (Michael W. Deem and Ramdas Pophale) SiO2 
 PCOD9153659
Probable space group: P 2/M
;
_chemical_formula_sum "Si O2"
_cell_formula_units_Z 28
_cell_length_a 14.947406
_cell_length_b 19.365917
_cell_length_c 8.963033
_cell_angle_alpha 90.000000
_cell_angle_beta 32.357492
_cell_angle_gamma 90.000000
_cell_volume 1388.593697
_symmetry_space_group_name_H-M "P 2/M"
_symmetry_group_IT_number 10
_symmetry_cell_setting 'monoclinic'
loop_
_space_group_symop_operation_xyz
x,y,z
-x,y,-z
-x,-y,-z
x,-y,z
loop_
_atom_site_type_symbol
_atom_site_label
_atom_site_fract_x
_atom_site_fract_y
_atom_site_fract_z
Si Si1 0.500000 0.887908 0.500000
Si Si2 0.666542 0.315104 0.667026
Si Si3 0.078666 0.807818 0.726894
Si Si4 0.749517 0.219782 0.013205
Si Si5 0.319908 0.867627 0.179799
Si Si6 0.436210 0.632877 0.744052
Si Si7 0.827773 0.421187 0.663277
Si Si8 0.560705 0.000000 0.169165
O O1 0.347992 0.836669 0.749227
O O2 0.476127 0.938646 0.393635
O O3 0.776033 0.249521 0.469202
O O4 0.596401 0.349538 0.617663
O O5 0.776950 0.368078 0.606817
O O6 0.500000 0.300018 0.000000
O O7 0.175670 0.870077 0.508314
O O8 0.000000 0.821613 0.000000
O O9 0.935101 0.780122 0.817749
O O10 0.661934 0.294349 0.144281
O O11 0.732613 0.190264 0.868408
O O12 0.500000 0.852445 0.000000
O O13 0.345193 0.939610 0.061237
O O14 0.500000 0.603236 0.500000
O O15 0.315462 0.585156 0.010212
O O16 0.840242 0.500000 0.591814
O O17 0.000000 0.401332 0.500000
#
# Coordination Sequence:
#
# PCOD9153659 Si02
#       8
#     2   4   4   4   4   4   4   2
#     4   9  20  40  66  94 113 162 204 256 301 370
#     4  10  22  40  62  90 124 162 208 254 303 367
#     4  12  25  38  61  96 126 156 202 264 317 360
#     4  11  22  39  65  88 129 156 204 254 317 364
#     4  11  23  41  63  88 119 162 205 247 309 376
#     4  11  21  36  63  94 122 159 203 256 306 360
#     4  10  22  41  62  86 125 172 210 246 298 361
#     4   9  21  40  66  85 119 161 210 244 303 373
#
# _framework density 20.164286000000001
#
# number of rings (size 3 to 8) (size 9 to 14) (size 15 to 20)
#    0.000    1.429    0.714    5.357    4.000    2.857 
#    0.000    6.786    0.000    2.143    0.000    0.000 
#    0.000    0.000    0.000    0.000    0.000    0.000 
#
# Total GULP energy -155921.078913 kJ/mol
# GULP energy per Si atom -5568.609961 kJ/mol
# Density = 2.011839 g / cm^3
# Si number density = 20.164286 Si / 1000 Ang^3
#
#
#
# Elastic Constant Matrix: (Units=GPa)
#
#
# Indices 1 2 3 4 5 6 
#
# 1 66.7424 3.9296 35.1993 0.0000 1.9896 0.0000
# 2 3.9296 54.1902 11.7003 0.0000 -1.2244 0.0000
# 3 35.1993 11.7003 95.1917 0.0000 15.7349 0.0000
# 4 0.0000 0.0000 0.0000 23.1774 0.0000 12.3054
# 5 1.9896 -1.2244 15.7349 0.0000 41.5433 0.0000
# 6 0.0000 0.0000 0.0000 12.3054 0.0000 9.1433
#
#
#
# Elastic Compliance Matrix: (Units=1/GPa)
#
#
# Indices 1 2 3 4 5 6 
#
# 1 0.018747 0.000253 -0.007271 0.000000 0.001864 0.000000
# 2 0.000253 0.019053 -0.002695 0.000000 0.001570 0.000000
# 3 -0.007271 -0.002695 0.014381 0.000000 -0.005178 0.000000
# 4 0.000000 0.000000 0.000000 0.151140 0.000000 -0.203410
# 5 0.001864 0.001570 -0.005178 0.000000 0.025990 0.000000
# 6 0.000000 0.000000 0.000000 -0.203410 0.000000 0.383126
#
#
# Mechanical properties :
#
#
# Convention : Reuss Voigt Hill
#
# Bulk Modulus (GPa) = 30.53073 35.30920 32.91996
# Shear Modulus (GPa) = 7.77869 25.79248 16.78559
#
# Velocity S-wave (km/s) = 1.96622 3.58035 2.88834
# Velocity P-wave (km/s) = 4.50872 5.88563 5.24258
#
# Compressibility (1/GPa) = 0.03275389
#
# Stress axis : x y z
#
# Youngs Moduli (GPa) = 53.34074 52.48653 69.53609
#
# Poissons Ratio (x) = -0.01326 0.50562
# Poissons Ratio (y) = -0.01347 0.18738
# Poissons Ratio (z) = 0.38786 0.14144
#
# Static dielectric constant tensor:
#      x y z
#    x 1.746810 0.000000 0.028650 
#    y 0.000000 1.685570 0.000000 
#    z 0.028650 0.000000 1.724320 
# 
# From -- ./inp_files/30451.got.cif
#   From: 2010.05.17/outbox.cif.g08.bks.cpg/sg10_16_cif.got.tgz:30451.got - 2010.06.03 11:33:40.
