data_PCOD9153548
_publ_section_title
;
Structure prediction by ZEFSAII (Michael W. Deem and Ramdas Pophale) SiO2 
 PCOD9153548
Probable space group: P 2/M
;
_chemical_formula_sum "Si O2"
_cell_formula_units_Z 20
_cell_length_a 10.675842
_cell_length_b 9.017331
_cell_length_c 12.904542
_cell_angle_alpha 90.000000
_cell_angle_beta 53.730088
_cell_angle_gamma 90.000000
_cell_volume 1001.582155
_symmetry_space_group_name_H-M "P 2/M"
_symmetry_group_IT_number 10
_symmetry_cell_setting 'monoclinic'
loop_
_space_group_symop_operation_xyz
x,y,z
-x,y,-z
-x,-y,-z
x,-y,z
loop_
_atom_site_type_symbol
_atom_site_label
_atom_site_fract_x
_atom_site_fract_y
_atom_site_fract_z
Si Si1 0.680016 0.167055 0.878776
Si Si2 0.320525 0.329283 0.552411
Si Si3 0.814266 0.823659 0.583648
Si Si4 0.832548 0.326439 0.985328
Si Si5 0.831667 0.825142 0.183204
O O1 0.727364 0.196241 0.736707
O O2 0.752276 0.289695 0.917285
O O3 0.742551 0.000000 0.871987
O O4 0.500000 0.163914 0.000000
O O5 0.500000 0.329185 0.500000
O O6 0.264740 0.500000 0.589908
O O7 0.274229 0.268789 0.461836
O O8 0.242313 0.220714 0.673099
O O9 0.000000 0.785915 0.500000
O O10 0.806785 0.000000 0.562271
O O11 0.848530 0.500000 0.995569
O O12 0.998099 0.246300 0.897400
O O13 0.748620 0.250859 0.124985
O O14 0.837597 0.000000 0.165698
#
# Coordination Sequence:
#
# PCOD9153548 Si02
#       5
#     4   4   4   4   4
#     4  10  22  39  60  90 126 164 210 260 311 372
#     4  11  25  42  62  93 131 166 207 263 324 381
#     4  10  22  41  65  92 124 168 219 264 311 381
#     4  11  22  38  62  92 126 161 203 255 316 374
#     4  11  22  39  64  90 121 163 210 255 308 373
#
# _framework density 19.968406000000002
#
# number of rings (size 3 to 8) (size 9 to 14) (size 15 to 20)
#    0.000    1.400    0.000    6.600    2.800    4.800 
#    0.000    0.000    0.000    0.000    0.000    0.000 
#    0.000    0.000    0.000    0.000    0.000    0.000 
#
# Total GULP energy -111626.112409 kJ/mol
# GULP energy per Si atom -5581.305620 kJ/mol
# Density = 1.992296 g / cm^3
# Si number density = 19.968406 Si / 1000 Ang^3
#
#
#
# Elastic Constant Matrix: (Units=GPa)
#
#
# Indices 1 2 3 4 5 6 
#
# 1 69.8114 43.8085 36.3329 0.0000 14.1912 0.0000
# 2 43.8085 160.5686 53.5003 0.0000 20.7313 0.0000
# 3 36.3329 53.5003 116.3079 0.0000 16.1890 0.0000
# 4 0.0000 0.0000 0.0000 48.6596 0.0000 21.3255
# 5 14.1912 20.7313 16.1890 0.0000 29.2038 0.0000
# 6 0.0000 0.0000 0.0000 21.3255 0.0000 34.3645
#
#
#
# Elastic Compliance Matrix: (Units=1/GPa)
#
#
# Indices 1 2 3 4 5 6 
#
# 1 0.019447 -0.003395 -0.003829 0.000000 -0.004917 0.000000
# 2 -0.003395 0.008320 -0.002356 0.000000 -0.002950 0.000000
# 3 -0.003829 -0.002356 0.011254 0.000000 -0.002706 0.000000
# 4 0.000000 0.000000 0.000000 0.028228 0.000000 -0.017517
# 5 -0.004917 -0.002950 -0.002706 0.000000 0.040226 0.000000
# 6 0.000000 0.000000 0.000000 -0.017517 0.000000 0.039970
#
#
# Mechanical properties :
#
#
# Convention : Reuss Voigt Hill
#
# Bulk Modulus (GPa) = 50.34796 68.21901 59.28348
# Shear Modulus (GPa) = 28.86394 36.64867 32.75631
#
# Velocity S-wave (km/s) = 3.80607 4.28873 4.05459
# Velocity P-wave (km/s) = 6.67708 7.66563 7.18837
#
# Compressibility (1/GPa) = 0.01986178
#
# Stress axis : x y z
#
# Youngs Moduli (GPa) = 51.42132 120.19099 88.85566
#
# Poissons Ratio (x) = 0.40807 0.34021
# Poissons Ratio (y) = 0.17459 0.20933
# Poissons Ratio (z) = 0.19688 0.28315
#
# Static dielectric constant tensor:
#      x y z
#    x 1.966270 0.000000 -0.111100 
#    y 0.000000 1.691200 0.000000 
#    z -0.111100 0.000000 1.847130 
# 
# From -- ./inp_files/44903.got.cif
#   From: 2010.05.17/outbox.cif.g08.bks.cpg/sg10_23_cif.got.tgz:44903.got - 2010.06.03 11:33:40.
