data_PCOD9153172
_publ_section_title
;
Structure prediction by ZEFSAII (Michael W. Deem and Ramdas Pophale) SiO2 
 PCOD9153172
Probable space group: P 2/M
;
_chemical_formula_sum "Si O2"
_cell_formula_units_Z 26
_cell_length_a 15.861334
_cell_length_b 8.343815
_cell_length_c 15.077844
_cell_angle_alpha 90.000000
_cell_angle_beta 40.849653
_cell_angle_gamma 90.000000
_cell_volume 1305.185037
_symmetry_space_group_name_H-M "P 2/M"
_symmetry_group_IT_number 10
_symmetry_cell_setting 'monoclinic'
loop_
_space_group_symop_operation_xyz
x,y,z
-x,y,-z
-x,-y,-z
x,-y,z
loop_
_atom_site_type_symbol
_atom_site_label
_atom_site_fract_x
_atom_site_fract_y
_atom_site_fract_z
Si Si1 0.563830 0.310935 0.196221
Si Si2 0.144243 0.686561 0.400404
Si Si3 0.588190 0.187123 0.844091
Si Si4 0.029710 0.000000 0.781722
Si Si5 0.266995 0.000000 0.715834
Si Si6 0.139879 0.326328 0.613427
Si Si7 0.265593 0.000000 0.928647
Si Si8 0.593955 0.281006 0.499236
O O1 0.604706 0.500000 0.170747
O O2 0.463401 0.294707 0.195406
O O3 0.494652 0.260644 0.343270
O O4 0.666775 0.168056 0.096637
O O5 0.144816 0.500000 0.371567
O O6 0.261702 0.775303 0.259654
O O7 0.168121 0.691989 0.486821
O O8 0.000000 0.750939 0.500000
O O9 0.575625 0.000000 0.829019
O O10 0.500000 0.215919 0.000000
O O11 0.067785 0.164990 0.701239
O O12 0.121227 0.000000 0.795689
O O13 0.880252 0.000000 0.922305
O O14 0.268547 0.000000 0.819522
O O15 0.345258 0.857154 0.609297
O O16 0.071055 0.500000 0.679938
O O17 0.273332 0.339847 0.561146
O O18 0.500000 0.354216 0.500000
#
# Coordination Sequence:
#
# PCOD9153172 Si02
#       8
#     4   4   4   2   2   4   2   4
#     4  12  25  41  69 100 132 174 216 274 336 397
#     4  10  22  41  66  95 130 175 228 281 335 401
#     4  11  25  44  67 100 139 178 222 279 342 409
#     4  10  25  41  65  87 126 179 223 270 327 383
#     4  10  21  40  65  91 129 184 214 274 335 382
#     4  10  22  41  64  95 128 165 220 277 331 390
#     4  12  24  46  61  93 137 173 228 266 321 414
#     4  11  20  36  66 101 132 167 215 272 338 389
#
# _framework density 19.920546999999999
#
# number of rings (size 3 to 8) (size 9 to 14) (size 15 to 20)
#    0.000    1.231    3.846    1.846    1.077    4.615 
#    0.000    1.538    0.000    2.769    0.000    0.000 
#    0.000    0.000    0.000    0.000    0.000    0.000 
#
# Total GULP energy -144794.814739 kJ/mol
# GULP energy per Si atom -5569.031336 kJ/mol
# Density = 1.987521 g / cm^3
# Si number density = 19.920547 Si / 1000 Ang^3
#
#
#
# Elastic Constant Matrix: (Units=GPa)
#
#
# Indices 1 2 3 4 5 6 
#
# 1 74.1887 26.8633 51.8727 0.0000 -8.9803 0.0000
# 2 26.8633 111.5451 75.8984 0.0000 -20.7107 0.0000
# 3 51.8727 75.8984 113.6799 0.0000 -32.1255 0.0000
# 4 0.0000 0.0000 0.0000 4.9430 0.0000 -8.0092
# 5 -8.9803 -20.7107 -32.1255 0.0000 32.1365 0.0000
# 6 0.0000 0.0000 0.0000 -8.0092 0.0000 27.9189
#
#
#
# Elastic Compliance Matrix: (Units=1/GPa)
#
#
# Indices 1 2 3 4 5 6 
#
# 1 0.020798 0.002718 -0.012777 0.000000 -0.005209 0.000000
# 2 0.002718 0.016790 -0.012791 0.000000 -0.001207 0.000000
# 3 -0.012777 -0.012791 0.027635 0.000000 0.015812 0.000000
# 4 0.000000 0.000000 0.000000 0.378016 0.000000 0.108443
# 5 -0.005209 -0.001207 0.015812 0.000000 0.044691 0.000000
# 6 0.000000 0.000000 0.000000 0.108443 0.000000 0.066927
#
#
# Mechanical properties :
#
#
# Convention : Reuss Voigt Hill
#
# Bulk Modulus (GPa) = 51.22173 67.63140 59.42656
# Shear Modulus (GPa) = 8.23637 22.65163 15.44400
#
# Velocity S-wave (km/s) = 2.03558 3.37575 2.78741
# Velocity P-wave (km/s) = 5.59407 7.01559 6.34477
#
# Compressibility (1/GPa) = 0.01952296
#
# Stress axis : x y z
#
# Youngs Moduli (GPa) = 48.08132 59.56080 36.18610
#
# Poissons Ratio (x) = -0.16187 0.46235
# Poissons Ratio (y) = -0.13067 0.46285
# Poissons Ratio (z) = 0.61433 0.76182
#
# Static dielectric constant tensor:
#      x y z
#    x 1.711270 0.000000 -0.027340 
#    y 0.000000 1.702450 0.000000 
#    z -0.027340 0.000000 1.654750 
# 
# From -- ./inp_files/66845.got.cif
#   From: 2010.05.17/outbox.cif.g08.bks.cpg/sg10_34_cif.got.tgz:66845.got - 2010.06.03 11:33:40.
