data_PCOD9153144
_publ_section_title
;
Structure prediction by ZEFSAII (Michael W. Deem and Ramdas Pophale) SiO2 
 PCOD9153144
Probable space group: P 2/M
;
_chemical_formula_sum "Si O2"
_cell_formula_units_Z 26
_cell_length_a 13.580829
_cell_length_b 18.148651
_cell_length_c 5.717585
_cell_angle_alpha 90.000000
_cell_angle_beta 59.875893
_cell_angle_gamma 90.000000
_cell_volume 1218.903741
_symmetry_space_group_name_H-M "P 2/M"
_symmetry_group_IT_number 10
_symmetry_cell_setting 'monoclinic'
loop_
_space_group_symop_operation_xyz
x,y,z
-x,y,-z
-x,-y,-z
x,-y,z
loop_
_atom_site_type_symbol
_atom_site_label
_atom_site_fract_x
_atom_site_fract_y
_atom_site_fract_z
Si Si1 0.797227 0.692923 0.514044
Si Si2 0.748757 0.911489 0.825299
Si Si3 0.843723 0.585616 0.843825
Si Si4 0.000000 0.317841 0.000000
Si Si5 0.131056 0.910801 0.823620
Si Si6 0.613285 0.221506 0.009606
Si Si7 0.373994 0.352800 0.669355
O O1 0.855751 0.626572 0.584373
O O2 0.730507 0.748916 0.755722
O O3 0.696993 0.657332 0.480857
O O4 0.901918 0.727735 0.248083
O O5 0.810057 0.893752 0.500168
O O6 0.631708 0.865600 0.987981
O O7 0.735047 0.000000 0.845518
O O8 0.811376 0.888807 0.995696
O O9 0.869965 0.500000 0.808458
O O10 0.921989 0.629956 0.931118
O O11 0.711308 0.600106 0.068663
O O12 0.132250 0.000000 0.826604
O O13 0.000000 0.887461 0.000000
O O14 0.500000 0.240443 0.000000
O O15 0.610796 0.270203 0.245689
O O16 0.500000 0.384902 0.500000
#
# Coordination Sequence:
#
# PCOD9153144 Si02
#       7
#     4   4   4   2   4   4   4
#     4  10  22  40  61  90 121 166 212 257 316 378
#     4  10  22  38  62  97 130 165 218 276 336 398
#     4  10  22  38  62  95 130 166 203 257 322 383
#     4  10  21  40  64  90 131 162 210 256 309 392
#     4   9  18  37  60  87 127 170 206 253 320 396
#     4  11  23  40  66  86 119 167 214 266 328 388
#     4  10  21  40  64  87 120 168 220 261 310 381
#
# _framework density 21.330642999999998
#
# number of rings (size 3 to 8) (size 9 to 14) (size 15 to 20)
#    0.000    2.000    1.538    1.154    2.154    6.154 
#    1.385    5.385    0.000    3.231    0.000    0.000 
#    0.000    0.000    0.000    0.000    0.000    0.000 
#
# Total GULP energy -144897.276127 kJ/mol
# GULP energy per Si atom -5572.972159 kJ/mol
# Density = 2.128209 g / cm^3
# Si number density = 21.330643 Si / 1000 Ang^3
#
#
#
# Elastic Constant Matrix: (Units=GPa)
#
#
# Indices 1 2 3 4 5 6 
#
# 1 110.2410 10.0655 43.9611 0.0000 2.6176 0.0000
# 2 10.0655 57.3006 17.1906 0.0000 4.2743 0.0000
# 3 43.9611 17.1906 94.4343 0.0000 -9.0483 0.0000
# 4 0.0000 0.0000 0.0000 -39.4156 0.0000 -35.0391
# 5 2.6176 4.2743 -9.0483 0.0000 49.5675 0.0000
# 6 0.0000 0.0000 0.0000 -35.0391 0.0000 -6.2837
#
#
#
# Elastic Compliance Matrix: (Units=1/GPa)
#
#
# Indices 1 2 3 4 5 6 
#
# 1 0.011263 -0.000260 -0.005344 0.000000 -0.001548 0.000000
# 2 -0.000260 0.018715 -0.003500 0.000000 -0.002239 0.000000
# 3 -0.005344 -0.003500 0.014015 0.000000 0.003142 0.000000
# 4 0.000000 0.000000 0.000000 0.006411 0.000000 -0.035752
# 5 -0.001548 -0.002239 0.003142 0.000000 0.021023 0.000000
# 6 0.000000 0.000000 0.000000 -0.035752 0.000000 0.040217
#
#
# Mechanical properties :
#
#
# Convention : Reuss Voigt Hill
#
# Bulk Modulus (GPa) = 38.78315 44.93447 41.85881
# Shear Modulus (GPa) = 36.11484 13.49090 24.80287
#
# Velocity S-wave (km/s) = 4.11919 2.51761 3.41366
# Velocity P-wave (km/s) = 6.39101 5.43715 5.93328
#
# Compressibility (1/GPa) = 0.02578439
#
# Stress axis : x y z
#
# Youngs Moduli (GPa) = 88.79001 53.43423 71.35007
#
# Poissons Ratio (x) = 0.01388 0.38129
# Poissons Ratio (y) = 0.02306 0.24975
# Poissons Ratio (z) = 0.47449 0.18704
#
# Static dielectric constant tensor:
#      x y z
#    x 0.217990 0.000000 1.413850 
#    y 0.000000 1.759520 0.000000 
#    z 1.413850 0.000000 0.599970 
# 
# From -- ./inp_files/7662.got.cif
#   From: 2010.05.17/outbox.cif.g08.bks.cpg/sg10_4_cif.got.tgz:7662.got - 2010.06.03 11:33:40.
