data_PCOD9153467
_publ_section_title
;
Structure prediction by ZEFSAII (Michael W. Deem and Ramdas Pophale) SiO2 
 PCOD9153467
Probable space group: P 2/M
;
_chemical_formula_sum "Si O2"
_cell_formula_units_Z 32
_cell_length_a 13.178256
_cell_length_b 12.947862
_cell_length_c 9.341043
_cell_angle_alpha 90.000000
_cell_angle_beta 59.347019
_cell_angle_gamma 90.000000
_cell_volume 1371.155253
_symmetry_space_group_name_H-M "P 2/M"
_symmetry_group_IT_number 10
_symmetry_cell_setting 'monoclinic'
loop_
_space_group_symop_operation_xyz
x,y,z
-x,y,-z
-x,-y,-z
x,-y,z
loop_
_atom_site_type_symbol
_atom_site_label
_atom_site_fract_x
_atom_site_fract_y
_atom_site_fract_z
Si Si1 0.373543 0.884810 0.713152
Si Si2 0.879386 0.386797 0.426379
Si Si3 0.022363 0.833701 0.640911
Si Si4 0.415295 0.682628 0.852069
Si Si5 0.197100 0.386757 0.844570
Si Si6 0.882617 0.835572 0.002813
Si Si7 0.290994 0.881662 0.458689
Si Si8 0.330732 0.314061 0.236990
O O1 0.426567 0.796495 0.774820
O O2 0.365707 0.858848 0.549543
O O3 0.421438 0.000000 0.698237
O O4 0.236516 0.885066 0.858378
O O5 0.934408 0.500000 0.392915
O O6 0.967239 0.290945 0.369423
O O7 0.814145 0.377265 0.318816
O O8 0.782019 0.373772 0.620659
O O9 0.151809 0.869225 0.598072
O O10 0.000000 0.873760 0.500000
O O11 0.913445 0.860224 0.818462
O O12 0.331255 0.622215 0.803327
O O13 0.546466 0.642396 0.787120
O O14 0.348551 0.687582 0.053550
O O15 0.149818 0.500000 0.919576
O O16 0.132915 0.287811 0.958953
O O17 0.000000 0.868606 0.000000
O O18 0.314709 0.800337 0.315983
O O19 0.310748 0.000000 0.403339
#
# Coordination Sequence:
#
# PCOD9153467 Si02
#       8
#     4   4   4   4   4   4   4   4
#     4  10  22  38  60  88 113 146 194 237 277 331
#     4  10  22  40  59  84 116 149 190 236 280 334
#     4  11  23  37  55  84 119 153 189 228 280 337
#     4  10  22  40  60  85 115 147 187 234 284 341
#     4  10  22  38  60  88 113 146 194 237 277 331
#     4  11  19  37  59  82 115 153 187 232 278 328
#     4  10  22  40  59  84 116 149 190 236 280 334
#     4  10  22  40  60  83 117 152 181 229 292 342
#
# _framework density 23.337983000000001
#
# number of rings (size 3 to 8) (size 9 to 14) (size 15 to 20)
#    0.000    1.750    2.500    2.250    7.000    6.000 
#    0.000    5.000    0.000    0.000    0.000    0.000 
#    0.000    0.000    0.000    0.000    0.000    0.000 
#
# Total GULP energy -179002.062672 kJ/mol
# GULP energy per Si atom -5593.814459 kJ/mol
# Density = 2.328486 g / cm^3
# Si number density = 23.337983 Si / 1000 Ang^3
#
#
#
# Elastic Constant Matrix: (Units=GPa)
#
#
# Indices 1 2 3 4 5 6 
#
# 1 70.5745 -1.1063 5.2931 0.0000 6.0997 0.0000
# 2 -1.1063 92.0101 5.8189 0.0000 10.2376 0.0000
# 3 5.2931 5.8189 116.4562 0.0000 0.4964 0.0000
# 4 0.0000 0.0000 0.0000 133.0942 0.0000 81.4711
# 5 6.0997 10.2376 0.4964 0.0000 40.3877 0.0000
# 6 0.0000 0.0000 0.0000 81.4711 0.0000 39.6664
#
#
#
# Elastic Compliance Matrix: (Units=1/GPa)
#
#
# Indices 1 2 3 4 5 6 
#
# 1 0.014425 0.000471 -0.000669 0.000000 -0.002290 0.000000
# 2 0.000471 0.011234 -0.000570 0.000000 -0.002912 0.000000
# 3 -0.000669 -0.000570 0.008645 0.000000 0.000139 0.000000
# 4 0.000000 0.000000 0.000000 -0.029206 0.000000 0.059986
# 5 -0.002290 -0.002912 0.000139 0.000000 0.025842 0.000000
# 6 0.000000 0.000000 0.000000 0.059986 0.000000 -0.097995
#
#
# Mechanical properties :
#
#
# Convention : Reuss Voigt Hill
#
# Bulk Modulus (GPa) = 30.51952 33.22801 31.87376
# Shear Modulus (GPa) = -91.58439 60.56533 -15.50953
#
# Velocity S-wave (km/s) = -6.27119 5.09978 -2.58071
# Velocity P-wave (km/s) = 6.27148 6.99612 2.19250
#
# Compressibility (1/GPa) = 0.03276592
#
# Stress axis : x y z
#
# Youngs Moduli (GPa) = 69.32460 89.01489 115.67056
#
# Poissons Ratio (x) = -0.04188 0.07743
# Poissons Ratio (y) = -0.03262 0.06597
# Poissons Ratio (z) = 0.04640 0.05077
#
# Static dielectric constant tensor:
#      x y z
#    x 1.899150 0.000000 -0.000520 
#    y 0.000000 1.875610 0.000000 
#    z -0.000520 0.000000 1.856710 
# 
# From -- ./inp_files/29475.got.cif
#   From: 2010.05.17/outbox.cif.g08.bks.cpg/sg10_15_cif.got.tgz:29475.got - 2010.06.03 11:33:40.
