data_PCOD9153001
_publ_section_title
;
Structure prediction by ZEFSAII (Michael W. Deem and Ramdas Pophale) SiO2 
 PCOD9153001
Probable space group: P 2/M
;
_chemical_formula_sum "Si O2"
_cell_formula_units_Z 32
_cell_length_a 22.624708
_cell_length_b 8.282837
_cell_length_c 12.287207
_cell_angle_alpha 90.000000
_cell_angle_beta 37.015298
_cell_angle_gamma 90.000000
_cell_volume 1386.219917
_symmetry_space_group_name_H-M "P 2/M"
_symmetry_group_IT_number 10
_symmetry_cell_setting 'monoclinic'
loop_
_space_group_symop_operation_xyz
x,y,z
-x,y,-z
-x,-y,-z
x,-y,z
loop_
_atom_site_type_symbol
_atom_site_label
_atom_site_fract_x
_atom_site_fract_y
_atom_site_fract_z
Si Si1 0.724775 0.193426 0.760222
Si Si2 0.088772 0.803504 0.790053
Si Si3 0.585464 0.692111 0.788257
Si Si4 0.851517 0.692189 0.898818
Si Si5 0.939109 0.805540 0.417510
Si Si6 0.441770 0.189606 0.415965
Si Si7 0.349477 0.691756 0.909340
Si Si8 0.769416 0.804643 0.238619
O O1 0.684948 0.263355 0.705744
O O2 0.836535 0.246744 0.622141
O O3 0.723128 0.000000 0.755120
O O4 0.655002 0.251104 0.959428
O O5 0.073365 0.749002 0.689751
O O6 0.187114 0.753125 0.708840
O O7 0.089588 0.000000 0.783914
O O8 0.000000 0.756319 0.000000
O O9 0.579033 0.500000 0.778627
O O10 0.573126 0.779775 0.691449
O O11 0.500000 0.737955 0.000000
O O12 0.849444 0.500000 0.896125
O O13 0.750771 0.759235 0.995103
O O14 0.841872 0.747594 0.037906
O O15 0.954899 0.749019 0.698172
O O16 0.941407 0.000000 0.416714
O O17 0.547130 0.258185 0.293676
O O18 0.341407 0.256636 0.615977
O O19 0.445241 0.000000 0.432008
O O20 0.344728 0.500000 0.914227
O O21 0.767950 0.000000 0.239207
#
# Coordination Sequence:
#
# PCOD9153001 Si02
#       8
#     4   4   4   4   4   4   4   4
#     4  11  23  39  64  94 121 155 203 254 300 353
#     4   9  15  30  60  89 116 152 185 225 291 358
#     4  11  22  37  61  92 128 166 196 235 302 367
#     4  11  25  42  61  86 118 160 205 249 300 363
#     4  10  21  39  63  91 122 155 196 248 302 356
#     4  11  23  39  64  94 121 155 203 254 300 353
#     4  11  25  44  61  82 119 162 204 251 304 361
#     4  10  21  39  63  91 122 155 196 248 302 356
#
# _framework density 23.084361000000001
#
# number of rings (size 3 to 8) (size 9 to 14) (size 15 to 20)
#    0.000    1.500    2.500    2.625    0.000    7.500 
#    0.000    6.250    0.000    0.000    0.000    0.000 
#    0.000    0.000    0.000    0.000    0.000    0.000 
#
# Total GULP energy -178925.602846 kJ/mol
# GULP energy per Si atom -5591.425089 kJ/mol
# Density = 2.303182 g / cm^3
# Si number density = 23.084361 Si / 1000 Ang^3
#
#
#
# Elastic Constant Matrix: (Units=GPa)
#
#
# Indices 1 2 3 4 5 6 
#
# 1 66.5534 -11.5891 7.5391 0.0000 -28.1300 0.0000
# 2 -11.5891 23.1981 11.1455 0.0000 -13.8446 0.0000
# 3 7.5391 11.1455 133.5717 0.0000 -38.0840 0.0000
# 4 0.0000 0.0000 0.0000 6.3673 0.0000 -24.9781
# 5 -28.1300 -13.8446 -38.0840 0.0000 48.1667 0.0000
# 6 0.0000 0.0000 0.0000 -24.9781 0.0000 17.0771
#
#
#
# Elastic Compliance Matrix: (Units=1/GPa)
#
#
# Indices 1 2 3 4 5 6 
#
# 1 0.035776 0.036572 0.005014 0.000000 0.035370 0.000000
# 2 0.036572 0.089420 0.005025 0.000000 0.051034 0.000000
# 3 0.005014 0.005025 0.010368 0.000000 0.012570 0.000000
# 4 0.000000 0.000000 0.000000 -0.033148 0.000000 -0.048485
# 5 0.035370 0.051034 0.012570 0.000000 0.066025 0.000000
# 6 0.000000 0.000000 0.000000 -0.048485 0.000000 -0.012360
#
#
# Mechanical properties :
#
#
# Convention : Reuss Voigt Hill
#
# Bulk Modulus (GPa) = 4.37088 26.39045 15.38066
# Shear Modulus (GPa) = 35.93975 28.73740 32.33857
#
# Velocity S-wave (km/s) = 3.95002 3.53212 3.74690
# Velocity P-wave (km/s) = 4.76457 5.30014 5.03947
#
# Compressibility (1/GPa) = 0.22878713
#
# Stress axis : x y z
#
# Youngs Moduli (GPa) = 27.95193 11.18312 96.44682
#
# Poissons Ratio (x) = -0.40899 -0.48355
# Poissons Ratio (y) = -1.02227 -0.48467
# Poissons Ratio (z) = -0.14014 -0.05620
#
# Static dielectric constant tensor:
#      x y z
#    x 1.896360 0.000000 -0.043990 
#    y 0.000000 1.786500 0.000000 
#    z -0.043990 0.000000 1.874930 
# 
# From -- ./inp_files/71474.got.cif
#   From: 2010.05.17/outbox.cif.g08.bks.cpg/sg10_36_cif.got.tgz:71474.got - 2010.06.03 11:33:40.
