data_PCOD9153941
_publ_section_title
;
Structure prediction by ZEFSAII (Michael W. Deem and Ramdas Pophale) SiO2 
 PCOD9153941
Probable space group: P 2/M
;
_chemical_formula_sum "Si O2"
_cell_formula_units_Z 26
_cell_length_a 8.864410
_cell_length_b 20.332760
_cell_length_c 9.565134
_cell_angle_alpha 90.000000
_cell_angle_beta 127.385854
_cell_angle_gamma 90.000000
_cell_volume 1369.829185
_symmetry_space_group_name_H-M "P 2/M"
_symmetry_group_IT_number 10
_symmetry_cell_setting 'monoclinic'
loop_
_space_group_symop_operation_xyz
x,y,z
-x,y,-z
-x,-y,-z
x,-y,z
loop_
_atom_site_type_symbol
_atom_site_label
_atom_site_fract_x
_atom_site_fract_y
_atom_site_fract_z
Si Si1 0.000000 0.837127 0.500000
Si Si2 0.575661 0.805328 0.200826
Si Si3 0.320767 0.922421 0.149826
Si Si4 0.809139 0.575034 0.477865
Si Si5 0.192524 0.429155 0.191723
Si Si6 0.950527 0.922563 0.746475
Si Si7 0.511428 0.320205 0.673543
O O1 0.195845 0.800753 0.653149
O O2 0.052133 0.880679 0.394488
O O3 0.494640 0.875032 0.211742
O O4 0.486512 0.747224 0.242664
O O5 0.500000 0.799226 0.000000
O O6 0.219957 0.907068 0.241464
O O7 0.371573 0.000000 0.176716
O O8 0.150631 0.912597 0.940964
O O9 0.744858 0.500000 0.407412
O O10 0.844769 0.576234 0.664309
O O11 0.660190 0.633198 0.371481
O O12 0.000000 0.586805 0.500000
O O13 0.294744 0.500000 0.229732
O O14 0.308554 0.366947 0.206284
O O15 0.000000 0.431505 0.000000
O O16 0.937690 0.000000 0.707555
O O17 0.500000 0.308400 0.500000
#
# Coordination Sequence:
#
# PCOD9153941 Si02
#       7
#     2   4   4   4   4   4   4
#     4  12  25  40  64  92 125 160 206 260 304 378
#     4  12  27  45  60  91 126 170 207 261 314 367
#     4   9  20  42  67  91 124 162 205 258 315 375
#     4   9  18  35  62  91 120 154 196 248 299 350
#     4   9  18  37  63  93 121 155 202 247 299 365
#     4   9  19  39  68  97 120 153 202 259 319 377
#     4  10  23  41  60  86 122 165 206 244 303 367
#
# _framework density 18.980467999999998
#
# number of rings (size 3 to 8) (size 9 to 14) (size 15 to 20)
#    0.000    2.154    1.538    1.615    3.231    4.615 
#    5.538    1.538    0.000    4.615    0.000    0.000 
#    0.000    0.000    0.000    0.000    0.000    0.000 
#
# Total GULP energy -145056.877817 kJ/mol
# GULP energy per Si atom -5579.110685 kJ/mol
# Density = 1.893727 g / cm^3
# Si number density = 18.980468 Si / 1000 Ang^3
#
#
#
# Elastic Constant Matrix: (Units=GPa)
#
#
# Indices 1 2 3 4 5 6 
#
# 1 93.2098 58.2011 39.2935 0.0000 8.6333 0.0000
# 2 58.2011 98.4620 44.8089 0.0000 -5.9550 0.0000
# 3 39.2935 44.8089 64.6025 0.0000 1.9335 0.0000
# 4 0.0000 0.0000 0.0000 16.0340 0.0000 4.7100
# 5 8.6333 -5.9550 1.9335 0.0000 22.8835 0.0000
# 6 0.0000 0.0000 0.0000 4.7100 0.0000 61.9472
#
#
#
# Elastic Compliance Matrix: (Units=1/GPa)
#
#
# Indices 1 2 3 4 5 6 
#
# 1 0.020082 -0.010290 -0.004783 0.000000 -0.009850 0.000000
# 2 -0.010290 0.020645 -0.008359 0.000000 0.009961 0.000000
# 3 -0.004783 -0.008359 0.024259 0.000000 -0.002421 0.000000
# 4 0.000000 0.000000 0.000000 0.063792 0.000000 -0.004850
# 5 -0.009850 0.009961 -0.002421 0.000000 0.050212 0.000000
# 6 0.000000 0.000000 0.000000 -0.004850 0.000000 0.016512
#
#
# Mechanical properties :
#
#
# Convention : Reuss Voigt Hill
#
# Bulk Modulus (GPa) = 55.17972 60.09793 57.63883
# Shear Modulus (GPa) = 20.12835 27.77100 23.94968
#
# Velocity S-wave (km/s) = 3.26003 3.82925 3.55605
# Velocity P-wave (km/s) = 6.58068 7.16119 6.87706
#
# Compressibility (1/GPa) = 0.01812260
#
# Stress axis : x y z
#
# Youngs Moduli (GPa) = 49.79586 48.43779 41.22217
#
# Poissons Ratio (x) = 0.49841 0.19716
# Poissons Ratio (y) = 0.51238 0.34458
# Poissons Ratio (z) = 0.23816 0.40490
#
# Static dielectric constant tensor:
#      x y z
#    x 1.649880 0.000000 0.018250 
#    y 0.000000 1.649660 0.000000 
#    z 0.018250 0.000000 1.653470 
# 
# From -- ./inp_files/20482.got.cif
#   From: 2010.05.17/outbox.cif.g08.bks.cpg/sg10_11_cif.got.tgz:20482.got - 2010.06.03 11:33:40.
