data_PCOD9153619
_publ_section_title
;
Structure prediction by ZEFSAII (Michael W. Deem and Ramdas Pophale) SiO2 
 PCOD9153619
Probable space group: P 2/M
;
_chemical_formula_sum "Si O2"
_cell_formula_units_Z 32
_cell_length_a 8.522351
_cell_length_b 14.252109
_cell_length_c 24.953304
_cell_angle_alpha 90.000000
_cell_angle_beta 146.895593
_cell_angle_gamma 90.000000
_cell_volume 1655.356673
_symmetry_space_group_name_H-M "P 2/M"
_symmetry_group_IT_number 10
_symmetry_cell_setting 'monoclinic'
loop_
_space_group_symop_operation_xyz
x,y,z
-x,y,-z
-x,-y,-z
x,-y,z
loop_
_atom_site_type_symbol
_atom_site_label
_atom_site_fract_x
_atom_site_fract_y
_atom_site_fract_z
Si Si1 0.667117 0.803687 0.890426
Si Si2 0.824093 0.108936 0.506096
Si Si3 0.918388 0.392943 0.757639
Si Si4 0.698678 0.801886 0.694729
Si Si5 0.538388 0.392855 0.874168
Si Si6 0.334432 0.112800 0.895897
Si Si7 0.784773 0.387608 0.053570
Si Si8 0.402828 0.111507 0.712265
O O1 0.565813 0.697911 0.845322
O O2 0.507827 0.836294 0.898562
O O3 0.572339 0.870660 0.815160
O O4 0.000000 0.809401 0.000000
O O5 0.515096 0.154737 0.410571
O O6 0.000000 0.119805 0.500000
O O7 0.063940 0.137303 0.618328
O O8 0.768787 0.000000 0.498184
O O9 0.811296 0.500000 0.722482
O O10 0.733844 0.305772 0.686638
O O11 0.229828 0.392552 0.816830
O O12 0.964172 0.367173 0.833725
O O13 0.540437 0.824602 0.705480
O O14 0.012328 0.846968 0.795621
O O15 0.583083 0.500000 0.866918
O O16 0.773423 0.369537 0.987819
O O17 0.327171 0.000000 0.886862
O O18 0.500000 0.129856 0.000000
O O19 0.757893 0.500000 0.048494
O O20 0.500000 0.346409 0.000000
O O21 0.421067 0.000000 0.702694
#
# Coordination Sequence:
#
# PCOD9153619 Si02
#       8
#     4   4   4   4   4   4   4   4
#     4  12  25  37  55  81 117 160 187 222 288 353
#     4   8  16  34  60  85 107 139 188 239 284 331
#     4   9  17  29  52  84 113 140 182 240 285 322
#     4  11  19  34  64  88 106 144 195 239 276 335
#     4   9  18  34  52  74 109 150 192 235 274 323
#     4  11  24  38  54  81 115 149 193 239 277 335
#     4   7  12  23  43  68  96 131 172 220 265 301
#     4  10  22  40  59  82 116 151 184 232 291 342
#
# _framework density 19.331181999999998
#
# number of rings (size 3 to 8) (size 9 to 14) (size 15 to 20)
#    0.000    2.375    1.250    4.500    3.500    2.250 
#    0.000    1.250    0.000    6.375    0.000    1.750 
#    0.000    0.000    0.000    0.000    0.000    0.000 
#
# Total GULP energy -178201.946122 kJ/mol
# GULP energy per Si atom -5568.810816 kJ/mol
# Density = 1.928718 g / cm^3
# Si number density = 19.331182 Si / 1000 Ang^3
#
#
#
# Elastic Constant Matrix: (Units=GPa)
#
#
# Indices 1 2 3 4 5 6 
#
# 1 33.9806 17.8893 29.7540 0.0000 11.8745 0.0000
# 2 17.8893 120.6896 57.5728 0.0000 18.1095 0.0000
# 3 29.7540 57.5728 124.5449 0.0000 19.8108 0.0000
# 4 0.0000 0.0000 0.0000 21.1960 0.0000 14.4963
# 5 11.8745 18.1095 19.8108 0.0000 19.0979 0.0000
# 6 0.0000 0.0000 0.0000 14.4963 0.0000 7.4805
#
#
#
# Elastic Compliance Matrix: (Units=1/GPa)
#
#
# Indices 1 2 3 4 5 6 
#
# 1 0.042241 -0.000060 -0.007060 0.000000 -0.018884 0.000000
# 2 -0.000060 0.011230 -0.004178 0.000000 -0.006277 0.000000
# 3 -0.007060 -0.004178 0.012358 0.000000 -0.004468 0.000000
# 4 0.000000 0.000000 0.000000 -0.145015 0.000000 0.281020
# 5 -0.018884 -0.006277 -0.004468 0.000000 0.074690 0.000000
# 6 0.000000 0.000000 0.000000 0.281020 0.000000 -0.410898
#
#
# Mechanical properties :
#
#
# Convention : Reuss Voigt Hill
#
# Bulk Modulus (GPa) = 23.13082 54.40524 38.76803
# Shear Modulus (GPa) = -13.21394 21.15481 3.97044
#
# Velocity S-wave (km/s) = -2.61733 3.31166 1.43470
# Velocity P-wave (km/s) = 1.69046 6.54429 4.77940
#
# Compressibility (1/GPa) = 0.04323237
#
# Stress axis : x y z
#
# Youngs Moduli (GPa) = 23.67370 89.04991 80.91909
#
# Poissons Ratio (x) = 0.00532 0.57129
# Poissons Ratio (y) = 0.00142 0.33811
# Poissons Ratio (z) = 0.16714 0.37208
#
# Static dielectric constant tensor:
#      x y z
#    x 1.750310 0.000000 -0.009390 
#    y 0.000000 1.702010 0.000000 
#    z -0.009390 0.000000 1.721250 
# 
# From -- ./inp_files/92392.got.cif
#   From: 2010.05.17/outbox.cif.g08.bks.cpg/sg10_47_cif.got.tgz:92392.got - 2010.06.03 11:33:40.
