data_PCOD9153080
_publ_section_title
;
Structure prediction by ZEFSAII (Michael W. Deem and Ramdas Pophale) SiO2 
 PCOD9153080
Probable space group: P 2/M
;
_chemical_formula_sum "Si O2"
_cell_formula_units_Z 32
_cell_length_a 11.610111
_cell_length_b 16.803846
_cell_length_c 14.583280
_cell_angle_alpha 90.000000
_cell_angle_beta 148.489071
_cell_angle_gamma 90.000000
_cell_volume 1487.032756
_symmetry_space_group_name_H-M "P 2/M"
_symmetry_group_IT_number 10
_symmetry_cell_setting 'monoclinic'
loop_
_space_group_symop_operation_xyz
x,y,z
-x,y,-z
-x,-y,-z
x,-y,z
loop_
_atom_site_type_symbol
_atom_site_label
_atom_site_fract_x
_atom_site_fract_y
_atom_site_fract_z
Si Si1 0.910105 0.413448 0.835814
Si Si2 0.221157 0.597421 0.713471
Si Si3 0.907294 0.910032 0.624722
Si Si4 0.095203 0.820768 0.920106
Si Si5 0.719563 0.655075 0.037787
Si Si6 0.522065 0.818148 0.277207
Si Si7 0.659822 0.908115 0.196543
Si Si8 0.341643 0.739704 0.314776
O O1 0.817492 0.500000 0.756901
O O2 0.727456 0.347281 0.700353
O O3 0.118344 0.398485 0.912450
O O4 0.000000 0.406543 0.000000
O O5 0.236119 0.500000 0.730004
O O6 0.214362 0.636164 0.811330
O O7 0.000000 0.614817 0.500000
O O8 0.462058 0.632051 0.845055
O O9 0.703498 0.855303 0.464729
O O10 0.018974 0.882300 0.793237
O O11 0.092461 0.903053 0.672068
O O12 0.833248 0.000000 0.578956
O O13 0.215222 0.745249 0.949221
O O14 0.888344 0.786548 0.833707
O O15 0.284605 0.859767 0.109539
O O16 0.617287 0.838539 0.241086
O O17 0.449162 0.740332 0.286507
O O18 0.626413 0.000000 0.209023
O O19 0.500000 0.898903 0.000000
O O20 0.500000 0.774213 0.500000
#
# Coordination Sequence:
#
# PCOD9153080 Si02
#       8
#     4   4   4   4   4   4   4   4
#     4  10  21  41  68  97 130 176 230 280 338 398
#     4  10  21  39  66 100 138 179 220 270 334 406
#     4  11  24  43  69 101 132 171 222 275 333 404
#     4  11  24  43  66  95 133 177 222 279 338 397
#     4  10  21  40  67  94 138 179 221 277 333 398
#     4  12  23  41  71  94 132 177 215 270 343 396
#     4  10  21  40  67  99 135 171 213 267 329 401
#     4  11  23  44  67  96 135 173 227 281 334 399
#
# _framework density 21.519362999999998
#
# number of rings (size 3 to 8) (size 9 to 14) (size 15 to 20)
#    0.000    1.375    2.500    4.125    0.000    4.750 
#    4.500    1.875    0.000    3.750    0.000    0.000 
#    0.000    2.000    0.000    0.000    0.000    0.000 
#
# Total GULP energy -178398.015542 kJ/mol
# GULP energy per Si atom -5574.937986 kJ/mol
# Density = 2.147038 g / cm^3
# Si number density = 21.519363 Si / 1000 Ang^3
#
#
#
# Elastic Constant Matrix: (Units=GPa)
#
#
# Indices 1 2 3 4 5 6 
#
# 1 117.1655 38.0881 30.3219 0.0000 -2.1197 0.0000
# 2 38.0881 -37.3980 -35.6652 0.0000 30.6535 0.0000
# 3 30.3219 -35.6652 100.6577 0.0000 19.8756 0.0000
# 4 0.0000 0.0000 0.0000 -20.3344 0.0000 -8.4274
# 5 -2.1197 30.6535 19.8756 0.0000 26.3517 0.0000
# 6 0.0000 0.0000 0.0000 -8.4274 0.0000 48.0532
#
#
#
# Elastic Compliance Matrix: (Units=1/GPa)
#
#
# Indices 1 2 3 4 5 6 
#
# 1 0.007168 0.003948 0.000038 0.000000 -0.004045 0.000000
# 2 0.003948 -0.006644 -0.006030 0.000000 0.012595 0.000000
# 3 0.000038 -0.006030 0.007521 0.000000 0.001345 0.000000
# 4 0.000000 0.000000 0.000000 -0.045845 0.000000 -0.008040
# 5 -0.004045 0.012595 0.001345 0.000000 0.021957 0.000000
# 6 0.000000 0.000000 0.000000 -0.008040 0.000000 0.019400
#
#
# Mechanical properties :
#
#
# Convention : Reuss Voigt Hill
#
# Bulk Modulus (GPa) = 252.67694 27.32385 140.00040
# Shear Modulus (GPa) = 557.79761 20.65945 289.22853
#
# Velocity S-wave (km/s) = 16.11738 3.10181 11.60584
# Velocity P-wave (km/s) = 21.54143 5.05502 15.64587
#
# Compressibility (1/GPa) = 0.00395762
#
# Stress axis : x y z
#
# Youngs Moduli (GPa) = 139.50292 -150.51164 132.96571
#
# Poissons Ratio (x) = 0.59427 -0.00510
# Poissons Ratio (y) = -0.55080 0.80184
# Poissons Ratio (z) = -0.00535 -0.90764
#
# Static dielectric constant tensor:
#      x y z
#    x 1.802060 0.000000 -0.015560 
#    y 0.000000 1.806200 0.000000 
#    z -0.015560 0.000000 1.821280 
# 
# From -- ./inp_files/65431.got.cif
#   From: 2010.05.17/outbox.cif.g08.bks.cpg/sg10_33_cif.got.tgz:65431.got - 2010.06.03 11:33:40.
