data_PCOD9153515
_publ_section_title
;
Structure prediction by ZEFSAII (Michael W. Deem and Ramdas Pophale) SiO2 
 PCOD9153515
Probable space group: P 2/M
;
_chemical_formula_sum "Si O2"
_cell_formula_units_Z 24
_cell_length_a 17.157677
_cell_length_b 7.780459
_cell_length_c 10.902975
_cell_angle_alpha 90.000000
_cell_angle_beta 47.670562
_cell_angle_gamma 90.000000
_cell_volume 1076.020983
_symmetry_space_group_name_H-M "P 2/M"
_symmetry_group_IT_number 10
_symmetry_cell_setting 'monoclinic'
loop_
_space_group_symop_operation_xyz
x,y,z
-x,y,-z
-x,-y,-z
x,-y,z
loop_
_atom_site_type_symbol
_atom_site_label
_atom_site_fract_x
_atom_site_fract_y
_atom_site_fract_z
Si Si1 0.800222 0.707778 0.915835
Si Si2 0.570628 0.301550 0.149622
Si Si3 0.770075 0.791379 0.453906
Si Si4 0.996407 0.293865 0.865296
Si Si5 0.585972 0.195084 0.499460
Si Si6 0.306275 0.799080 0.204216
O O1 0.803267 0.500000 0.905881
O O2 0.897393 0.772320 0.891881
O O3 0.792614 0.775020 0.784503
O O4 0.683281 0.751074 0.091638
O O5 0.548293 0.500000 0.198737
O O6 0.476665 0.193371 0.304535
O O7 0.599926 0.281562 0.975696
O O8 0.698781 0.727472 0.415189
O O9 0.721852 0.727353 0.633565
O O10 0.891199 0.742395 0.314030
O O11 0.763294 0.000000 0.460675
O O12 0.982643 0.500000 0.886563
O O13 0.000000 0.225382 0.000000
O O14 0.500000 0.278642 0.500000
O O15 0.603022 0.000000 0.437213
O O16 0.329122 0.000000 0.191327
#
# Coordination Sequence:
#
# PCOD9153515 Si02
#       6
#     4   4   4   4   4   4
#     4   8  18  36  56  82 112 142 181 226 271 325
#     4   9  19  36  58  83 111 144 185 227 273 327
#     4  10  23  39  55  84 115 143 185 233 277 326
#     4  10  22  39  59  82 112 149 185 226 277 331
#     4  10  22  39  58  81 113 149 186 228 276 329
#     4   9  18  35  58  82 112 147 183 226 277 330
#
# _framework density 22.304397999999999
#
# number of rings (size 3 to 8) (size 9 to 14) (size 15 to 20)
#    1.000    1.667    0.000    0.500    2.333    4.667 
#    0.000    6.667    0.000    0.000    0.000    0.000 
#    0.000    0.000    0.000    0.000    0.000    0.000 
#
# Total GULP energy -133757.591725 kJ/mol
# GULP energy per Si atom -5573.232989 kJ/mol
# Density = 2.225363 g / cm^3
# Si number density = 22.304398 Si / 1000 Ang^3
#
#
#
# Elastic Constant Matrix: (Units=GPa)
#
#
# Indices 1 2 3 4 5 6 
#
# 1 148.1795 1.3505 4.0993 0.0000 -11.3929 0.0000
# 2 1.3505 43.4459 -4.1970 0.0000 -0.2325 0.0000
# 3 4.0993 -4.1970 44.3439 0.0000 1.9307 0.0000
# 4 0.0000 0.0000 0.0000 24.6201 0.0000 -2.7592
# 5 -11.3929 -0.2325 1.9307 0.0000 31.7289 0.0000
# 6 0.0000 0.0000 0.0000 -2.7592 0.0000 12.3745
#
#
#
# Elastic Compliance Matrix: (Units=1/GPa)
#
#
# Indices 1 2 3 4 5 6 
#
# 1 0.006969 -0.000278 -0.000781 0.000000 0.002548 0.000000
# 2 -0.000278 0.023241 0.002228 0.000000 -0.000065 0.000000
# 3 -0.000781 0.002228 0.022906 0.000000 -0.001658 0.000000
# 4 0.000000 0.000000 0.000000 0.041658 0.000000 0.009289
# 5 0.002548 -0.000065 -0.001658 0.000000 0.032532 0.000000
# 6 0.000000 0.000000 0.000000 0.009289 0.000000 0.082882
#
#
# Mechanical properties :
#
#
# Convention : Reuss Voigt Hill
#
# Bulk Modulus (GPa) = 18.03355 26.49722 22.26538
# Shear Modulus (GPa) = 22.09107 29.39248 25.74178
#
# Velocity S-wave (km/s) = 3.15053 3.63407 3.40091
# Velocity P-wave (km/s) = 4.61922 5.43270 5.04239
#
# Compressibility (1/GPa) = 0.05545219
#
# Stress axis : x y z
#
# Youngs Moduli (GPa) = 143.50051 43.02799 43.65606
#
# Poissons Ratio (x) = 0.01198 0.03412
# Poissons Ratio (y) = 0.03996 -0.09728
# Poissons Ratio (z) = 0.11214 -0.09588
#
# Static dielectric constant tensor:
#      x y z
#    x 1.901020 0.000000 0.035180 
#    y 0.000000 1.848300 0.000000 
#    z 0.035180 0.000000 1.804160 
# 
# From -- ./inp_files/52605.got.cif
#   From: 2010.05.17/outbox.cif.g08.bks.cpg/sg10_27_cif.got.tgz:52605.got - 2010.06.03 11:33:40.
