data_PCOD9153975
_publ_section_title
;
Structure prediction by ZEFSAII (Michael W. Deem and Ramdas Pophale) SiO2 
 PCOD9153975
Probable space group: P 2/M
;
_chemical_formula_sum "Si O2"
_cell_formula_units_Z 28
_cell_length_a 31.545701
_cell_length_b 8.667439
_cell_length_c 10.427055
_cell_angle_alpha 90.000000
_cell_angle_beta 147.486907
_cell_angle_gamma 90.000000
_cell_volume 1532.374464
_symmetry_space_group_name_H-M "P 2/M"
_symmetry_group_IT_number 10
_symmetry_cell_setting 'monoclinic'
loop_
_space_group_symop_operation_xyz
x,y,z
-x,y,-z
-x,-y,-z
x,-y,z
loop_
_atom_site_type_symbol
_atom_site_label
_atom_site_fract_x
_atom_site_fract_y
_atom_site_fract_z
Si Si1 0.749948 0.314910 0.141836
Si Si2 0.331328 0.314940 0.333303
Si Si3 0.232111 0.816059 0.314830
Si Si4 0.498633 0.815560 0.844488
Si Si5 0.078672 0.315462 0.044463
Si Si6 0.089730 0.183653 0.359060
Si Si7 0.336118 0.684181 0.811749
O O1 0.763089 0.500000 0.175441
O O2 0.833957 0.232002 0.366327
O O3 0.700334 0.277031 0.142962
O O4 0.702475 0.274668 0.892698
O O5 0.337472 0.500000 0.358328
O O6 0.272128 0.253920 0.290938
O O7 0.416643 0.242199 0.577175
O O8 0.145754 0.748297 0.122302
O O9 0.286507 0.767441 0.574093
O O10 0.229218 0.000000 0.298673
O O11 0.505140 0.000000 0.848638
O O12 0.500000 0.778224 0.000000
O O13 0.573628 0.735712 0.970815
O O14 0.078450 0.500000 0.044510
O O15 0.098270 0.255935 0.238312
O O16 0.991668 0.251264 0.793394
O O17 0.083644 0.000000 0.331634
O O18 0.329445 0.500000 0.776001
#
# Coordination Sequence:
#
# PCOD9153975 Si02
#       7
#     4   4   4   4   4   4   4
#     4  10  23  42  62  89 124 161 203 248 300 364
#     4  11  24  42  64  88 120 163 204 247 303 366
#     4  12  23  38  60  92 124 155 201 254 302 357
#     4  11  23  39  60  89 124 157 198 254 305 354
#     4  11  21  36  60  89 122 160 204 250 296 353
#     4  11  21  35  59  91 125 159 198 250 305 353
#     4  11  22  38  64  90 118 158 203 249 299 361
#
# _framework density 18.272296000000001
#
# number of rings (size 3 to 8) (size 9 to 14) (size 15 to 20)
#    0.000    1.000    2.857    6.000    0.000    2.857 
#    0.000    3.571    0.000    4.286    0.000    0.000 
#    0.000    0.000    0.000    0.000    0.000    0.000 
#
# Total GULP energy -156604.185610 kJ/mol
# GULP energy per Si atom -5593.006629 kJ/mol
# Density = 1.823071 g / cm^3
# Si number density = 18.272296 Si / 1000 Ang^3
#
#
#
# Elastic Constant Matrix: (Units=GPa)
#
#
# Indices 1 2 3 4 5 6 
#
# 1 81.8923 11.9516 35.7126 0.0000 6.2758 0.0000
# 2 11.9516 61.5101 30.1048 0.0000 -6.7630 0.0000
# 3 35.7126 30.1048 104.2994 0.0000 3.9997 0.0000
# 4 0.0000 0.0000 0.0000 52.0732 0.0000 10.5039
# 5 6.2758 -6.7630 3.9997 0.0000 35.0475 0.0000
# 6 0.0000 0.0000 0.0000 10.5039 0.0000 2.3630
#
#
#
# Elastic Compliance Matrix: (Units=1/GPa)
#
#
# Indices 1 2 3 4 5 6 
#
# 1 0.014530 -0.000785 -0.004663 0.000000 -0.002221 0.000000
# 2 -0.000785 0.019641 -0.005575 0.000000 0.004567 0.000000
# 3 -0.004663 -0.005575 0.012859 0.000000 -0.001708 0.000000
# 4 0.000000 0.000000 0.000000 0.185840 0.000000 -0.826102
# 5 -0.002221 0.004567 -0.001708 0.000000 0.030007 0.000000
# 6 0.000000 0.000000 0.000000 -0.826102 0.000000 4.095408
#
#
# Mechanical properties :
#
#
# Convention : Reuss Voigt Hill
#
# Bulk Modulus (GPa) = 40.02822 44.80441 42.41631
# Shear Modulus (GPa) = 1.13930 29.22559 15.18245
#
# Velocity S-wave (km/s) = 0.79048 4.00365 2.88566
# Velocity P-wave (km/s) = 4.77360 6.77834 5.86230
#
# Compressibility (1/GPa) = 0.02498238
#
# Stress axis : x y z
#
# Youngs Moduli (GPa) = 68.82540 50.91404 77.76480
#
# Poissons Ratio (x) = 0.03997 0.36263
# Poissons Ratio (y) = 0.05403 0.43357
# Poissons Ratio (z) = 0.32095 0.28387
#
# Static dielectric constant tensor:
#      x y z
#    x 1.608690 0.000000 0.006250 
#    y 0.000000 1.609830 0.000000 
#    z 0.006250 0.000000 1.610050 
# 
# From -- ./inp_files/37354.got.cif
#   From: 2010.05.17/outbox.cif.g08.bks.cpg/sg10_19_cif.got.tgz:37354.got - 2010.06.03 11:33:40.
