data_PCOD9153964
_publ_section_title
;
Structure prediction by ZEFSAII (Michael W. Deem and Ramdas Pophale) SiO2 
 PCOD9153964
Probable space group: P 2/M
;
_chemical_formula_sum "Si O2"
_cell_formula_units_Z 28
_cell_length_a 8.938369
_cell_length_b 17.346235
_cell_length_c 14.681855
_cell_angle_alpha 90.000000
_cell_angle_beta 40.712117
_cell_angle_gamma 90.000000
_cell_volume 1484.787594
_symmetry_space_group_name_H-M "P 2/M"
_symmetry_group_IT_number 10
_symmetry_cell_setting 'monoclinic'
loop_
_space_group_symop_operation_xyz
x,y,z
-x,y,-z
-x,-y,-z
x,-y,z
loop_
_atom_site_type_symbol
_atom_site_label
_atom_site_fract_x
_atom_site_fract_y
_atom_site_fract_z
Si Si1 0.772461 0.590387 0.362481
Si Si2 0.543282 0.250845 0.080692
Si Si3 0.928825 0.692607 0.640159
Si Si4 0.777531 0.000000 0.386063
Si Si5 0.615688 0.168518 0.233302
Si Si6 0.040902 0.693957 0.879208
Si Si7 0.127173 0.147792 0.535983
Si Si8 0.185798 0.000000 0.834893
O O1 0.500000 0.598572 0.500000
O O2 0.828861 0.500000 0.334587
O O3 0.832167 0.633509 0.241793
O O4 0.919822 0.632892 0.372772
O O5 0.342211 0.308050 0.210578
O O6 0.575625 0.188835 0.146100
O O7 0.500000 0.218797 0.000000
O O8 0.788397 0.291629 0.957567
O O9 0.000000 0.686820 0.500000
O O10 0.993128 0.780120 0.639588
O O11 0.500000 0.000000 0.500000
O O12 0.846405 0.924474 0.410610
O O13 0.893658 0.000000 0.233300
O O14 0.811744 0.226655 0.179242
O O15 0.377996 0.180403 0.395312
O O16 0.676501 0.079370 0.217286
O O17 0.000000 0.665099 0.000000
O O18 0.000000 0.126071 0.500000
O O19 0.000000 0.000000 0.000000
#
# Coordination Sequence:
#
# PCOD9153964 Si02
#       8
#     4   4   4   2   4   4   4   2
#     4  11  25  43  66  99 134 167 214 272 321 386
#     4  11  21  41  64  99 125 167 222 265 315 385
#     4  11  23  41  68  93 129 171 216 262 326 387
#     4  12  25  40  65  89 123 174 223 264 319 382
#     4  11  22  43  65  93 131 173 214 274 318 382
#     4  10  23  41  70  94 128 174 217 262 321 391
#     4  11  22  41  66  95 126 164 220 275 318 379
#     4  12  26  42  59  93 136 166 220 273 326 381
#
# _framework density 18.857915999999999
#
# number of rings (size 3 to 8) (size 9 to 14) (size 15 to 20)
#    0.000    1.000    5.714    2.357    4.000    2.286 
#    0.000    1.786    0.000    0.000    0.000    0.000 
#    0.000    0.000    0.000    0.000    0.000    0.000 
#
# Total GULP energy -156327.978987 kJ/mol
# GULP energy per Si atom -5583.142107 kJ/mol
# Density = 1.881499 g / cm^3
# Si number density = 18.857916 Si / 1000 Ang^3
#
#
#
# Elastic Constant Matrix: (Units=GPa)
#
#
# Indices 1 2 3 4 5 6 
#
# 1 100.3839 75.2471 40.8911 0.0000 -3.8766 0.0000
# 2 75.2471 130.7220 45.6125 0.0000 8.6981 0.0000
# 3 40.8911 45.6125 108.7394 0.0000 -3.4470 0.0000
# 4 0.0000 0.0000 0.0000 17.8111 0.0000 -2.5042
# 5 -3.8766 8.6981 -3.4470 0.0000 33.5688 0.0000
# 6 0.0000 0.0000 0.0000 -2.5042 0.0000 25.2986
#
#
#
# Elastic Compliance Matrix: (Units=1/GPa)
#
#
# Indices 1 2 3 4 5 6 
#
# 1 0.018917 -0.010264 -0.002663 0.000000 0.004571 0.000000
# 2 -0.010264 0.014784 -0.002509 0.000000 -0.005274 0.000000
# 3 -0.002663 -0.002509 0.011298 0.000000 0.001503 0.000000
# 4 0.000000 0.000000 0.000000 0.056937 0.000000 0.005636
# 5 0.004571 -0.005274 0.001503 0.000000 0.031838 0.000000
# 6 0.000000 0.000000 0.000000 0.005636 0.000000 0.040086
#
#
# Mechanical properties :
#
#
# Convention : Reuss Voigt Hill
#
# Bulk Modulus (GPa) = 70.78834 73.70519 72.24677
# Shear Modulus (GPa) = 23.87296 27.20867 25.54081
#
# Velocity S-wave (km/s) = 3.56186 3.80257 3.68418
# Velocity P-wave (km/s) = 7.38478 7.64518 7.51611
#
# Compressibility (1/GPa) = 0.01412662
#
# Stress axis : x y z
#
# Youngs Moduli (GPa) = 52.86260 67.63894 88.51164
#
# Poissons Ratio (x) = 0.69424 0.23574
# Poissons Ratio (y) = 0.54258 0.22208
# Poissons Ratio (z) = 0.14080 0.16971
#
# Static dielectric constant tensor:
#      x y z
#    x 1.725980 0.000000 -0.013670 
#    y 0.000000 1.640000 0.000000 
#    z -0.013670 0.000000 1.718950 
# 
# From -- ./inp_files/62335.got.cif
#   From: 2010.05.17/outbox.cif.g08.bks.cpg/sg10_32_cif.got.tgz:62335.got - 2010.06.03 11:33:40.
