data_PCOD9153471
_publ_section_title
;
Structure prediction by ZEFSAII (Michael W. Deem and Ramdas Pophale) SiO2 
 PCOD9153471
Probable space group: P 2/M
;
_chemical_formula_sum "Si O2"
_cell_formula_units_Z 20
_cell_length_a 13.856804
_cell_length_b 7.486576
_cell_length_c 22.145922
_cell_angle_alpha 90.000000
_cell_angle_beta 158.418436
_cell_angle_gamma 90.000000
_cell_volume 845.048717
_symmetry_space_group_name_H-M "P 2/M"
_symmetry_group_IT_number 10
_symmetry_cell_setting 'monoclinic'
loop_
_space_group_symop_operation_xyz
x,y,z
-x,y,-z
-x,-y,-z
x,-y,z
loop_
_atom_site_type_symbol
_atom_site_label
_atom_site_fract_x
_atom_site_fract_y
_atom_site_fract_z
Si Si1 0.818483 0.283554 0.248135
Si Si2 0.209731 0.797403 0.576602
Si Si3 0.239511 0.283301 0.925497
Si Si4 0.726947 0.708815 0.817762
Si Si5 0.300086 0.281346 0.331586
O O1 0.835252 0.500000 0.260169
O O2 0.817805 0.233209 0.177407
O O3 0.058287 0.208541 0.424942
O O4 0.537299 0.226873 0.112358
O O5 0.495497 0.719607 0.731720
O O6 0.000000 0.709904 0.500000
O O7 0.250457 0.000000 0.620675
O O8 0.244374 0.500000 0.929872
O O9 0.997637 0.226407 0.825680
O O10 0.777339 0.500000 0.835919
O O11 0.639362 0.779247 0.701204
O O12 0.000000 0.787974 0.000000
O O13 0.500000 0.220526 0.500000
O O14 0.310879 0.500000 0.339922
#
# Coordination Sequence:
#
# PCOD9153471 Si02
#       5
#     4   4   4   4   4
#     4   9  17  32  57  85 111 142 188 237 283 332
#     4  11  25  41  56  77 112 158 199 232 281 341
#     4   8  15  28  52  87 117 142 175 229 293 343
#     4  10  22  38  60  90 115 143 191 243 288 340
#     4   9  16  28  51  82 117 146 173 221 289 346
#
# _framework density 23.667276999999999
#
# number of rings (size 3 to 8) (size 9 to 14) (size 15 to 20)
#    0.000    2.600    0.000    3.000    2.800    5.200 
#    0.000    2.000    0.000    5.400    0.000    0.000 
#    0.000    0.000    0.000    0.000    0.000    0.000 
#
# Total GULP energy -111719.009660 kJ/mol
# GULP energy per Si atom -5585.950483 kJ/mol
# Density = 2.361341 g / cm^3
# Si number density = 23.667277 Si / 1000 Ang^3
#
#
#
# Elastic Constant Matrix: (Units=GPa)
#
#
# Indices 1 2 3 4 5 6 
#
# 1 108.5027 2.7725 49.1519 0.0000 25.3784 0.0000
# 2 2.7725 60.0671 0.9446 0.0000 -5.8932 0.0000
# 3 49.1519 0.9446 125.7314 0.0000 18.0938 0.0000
# 4 0.0000 0.0000 0.0000 -271.6937 0.0000 -152.2743
# 5 25.3784 -5.8932 18.0938 0.0000 33.5238 0.0000
# 6 0.0000 0.0000 0.0000 -152.2743 0.0000 -74.6290
#
#
#
# Elastic Compliance Matrix: (Units=1/GPa)
#
#
# Indices 1 2 3 4 5 6 
#
# 1 0.012846 -0.001303 -0.003881 0.000000 -0.007859 0.000000
# 2 -0.001303 0.017115 -0.000210 0.000000 0.004109 0.000000
# 3 -0.003881 -0.000210 0.009817 0.000000 -0.002398 0.000000
# 4 0.000000 0.000000 0.000000 0.025635 0.000000 -0.052306
# 5 -0.007859 0.004109 -0.002398 0.000000 0.037795 0.000000
# 6 0.000000 0.000000 0.000000 -0.052306 0.000000 0.093326
#
#
# Mechanical properties :
#
#
# Convention : Reuss Voigt Hill
#
# Bulk Modulus (GPa) = 34.49601 44.44881 39.47241
# Shear Modulus (GPa) = 23.04294 -46.46430 -11.71068
#
# Velocity S-wave (km/s) = 3.12367 -4.43564 -2.22683
# Velocity P-wave (km/s) = 5.25517 2.72245 3.17845
#
# Compressibility (1/GPa) = 0.02898886
#
# Stress axis : x y z
#
# Youngs Moduli (GPa) = 77.84527 58.42971 101.86098
#
# Poissons Ratio (x) = 0.07613 0.39533
# Poissons Ratio (y) = 0.10143 0.02144
# Poissons Ratio (z) = 0.30212 0.01230
#
# Static dielectric constant tensor:
#      x y z
#    x 1.902660 0.000000 0.007240 
#    y 0.000000 1.907420 0.000000 
#    z 0.007240 0.000000 1.868050 
# 
# From -- ./inp_files/71066.got.cif
#   From: 2010.05.17/outbox.cif.g08.bks.cpg/sg10_36_cif.got.tgz:71066.got - 2010.06.03 11:33:40.
