data_PCOD9153097
_publ_section_title
;
Structure prediction by ZEFSAII (Michael W. Deem and Ramdas Pophale) SiO2 
 PCOD9153097
Probable space group: P 2/M
;
_chemical_formula_sum "Si O2"
_cell_formula_units_Z 27
_cell_length_a 9.464405
_cell_length_b 20.332739
_cell_length_c 9.422019
_cell_angle_alpha 90.000000
_cell_angle_beta 46.016038
_cell_angle_gamma 90.000000
_cell_volume 1304.621796
_symmetry_space_group_name_H-M "P 2/M"
_symmetry_group_IT_number 10
_symmetry_cell_setting 'monoclinic'
loop_
_space_group_symop_operation_xyz
x,y,z
-x,y,-z
-x,-y,-z
x,-y,z
loop_
_atom_site_type_symbol
_atom_site_label
_atom_site_fract_x
_atom_site_fract_y
_atom_site_fract_z
Si Si1 0.205141 0.689112 0.937333
Si Si2 0.500000 0.337253 0.500000
Si Si3 0.739214 0.424139 0.553846
Si Si4 0.175091 0.167136 0.991303
Si Si5 0.035314 0.923828 0.640963
Si Si6 0.485946 0.071592 0.300441
Si Si7 0.793664 0.576650 0.836231
Si Si8 0.500000 0.000000 0.000000
O O1 0.358525 0.701145 0.703674
O O2 0.203166 0.757945 0.021647
O O3 0.251585 0.627582 0.006775
O O4 0.000000 0.675778 0.000000
O O5 0.628408 0.381333 0.516347
O O6 0.679306 0.500000 0.582033
O O7 0.706276 0.405710 0.742184
O O8 0.971162 0.420747 0.356168
O O9 0.097743 0.121793 0.171309
O O10 0.363193 0.131016 0.791743
O O11 0.000000 0.169700 0.000000
O O12 0.267164 0.916489 0.510800
O O13 0.000000 0.911244 0.500000
O O14 0.975889 0.000000 0.708844
O O15 0.563054 0.000000 0.301784
O O16 0.462205 0.056023 0.149592
O O17 0.744628 0.500000 0.903018
#
# Coordination Sequence:
#
# PCOD9153097 Si02
#       8
#     4   2   4   4   4   4   4   1
#     4  11  25  44  61  91 129 177 218 270 324 389
#     4  12  23  40  66  92 129 170 220 266 318 392
#     4   9  19  37  67  99 126 162 211 269 331 392
#     4  11  25  41  59  90 134 171 209 254 322 386
#     4  10  21  39  67  97 121 161 211 259 313 374
#     4   9  19  36  63  91 122 157 201 258 308 365
#     4   9  19  41  67  93 132 170 211 275 332 378
#     4   8  16  36  64  90 126 152 196 262 304 364
#
# _framework density 20.695651999999999
#
# number of rings (size 3 to 8) (size 9 to 14) (size 15 to 20)
#    0.444    1.630    1.481    2.444    2.074    6.222 
#    2.667    5.926    0.000    0.000    0.000    0.000 
#    0.000    0.000    0.000    0.000    0.000    0.000 
#
# Total GULP energy -150508.025147 kJ/mol
# GULP energy per Si atom -5574.371302 kJ/mol
# Density = 2.064855 g / cm^3
# Si number density = 20.695652 Si / 1000 Ang^3
#
#
#
# Elastic Constant Matrix: (Units=GPa)
#
#
# Indices 1 2 3 4 5 6 
#
# 1 59.8008 41.6851 11.6226 0.0000 -0.3725 0.0000
# 2 41.6851 100.2579 46.2064 0.0000 10.2803 0.0000
# 3 11.6226 46.2064 96.8870 0.0000 13.2354 0.0000
# 4 0.0000 0.0000 0.0000 22.1498 0.0000 -22.8756
# 5 -0.3725 10.2803 13.2354 0.0000 29.3173 0.0000
# 6 0.0000 0.0000 0.0000 -22.8756 0.0000 83.8203
#
#
#
# Elastic Compliance Matrix: (Units=1/GPa)
#
#
# Indices 1 2 3 4 5 6 
#
# 1 0.024284 -0.011391 0.002059 0.000000 0.003374 0.000000
# 2 -0.011391 0.018222 -0.006854 0.000000 -0.003440 0.000000
# 3 0.002059 -0.006854 0.013866 0.000000 -0.003830 0.000000
# 4 0.000000 0.000000 0.000000 0.062866 0.000000 0.017157
# 5 0.003374 -0.003440 -0.003830 0.000000 0.037088 0.000000
# 6 0.000000 0.000000 0.000000 0.017157 0.000000 0.016613
#
#
# Mechanical properties :
#
#
# Convention : Reuss Voigt Hill
#
# Bulk Modulus (GPa) = 41.66829 50.66376 46.16603
# Shear Modulus (GPa) = 23.43988 37.55292 30.49640
#
# Velocity S-wave (km/s) = 3.36906 4.26435 3.84287
# Velocity P-wave (km/s) = 5.94236 6.98425 6.48427
#
# Compressibility (1/GPa) = 0.02399906
#
# Stress axis : x y z
#
# Youngs Moduli (GPa) = 41.18000 54.87848 72.11749
#
# Poissons Ratio (x) = 0.62514 -0.14847
# Poissons Ratio (y) = 0.46910 0.49428
# Poissons Ratio (z) = -0.08478 0.37613
#
# Static dielectric constant tensor:
#      x y z
#    x 1.778370 0.000000 -0.043960 
#    y 0.000000 1.693560 0.000000 
#    z -0.043960 0.000000 1.758360 
# 
# From -- ./inp_files/20467.got.cif
#   From: 2010.05.17/outbox.cif.g08.bks.cpg/sg10_11_cif.got.tgz:20467.got - 2010.06.03 11:33:40.
