data_PCOD9153849
_publ_section_title
;
Structure prediction by ZEFSAII (Michael W. Deem and Ramdas Pophale) SiO2 
 PCOD9153849
Probable space group: P 2/M
;
_chemical_formula_sum "Si O2"
_cell_formula_units_Z 25
_cell_length_a 11.676711
_cell_length_b 17.835664
_cell_length_c 12.071026
_cell_angle_alpha 90.000000
_cell_angle_beta 153.822798
_cell_angle_gamma 90.000000
_cell_volume 1109.019289
_symmetry_space_group_name_H-M "P 2/M"
_symmetry_group_IT_number 10
_symmetry_cell_setting 'monoclinic'
loop_
_space_group_symop_operation_xyz
x,y,z
-x,y,-z
-x,-y,-z
x,-y,z
loop_
_atom_site_type_symbol
_atom_site_label
_atom_site_fract_x
_atom_site_fract_y
_atom_site_fract_z
Si Si1 0.667144 0.872480 0.488171
Si Si2 0.097981 0.269175 0.209278
Si Si3 0.875359 0.081570 0.269753
Si Si4 0.622446 0.781604 0.950691
Si Si5 0.129943 0.417009 0.358559
Si Si6 0.527621 0.385418 0.898990
Si Si7 0.500000 0.000000 0.500000
O O1 0.731870 0.804973 0.628064
O O2 0.541992 0.831995 0.274898
O O3 0.920851 0.911789 0.655223
O O4 0.498696 0.934526 0.402513
O O5 0.215051 0.347026 0.355758
O O6 0.000000 0.278040 0.000000
O O7 0.862975 0.249209 0.087723
O O8 0.000000 0.080178 0.500000
O O9 0.740855 0.000000 0.137856
O O10 0.724406 0.159808 0.129285
O O11 0.486081 0.705003 0.867035
O O12 0.161780 0.500000 0.336370
O O13 0.309417 0.413409 0.624091
O O14 0.822051 0.405452 0.116951
O O15 0.500000 0.413583 0.000000
#
# Coordination Sequence:
#
# PCOD9153849 Si02
#       7
#     4   4   4   4   4   4   1
#     4  11  22  42  60  95 127 167 224 283 341 415
#     4  10  22  43  65  90 131 174 221 283 346 408
#     4  10  23  40  60  90 132 175 223 283 348 413
#     4  10  23  39  64  91 128 175 221 279 337 415
#     4  11  24  44  68 103 142 178 231 286 345 421
#     4  11  24  42  70 102 138 184 229 282 348 419
#     4  12  24  36  68  94 120 168 224 284 350 402
#
# _framework density 22.542439000000002
#
# number of rings (size 3 to 8) (size 9 to 14) (size 15 to 20)
#    0.000    1.440    2.400    1.920    3.360    2.240 
#    0.000    3.600    0.000    2.880    0.000    0.000 
#    0.000    0.000    0.000    0.000    0.000    0.000 
#
# Total GULP energy -139358.090140 kJ/mol
# GULP energy per Si atom -5574.323606 kJ/mol
# Density = 2.249113 g / cm^3
# Si number density = 22.542439 Si / 1000 Ang^3
#
#
#
# Elastic Constant Matrix: (Units=GPa)
#
#
# Indices 1 2 3 4 5 6 
#
# 1 57.1491 30.5280 11.1781 0.0000 -16.3034 0.0000
# 2 30.5280 225.7479 40.8251 0.0000 -22.2209 0.0000
# 3 11.1781 40.8251 87.1931 0.0000 -20.7211 0.0000
# 4 0.0000 0.0000 0.0000 29.8493 0.0000 -44.0915
# 5 -16.3034 -22.2209 -20.7211 0.0000 39.2641 0.0000
# 6 0.0000 0.0000 0.0000 -44.0915 0.0000 131.1148
#
#
#
# Elastic Compliance Matrix: (Units=1/GPa)
#
#
# Indices 1 2 3 4 5 6 
#
# 1 0.020726 -0.002084 0.000096 0.000000 0.007477 0.000000
# 2 -0.002084 0.005158 -0.001898 0.000000 0.001052 0.000000
# 3 0.000096 -0.001898 0.013834 0.000000 0.006267 0.000000
# 4 0.000000 0.000000 0.000000 0.066568 0.000000 0.022386
# 5 0.007477 0.001052 0.006267 0.000000 0.032476 0.000000
# 6 0.000000 0.000000 0.000000 0.022386 0.000000 0.015155
#
#
# Mechanical properties :
#
#
# Convention : Reuss Voigt Hill
#
# Bulk Modulus (GPa) = 31.30330 59.46140 45.38235
# Shear Modulus (GPa) = 29.01264 59.21624 44.11444
#
# Velocity S-wave (km/s) = 3.59140 5.13087 4.42854
# Velocity P-wave (km/s) = 5.57800 7.84448 6.80625
#
# Compressibility (1/GPa) = 0.03194551
#
# Stress axis : x y z
#
# Youngs Moduli (GPa) = 48.24948 193.85978 72.28358
#
# Poissons Ratio (x) = 0.40402 -0.00691
# Poissons Ratio (y) = 0.10056 0.13719
# Poissons Ratio (z) = -0.00461 0.36794
#
# Static dielectric constant tensor:
#      x y z
#    x 1.799470 0.000000 0.054430 
#    y 0.000000 2.005220 0.000000 
#    z 0.054430 0.000000 1.885800 
# 
# From -- ./inp_files/47938.got.cif
#   From: 2010.05.17/outbox.cif.g08.bks.cpg/sg10_24_cif.got.tgz:47938.got - 2010.06.03 11:33:40.
