data_PCOD9153725
_publ_section_title
;
Structure prediction by ZEFSAII (Michael W. Deem and Ramdas Pophale) SiO2 
 PCOD9153725
Probable space group: P 2/M
;
_chemical_formula_sum "Si O2"
_cell_formula_units_Z 25
_cell_length_a 11.981202
_cell_length_b 13.097407
_cell_length_c 17.745419
_cell_angle_alpha 90.000000
_cell_angle_beta 152.556322
_cell_angle_gamma 90.000000
_cell_volume 1283.383624
_symmetry_space_group_name_H-M "P 2/M"
_symmetry_group_IT_number 10
_symmetry_cell_setting 'monoclinic'
loop_
_space_group_symop_operation_xyz
x,y,z
-x,y,-z
-x,-y,-z
x,-y,z
loop_
_atom_site_type_symbol
_atom_site_label
_atom_site_fract_x
_atom_site_fract_y
_atom_site_fract_z
Si Si1 0.758932 0.000000 0.559122
Si Si2 0.896627 0.216717 0.642218
Si Si3 0.577840 0.613812 0.848618
Si Si4 0.736990 0.385780 0.195566
Si Si5 0.500000 0.500000 0.500000
Si Si6 0.990453 0.221411 0.112422
Si Si7 0.561228 0.663645 0.670285
Si Si8 0.188954 0.000000 0.227201
O O1 0.906633 0.900152 0.623077
O O2 0.469776 0.000000 0.365438
O O3 0.772468 0.000000 0.658790
O O4 0.934256 0.225237 0.754415
O O5 0.626073 0.247567 0.459585
O O6 0.077358 0.297049 0.712739
O O7 0.695621 0.500000 0.933504
O O8 0.359213 0.619253 0.776868
O O9 0.505482 0.617066 0.718168
O O10 0.741801 0.714457 0.959551
O O11 0.840563 0.500000 0.243283
O O12 0.500000 0.376209 0.000000
O O13 0.535805 0.586695 0.586707
O O14 0.173847 0.288700 0.173417
O O15 0.036073 0.102982 0.117058
#
# Coordination Sequence:
#
# PCOD9153725 Si02
#       8
#     2   4   4   4   1   4   4   2
#     4   9  18  36  61  95 124 156 206 270 311 365
#     4  11  21  38  67  90 120 164 216 257 307 377
#     4  11  25  41  59  89 134 168 203 255 315 369
#     4  10  22  41  63  87 122 170 211 254 309 371
#     4  12  24  36  58  92 136 160 206 254 308 384
#     4  11  21  38  63  92 124 167 202 254 316 379
#     4  12  24  38  60  96 126 162 205 257 318 373
#     4   9  18  36  61  92 127 159 209 249 320 381
#
# _framework density 19.479755000000001
#
# number of rings (size 3 to 8) (size 9 to 14) (size 15 to 20)
#    0.000    1.280    5.600    0.480    2.240    1.280 
#    0.000    5.200    0.000    0.960    0.000    0.000 
#    0.000    0.000    0.000    0.000    0.000    0.000 
#
# Total GULP energy -139169.075604 kJ/mol
# GULP energy per Si atom -5566.763024 kJ/mol
# Density = 1.943542 g / cm^3
# Si number density = 19.479755 Si / 1000 Ang^3
#
#
#
# Elastic Constant Matrix: (Units=GPa)
#
#
# Indices 1 2 3 4 5 6 
#
# 1 89.6805 48.3832 16.8118 0.0000 -13.1266 0.0000
# 2 48.3832 152.3639 23.5762 0.0000 2.3292 0.0000
# 3 16.8118 23.5762 38.3263 0.0000 -6.5198 0.0000
# 4 0.0000 0.0000 0.0000 33.6621 0.0000 27.6055
# 5 -13.1266 2.3292 -6.5198 0.0000 20.6961 0.0000
# 6 0.0000 0.0000 0.0000 27.6055 0.0000 2.2594
#
#
#
# Elastic Compliance Matrix: (Units=1/GPa)
#
#
# Indices 1 2 3 4 5 6 
#
# 1 0.015546 -0.004735 -0.002260 0.000000 0.009681 0.000000
# 2 -0.004735 0.008805 -0.004247 0.000000 -0.005332 0.000000
# 3 -0.002260 -0.004247 0.031205 0.000000 0.008875 0.000000
# 4 0.000000 0.000000 0.000000 -0.003294 0.000000 0.040241
# 5 0.009681 -0.005332 0.008875 0.000000 0.057855 0.000000
# 6 0.000000 0.000000 0.000000 0.040241 0.000000 -0.049070
#
#
# Mechanical properties :
#
#
# Convention : Reuss Voigt Hill
#
# Bulk Modulus (GPa) = 30.23533 50.87921 40.55727
# Shear Modulus (GPa) = 52.87939 24.09682 38.48810
#
# Velocity S-wave (km/s) = 5.21582 3.52094 4.44982
# Velocity P-wave (km/s) = 7.19917 6.53491 6.87507
#
# Compressibility (1/GPa) = 0.03307389
#
# Stress axis : x y z
#
# Youngs Moduli (GPa) = 64.32581 113.56613 32.04609
#
# Poissons Ratio (x) = 0.53773 0.07241
# Poissons Ratio (y) = 0.30458 0.13609
# Poissons Ratio (z) = 0.14535 0.48228
#
# Static dielectric constant tensor:
#      x y z
#    x 1.693350 0.000000 -0.022530 
#    y 0.000000 1.738700 0.000000 
#    z -0.022530 0.000000 1.711890 
# 
# From -- ./inp_files/76764.got.cif
#   From: 2010.05.17/outbox.cif.g08.bks.cpg/sg10_39_cif.got.tgz:76764.got - 2010.06.03 11:33:40.
