data_PCOD9153173
_publ_section_title
;
Structure prediction by ZEFSAII (Michael W. Deem and Ramdas Pophale) SiO2 
 PCOD9153173
Probable space group: P 2/M
;
_chemical_formula_sum "Si O2"
_cell_formula_units_Z 32
_cell_length_a 12.453138
_cell_length_b 8.689763
_cell_length_c 32.483926
_cell_angle_alpha 90.000000
_cell_angle_beta 28.052009
_cell_angle_gamma 90.000000
_cell_volume 1653.122922
_symmetry_space_group_name_H-M "P 2/M"
_symmetry_group_IT_number 10
_symmetry_cell_setting 'monoclinic'
loop_
_space_group_symop_operation_xyz
x,y,z
-x,y,-z
-x,-y,-z
x,-y,z
loop_
_atom_site_type_symbol
_atom_site_label
_atom_site_fract_x
_atom_site_fract_y
_atom_site_fract_z
Si Si1 0.954542 0.315881 0.562413
Si Si2 0.468353 0.815358 0.753110
Si Si3 0.945269 0.315496 0.158027
Si Si4 0.192032 0.186593 0.639844
Si Si5 0.267846 0.814420 0.909510
Si Si6 0.141230 0.815077 0.175795
Si Si7 0.290760 0.813748 0.515168
Si Si8 0.610094 0.316205 0.045006
O O1 0.937198 0.500000 0.569527
O O2 0.719854 0.244310 0.658286
O O3 0.000000 0.268056 0.500000
O O4 0.159836 0.260231 0.521799
O O5 0.288401 0.750514 0.781058
O O6 0.384135 0.767813 0.827258
O O7 0.464807 0.000000 0.752852
O O8 0.932619 0.500000 0.164363
O O9 0.012244 0.249089 0.179648
O O10 0.151180 0.272190 0.057300
O O11 0.442437 0.229588 0.572059
O O12 0.178252 0.234349 0.596897
O O13 0.994216 0.237517 0.737375
O O14 0.188180 0.000000 0.640573
O O15 0.385211 0.743477 0.909876
O O16 0.279790 0.000000 0.908645
O O17 0.000000 0.770351 0.000000
O O18 0.398549 0.754937 0.091987
O O19 0.141073 0.000000 0.174461
O O20 0.278326 0.000000 0.516488
O O21 0.591576 0.500000 0.050465
#
# Coordination Sequence:
#
# PCOD9153173 Si02
#       8
#     4   4   4   4   4   4   4   4
#     4  11  26  44  61  90 131 166 201 252 311 367
#     4  11  24  42  67  94 120 161 212 257 308 369
#     4  11  24  42  61  86 125 165 205 252 307 369
#     4   8  18  37  62  91 117 149 195 253 304 349
#     4  10  21  40  65  93 124 158 205 261 309 365
#     4  11  23  38  61  91 122 159 209 257 302 358
#     4   9  18  39  66  88 117 154 199 249 301 360
#     4  11  24  40  60  88 125 167 206 248 306 368
#
# _framework density 19.357302000000001
#
# number of rings (size 3 to 8) (size 9 to 14) (size 15 to 20)
#    0.000    1.750    1.250    3.000    3.500    5.250 
#    0.000    2.500    0.000    0.000    0.000    0.000 
#    0.000    0.000    0.000    0.000    0.000    0.000 
#
# Total GULP energy -178862.740149 kJ/mol
# GULP energy per Si atom -5589.460630 kJ/mol
# Density = 1.931324 g / cm^3
# Si number density = 19.357302 Si / 1000 Ang^3
#
#
#
# Elastic Constant Matrix: (Units=GPa)
#
#
# Indices 1 2 3 4 5 6 
#
# 1 98.0868 15.6161 4.8164 0.0000 9.8933 0.0000
# 2 15.6161 27.2978 13.8627 0.0000 3.8217 0.0000
# 3 4.8164 13.8627 59.5035 0.0000 10.1621 0.0000
# 4 0.0000 0.0000 0.0000 21.0007 0.0000 -9.9433
# 5 9.8933 3.8217 10.1621 0.0000 19.7814 0.0000
# 6 0.0000 0.0000 0.0000 -9.9433 0.0000 60.3331
#
#
#
# Elastic Compliance Matrix: (Units=1/GPa)
#
#
# Indices 1 2 3 4 5 6 
#
# 1 0.011733 -0.006742 0.001535 0.000000 -0.005354 0.000000
# 2 -0.006742 0.045626 -0.010035 0.000000 -0.000288 0.000000
# 3 0.001535 -0.010035 0.020629 0.000000 -0.009427 0.000000
# 4 0.000000 0.000000 0.000000 0.051648 0.000000 0.008512
# 5 -0.005354 -0.000288 -0.009427 0.000000 0.058129 0.000000
# 6 0.000000 0.000000 0.000000 0.008512 0.000000 0.017977
#
#
# Mechanical properties :
#
#
# Convention : Reuss Voigt Hill
#
# Bulk Modulus (GPa) = 21.05024 28.16428 24.60726
# Shear Modulus (GPa) = 19.83649 30.26256 25.04952
#
# Velocity S-wave (km/s) = 3.20465 3.95823 3.60121
# Velocity P-wave (km/s) = 4.95896 5.95579 5.48008
#
# Compressibility (1/GPa) = 0.04750541
#
# Stress axis : x y z
#
# Youngs Moduli (GPa) = 85.22883 21.91723 48.47487
#
# Poissons Ratio (x) = 0.14777 -0.07443
# Poissons Ratio (y) = 0.57463 0.48644
# Poissons Ratio (z) = -0.13087 0.21994
#
# Static dielectric constant tensor:
#      x y z
#    x 1.642830 0.000000 0.014170 
#    y 0.000000 1.651170 0.000000 
#    z 0.014170 0.000000 1.672010 
# 
# From -- ./inp_files/94934.got.cif
#   From: 2010.05.17/outbox.cif.g08.bks.cpg/sg10_48_cif.got.tgz:94934.got - 2010.06.03 11:33:40.
