data_PCOD9153351
_publ_section_title
;
Structure prediction by ZEFSAII (Michael W. Deem and Ramdas Pophale) SiO2 
 PCOD9153351
Probable space group: P 2/M
;
_chemical_formula_sum "Si O2"
_cell_formula_units_Z 30
_cell_length_a 14.238608
_cell_length_b 19.387990
_cell_length_c 5.182165
_cell_angle_alpha 90.000000
_cell_angle_beta 110.357571
_cell_angle_gamma 90.000000
_cell_volume 1341.223945
_symmetry_space_group_name_H-M "P 2/M"
_symmetry_group_IT_number 10
_symmetry_cell_setting 'monoclinic'
loop_
_space_group_symop_operation_xyz
x,y,z
-x,y,-z
-x,-y,-z
x,-y,z
loop_
_atom_site_type_symbol
_atom_site_label
_atom_site_fract_x
_atom_site_fract_y
_atom_site_fract_z
Si Si1 0.569325 0.074031 0.819991
Si Si2 0.178791 0.919181 0.473398
Si Si3 0.145014 0.796187 0.807146
Si Si4 0.254808 0.334672 0.793663
Si Si5 0.684882 0.822513 0.669943
Si Si6 0.000000 0.850979 0.000000
Si Si7 0.614668 0.320035 0.568449
Si Si8 0.066539 0.580245 0.821161
O O1 0.500000 0.076098 0.500000
O O2 0.633881 0.142607 0.867744
O O3 0.625327 0.000000 0.872482
O O4 0.500000 0.074938 0.000000
O O5 0.157996 0.871630 0.698984
O O6 0.283045 0.888110 0.467751
O O7 0.088843 0.899442 0.190511
O O8 0.181921 0.000000 0.521626
O O9 0.191711 0.735996 0.680783
O O10 0.211717 0.790353 0.130360
O O11 0.033064 0.799309 0.803890
O O12 0.316473 0.353902 0.592112
O O13 0.170141 0.383702 0.838195
O O14 0.334269 0.324781 0.101275
O O15 0.617805 0.761718 0.495194
O O16 0.500000 0.343024 0.500000
O O17 0.087811 0.500000 0.903299
O O18 0.000000 0.583756 0.500000
O O19 0.000000 0.607960 0.000000
#
# Coordination Sequence:
#
# PCOD9153351 Si02
#       8
#     4   4   4   4   4   2   4   4
#     4  10  22  36  53  77 104 138 184 243 318 387
#     4  11  22  38  56  76 110 153 204 268 331 401
#     4  10  23  37  57  82 114 152 207 258 321 388
#     4  11  23  42  66 101 136 175 221 278 326 387
#     4  10  22  38  55  80 109 147 205 264 327 384
#     4  10  23  38  52  80 107 152 206 256 327 406
#     4  11  23  41  67  94 130 175 229 280 336 390
#     4  10  22  41  70 109 148 188 222 259 323 391
#
# _framework density 22.367628
#
# number of rings (size 3 to 8) (size 9 to 14) (size 15 to 20)
#    0.000    1.600    1.333    2.600    2.800    6.933 
#    0.000    0.000    0.000    2.400    0.000    0.000 
#    0.000    0.000    0.000    0.000    0.000    0.000 
#
# Total GULP energy -167354.785781 kJ/mol
# GULP energy per Si atom -5578.492859 kJ/mol
# Density = 2.231672 g / cm^3
# Si number density = 22.367628 Si / 1000 Ang^3
#
#
#
# Elastic Constant Matrix: (Units=GPa)
#
#
# Indices 1 2 3 4 5 6 
#
# 1 118.9907 29.7651 27.7317 0.0000 -22.1916 0.0000
# 2 29.7651 35.1259 9.1104 0.0000 1.2400 0.0000
# 3 27.7317 9.1104 91.4327 0.0000 -16.8332 0.0000
# 4 0.0000 0.0000 0.0000 11.2378 0.0000 -9.0681
# 5 -22.1916 1.2400 -16.8332 0.0000 44.0621 0.0000
# 6 0.0000 0.0000 0.0000 -9.0681 0.0000 26.3809
#
#
#
# Elastic Compliance Matrix: (Units=1/GPa)
#
#
# Indices 1 2 3 4 5 6 
#
# 1 0.012494 -0.010366 -0.001661 0.000000 0.005950 0.000000
# 2 -0.010366 0.038004 -0.001937 0.000000 -0.007030 0.000000
# 3 -0.001661 -0.001937 0.012359 0.000000 0.003939 0.000000
# 4 0.000000 0.000000 0.000000 0.123140 0.000000 0.042328
# 5 0.005950 -0.007030 0.003939 0.000000 0.027395 0.000000
# 6 0.000000 0.000000 0.000000 0.042328 0.000000 0.052456
#
#
# Mechanical properties :
#
#
# Convention : Reuss Voigt Hill
#
# Bulk Modulus (GPa) = 28.63035 42.08487 35.35761
# Shear Modulus (GPa) = 16.37097 28.26562 22.31830
#
# Velocity S-wave (km/s) = 2.70831 3.55869 3.16222
# Velocity P-wave (km/s) = 4.75475 5.97843 5.40135
#
# Compressibility (1/GPa) = 0.03492797
#
# Stress axis : x y z
#
# Youngs Moduli (GPa) = 80.03954 26.31322 80.91195
#
# Poissons Ratio (x) = 0.27277 0.13441
# Poissons Ratio (y) = 0.82971 0.15672
# Poissons Ratio (z) = 0.13296 0.05097
#
# Static dielectric constant tensor:
#      x y z
#    x 1.931030 0.000000 -0.019940 
#    y 0.000000 1.867990 0.000000 
#    z -0.019940 0.000000 1.879430 
# 
# From -- ./inp_files/9834.got.cif
#   From: 2010.05.17/outbox.cif.g08.bks.cpg/sg10_5_cif.got.tgz:9834.got - 2010.06.03 11:33:40.
