data_PCOD9153248
_publ_section_title
;
Structure prediction by ZEFSAII (Michael W. Deem and Ramdas Pophale) SiO2 
 PCOD9153248
Probable space group: P 2/M
;
_chemical_formula_sum "Si O2"
_cell_formula_units_Z 24
_cell_length_a 22.674722
_cell_length_b 8.011936
_cell_length_c 8.022655
_cell_angle_alpha 90.000000
_cell_angle_beta 58.000088
_cell_angle_gamma 90.000000
_cell_volume 1235.999968
_symmetry_space_group_name_H-M "P 2/M"
_symmetry_group_IT_number 10
_symmetry_cell_setting 'monoclinic'
loop_
_space_group_symop_operation_xyz
x,y,z
-x,y,-z
-x,-y,-z
x,-y,z
loop_
_atom_site_type_symbol
_atom_site_label
_atom_site_fract_x
_atom_site_fract_y
_atom_site_fract_z
Si Si1 0.668909 0.818837 0.197189
Si Si2 0.179306 0.304630 0.025111
Si Si3 0.420031 0.500000 0.566044
Si Si4 0.169460 0.201144 0.422343
Si Si5 0.919843 0.797670 0.127192
Si Si6 0.672687 0.188656 0.792028
Si Si7 0.420167 0.500000 0.173756
O O1 0.620382 0.665216 0.315816
O O2 0.644867 0.000000 0.296352
O O3 0.749043 0.789413 0.127277
O O4 0.670632 0.823541 0.994691
O O5 0.194951 0.500000 0.994576
O O6 0.159208 0.264192 0.247953
O O7 0.121648 0.260751 0.974390
O O8 0.500000 0.500000 0.500000
O O9 0.418184 0.500000 0.372771
O O10 0.116639 0.258431 0.645296
O O11 0.247922 0.241230 0.365314
O O12 0.165957 0.000000 0.416676
O O13 0.917926 0.000000 0.130101
O O14 0.000000 0.744159 0.000000
O O15 0.619467 0.332638 0.823670
O O16 0.659398 0.000000 0.745448
O O17 0.500000 0.500000 0.000000
#
# Coordination Sequence:
#
# PCOD9153248 Si02
#       7
#     4   4   2   4   4   4   2
#     4  10  21  41  66  91 123 163 208 262 313 371
#     4  11  22  37  62  92 125 165 211 265 320 380
#     4  12  26  42  62  94 130 163 208 251 313 383
#     4   9  20  38  61  90 120 161 212 261 316 378
#     4  10  22  40  62  88 124 168 216 271 321 378
#     4   9  20  39  64  90 119 158 206 258 308 365
#     4  12  26  40  62  90 124 165 196 251 309 371
#
# _framework density 19.417476000000001
#
# number of rings (size 3 to 8) (size 9 to 14) (size 15 to 20)
#    0.000    1.833    0.833    4.000    5.833    3.000 
#    0.000    3.333    0.000    0.000    0.000    0.000 
#    0.000    0.000    0.000    0.000    0.000    0.000 
#
# Total GULP energy -133995.197242 kJ/mol
# GULP energy per Si atom -5583.133218 kJ/mol
# Density = 1.937328 g / cm^3
# Si number density = 19.417476 Si / 1000 Ang^3
#
#
#
# Elastic Constant Matrix: (Units=GPa)
#
#
# Indices 1 2 3 4 5 6 
#
# 1 132.5755 55.9504 50.9297 0.0000 -16.5007 0.0000
# 2 55.9504 111.7651 50.7203 0.0000 -20.5866 0.0000
# 3 50.9297 50.7203 123.0408 0.0000 -24.7274 0.0000
# 4 0.0000 0.0000 0.0000 27.0752 0.0000 3.5837
# 5 -16.5007 -20.5866 -24.7274 0.0000 22.8816 0.0000
# 6 0.0000 0.0000 0.0000 3.5837 0.0000 32.1276
#
#
#
# Elastic Compliance Matrix: (Units=1/GPa)
#
#
# Indices 1 2 3 4 5 6 
#
# 1 0.010231 -0.003778 -0.002399 0.000000 0.001387 0.000000
# 2 -0.003778 0.013184 -0.002599 0.000000 0.006328 0.000000
# 3 -0.002399 -0.002599 0.011975 0.000000 0.008872 0.000000
# 4 0.000000 0.000000 0.000000 0.037488 0.000000 -0.004182
# 5 0.001387 0.006328 0.008872 0.000000 0.059985 0.000000
# 6 0.000000 0.000000 0.000000 -0.004182 0.000000 0.031592
#
#
# Mechanical properties :
#
#
# Convention : Reuss Voigt Hill
#
# Bulk Modulus (GPa) = 56.05974 75.84249 65.95111
# Shear Modulus (GPa) = 26.60243 30.40228 28.50236
#
# Velocity S-wave (km/s) = 3.70540 3.96121 3.83544
# Velocity P-wave (km/s) = 6.87314 7.75018 7.32480
#
# Compressibility (1/GPa) = 0.01783811
#
# Stress axis : x y z
#
# Youngs Moduli (GPa) = 97.73829 75.85148 83.50799
#
# Poissons Ratio (x) = 0.28655 0.20034
# Poissons Ratio (y) = 0.36923 0.21705
# Poissons Ratio (z) = 0.23448 0.19715
#
# Static dielectric constant tensor:
#      x y z
#    x 1.627700 0.000000 -0.000430 
#    y 0.000000 1.663260 0.000000 
#    z -0.000430 0.000000 1.650160 
# 
# From -- ./inp_files/33835.got.cif
#   From: 2010.05.17/outbox.cif.g08.bks.cpg/sg10_17_cif.got.tgz:33835.got - 2010.06.03 11:33:40.
