data_PCOD9153802
_publ_section_title
;
Structure prediction by ZEFSAII (Michael W. Deem and Ramdas Pophale) SiO2 
 PCOD9153802
Probable space group: P 2/M
;
_chemical_formula_sum "Si O2"
_cell_formula_units_Z 24
_cell_length_a 23.081170
_cell_length_b 7.704423
_cell_length_c 12.088536
_cell_angle_alpha 90.000000
_cell_angle_beta 151.202874
_cell_angle_gamma 90.000000
_cell_volume 1035.516573
_symmetry_space_group_name_H-M "P 2/M"
_symmetry_group_IT_number 10
_symmetry_cell_setting 'monoclinic'
loop_
_space_group_symop_operation_xyz
x,y,z
-x,y,-z
-x,-y,-z
x,-y,z
loop_
_atom_site_type_symbol
_atom_site_label
_atom_site_fract_x
_atom_site_fract_y
_atom_site_fract_z
Si Si1 0.632728 0.199120 0.707377
Si Si2 0.531122 0.288507 0.176833
Si Si3 0.314527 0.298287 0.968120
Si Si4 0.803118 0.706213 0.628488
Si Si5 0.141682 0.789848 0.040618
Si Si6 0.104296 0.200073 0.455825
O O1 0.500000 0.278855 0.500000
O O2 0.729773 0.278839 0.786494
O O3 0.613169 0.000000 0.637874
O O4 0.694189 0.202279 0.930424
O O5 0.527219 0.500000 0.172397
O O6 0.666998 0.233965 0.427225
O O7 0.500000 0.234724 0.000000
O O8 0.429544 0.228980 0.091963
O O9 0.336051 0.500000 0.030093
O O10 0.198529 0.286616 0.695750
O O11 0.801224 0.500000 0.604693
O O12 0.877095 0.742437 0.863080
O O13 0.846270 0.790448 0.587106
O O14 0.142356 0.000000 0.034032
O O15 0.030571 0.726759 0.780140
O O16 0.097267 0.000000 0.478642
#
# Coordination Sequence:
#
# PCOD9153802 Si02
#       6
#     4   4   4   4   4   4
#     4  10  22  42  65  87 115 151 195 242 288 346
#     4   9  17  33  55  82 117 149 179 227 292 344
#     4  11  22  38  62  89 119 152 193 243 291 341
#     4  11  21  36  61  89 118 152 194 244 291 340
#     4  10  23  41  59  82 117 159 195 235 290 349
#     4  11  23  39  58  83 119 159 196 234 288 351
#
# _framework density 23.176836000000002
#
# number of rings (size 3 to 8) (size 9 to 14) (size 15 to 20)
#    0.000    1.667    1.667    3.000    0.000    5.000 
#    0.000    6.667    0.000    0.000    0.000    0.000 
#    0.000    0.000    0.000    0.000    0.000    0.000 
#
# Total GULP energy -134201.310258 kJ/mol
# GULP energy per Si atom -5591.721261 kJ/mol
# Density = 2.312408 g / cm^3
# Si number density = 23.176836 Si / 1000 Ang^3
#
#
#
# Elastic Constant Matrix: (Units=GPa)
#
#
# Indices 1 2 3 4 5 6 
#
# 1 87.3995 -9.4250 24.0255 0.0000 3.7235 0.0000
# 2 -9.4250 50.3241 -3.7610 0.0000 6.8024 0.0000
# 3 24.0255 -3.7610 110.2839 0.0000 11.1482 0.0000
# 4 0.0000 0.0000 0.0000 24.4905 0.0000 -9.0574
# 5 3.7235 6.8024 11.1482 0.0000 39.5479 0.0000
# 6 0.0000 0.0000 0.0000 -9.0574 0.0000 18.1871
#
#
#
# Elastic Compliance Matrix: (Units=1/GPa)
#
#
# Indices 1 2 3 4 5 6 
#
# 1 0.012419 0.002249 -0.002544 0.000000 -0.000839 0.000000
# 2 0.002249 0.020877 0.000624 0.000000 -0.003979 0.000000
# 3 -0.002544 0.000624 0.009912 0.000000 -0.002662 0.000000
# 4 0.000000 0.000000 0.000000 0.050051 0.000000 0.024926
# 5 -0.000839 -0.003979 -0.002662 0.000000 0.026800 0.000000
# 6 0.000000 0.000000 0.000000 0.024926 0.000000 0.067397
#
#
# Mechanical properties :
#
#
# Convention : Reuss Voigt Hill
#
# Bulk Modulus (GPa) = 22.79617 29.96517 26.38067
# Shear Modulus (GPa) = 24.82380 32.25628 28.54004
#
# Velocity S-wave (km/s) = 3.27626 3.73466 3.51294
# Velocity P-wave (km/s) = 4.91619 5.61729 5.27839
#
# Compressibility (1/GPa) = 0.04386702
#
# Stress axis : x y z
#
# Youngs Moduli (GPa) = 80.51945 47.89989 100.88672
#
# Poissons Ratio (x) = -0.10774 0.25666
# Poissons Ratio (y) = -0.18111 -0.06297
# Poissons Ratio (z) = 0.20485 -0.02990
#
# Static dielectric constant tensor:
#      x y z
#    x 1.853180 0.000000 0.047570 
#    y 0.000000 1.849230 0.000000 
#    z 0.047570 0.000000 1.868780 
# 
# From -- ./inp_files/56697.got.cif
#   From: 2010.05.17/outbox.cif.g08.bks.cpg/sg10_29_cif.got.tgz:56697.got - 2010.06.03 11:33:40.
