data_PCOD9153879
_publ_section_title
;
Structure prediction by ZEFSAII (Michael W. Deem and Ramdas Pophale) SiO2 
 PCOD9153879
Probable space group: P 2/M
;
_chemical_formula_sum "Si O2"
_cell_formula_units_Z 14
_cell_length_a 5.188701
_cell_length_b 20.069727
_cell_length_c 5.157378
_cell_angle_alpha 90.000000
_cell_angle_beta 88.458762
_cell_angle_gamma 90.000000
_cell_volume 536.873451
_symmetry_space_group_name_H-M "P 2/M"
_symmetry_group_IT_number 10
_symmetry_cell_setting 'monoclinic'
loop_
_space_group_symop_operation_xyz
x,y,z
-x,y,-z
-x,-y,-z
x,-y,z
loop_
_atom_site_type_symbol
_atom_site_label
_atom_site_fract_x
_atom_site_fract_y
_atom_site_fract_z
Si Si1 0.823207 0.000000 0.760245
Si Si2 0.328384 0.709053 0.233706
Si Si3 0.000000 0.385570 0.500000
Si Si4 0.739523 0.853329 0.673882
Si Si5 0.751028 0.500000 0.807544
O O1 0.690539 0.071926 0.776832
O O2 0.000000 0.000000 0.500000
O O3 0.000000 0.000000 0.000000
O O4 0.500000 0.704031 0.500000
O O5 0.062578 0.669608 0.279145
O O6 0.259133 0.785777 0.162259
O O7 0.500000 0.679873 0.000000
O O8 0.783801 0.437743 0.609002
O O9 0.500000 0.841624 0.500000
O O10 0.000000 0.854776 0.500000
O O11 0.500000 0.500000 0.000000
O O12 0.000000 0.500000 0.000000
#
# Coordination Sequence:
#
# PCOD9153879 Si02
#       5
#     2   4   2   4   2
#     4  10  23  42  70 100 144 197 251 311 378 442
#     4  11  26  45  73 109 150 198 252 311 379 446
#     4  11  26  46  76 109 154 194 250 307 370 452
#     4  10  22  46  69 106 146 195 252 314 378 448
#     4  11  28  49  78 112 153 198 249 301 372 448
#
# _framework density 26.076908
#
# number of rings (size 3 to 8) (size 9 to 14) (size 15 to 20)
#    0.000    1.429    1.429    1.286    8.000   10.286 
#    0.000    6.429    0.000    0.000    0.000    0.000 
#    0.000    0.000    0.000    0.000    0.000    0.000 
#
# Total GULP energy -77981.385643 kJ/mol
# GULP energy per Si atom -5570.098974 kJ/mol
# Density = 2.601756 g / cm^3
# Si number density = 26.076908 Si / 1000 Ang^3
#
#
#
# Elastic Constant Matrix: (Units=GPa)
#
#
# Indices 1 2 3 4 5 6 
#
# 1 152.0863 14.7340 68.6085 0.0000 -32.0173 0.0000
# 2 14.7340 219.0841 31.6746 0.0000 -31.5562 0.0000
# 3 68.6085 31.6746 166.8214 0.0000 -42.6219 0.0000
# 4 0.0000 0.0000 0.0000 -67.3150 0.0000 -24.5844
# 5 -32.0173 -31.5562 -42.6219 0.0000 77.6321 0.0000
# 6 0.0000 0.0000 0.0000 -24.5844 0.0000 -0.7989
#
#
#
# Elastic Compliance Matrix: (Units=1/GPa)
#
#
# Indices 1 2 3 4 5 6 
#
# 1 0.008287 0.000137 -0.002962 0.000000 0.001847 0.000000
# 2 0.000137 0.004885 -0.000537 0.000000 0.001747 0.000000
# 3 -0.002962 -0.000537 0.008080 0.000000 0.002996 0.000000
# 4 0.000000 0.000000 0.000000 0.001451 0.000000 -0.044649
# 5 0.001847 0.001747 0.002996 0.000000 0.015998 0.000000
# 6 0.000000 0.000000 0.000000 -0.044649 0.000000 0.122255
#
#
# Mechanical properties :
#
#
# Convention : Reuss Voigt Hill
#
# Bulk Modulus (GPa) = 68.84008 85.33624 77.08816
# Shear Modulus (GPa) = 28.98148 30.10194 29.54171
#
# Velocity S-wave (km/s) = 3.33736 3.40126 3.36946
# Velocity P-wave (km/s) = 6.42704 6.94411 6.69057
#
# Compressibility (1/GPa) = 0.01452642
#
# Stress axis : x y z
#
# Youngs Moduli (GPa) = 120.66868 204.72640 123.75813
#
# Poissons Ratio (x) = -0.02805 0.36661
# Poissons Ratio (y) = -0.01653 0.06651
# Poissons Ratio (z) = 0.35746 0.11003
#
# Static dielectric constant tensor:
#      x y z
#    x 2.035610 0.000000 0.069540 
#    y 0.000000 1.747850 0.000000 
#    z 0.069540 0.000000 1.977480 
# 
# From -- ./inp_files/1179.got.cif
#   From: 2010.05.17/outbox.cif.g08.bks.cpg/sg10_1_cif.got.tgz:1179.got - 2010.06.03 11:33:40.
