data_PCOD9153657
_publ_section_title
;
Structure prediction by ZEFSAII (Michael W. Deem and Ramdas Pophale) SiO2 
 PCOD9153657
Probable space group: P 2/M
;
_chemical_formula_sum "Si O2"
_cell_formula_units_Z 24
_cell_length_a 16.754961
_cell_length_b 7.539445
_cell_length_c 8.045836
_cell_angle_alpha 90.000000
_cell_angle_beta 104.063814
_cell_angle_gamma 90.000000
_cell_volume 985.909852
_symmetry_space_group_name_H-M "P 2/M"
_symmetry_group_IT_number 10
_symmetry_cell_setting 'monoclinic'
loop_
_space_group_symop_operation_xyz
x,y,z
-x,y,-z
-x,-y,-z
x,-y,z
loop_
_atom_site_type_symbol
_atom_site_label
_atom_site_fract_x
_atom_site_fract_y
_atom_site_fract_z
Si Si1 0.947193 0.207990 0.313984
Si Si2 0.098131 0.713175 0.192792
Si Si3 0.197995 0.703163 0.563299
Si Si4 0.737811 0.711808 0.871627
Si Si5 0.535675 0.000000 0.252541
Si Si6 0.632372 0.000000 0.650302
Si Si7 0.353981 0.287679 0.827311
O O1 0.859590 0.295353 0.301814
O O2 0.000000 0.276500 0.500000
O O3 0.003797 0.233053 0.180921
O O4 0.933978 0.000000 0.328662
O O5 0.093229 0.500000 0.186335
O O6 0.146046 0.779971 0.384456
O O7 0.165055 0.764889 0.087002
O O8 0.212065 0.500000 0.522858
O O9 0.285248 0.776117 0.659840
O O10 0.733885 0.500000 0.837086
O O11 0.688919 0.828020 0.712041
O O12 0.690291 0.744234 0.019082
O O13 0.584305 0.000000 0.452985
O O14 0.440106 0.000000 0.248090
O O15 0.566269 0.172661 0.168842
O O16 0.367604 0.500000 0.818701
#
# Coordination Sequence:
#
# PCOD9153657 Si02
#       7
#     4   4   4   4   2   2   4
#     4   9  17  27  44  75 110 146 192 243 289 333
#     4   9  17  31  52  77 108 150 197 242 287 336
#     4   9  17  31  52  77 108 150 197 242 287 336
#     4  10  22  40  62  89 122 159 196 237 291 353
#     4  11  25  43  65  92 119 150 191 241 294 349
#     4  11  25  43  65  92 119 150 191 241 294 349
#     4  10  22  40  62  89 122 159 196 237 291 353
#
# _framework density 24.342998000000001
#
# number of rings (size 3 to 8) (size 9 to 14) (size 15 to 20)
#    0.000    2.333    0.000    2.000    2.333    6.000 
#    0.000    4.167    0.000    5.000    0.000    0.000 
#    0.000    0.000    0.000    0.000    0.000    0.000 
#
# Total GULP energy -134080.021814 kJ/mol
# GULP energy per Si atom -5586.667576 kJ/mol
# Density = 2.428759 g / cm^3
# Si number density = 24.342998 Si / 1000 Ang^3
#
#
#
# Elastic Constant Matrix: (Units=GPa)
#
#
# Indices 1 2 3 4 5 6 
#
# 1 156.6577 21.6874 17.4696 0.0000 -29.5451 0.0000
# 2 21.6874 69.3797 4.1586 0.0000 -8.4262 0.0000
# 3 17.4696 4.1586 80.5134 0.0000 -29.3079 0.0000
# 4 0.0000 0.0000 0.0000 18.9073 0.0000 -1.8697
# 5 -29.5451 -8.4262 -29.3079 0.0000 46.5264 0.0000
# 6 0.0000 0.0000 0.0000 -1.8697 0.0000 24.1800
#
#
#
# Elastic Compliance Matrix: (Units=1/GPa)
#
#
# Indices 1 2 3 4 5 6 
#
# 1 0.007465 -0.001796 0.000104 0.000000 0.004481 0.000000
# 2 -0.001796 0.015174 0.000248 0.000000 0.001764 0.000000
# 3 0.000104 0.000248 0.016122 0.000000 0.010267 0.000000
# 4 0.000000 0.000000 0.000000 0.053297 0.000000 0.004121
# 5 0.004481 0.001764 0.010267 0.000000 0.031125 0.000000
# 6 0.000000 0.000000 0.000000 0.004121 0.000000 0.041675
#
#
# Mechanical properties :
#
#
# Convention : Reuss Voigt Hill
#
# Bulk Modulus (GPa) = 27.87496 43.68689 35.78093
# Shear Modulus (GPa) = 27.82344 35.47175 31.64760
#
# Velocity S-wave (km/s) = 3.38446 3.82142 3.60956
# Velocity P-wave (km/s) = 5.17190 6.12016 5.66590
#
# Compressibility (1/GPa) = 0.03587449
#
# Stress axis : x y z
#
# Youngs Moduli (GPa) = 133.95070 65.90168 62.02672
#
# Poissons Ratio (x) = 0.11834 -0.00645
# Poissons Ratio (y) = 0.24053 -0.01538
# Poissons Ratio (z) = -0.01394 -0.01634
#
# Static dielectric constant tensor:
#      x y z
#    x 1.913970 0.000000 -0.011970 
#    y 0.000000 1.878660 0.000000 
#    z -0.011970 0.000000 2.036950 
# 
# From -- ./inp_files/27267.got.cif
#   From: 2010.05.17/outbox.cif.g08.bks.cpg/sg10_14_cif.got.tgz:27267.got - 2010.06.03 11:33:40.
