data_PCOD9153530
_publ_section_title
;
Structure prediction by ZEFSAII (Michael W. Deem and Ramdas Pophale) SiO2 
 PCOD9153530
Probable space group: P 2/M
;
_chemical_formula_sum "Si O2"
_cell_formula_units_Z 28
_cell_length_a 15.651918
_cell_length_b 8.452655
_cell_length_c 21.575459
_cell_angle_alpha 90.000000
_cell_angle_beta 153.426428
_cell_angle_gamma 90.000000
_cell_volume 1276.923555
_symmetry_space_group_name_H-M "P 2/M"
_symmetry_group_IT_number 10
_symmetry_cell_setting 'monoclinic'
loop_
_space_group_symop_operation_xyz
x,y,z
-x,y,-z
-x,-y,-z
x,-y,z
loop_
_atom_site_type_symbol
_atom_site_label
_atom_site_fract_x
_atom_site_fract_y
_atom_site_fract_z
Si Si1 0.254587 0.818840 0.303913
Si Si2 0.099492 0.316198 0.498460
Si Si3 0.616307 0.191660 0.013270
Si Si4 0.488606 0.309103 0.191660
Si Si5 0.088947 0.309693 0.990691
Si Si6 0.395251 0.680043 0.520661
Si Si7 0.014098 0.815723 0.322950
O O1 0.310463 0.705288 0.396610
O O2 0.413510 0.784172 0.354510
O O3 0.046487 0.777960 0.145702
O O4 0.269705 0.000000 0.334259
O O5 0.105044 0.500000 0.480717
O O6 0.314111 0.254645 0.649315
O O7 0.975948 0.214991 0.370304
O O8 0.000000 0.315013 0.500000
O O9 0.836757 0.243926 0.167240
O O10 0.613932 0.000000 0.010782
O O11 0.500000 0.240814 0.000000
O O12 0.540361 0.251115 0.897818
O O13 0.499519 0.500000 0.196202
O O14 0.306579 0.266724 0.116220
O O15 0.071187 0.500000 0.971716
O O16 0.000000 0.270608 0.000000
O O17 0.448896 0.500000 0.567925
O O18 0.217095 0.732419 0.445555
O O19 0.037815 0.000000 0.324722
#
# Coordination Sequence:
#
# PCOD9153530 Si02
#       7
#     4   4   4   4   4   4   4
#     4  11  22  38  59  87 121 152 196 251 302 353
#     4  10  22  40  61  89 124 162 206 256 308 369
#     4  10  22  40  62  89 122 160 202 251 313 377
#     4  10  22  39  61  90 122 161 209 255 305 364
#     4  10  22  39  59  84 119 165 211 250 296 362
#     4  11  22  38  61  86 116 157 198 242 303 364
#     4  11  23  38  60  91 122 155 202 255 307 366
#
# _framework density 21.927702
#
# number of rings (size 3 to 8) (size 9 to 14) (size 15 to 20)
#    0.000    1.571    0.000    5.571    2.000    5.429 
#    0.000    0.000    0.000    0.000    0.000    0.000 
#    0.000    0.000    0.000    0.000    0.000    0.000 
#
# Total GULP energy -156472.834322 kJ/mol
# GULP energy per Si atom -5588.315511 kJ/mol
# Density = 2.187779 g / cm^3
# Si number density = 21.927702 Si / 1000 Ang^3
#
#
#
# Elastic Constant Matrix: (Units=GPa)
#
#
# Indices 1 2 3 4 5 6 
#
# 1 72.7573 7.0099 3.5155 0.0000 3.5921 0.0000
# 2 7.0099 23.7055 4.6094 0.0000 5.3214 0.0000
# 3 3.5155 4.6094 95.1805 0.0000 4.8741 0.0000
# 4 0.0000 0.0000 0.0000 31.4231 0.0000 -26.4639
# 5 3.5921 5.3214 4.8741 0.0000 34.3492 0.0000
# 6 0.0000 0.0000 0.0000 -26.4639 0.0000 85.2304
#
#
#
# Elastic Compliance Matrix: (Units=1/GPa)
#
#
# Indices 1 2 3 4 5 6 
#
# 1 0.014180 -0.003951 -0.000290 0.000000 -0.000830 0.000000
# 2 -0.003951 0.045107 -0.001714 0.000000 -0.006332 0.000000
# 3 -0.000290 -0.001714 0.010662 0.000000 -0.001217 0.000000
# 4 0.000000 0.000000 0.000000 0.043092 0.000000 0.013380
# 5 -0.000830 -0.006332 -0.001217 0.000000 0.030353 0.000000
# 6 0.000000 0.000000 0.000000 0.013380 0.000000 0.015887
#
#
# Mechanical properties :
#
#
# Convention : Reuss Voigt Hill
#
# Bulk Modulus (GPa) = 17.22947 24.65698 20.94323
# Shear Modulus (GPa) = 26.24145 41.96777 34.10461
#
# Velocity S-wave (km/s) = 3.46313 4.37958 3.94803
# Velocity P-wave (km/s) = 4.88523 6.06987 5.50948
#
# Compressibility (1/GPa) = 0.05804008
#
# Stress axis : x y z
#
# Youngs Moduli (GPa) = 70.52228 22.16940 93.78741
#
# Poissons Ratio (x) = 0.08758 0.02719
# Poissons Ratio (y) = 0.27860 0.16078
# Poissons Ratio (z) = 0.02045 0.03801
#
# Static dielectric constant tensor:
#      x y z
#    x 1.940020 0.000000 0.022370 
#    y 0.000000 1.764040 0.000000 
#    z 0.022370 0.000000 1.773690 
# 
# From -- ./inp_files/84969.got.cif
#   From: 2010.05.17/outbox.cif.g08.bks.cpg/sg10_43_cif.got.tgz:84969.got - 2010.06.03 11:33:40.
