data_PCOD9153126
_publ_section_title
;
Structure prediction by ZEFSAII (Michael W. Deem and Ramdas Pophale) SiO2 
 PCOD9153126
Probable space group: P 2/M
;
_chemical_formula_sum "Si O2"
_cell_formula_units_Z 19
_cell_length_a 5.196342
_cell_length_b 26.408075
_cell_length_c 5.318309
_cell_angle_alpha 90.000000
_cell_angle_beta 96.739583
_cell_angle_gamma 90.000000
_cell_volume 724.763918
_symmetry_space_group_name_H-M "P 2/M"
_symmetry_group_IT_number 10
_symmetry_cell_setting 'monoclinic'
loop_
_space_group_symop_operation_xyz
x,y,z
-x,y,-z
-x,-y,-z
x,-y,z
loop_
_atom_site_type_symbol
_atom_site_label
_atom_site_fract_x
_atom_site_fract_y
_atom_site_fract_z
Si Si1 0.279542 0.715702 0.664640
Si Si2 0.272755 0.500000 0.675128
Si Si3 0.000000 0.000000 0.000000
Si Si4 0.837905 0.820166 0.221564
Si Si5 0.718264 0.075118 0.327824
Si Si6 0.832008 0.390405 0.225221
O O1 0.500000 0.732462 0.500000
O O2 0.252516 0.762987 0.847291
O O3 0.346422 0.658792 0.758379
O O4 0.000000 0.710007 0.500000
O O5 0.500000 0.500000 0.500000
O O6 0.280316 0.446707 0.819883
O O7 0.000000 0.500000 0.500000
O O8 0.796539 0.043464 0.090550
O O9 0.648598 0.866711 0.257519
O O10 0.000000 0.815282 0.500000
O O11 0.000000 0.836897 0.000000
O O12 0.500000 0.056048 0.500000
O O13 0.000000 0.073418 0.500000
O O14 0.000000 0.394063 0.500000
O O15 0.000000 0.378916 0.000000
#
# Coordination Sequence:
#
# PCOD9153126 Si02
#       6
#     4   2   1   4   4   4
#     4  10  21  40  64  94 128 169 216 268 326 389
#     4  10  21  40  62  90 126 166 212 264 320 384
#     4  12  24  46  68 100 128 182 216 280 326 398
#     4  10  21  43  66  98 132 174 219 274 330 395
#     4  11  25  44  66  98 133 173 222 274 332 396
#     4  10  21  40  62  92 125 168 212 266 321 386
#
# _framework density 26.215434999999999
#
# number of rings (size 3 to 8) (size 9 to 14) (size 15 to 20)
#    0.000    1.684    1.053    2.842    0.000    1.684 
#    0.000   40.000    0.000    0.000    0.000    0.000 
#    0.000    0.000    0.000    0.000    0.000    0.000 
#
# Total GULP energy -105948.568920 kJ/mol
# GULP energy per Si atom -5576.240469 kJ/mol
# Density = 2.615577 g / cm^3
# Si number density = 26.215435 Si / 1000 Ang^3
#
#
#
# Elastic Constant Matrix: (Units=GPa)
#
#
# Indices 1 2 3 4 5 6 
#
# 1 132.5023 -8.6442 42.4108 0.0000 -7.6330 0.0000
# 2 -8.6442 237.8976 -7.5143 0.0000 -22.8009 0.0000
# 3 42.4108 -7.5143 123.8927 0.0000 -16.1145 0.0000
# 4 0.0000 0.0000 0.0000 24.0367 0.0000 -36.7813
# 5 -7.6330 -22.8009 -16.1145 0.0000 84.4740 0.0000
# 6 0.0000 0.0000 0.0000 -36.7813 0.0000 6.9415
#
#
#
# Elastic Compliance Matrix: (Units=1/GPa)
#
#
# Indices 1 2 3 4 5 6 
#
# 1 0.008494 0.000246 -0.002855 0.000000 0.000289 0.000000
# 2 0.000246 0.004344 0.000343 0.000000 0.001260 0.000000
# 3 -0.002855 0.000343 0.009278 0.000000 0.001605 0.000000
# 4 0.000000 0.000000 0.000000 -0.005853 0.000000 -0.031013
# 5 0.000289 0.001260 0.001605 0.000000 0.012510 0.000000
# 6 0.000000 0.000000 0.000000 -0.031013 0.000000 -0.020267
#
#
# Mechanical properties :
#
#
# Convention : Reuss Voigt Hill
#
# Bulk Modulus (GPa) = 56.86785 60.75524 58.81155
# Shear Modulus (GPa) = 264.55643 54.29313 159.42478
#
# Velocity S-wave (km/s) = 10.05661 4.55580 7.80675
# Velocity P-wave (km/s) = 12.51346 7.13439 10.18544
#
# Compressibility (1/GPa) = 0.01758463
#
# Stress axis : x y z
#
# Youngs Moduli (GPa) = 117.73624 230.19957 107.77815
#
# Poissons Ratio (x) = -0.05667 0.30770
# Poissons Ratio (y) = -0.02898 -0.03698
# Poissons Ratio (z) = 0.33613 -0.07899
#
# Static dielectric constant tensor:
#      x y z
#    x 1.990380 0.000000 -0.015360 
#    y 0.000000 1.990750 0.000000 
#    z -0.015360 0.000000 1.872050 
# 
# From -- ./inp_files/2084.got.cif
#   From: 2010.05.17/outbox.cif.g08.bks.cpg/sg10_2_cif.got.tgz:2084.got - 2010.06.03 11:33:40.
