data_PCOD9153413
_publ_section_title
;
Structure prediction by ZEFSAII (Michael W. Deem and Ramdas Pophale) SiO2 
 PCOD9153413
Probable space group: P 2/M
;
_chemical_formula_sum "Si O2"
_cell_formula_units_Z 32
_cell_length_a 22.421621
_cell_length_b 8.464841
_cell_length_c 12.697275
_cell_angle_alpha 90.000000
_cell_angle_beta 46.829940
_cell_angle_gamma 90.000000
_cell_volume 1757.592442
_symmetry_space_group_name_H-M "P 2/M"
_symmetry_group_IT_number 10
_symmetry_cell_setting 'monoclinic'
loop_
_space_group_symop_operation_xyz
x,y,z
-x,y,-z
-x,-y,-z
x,-y,z
loop_
_atom_site_type_symbol
_atom_site_label
_atom_site_fract_x
_atom_site_fract_y
_atom_site_fract_z
Si Si1 0.730059 0.810553 0.869193
Si Si2 0.022834 0.316546 0.261449
Si Si3 0.283470 0.692024 0.446241
Si Si4 0.228628 0.688691 0.730580
Si Si5 0.064166 0.821136 0.828909
Si Si6 0.593268 0.308935 0.881305
Si Si7 0.142919 0.691361 0.452895
Si Si8 0.202775 0.188136 0.993965
O O1 0.649301 0.746217 0.910290
O O2 0.807644 0.750309 0.707832
O O3 0.741262 0.758663 0.976070
O O4 0.729495 0.000000 0.866005
O O5 0.038656 0.500000 0.265725
O O6 0.109824 0.235075 0.137875
O O7 0.974097 0.293893 0.211076
O O8 0.951704 0.255576 0.426509
O O9 0.282053 0.500000 0.447358
O O10 0.288258 0.741459 0.562583
O O11 0.358515 0.743720 0.282220
O O12 0.199954 0.740395 0.484597
O O13 0.230230 0.500000 0.732955
O O14 0.143598 0.749216 0.785871
O O15 0.232217 0.748351 0.845615
O O16 0.077425 0.000000 0.770593
O O17 0.000000 0.834516 0.000000
O O18 0.593004 0.500000 0.881324
O O19 0.500000 0.253606 0.000000
O O20 0.141750 0.500000 0.454118
O O21 0.204576 0.000000 0.984890
#
# Coordination Sequence:
#
# PCOD9153413 Si02
#       8
#     4   4   4   4   4   4   4   4
#     4  10  22  38  55  76 107 142 174 213 261 320
#     4  11  21  33  51  73  98 137 187 232 270 307
#     4   8  15  30  51  80 110 130 160 213 263 305
#     4  11  20  32  52  74 101 139 183 222 261 309
#     4  11  21  31  45  69 102 138 179 229 273 307
#     4   9  18  36  64  91 111 131 159 204 262 319
#     4   9  18  34  53  74 103 135 177 230 271 308
#     4  11  24  38  48  69 106 145 185 224 264 308
#
# _framework density 18.206724000000001
#
# number of rings (size 3 to 8) (size 9 to 14) (size 15 to 20)
#    0.000    2.000    2.500    2.625    0.000    4.250 
#    0.000    3.125    0.000    0.750    0.000    5.250 
#    0.000    0.000    0.000    0.000    0.000    0.000 
#
# Total GULP energy -178370.956716 kJ/mol
# GULP energy per Si atom -5574.092397 kJ/mol
# Density = 1.816529 g / cm^3
# Si number density = 18.206724 Si / 1000 Ang^3
#
#
#
# Elastic Constant Matrix: (Units=GPa)
#
#
# Indices 1 2 3 4 5 6 
#
# 1 81.0568 14.3307 84.9766 0.0000 9.8208 0.0000
# 2 14.3307 21.6609 22.1819 0.0000 1.0242 0.0000
# 3 84.9766 22.1819 125.5709 0.0000 4.6454 0.0000
# 4 0.0000 0.0000 0.0000 5.9743 0.0000 14.0627
# 5 9.8208 1.0242 4.6454 0.0000 22.8722 0.0000
# 6 0.0000 0.0000 0.0000 14.0627 0.0000 33.7549
#
#
#
# Elastic Compliance Matrix: (Units=1/GPa)
#
#
# Indices 1 2 3 4 5 6 
#
# 1 0.046390 0.001936 -0.031230 0.000000 -0.013663 0.000000
# 2 0.001936 0.056448 -0.011242 0.000000 -0.001076 0.000000
# 3 -0.031230 -0.011242 0.030800 0.000000 0.007657 0.000000
# 4 0.000000 0.000000 0.000000 8.645025 0.000000 -3.601615
# 5 -0.013663 -0.001076 0.007657 0.000000 0.048081 0.000000
# 6 0.000000 0.000000 0.000000 -3.601615 0.000000 1.530099
#
#
# Mechanical properties :
#
#
# Convention : Reuss Voigt Hill
#
# Bulk Modulus (GPa) = 19.02330 52.36301 35.69315
# Shear Modulus (GPa) = 0.47822 19.64023 10.05923
#
# Velocity S-wave (km/s) = 0.51306 3.28797 2.35308
# Velocity P-wave (km/s) = 3.28971 6.57549 5.19900
#
# Compressibility (1/GPa) = 0.05256712
#
# Stress axis : x y z
#
# Youngs Moduli (GPa) = 21.55637 17.71527 32.46759
#
# Poissons Ratio (x) = -0.03429 1.01395
# Poissons Ratio (y) = -0.04172 0.36499
# Poissons Ratio (z) = 0.67320 0.19915
#
# Static dielectric constant tensor:
#      x y z
#    x 1.609420 0.000000 0.022120 
#    y 0.000000 1.635900 0.000000 
#    z 0.022120 0.000000 1.679880 
# 
# From -- ./inp_files/55226.got.cif
#   From: 2010.05.17/outbox.cif.g08.bks.cpg/sg10_28_cif.got.tgz:55226.got - 2010.06.03 11:33:40.
