data_PCOD9153576
_publ_section_title
;
Structure prediction by ZEFSAII (Michael W. Deem and Ramdas Pophale) SiO2 
 PCOD9153576
Probable space group: P 2/M
;
_chemical_formula_sum "Si O2"
_cell_formula_units_Z 28
_cell_length_a 6.767968
_cell_length_b 17.414580
_cell_length_c 9.788851
_cell_angle_alpha 90.000000
_cell_angle_beta 105.070586
_cell_angle_gamma 90.000000
_cell_volume 1114.045895
_symmetry_space_group_name_H-M "P 2/M"
_symmetry_group_IT_number 10
_symmetry_cell_setting 'monoclinic'
loop_
_space_group_symop_operation_xyz
x,y,z
-x,y,-z
-x,-y,-z
x,-y,z
loop_
_atom_site_type_symbol
_atom_site_label
_atom_site_fract_x
_atom_site_fract_y
_atom_site_fract_z
Si Si1 0.175036 0.295048 0.114376
Si Si2 0.810425 0.410708 0.652441
Si Si3 0.819580 0.673040 0.395140
Si Si4 0.744507 0.857252 0.713705
Si Si5 0.301506 0.911747 0.593366
Si Si6 0.853235 0.084625 0.144904
Si Si7 0.671115 0.251788 0.101701
O O1 0.224930 0.373013 0.205909
O O2 0.197480 0.227710 0.230521
O O3 0.408938 0.271883 0.075400
O O4 0.105584 0.293836 0.932372
O O5 0.764105 0.500000 0.643438
O O6 0.711125 0.367268 0.503548
O O7 0.948465 0.393983 0.339773
O O8 0.746446 0.864777 0.550225
O O9 0.715575 0.724625 0.265723
O O10 0.000000 0.720545 0.500000
O O11 0.904153 0.905548 0.835574
O O12 0.270411 0.838629 0.914041
O O13 0.514229 0.884463 0.699359
O O14 0.319081 0.000000 0.550492
O O15 0.146281 0.912053 0.689449
O O16 0.222281 0.000000 0.908634
#
# Coordination Sequence:
#
# PCOD9153576 Si02
#       7
#     4   4   4   4   4   4   4
#     4  12  22  42  60  97 126 166 222 260 327 407
#     4   9  19  38  71 101 124 158 217 276 318 394
#     4   8  18  38  67  99 123 165 217 262 320 392
#     4  11  21  38  64  89 131 168 217 280 331 395
#     4  10  22  39  62  97 126 166 229 286 341 387
#     4  11  23  39  62  90 129 178 226 276 334 391
#     4  12  25  43  63  94 137 177 219 274 330 403
#
# _framework density 25.133611999999999
#
# number of rings (size 3 to 8) (size 9 to 14) (size 15 to 20)
#    0.857    0.571    2.857    3.857    2.000    1.714 
#    0.000    2.857    0.000    4.714    0.000    0.000 
#    0.000    0.000    0.000    0.000    0.000    0.000 
#
# Total GULP energy -156038.918791 kJ/mol
# GULP energy per Si atom -5572.818528 kJ/mol
# Density = 2.507641 g / cm^3
# Si number density = 25.133612 Si / 1000 Ang^3
#
#
#
# Elastic Constant Matrix: (Units=GPa)
#
#
# Indices 1 2 3 4 5 6 
#
# 1 132.4942 38.2270 56.9893 0.0000 21.0354 0.0000
# 2 38.2270 150.9878 91.2946 0.0000 8.1125 0.0000
# 3 56.9893 91.2946 188.5494 0.0000 21.8703 0.0000
# 4 0.0000 0.0000 0.0000 4.0356 0.0000 -37.5707
# 5 21.0354 8.1125 21.8703 0.0000 49.1036 0.0000
# 6 0.0000 0.0000 0.0000 -37.5707 0.0000 -57.5085
#
#
#
# Elastic Compliance Matrix: (Units=1/GPa)
#
#
# Indices 1 2 3 4 5 6 
#
# 1 0.009126 -0.000975 -0.001952 0.000000 -0.002879 0.000000
# 2 -0.000975 0.009481 -0.004389 0.000000 0.000806 0.000000
# 3 -0.001952 -0.004389 0.008265 0.000000 -0.002120 0.000000
# 4 0.000000 0.000000 0.000000 0.034989 0.000000 -0.022858
# 5 -0.002879 0.000806 -0.002120 0.000000 0.022409 0.000000
# 6 0.000000 0.000000 0.000000 -0.022858 0.000000 -0.002455
#
#
# Mechanical properties :
#
#
# Convention : Reuss Voigt Hill
#
# Bulk Modulus (GPa) = 81.71499 93.89480 87.80490
# Shear Modulus (GPa) = 49.73847 18.16084 33.94965
#
# Velocity S-wave (km/s) = 4.45338 2.69099 3.67927
# Velocity P-wave (km/s) = 7.68285 6.86255 7.28426
#
# Compressibility (1/GPa) = 0.01223766
#
# Stress axis : x y z
#
# Youngs Moduli (GPa) = 109.58202 105.47872 120.99637
#
# Poissons Ratio (x) = 0.10289 0.23618
# Poissons Ratio (y) = 0.10689 0.53107
# Poissons Ratio (z) = 0.21390 0.46296
#
# Static dielectric constant tensor:
#      x y z
#    x 2.351690 0.000000 -0.048830 
#    y 0.000000 1.922450 0.000000 
#    z -0.048830 0.000000 1.915570 
# 
# From -- ./inp_files/25068.got.cif
#   From: 2010.05.17/outbox.cif.g08.bks.cpg/sg10_13_cif.got.tgz:25068.got - 2010.06.03 11:33:40.
