data_PCOD9153884
_publ_section_title
;
Structure prediction by ZEFSAII (Michael W. Deem and Ramdas Pophale) SiO2 
 PCOD9153884
Probable space group: P 2/M
;
_chemical_formula_sum "Si O2"
_cell_formula_units_Z 28
_cell_length_a 9.259850
_cell_length_b 20.822818
_cell_length_c 14.918246
_cell_angle_alpha 90.000000
_cell_angle_beta 29.375643
_cell_angle_gamma 90.000000
_cell_volume 1411.008911
_symmetry_space_group_name_H-M "P 2/M"
_symmetry_group_IT_number 10
_symmetry_cell_setting 'monoclinic'
loop_
_space_group_symop_operation_xyz
x,y,z
-x,y,-z
-x,-y,-z
x,-y,z
loop_
_atom_site_type_symbol
_atom_site_label
_atom_site_fract_x
_atom_site_fract_y
_atom_site_fract_z
Si Si1 0.812544 0.428154 0.229454
Si Si2 0.694266 0.768540 0.074961
Si Si3 0.838387 0.070090 0.283502
Si Si4 0.000000 0.670853 0.000000
Si Si5 0.150828 0.209234 0.676374
Si Si6 0.000000 0.882660 0.000000
Si Si7 0.868521 0.426432 0.413621
Si Si8 0.103252 0.708296 0.342694
O O1 0.896090 0.500000 0.158140
O O2 0.846365 0.424332 0.317626
O O3 0.477844 0.417200 0.375708
O O4 0.009707 0.375015 0.078812
O O5 0.725034 0.717557 0.138586
O O6 0.741795 0.837005 0.097760
O O7 0.416085 0.744984 0.169871
O O8 0.974067 0.763185 0.857127
O O9 0.500000 0.067489 0.500000
O O10 0.957463 0.134633 0.267056
O O11 0.970844 0.000000 0.233216
O O12 0.874850 0.081123 0.155824
O O13 0.500000 0.208079 0.500000
O O14 0.088492 0.252881 0.625026
O O15 0.955259 0.500000 0.392395
O O16 0.069770 0.367909 0.338904
O O17 0.000000 0.717025 0.500000
#
# Coordination Sequence:
#
# PCOD9153884 Si02
#       8
#     4   4   4   2   4   2   4   4
#     4   9  18  33  55  79 106 146 192 241 296 367
#     4  10  23  37  56  87 123 156 200 251 301 356
#     4   9  18  34  62  94 124 162 208 249 297 360
#     4  11  19  32  56  80 115 143 192 242 302 365
#     4  10  23  40  64  87 122 163 197 246 302 362
#     4   9  19  36  62  88 129 163 206 252 305 355
#     4   9  20  38  56  78 112 154 199 244 303 367
#     4  12  25  36  60  91 121 158 202 253 308 360
#
# _framework density 19.843958000000001
#
# number of rings (size 3 to 8) (size 9 to 14) (size 15 to 20)
#    0.000    2.143    0.000    3.429   12.000    0.286 
#    0.000    1.429    0.000   11.571    0.000    0.000 
#    0.000    0.000    0.000    0.000    0.000    0.000 
#
# Total GULP energy -155885.322573 kJ/mol
# GULP energy per Si atom -5567.332949 kJ/mol
# Density = 1.979879 g / cm^3
# Si number density = 19.843958 Si / 1000 Ang^3
#
#
#
# Elastic Constant Matrix: (Units=GPa)
#
#
# Indices 1 2 3 4 5 6 
#
# 1 58.6037 39.3770 15.6505 0.0000 0.6968 0.0000
# 2 39.3770 142.6399 30.8796 0.0000 2.8514 0.0000
# 3 15.6505 30.8796 63.2207 0.0000 8.6611 0.0000
# 4 0.0000 0.0000 0.0000 15.4895 0.0000 -4.2977
# 5 0.6968 2.8514 8.6611 0.0000 33.3564 0.0000
# 6 0.0000 0.0000 0.0000 -4.2977 0.0000 17.7764
#
#
#
# Elastic Compliance Matrix: (Units=1/GPa)
#
#
# Indices 1 2 3 4 5 6 
#
# 1 0.021369 -0.005308 -0.002798 0.000000 0.000734 0.000000
# 2 -0.005308 0.009162 -0.003182 0.000000 0.000154 0.000000
# 3 -0.002798 -0.003182 0.018684 0.000000 -0.004521 0.000000
# 4 0.000000 0.000000 0.000000 0.069202 0.000000 0.016730
# 5 0.000734 0.000154 -0.004521 0.000000 0.031125 0.000000
# 6 0.000000 0.000000 0.000000 0.016730 0.000000 0.060299
#
#
# Mechanical properties :
#
#
# Convention : Reuss Voigt Hill
#
# Bulk Modulus (GPa) = 37.53949 48.47539 43.00744
# Shear Modulus (GPa) = 20.72151 25.22827 22.97489
#
# Velocity S-wave (km/s) = 3.23495 3.56944 3.40630
# Velocity P-wave (km/s) = 5.73686 6.43966 6.09839
#
# Compressibility (1/GPa) = 0.02663861
#
# Stress axis : x y z
#
# Youngs Moduli (GPa) = 46.79722 109.14900 53.52226
#
# Poissons Ratio (x) = 0.57937 0.14974
# Poissons Ratio (y) = 0.24840 0.17031
# Poissons Ratio (z) = 0.13093 0.34732
#
# Static dielectric constant tensor:
#      x y z
#    x 1.789070 0.000000 -0.026740 
#    y 0.000000 1.730540 0.000000 
#    z -0.026740 0.000000 1.750570 
# 
# From -- ./inp_files/62580.got.cif
#   From: 2010.05.17/outbox.cif.g08.bks.cpg/sg10_32_cif.got.tgz:62580.got - 2010.06.03 11:33:40.
