data_PCOD9153625
_publ_section_title
;
Structure prediction by ZEFSAII (Michael W. Deem and Ramdas Pophale) SiO2 
 PCOD9153625
Probable space group: P 2/M
;
_chemical_formula_sum "Si O2"
_cell_formula_units_Z 30
_cell_length_a 16.865831
_cell_length_b 7.529561
_cell_length_c 14.959172
_cell_angle_alpha 90.000000
_cell_angle_beta 139.116131
_cell_angle_gamma 90.000000
_cell_volume 1243.406623
_symmetry_space_group_name_H-M "P 2/M"
_symmetry_group_IT_number 10
_symmetry_cell_setting 'monoclinic'
loop_
_space_group_symop_operation_xyz
x,y,z
-x,y,-z
-x,-y,-z
x,-y,z
loop_
_atom_site_type_symbol
_atom_site_label
_atom_site_fract_x
_atom_site_fract_y
_atom_site_fract_z
Si Si1 0.740531 0.293630 0.211586
Si Si2 0.160761 0.706003 0.974220
Si Si3 0.332922 0.283758 0.275989
Si Si4 0.393108 0.712962 0.523346
Si Si5 0.394533 0.204615 0.061843
Si Si6 0.003745 0.292607 0.610917
Si Si7 0.005657 0.000000 0.267459
Si Si8 0.340347 0.207557 0.671256
O O1 0.741717 0.500000 0.191557
O O2 0.858528 0.215232 0.264556
O O3 0.741890 0.281403 0.319515
O O4 0.628538 0.212231 0.064069
O O5 0.117754 0.500000 0.943302
O O6 0.062305 0.841281 0.850737
O O7 0.219299 0.767880 0.118657
O O8 0.281772 0.705461 0.015060
O O9 0.333710 0.500000 0.274538
O O10 0.465903 0.225772 0.353094
O O11 0.333219 0.225762 0.379632
O O12 0.397632 0.500000 0.523102
O O13 0.321986 0.763762 0.551278
O O14 0.524448 0.283957 0.195597
O O15 0.391993 0.000000 0.088553
O O16 0.991686 0.500000 0.626752
O O17 0.935392 0.155818 0.614927
O O18 0.000000 0.289440 0.500000
O O19 0.345532 0.000000 0.694688
#
# Coordination Sequence:
#
# PCOD9153625 Si02
#       8
#     4   4   4   4   4   4   2   4
#     4  11  22  35  51  71  96 133 172 211 254 304
#     4  11  19  30  50  74 105 139 176 216 258 304
#     4   8  16  29  48  68  92 132 177 223 263 296
#     4   9  16  31  48  64  91 131 181 224 258 298
#     4  11  20  33  46  68 102 139 177 217 253 293
#     4  10  22  40  60  81 105 134 171 212 258 313
#     4  12  21  34  54  80 106 137 165 210 262 312
#     4  11  23  32  45  69 102 139 178 216 254 300
#
# _framework density 24.127265000000001
#
# number of rings (size 3 to 8) (size 9 to 14) (size 15 to 20)
#    0.000    1.733    3.333    3.000    0.933    3.200 
#    1.200    0.667    0.000    0.000    0.000    0.000 
#    0.000    2.133    0.000   10.000    0.000    0.267 
#
# Total GULP energy -167062.171394 kJ/mol
# GULP energy per Si atom -5568.739046 kJ/mol
# Density = 2.407235 g / cm^3
# Si number density = 24.127265 Si / 1000 Ang^3
#
#
#
# Elastic Constant Matrix: (Units=GPa)
#
#
# Indices 1 2 3 4 5 6 
#
# 1 61.6525 -4.1905 20.6837 0.0000 -18.3172 0.0000
# 2 -4.1905 127.1718 23.3276 0.0000 -3.6168 0.0000
# 3 20.6837 23.3276 111.0667 0.0000 -33.2568 0.0000
# 4 0.0000 0.0000 0.0000 45.7650 0.0000 -27.9283
# 5 -18.3172 -3.6168 -33.2568 0.0000 28.0839 0.0000
# 6 0.0000 0.0000 0.0000 -27.9283 0.0000 29.8775
#
#
#
# Elastic Compliance Matrix: (Units=1/GPa)
#
#
# Indices 1 2 3 4 5 6 
#
# 1 0.020256 0.001046 0.000007 0.000000 0.013355 0.000000
# 2 0.001046 0.008275 -0.002184 0.000000 -0.000838 0.000000
# 3 0.000007 -0.002184 0.014530 0.000000 0.016930 0.000000
# 4 0.000000 0.000000 0.000000 0.050868 0.000000 0.047550
# 5 0.013355 -0.000838 0.016930 0.000000 0.064258 0.000000
# 6 0.000000 0.000000 0.000000 0.047550 0.000000 0.077918
#
#
# Mechanical properties :
#
#
# Convention : Reuss Voigt Hill
#
# Bulk Modulus (GPa) = 24.50997 42.17030 33.34013
# Shear Modulus (GPa) = 19.84386 38.08328 28.96357
#
# Velocity S-wave (km/s) = 2.87098 3.97726 3.46851
# Velocity P-wave (km/s) = 4.60116 6.21351 5.46710
#
# Compressibility (1/GPa) = 0.04079973
#
# Stress axis : x y z
#
# Youngs Moduli (GPa) = 49.36693 120.85223 68.82153
#
# Poissons Ratio (x) = -0.12642 -0.00047
# Poissons Ratio (y) = -0.05164 0.15028
# Poissons Ratio (z) = -0.00033 0.26390
#
# Static dielectric constant tensor:
#      x y z
#    x 1.981410 0.000000 0.029130 
#    y 0.000000 1.923130 0.000000 
#    z 0.029130 0.000000 2.053270 
# 
# From -- ./inp_files/69776.got.cif
#   From: 2010.05.17/outbox.cif.g08.bks.cpg/sg10_35_cif.got.tgz:69776.got - 2010.06.03 11:33:40.
