data_PCOD9153819
_publ_section_title
;
Structure prediction by ZEFSAII (Michael W. Deem and Ramdas Pophale) SiO2 
 PCOD9153819
Probable space group: P 2/M
;
_chemical_formula_sum "Si O2"
_cell_formula_units_Z 25
_cell_length_a 11.381980
_cell_length_b 8.905067
_cell_length_c 22.533685
_cell_angle_alpha 90.000000
_cell_angle_beta 143.748919
_cell_angle_gamma 90.000000
_cell_volume 1350.558401
_symmetry_space_group_name_H-M "P 2/M"
_symmetry_group_IT_number 10
_symmetry_cell_setting 'monoclinic'
loop_
_space_group_symop_operation_xyz
x,y,z
-x,y,-z
-x,-y,-z
x,-y,z
loop_
_atom_site_type_symbol
_atom_site_label
_atom_site_fract_x
_atom_site_fract_y
_atom_site_fract_z
Si Si1 0.573735 0.320963 0.698573
Si Si2 0.021924 0.322271 0.677529
Si Si3 0.842486 0.171276 0.488408
Si Si4 0.500000 0.000000 0.000000
Si Si5 0.438652 0.834406 0.853732
Si Si6 0.227839 0.180239 0.106361
Si Si7 0.687149 0.820422 0.619633
O O1 0.564742 0.500000 0.693107
O O2 0.355352 0.250090 0.615094
O O3 0.699495 0.264290 0.805540
O O4 0.655818 0.257196 0.670009
O O5 0.998678 0.500000 0.673517
O O6 0.932412 0.264194 0.579165
O O7 0.889413 0.238829 0.672856
O O8 0.251382 0.274348 0.774566
O O9 0.000000 0.165488 0.500000
O O10 0.797147 0.000000 0.489742
O O11 0.501674 0.128488 0.054241
O O12 0.623451 0.787117 0.888011
O O13 0.369797 0.000000 0.801815
O O14 0.236745 0.000000 0.120050
O O15 0.000000 0.218886 0.000000
O O16 0.500000 0.784518 0.500000
O O17 0.694452 0.000000 0.629322
#
# Coordination Sequence:
#
# PCOD9153819 Si02
#       7
#     4   4   4   1   4   4   4
#     4  12  25  40  62  94 133 170 209 268 335 391
#     4  12  24  38  62  96 132 168 205 265 336 390
#     4  11  23  39  61  89 125 170 220 262 309 387
#     4   8  20  40  68  92 120 176 224 276 314 364
#     4   9  20  41  66  93 127 164 219 269 314 380
#     4  10  22  42  67  95 126 168 225 273 318 379
#     4  11  23  41  65  91 128 175 222 262 313 390
#
# _framework density 18.510863000000001
#
# number of rings (size 3 to 8) (size 9 to 14) (size 15 to 20)
#    0.480    0.800    1.600    4.800    0.000    8.000 
#    0.000    0.400    0.000    0.000    0.000    0.000 
#    0.000    0.000    0.000    0.000    0.000    0.000 
#
# Total GULP energy -139388.133739 kJ/mol
# GULP energy per Si atom -5575.525350 kJ/mol
# Density = 1.846873 g / cm^3
# Si number density = 18.510863 Si / 1000 Ang^3
#
#
#
# Elastic Constant Matrix: (Units=GPa)
#
#
# Indices 1 2 3 4 5 6 
#
# 1 102.8600 38.8862 60.5450 0.0000 11.2019 0.0000
# 2 38.8862 67.0505 43.5366 0.0000 7.9473 0.0000
# 3 60.5450 43.5366 99.1901 0.0000 3.6530 0.0000
# 4 0.0000 0.0000 0.0000 5.3314 0.0000 -54.2028
# 5 11.2019 7.9473 3.6530 0.0000 33.2313 0.0000
# 6 0.0000 0.0000 0.0000 -54.2028 0.0000 39.1703
#
#
#
# Elastic Compliance Matrix: (Units=1/GPa)
#
#
# Indices 1 2 3 4 5 6 
#
# 1 0.016375 -0.003712 -0.008228 0.000000 -0.003727 0.000000
# 2 -0.003712 0.022243 -0.007377 0.000000 -0.003257 0.000000
# 3 -0.008228 -0.007377 0.018249 0.000000 0.002532 0.000000
# 4 0.000000 0.000000 0.000000 -0.014353 0.000000 -0.019861
# 5 -0.003727 -0.003257 0.002532 0.000000 0.031849 0.000000
# 6 0.000000 0.000000 0.000000 -0.019861 0.000000 -0.001954
#
#
# Mechanical properties :
#
#
# Convention : Reuss Voigt Hill
#
# Bulk Modulus (GPa) = 54.85017 61.67069 58.26043
# Shear Modulus (GPa) = 42.69052 23.95545 33.32298
#
# Velocity S-wave (km/s) = 4.80754 3.60130 4.24746
# Velocity P-wave (km/s) = 7.77897 7.11904 7.45631
#
# Compressibility (1/GPa) = 0.01823148
#
# Stress axis : x y z
#
# Youngs Moduli (GPa) = 61.07037 44.95775 54.79734
#
# Poissons Ratio (x) = 0.16688 0.45090
# Poissons Ratio (y) = 0.22668 0.40426
# Poissons Ratio (z) = 0.50251 0.33167
#
# Static dielectric constant tensor:
#      x y z
#    x 1.685240 0.000000 0.012720 
#    y 0.000000 1.626940 0.000000 
#    z 0.012720 0.000000 1.616380 
# 
# From -- ./inp_files/88760.got.cif
#   From: 2010.05.17/outbox.cif.g08.bks.cpg/sg10_45_cif.got.tgz:88760.got - 2010.06.03 11:33:40.
