data_PCOD9153458
_publ_section_title
;
Structure prediction by ZEFSAII (Michael W. Deem and Ramdas Pophale) SiO2 
 PCOD9153458
Probable space group: P 2/M
;
_chemical_formula_sum "Si O2"
_cell_formula_units_Z 28
_cell_length_a 9.658489
_cell_length_b 13.356709
_cell_length_c 11.699401
_cell_angle_alpha 90.000000
_cell_angle_beta 120.693652
_cell_angle_gamma 90.000000
_cell_volume 1297.850562
_symmetry_space_group_name_H-M "P 2/M"
_symmetry_group_IT_number 10
_symmetry_cell_setting 'monoclinic'
loop_
_space_group_symop_operation_xyz
x,y,z
-x,y,-z
-x,-y,-z
x,-y,z
loop_
_atom_site_type_symbol
_atom_site_label
_atom_site_fract_x
_atom_site_fract_y
_atom_site_fract_z
Si Si1 0.656798 0.888633 0.986447
Si Si2 0.854698 0.247077 0.666279
Si Si3 0.448883 0.383519 0.109335
Si Si4 0.110309 0.293047 0.936950
Si Si5 0.666146 0.752007 0.367066
Si Si6 0.098847 0.109985 0.658076
Si Si7 0.602690 0.884469 0.692697
O O1 0.614489 0.883160 0.835120
O O2 0.721823 0.000000 0.029690
O O3 0.500000 0.876984 0.000000
O O4 0.788889 0.804273 0.059697
O O5 0.780489 0.290348 0.516771
O O6 0.719990 0.200515 0.692349
O O7 0.980722 0.319704 0.784084
O O8 0.962712 0.149547 0.684427
O O9 0.487950 0.500000 0.141093
O O10 0.543695 0.320848 0.247428
O O11 0.500000 0.355450 0.000000
O O12 0.255742 0.367160 0.031230
O O13 0.000000 0.270061 0.000000
O O14 0.769139 0.806165 0.312395
O O15 0.575729 0.840895 0.398820
O O16 0.000000 0.103294 0.500000
O O17 0.168029 0.000000 0.708056
O O18 0.626089 0.000000 0.664592
#
# Coordination Sequence:
#
# PCOD9153458 Si02
#       7
#     4   4   4   4   4   4   4
#     4  10  22  38  59  91 133 182 230 271 311 375
#     4  11  23  37  60  91 135 175 212 266 320 376
#     4  11  25  47  74  97 122 163 216 272 336 410
#     4  12  23  42  64  95 131 167 212 270 333 399
#     4  11  22  41  64  92 126 171 221 271 319 384
#     4   9  19  34  55  87 127 171 213 252 306 373
#     4  11  22  37  60  93 133 181 226 262 309 376
#
# _framework density 21.574131000000001
#
# number of rings (size 3 to 8) (size 9 to 14) (size 15 to 20)
#    0.000    1.286    2.857    2.571    2.000    4.000 
#    0.000    0.714    0.000   10.286    0.000    0.000 
#    0.000    0.000    0.000    0.000    0.000    0.000 
#
# Total GULP energy -156188.669826 kJ/mol
# GULP energy per Si atom -5578.166780 kJ/mol
# Density = 2.152503 g / cm^3
# Si number density = 21.574131 Si / 1000 Ang^3
#
#
#
# Elastic Constant Matrix: (Units=GPa)
#
#
# Indices 1 2 3 4 5 6 
#
# 1 110.1156 8.1833 9.8574 0.0000 -7.7883 0.0000
# 2 8.1833 78.2432 29.0128 0.0000 5.9346 0.0000
# 3 9.8574 29.0128 166.6434 0.0000 13.2417 0.0000
# 4 0.0000 0.0000 0.0000 25.3394 0.0000 -2.9026
# 5 -7.7883 5.9346 13.2417 0.0000 29.5059 0.0000
# 6 0.0000 0.0000 0.0000 -2.9026 0.0000 14.7847
#
#
#
# Elastic Compliance Matrix: (Units=1/GPa)
#
#
# Indices 1 2 3 4 5 6 
#
# 1 0.009419 -0.000979 -0.000622 0.000000 0.002962 0.000000
# 2 -0.000979 0.013851 -0.002190 0.000000 -0.002062 0.000000
# 3 -0.000622 -0.002190 0.006633 0.000000 -0.002701 0.000000
# 4 0.000000 0.000000 0.000000 0.040372 0.000000 0.007926
# 5 0.002962 -0.002062 -0.002701 0.000000 0.036300 0.000000
# 6 0.000000 0.000000 0.000000 0.007926 0.000000 0.069194
#
#
# Mechanical properties :
#
#
# Convention : Reuss Voigt Hill
#
# Bulk Modulus (GPa) = 44.79862 49.90102 47.34982
# Shear Modulus (GPa) = 26.20642 34.45593 30.33118
#
# Velocity S-wave (km/s) = 3.48906 4.00070 3.75361
# Velocity P-wave (km/s) = 6.08617 6.67241 6.38602
#
# Compressibility (1/GPa) = 0.02232212
#
# Stress axis : x y z
#
# Youngs Moduli (GPa) = 106.16448 72.19471 150.75023
#
# Poissons Ratio (x) = 0.07069 0.09378
# Poissons Ratio (y) = 0.10395 0.33011
# Poissons Ratio (z) = 0.06605 0.15809
#
# Static dielectric constant tensor:
#      x y z
#    x 1.819530 0.000000 -0.022700 
#    y 0.000000 1.756640 0.000000 
#    z -0.022700 0.000000 1.933930 
# 
# From -- ./inp_files/43022.got.cif
#   From: 2010.05.17/outbox.cif.g08.bks.cpg/sg10_22_cif.got.tgz:43022.got - 2010.06.03 11:33:40.
