data_PCOD9153738
_publ_section_title
;
Structure prediction by ZEFSAII (Michael W. Deem and Ramdas Pophale) SiO2 
 PCOD9153738
Probable space group: P 2/M
;
_chemical_formula_sum "Si O2"
_cell_formula_units_Z 24
_cell_length_a 12.502149
_cell_length_b 8.342977
_cell_length_c 11.728980
_cell_angle_alpha 90.000000
_cell_angle_beta 69.378829
_cell_angle_gamma 90.000000
_cell_volume 1145.009480
_symmetry_space_group_name_H-M "P 2/M"
_symmetry_group_IT_number 10
_symmetry_cell_setting 'monoclinic'
loop_
_space_group_symop_operation_xyz
x,y,z
-x,y,-z
-x,-y,-z
x,-y,z
loop_
_atom_site_type_symbol
_atom_site_label
_atom_site_fract_x
_atom_site_fract_y
_atom_site_fract_z
Si Si1 0.973951 0.813153 0.694683
Si Si2 0.228804 0.687539 0.609171
Si Si3 0.107010 0.686911 0.043354
Si Si4 0.461284 0.804940 0.139365
Si Si5 0.313246 0.189686 0.816139
Si Si6 0.757318 0.806240 0.644269
O O1 0.884354 0.753902 0.633680
O O2 0.092740 0.721368 0.661051
O O3 0.000894 0.000000 0.662867
O O4 0.908059 0.793944 0.839247
O O5 0.249334 0.500000 0.613001
O O6 0.285271 0.773635 0.695835
O O7 0.271512 0.749790 0.471388
O O8 0.103122 0.500000 0.078281
O O9 0.220901 0.723327 0.930467
O O10 0.000000 0.718047 0.000000
O O11 0.560047 0.762874 0.192263
O O12 0.338343 0.749484 0.230301
O O13 0.455526 0.000000 0.136127
O O14 0.500000 0.748409 0.000000
O O15 0.300779 0.000000 0.840879
O O16 0.758795 0.000000 0.645824
#
# Coordination Sequence:
#
# PCOD9153738 Si02
#       6
#     4   4   4   4   4   4
#     4  11  22  38  64  92 119 157 205 253 299 355
#     4  12  25  40  58  86 126 164 200 247 304 361
#     4  11  22  36  57  88 125 160 193 240 300 356
#     4   9  19  39  66  94 120 149 194 252 304 350
#     4  11  22  38  64  92 120 158 204 251 297 352
#     4  10  22  41  64  90 120 156 203 252 299 355
#
# _framework density 20.960525000000001
#
# number of rings (size 3 to 8) (size 9 to 14) (size 15 to 20)
#    0.000    1.333    1.667    4.500    0.000    7.333 
#    0.000    5.000    0.000    3.500    0.000    0.000 
#    0.000    0.000    0.000    0.000    0.000    0.000 
#
# Total GULP energy -134237.879937 kJ/mol
# GULP energy per Si atom -5593.244997 kJ/mol
# Density = 2.091282 g / cm^3
# Si number density = 20.960525 Si / 1000 Ang^3
#
#
#
# Elastic Constant Matrix: (Units=GPa)
#
#
# Indices 1 2 3 4 5 6 
#
# 1 98.3713 6.7904 21.4163 0.0000 2.1681 0.0000
# 2 6.7904 15.5681 -10.9559 0.0000 -1.3351 0.0000
# 3 21.4163 -10.9559 98.4736 0.0000 4.6423 0.0000
# 4 0.0000 0.0000 0.0000 -3.4520 0.0000 9.3088
# 5 2.1681 -1.3351 4.6423 0.0000 26.0863 0.0000
# 6 0.0000 0.0000 0.0000 9.3088 0.0000 -48.4459
#
#
#
# Elastic Compliance Matrix: (Units=1/GPa)
#
#
# Indices 1 2 3 4 5 6 
#
# 1 0.011397 -0.007328 -0.003259 0.000000 -0.000742 0.000000
# 2 -0.007328 0.074529 0.009759 0.000000 0.002687 0.000000
# 3 -0.003259 0.009759 0.012014 0.000000 -0.001368 0.000000
# 4 0.000000 0.000000 0.000000 -0.601181 0.000000 -0.115515
# 5 -0.000742 0.002687 -0.001368 0.000000 0.038777 0.000000
# 6 0.000000 0.000000 0.000000 -0.115515 0.000000 -0.042837
#
#
# Mechanical properties :
#
#
# Convention : Reuss Voigt Hill
#
# Bulk Modulus (GPa) = 10.38607 27.43496 18.91052
# Shear Modulus (GPa) = -10.55853 7.84848 -1.35502
#
# Velocity S-wave (km/s) = -2.24684 1.93715 -0.80490
# Velocity P-wave (km/s) = 1.32861 4.25684 2.85967
#
# Compressibility (1/GPa) = 0.09628279
#
# Stress axis : x y z
#
# Youngs Moduli (GPa) = 87.73993 13.41769 83.23610
#
# Poissons Ratio (x) = 0.09833 0.27127
# Poissons Ratio (y) = 0.64299 -0.81230
# Poissons Ratio (z) = 0.28595 -0.13094
#
# Static dielectric constant tensor:
#      x y z
#    x 1.739340 0.000000 -0.001640 
#    y 0.000000 1.709670 0.000000 
#    z -0.001640 0.000000 1.744350 
# 
# From -- ./inp_files/45016.got.cif
#   From: 2010.05.17/outbox.cif.g08.bks.cpg/sg10_23_cif.got.tgz:45016.got - 2010.06.03 11:33:40.
