data_PCOD9153038
_publ_section_title
;
Structure prediction by ZEFSAII (Michael W. Deem and Ramdas Pophale) SiO2 
 PCOD9153038
Probable space group: P 2/M
;
_chemical_formula_sum "Si O2"
_cell_formula_units_Z 24
_cell_length_a 11.698719
_cell_length_b 9.146897
_cell_length_c 21.960650
_cell_angle_alpha 90.000000
_cell_angle_beta 30.632597
_cell_angle_gamma 90.000000
_cell_volume 1197.368770
_symmetry_space_group_name_H-M "P 2/M"
_symmetry_group_IT_number 10
_symmetry_cell_setting 'monoclinic'
loop_
_space_group_symop_operation_xyz
x,y,z
-x,y,-z
-x,-y,-z
x,-y,z
loop_
_atom_site_type_symbol
_atom_site_label
_atom_site_fract_x
_atom_site_fract_y
_atom_site_fract_z
Si Si1 0.032847 0.828870 0.556151
Si Si2 0.826694 0.672947 0.762120
Si Si3 0.730151 0.669699 0.119850
Si Si4 0.063905 0.172645 0.759123
Si Si5 0.377094 0.827432 0.956354
Si Si6 0.558755 0.827527 0.318893
O O1 0.295214 0.811274 0.451158
O O2 0.000000 0.795605 0.500000
O O3 0.888356 0.728931 0.666550
O O4 0.971167 0.000000 0.593506
O O5 0.812479 0.500000 0.771467
O O6 0.013193 0.734663 0.722693
O O7 0.589206 0.745759 0.887773
O O8 0.665073 0.500000 0.141651
O O9 0.655269 0.763607 0.096286
O O10 0.629501 0.735056 0.227777
O O11 0.000000 0.676924 0.000000
O O12 0.286950 0.211949 0.694260
O O13 0.073345 0.000000 0.739120
O O14 0.852440 0.194995 0.901265
O O15 0.422782 0.000000 0.933669
O O16 0.602394 0.000000 0.285931
#
# Coordination Sequence:
#
# PCOD9153038 Si02
#       6
#     4   4   4   4   4   4
#     4  10  22  42  67  92 119 156 204 254 302 358
#     4  12  26  41  61  89 124 162 201 251 313 373
#     4  11  22  35  57  92 131 163 194 243 306 364
#     4  10  22  40  62  89 121 161 208 255 303 358
#     4  11  22  39  64  89 121 163 210 257 299 357
#     4  10  21  39  64  92 122 162 211 257 298 352
#
# _framework density 20.043949000000001
#
# number of rings (size 3 to 8) (size 9 to 14) (size 15 to 20)
#    0.000    1.333    1.667    4.000    0.000    7.667 
#    0.000    3.333    0.000    0.000    0.000    0.000 
#    0.000    0.000    0.000    0.000    0.000    0.000 
#
# Total GULP energy -134283.136199 kJ/mol
# GULP energy per Si atom -5595.130675 kJ/mol
# Density = 1.999833 g / cm^3
# Si number density = 20.043949 Si / 1000 Ang^3
#
#
#
# Elastic Constant Matrix: (Units=GPa)
#
#
# Indices 1 2 3 4 5 6 
#
# 1 112.0116 48.9120 26.2856 0.0000 -12.5484 0.0000
# 2 48.9120 90.0274 36.9745 0.0000 2.9802 0.0000
# 3 26.2856 36.9745 50.3073 0.0000 -11.4061 0.0000
# 4 0.0000 0.0000 0.0000 14.6387 0.0000 18.2176
# 5 -12.5484 2.9802 -11.4061 0.0000 26.1852 0.0000
# 6 0.0000 0.0000 0.0000 18.2176 0.0000 -104.4523
#
#
#
# Elastic Compliance Matrix: (Units=1/GPa)
#
#
# Indices 1 2 3 4 5 6 
#
# 1 0.012865 -0.007346 0.000294 0.000000 0.007129 0.000000
# 2 -0.007346 0.021622 -0.014879 0.000000 -0.012463 0.000000
# 3 0.000294 -0.014879 0.034481 0.000000 0.016854 0.000000
# 4 0.000000 0.000000 0.000000 0.056129 0.000000 0.009790
# 5 0.007129 -0.012463 0.016854 0.000000 0.050366 0.000000
# 6 0.000000 0.000000 0.000000 0.009790 0.000000 -0.007866
#
#
# Mechanical properties :
#
#
# Convention : Reuss Voigt Hill
#
# Bulk Modulus (GPa) = 39.83173 52.96562 46.39868
# Shear Modulus (GPa) = 22.74487 -3.38075 9.68206
#
# Velocity S-wave (km/s) = 3.37226 -1.30013 2.20020
# Velocity P-wave (km/s) = 5.92268 4.92223 5.44548
#
# Compressibility (1/GPa) = 0.02510561
#
# Stress axis : x y z
#
# Youngs Moduli (GPa) = 77.72820 46.24829 29.00119
#
# Poissons Ratio (x) = 0.33976 -0.00852
# Poissons Ratio (y) = 0.57102 0.43151
# Poissons Ratio (z) = -0.02282 0.68813
#
# Static dielectric constant tensor:
#      x y z
#    x 1.708470 0.000000 -0.018400 
#    y 0.000000 1.668320 0.000000 
#    z -0.018400 0.000000 1.695560 
# 
# From -- ./inp_files/45252.got.cif
#   From: 2010.05.17/outbox.cif.g08.bks.cpg/sg10_23_cif.got.tgz:45252.got - 2010.06.03 11:33:40.
