data_PCOD9153409
_publ_section_title
;
Structure prediction by ZEFSAII (Michael W. Deem and Ramdas Pophale) SiO2 
 PCOD9153409
Probable space group: P 2/M
;
_chemical_formula_sum "Si O2"
_cell_formula_units_Z 24
_cell_length_a 10.950092
_cell_length_b 22.091615
_cell_length_c 14.403157
_cell_angle_alpha 90.000000
_cell_angle_beta 161.803514
_cell_angle_gamma 90.000000
_cell_volume 1088.033952
_symmetry_space_group_name_H-M "P 2/M"
_symmetry_group_IT_number 10
_symmetry_cell_setting 'monoclinic'
loop_
_space_group_symop_operation_xyz
x,y,z
-x,y,-z
-x,-y,-z
x,-y,z
loop_
_atom_site_type_symbol
_atom_site_label
_atom_site_fract_x
_atom_site_fract_y
_atom_site_fract_z
Si Si1 0.423413 0.250294 0.342413
Si Si2 0.462684 0.000000 0.863600
Si Si3 0.610256 0.749169 0.280217
Si Si4 0.423718 0.895406 0.342009
Si Si5 0.540958 0.500000 0.141108
Si Si6 0.460863 0.368914 0.860652
Si Si7 0.393580 0.116544 0.724481
O O1 0.500000 0.274927 0.500000
O O2 0.699961 0.262277 0.453347
O O3 0.410889 0.177496 0.341909
O O4 0.000000 0.270449 0.000000
O O5 0.627605 0.061740 0.939497
O O6 0.000000 0.000000 0.500000
O O7 0.500000 0.000000 0.000000
O O8 0.383643 0.691521 0.076384
O O9 0.415518 0.816252 0.134787
O O10 0.000000 0.753272 0.500000
O O11 0.500000 0.919890 0.500000
O O12 0.687940 0.902803 0.440479
O O13 0.000000 0.916316 0.000000
O O14 0.374441 0.434601 0.051024
O O15 0.000000 0.500000 0.500000
O O16 0.500000 0.500000 0.000000
O O17 0.000000 0.370786 0.500000
O O18 0.500000 0.363501 0.000000
O O19 0.000000 0.122342 0.500000
#
# Coordination Sequence:
#
# PCOD9153409 Si02
#       7
#     4   2   4   4   2   4   4
#     4   9  18  32  48  68  99 136 165 194 246 308
#     4  10  22  38  54  74 102 136 169 202 251 310
#     4   9  18  32  53  80 104 128 168 218 253 285
#     4   9  18  33  52  74 100 128 161 204 251 297
#     4   8  14  26  42  62  96 134 158 188 245 304
#     4   9  17  28  44  70 101 129 160 202 250 293
#     4   9  19  36  56  77 102 134 171 209 251 301
#
# _framework density 22.058133999999999
#
# number of rings (size 3 to 8) (size 9 to 14) (size 15 to 20)
#    0.000    3.000    0.000    0.000    0.000    6.000 
#    0.000   10.833    0.000    0.000    0.000    1.167 
#    0.000    0.000    0.000    0.000    0.000    0.000 
#
# Total GULP energy -133686.808698 kJ/mol
# GULP energy per Si atom -5570.283696 kJ/mol
# Density = 2.200793 g / cm^3
# Si number density = 22.058134 Si / 1000 Ang^3
#
#
#
# Elastic Constant Matrix: (Units=GPa)
#
#
# Indices 1 2 3 4 5 6 
#
# 1 199.0274 33.3878 68.8701 0.0000 -34.6102 0.0000
# 2 33.3878 190.8446 5.8553 0.0000 -30.9952 0.0000
# 3 68.8701 5.8553 93.1762 0.0000 -39.4812 0.0000
# 4 0.0000 0.0000 0.0000 3.6446 0.0000 -7.2395
# 5 -34.6102 -30.9952 -39.4812 0.0000 48.8917 0.0000
# 6 0.0000 0.0000 0.0000 -7.2395 0.0000 3.0921
#
#
#
# Elastic Compliance Matrix: (Units=1/GPa)
#
#
# Indices 1 2 3 4 5 6 
#
# 1 0.006961 -0.001022 -0.004967 0.000000 0.000269 0.000000
# 2 -0.001022 0.006203 0.002623 0.000000 0.005327 0.000000
# 3 -0.004967 0.002623 0.020451 0.000000 0.014661 0.000000
# 4 0.000000 0.000000 0.000000 -0.075161 0.000000 -0.175971
# 5 0.000269 0.005327 0.014661 0.000000 0.035860 0.000000
# 6 0.000000 0.000000 0.000000 -0.175971 0.000000 -0.088590
#
#
# Mechanical properties :
#
#
# Convention : Reuss Voigt Hill
#
# Bulk Modulus (GPa) = 37.19749 77.69716 57.44733
# Shear Modulus (GPa) = -63.62866 36.12136 -13.75365
#
# Velocity S-wave (km/s) = -5.37666 4.05106 -2.49974
# Velocity P-wave (km/s) = 4.65238 7.56186 4.21527
#
# Compressibility (1/GPa) = 0.02688353
#
# Stress axis : x y z
#
# Youngs Moduli (GPa) = 143.64777 161.20300 48.89628
#
# Poissons Ratio (x) = 0.16472 0.24288
# Poissons Ratio (y) = 0.14678 -0.12824
# Poissons Ratio (z) = 0.71354 -0.42279
#
# Static dielectric constant tensor:
#      x y z
#    x 1.824460 0.000000 0.029510 
#    y 0.000000 1.925740 0.000000 
#    z 0.029510 0.000000 1.891740 
# 
# From -- ./inp_files/43724.got.cif
#   From: 2010.05.17/outbox.cif.g08.bks.cpg/sg10_22_cif.got.tgz:43724.got - 2010.06.03 11:33:40.
