data_PCOD9153107
_publ_section_title
;
Structure prediction by ZEFSAII (Michael W. Deem and Ramdas Pophale) SiO2 
 PCOD9153107
Probable space group: P 2/M
;
_chemical_formula_sum "Si O2"
_cell_formula_units_Z 28
_cell_length_a 21.723827
_cell_length_b 14.756852
_cell_length_c 9.321126
_cell_angle_alpha 90.000000
_cell_angle_beta 31.570605
_cell_angle_gamma 90.000000
_cell_volume 1564.428288
_symmetry_space_group_name_H-M "P 2/M"
_symmetry_group_IT_number 10
_symmetry_cell_setting 'monoclinic'
loop_
_space_group_symop_operation_xyz
x,y,z
-x,y,-z
-x,-y,-z
x,-y,z
loop_
_atom_site_type_symbol
_atom_site_label
_atom_site_fract_x
_atom_site_fract_y
_atom_site_fract_z
Si Si1 0.371603 0.606710 0.692521
Si Si2 0.417845 0.894406 0.877833
Si Si3 0.238338 0.606483 0.247934
Si Si4 0.978478 0.394968 0.871444
Si Si5 0.239880 0.266372 0.747668
Si Si6 0.627192 0.739434 0.807802
Si Si7 0.682788 0.105768 0.230205
O O1 0.500000 0.628480 0.500000
O O2 0.370315 0.500000 0.657147
O O3 0.337359 0.669863 0.629546
O O4 0.278988 0.622833 0.004597
O O5 0.340191 0.871892 0.891262
O O6 0.554092 0.885023 0.559935
O O7 0.398611 0.000000 0.950404
O O8 0.390585 0.829304 0.062675
O O9 0.257842 0.500000 0.238557
O O10 0.316816 0.664597 0.199746
O O11 0.101390 0.624640 0.548627
O O12 0.944378 0.500000 0.908100
O O13 0.877900 0.325403 0.026633
O O14 0.000000 0.388821 0.000000
O O15 0.285944 0.244433 0.497674
O O16 0.233419 0.176020 0.856220
O O17 0.500000 0.711582 0.000000
O O18 0.716991 0.000000 0.172843
#
# Coordination Sequence:
#
# PCOD9153107 Si02
#       7
#     4   4   4   4   4   4   4
#     4  10  22  38  56  84 121 153 187 238 296 349
#     4   9  19  36  56  80 115 153 187 229 292 358
#     4  10  22  40  59  79 114 160 199 237 283 339
#     4  10  21  40  60  80 114 157 204 245 278 329
#     4  12  22  33  59  85 115 150 194 242 289 338
#     4  12  22  32  53  87 118 148 189 236 295 351
#     4   9  19  36  58  82 112 151 190 238 293 351
#
# _framework density 17.897912999999999
#
# number of rings (size 3 to 8) (size 9 to 14) (size 15 to 20)
#    0.000    1.714    2.857    3.000    2.000    2.286 
#    0.000    2.143    0.000    1.286    0.000    3.000 
#    0.000    0.000    0.000    0.000    0.000    0.000 
#
# Total GULP energy -156433.841146 kJ/mol
# GULP energy per Si atom -5586.922898 kJ/mol
# Density = 1.785718 g / cm^3
# Si number density = 17.897913 Si / 1000 Ang^3
#
#
#
# Elastic Constant Matrix: (Units=GPa)
#
#
# Indices 1 2 3 4 5 6 
#
# 1 73.1702 63.7164 22.5694 0.0000 3.8790 0.0000
# 2 63.7164 87.6018 34.6530 0.0000 -6.8144 0.0000
# 3 22.5694 34.6530 78.2733 0.0000 5.8602 0.0000
# 4 0.0000 0.0000 0.0000 25.6108 0.0000 2.8376
# 5 3.8790 -6.8144 5.8602 0.0000 22.1173 0.0000
# 6 0.0000 0.0000 0.0000 2.8376 0.0000 40.7692
#
#
#
# Elastic Compliance Matrix: (Units=1/GPa)
#
#
# Indices 1 2 3 4 5 6 
#
# 1 0.044258 -0.035493 0.004440 0.000000 -0.019874 0.000000
# 2 -0.035493 0.043132 -0.010531 0.000000 0.022304 0.000000
# 3 0.004440 -0.010531 0.016792 0.000000 -0.008473 0.000000
# 4 0.000000 0.000000 0.000000 0.039350 0.000000 -0.002739
# 5 -0.019874 0.022304 -0.008473 0.000000 0.057816 0.000000
# 6 0.000000 0.000000 0.000000 -0.002739 0.000000 0.024719
#
#
# Mechanical properties :
#
#
# Convention : Reuss Voigt Hill
#
# Bulk Modulus (GPa) = 47.58793 53.43590 50.51191
# Shear Modulus (GPa) = 15.81080 25.57321 20.69201
#
# Velocity S-wave (km/s) = 2.97541 3.78410 3.40385
# Velocity P-wave (km/s) = 6.20083 7.00095 6.61300
#
# Compressibility (1/GPa) = 0.02101373
#
# Stress axis : x y z
#
# Youngs Moduli (GPa) = 22.59467 23.18477 59.55174
#
# Poissons Ratio (x) = 0.82290 -0.26441
# Poissons Ratio (y) = 0.80196 0.62714
# Poissons Ratio (z) = -0.10032 0.24416
#
# Static dielectric constant tensor:
#      x y z
#    x 1.602540 0.000000 0.010560 
#    y 0.000000 1.610910 0.000000 
#    z 0.010560 0.000000 1.609080 
# 
# From -- ./inp_files/25436.got.cif
#   From: 2010.05.17/outbox.cif.g08.bks.cpg/sg10_13_cif.got.tgz:25436.got - 2010.06.03 11:33:40.
