data_PCOD9153857
_publ_section_title
;
Structure prediction by ZEFSAII (Michael W. Deem and Ramdas Pophale) SiO2 
 PCOD9153857
Probable space group: P 2/M
;
_chemical_formula_sum "Si O2"
_cell_formula_units_Z 20
_cell_length_a 8.548113
_cell_length_b 10.745007
_cell_length_c 11.250757
_cell_angle_alpha 90.000000
_cell_angle_beta 55.632822
_cell_angle_gamma 90.000000
_cell_volume 852.987441
_symmetry_space_group_name_H-M "P 2/M"
_symmetry_group_IT_number 10
_symmetry_cell_setting 'monoclinic'
loop_
_space_group_symop_operation_xyz
x,y,z
-x,y,-z
-x,-y,-z
x,-y,z
loop_
_atom_site_type_symbol
_atom_site_label
_atom_site_fract_x
_atom_site_fract_y
_atom_site_fract_z
Si Si1 0.720254 0.132866 0.366874
Si Si2 0.797251 0.748390 0.567343
Si Si3 0.284534 0.142994 0.142084
Si Si4 0.599613 0.363902 0.276803
Si Si5 0.847193 0.362284 0.958502
O O1 0.500000 0.124421 0.500000
O O2 0.827025 0.158757 0.443737
O O3 0.717835 0.252799 0.284857
O O4 0.772701 0.000000 0.289132
O O5 0.728063 0.822128 0.713597
O O6 0.622236 0.660127 0.608784
O O7 0.000000 0.685672 0.500000
O O8 0.223785 0.000000 0.149676
O O9 0.500000 0.151333 0.000000
O O10 0.160671 0.245648 0.125092
O O11 0.653534 0.500000 0.300073
O O12 0.649160 0.362158 0.116259
O O13 0.869160 0.500000 0.892515
O O14 0.000000 0.354617 0.000000
#
# Coordination Sequence:
#
# PCOD9153857 Si02
#       5
#     4   4   4   4   4
#     4   9  20  38  62  89 124 169 210 258 321 382
#     4  11  24  41  63  98 137 172 211 265 331 385
#     4  11  24  43  69  99 130 169 220 272 321 385
#     4  10  22  43  67  94 130 172 219 271 320 378
#     4  10  23  44  69  95 128 172 218 268 328 388
#
# _framework density 23.447004
#
# number of rings (size 3 to 8) (size 9 to 14) (size 15 to 20)
#    0.000    1.800    2.000    0.600    2.800    8.800 
#    0.000    0.000    0.000    0.000    0.000    0.000 
#    0.000    0.000    0.000    0.000    0.000    0.000 
#
# Total GULP energy -111743.323675 kJ/mol
# GULP energy per Si atom -5587.166184 kJ/mol
# Density = 2.339364 g / cm^3
# Si number density = 23.447004 Si / 1000 Ang^3
#
#
#
# Elastic Constant Matrix: (Units=GPa)
#
#
# Indices 1 2 3 4 5 6 
#
# 1 85.2571 47.0233 13.5178 0.0000 -7.6958 0.0000
# 2 47.0233 245.6530 56.2034 0.0000 35.6393 0.0000
# 3 13.5178 56.2034 79.9285 0.0000 1.9799 0.0000
# 4 0.0000 0.0000 0.0000 -7.6830 0.0000 54.2821
# 5 -7.6958 35.6393 1.9799 0.0000 41.7091 0.0000
# 6 0.0000 0.0000 0.0000 54.2821 0.0000 -48.1278
#
#
#
# Elastic Compliance Matrix: (Units=1/GPa)
#
#
# Indices 1 2 3 4 5 6 
#
# 1 0.014187 -0.003517 -0.000066 0.000000 0.005626 0.000000
# 2 -0.003517 0.006490 -0.003820 0.000000 -0.006013 0.000000
# 3 -0.000066 -0.003820 0.015146 0.000000 0.002533 0.000000
# 4 0.000000 0.000000 0.000000 0.018678 0.000000 0.021066
# 5 0.005626 -0.006013 0.002533 0.000000 0.030032 0.000000
# 6 0.000000 0.000000 0.000000 0.021066 0.000000 0.002982
#
#
# Mechanical properties :
#
#
# Convention : Reuss Voigt Hill
#
# Bulk Modulus (GPa) = 47.57868 71.59192 59.58530
# Shear Modulus (GPa) = 45.73485 16.78594 31.26039
#
# Velocity S-wave (km/s) = 4.42131 2.67855 3.65531
# Velocity P-wave (km/s) = 6.81176 6.33766 6.57898
#
# Compressibility (1/GPa) = 0.02101782
#
# Stress axis : x y z
#
# Youngs Moduli (GPa) = 70.48600 154.07265 66.02505
#
# Poissons Ratio (x) = 0.54186 0.00434
# Poissons Ratio (y) = 0.24789 0.25223
# Poissons Ratio (z) = 0.00464 0.58858
#
# Static dielectric constant tensor:
#      x y z
#    x 1.924450 0.000000 -0.032600 
#    y 0.000000 1.892990 0.000000 
#    z -0.032600 0.000000 1.884910 
# 
# From -- ./inp_files/41615.got.cif
#   From: 2010.05.17/outbox.cif.g08.bks.cpg/sg10_21_cif.got.tgz:41615.got - 2010.06.03 11:33:40.
