data_PCOD9153142
_publ_section_title
;
Structure prediction by ZEFSAII (Michael W. Deem and Ramdas Pophale) SiO2 
 PCOD9153142
Probable space group: P 2/M
;
_chemical_formula_sum "Si O2"
_cell_formula_units_Z 28
_cell_length_a 9.007110
_cell_length_b 17.928055
_cell_length_c 15.930877
_cell_angle_alpha 90.000000
_cell_angle_beta 32.194679
_cell_angle_gamma 90.000000
_cell_volume 1370.631344
_symmetry_space_group_name_H-M "P 2/M"
_symmetry_group_IT_number 10
_symmetry_cell_setting 'monoclinic'
loop_
_space_group_symop_operation_xyz
x,y,z
-x,y,-z
-x,-y,-z
x,-y,z
loop_
_atom_site_type_symbol
_atom_site_label
_atom_site_fract_x
_atom_site_fract_y
_atom_site_fract_z
Si Si1 0.179893 0.086531 0.154744
Si Si2 0.860585 0.584698 0.650924
Si Si3 0.244663 0.625525 0.945775
Si Si4 0.762634 0.085357 0.682861
Si Si5 0.316957 0.792781 0.844942
Si Si6 0.173361 0.330113 0.158690
Si Si7 0.744542 0.799046 0.316210
O O1 0.102884 0.092818 0.289666
O O2 0.950173 0.130160 0.212731
O O3 0.187807 0.000000 0.125978
O O4 0.500000 0.114568 0.000000
O O5 0.965115 0.500000 0.612178
O O6 0.530400 0.583779 0.793312
O O7 0.892314 0.630914 0.721498
O O8 0.000000 0.617168 0.500000
O O9 0.310865 0.713771 0.896616
O O10 0.155619 0.617150 0.085153
O O11 0.000000 0.604536 0.000000
O O12 0.528850 0.147638 0.781158
O O13 0.000000 0.094223 0.500000
O O14 0.651309 0.000000 0.730744
O O15 0.375243 0.779992 0.718259
O O16 0.000000 0.821063 0.000000
O O17 0.952835 0.265259 0.248336
O O18 0.500000 0.305576 0.000000
O O19 0.500000 0.810720 0.500000
#
# Coordination Sequence:
#
# PCOD9153142 Si02
#       7
#     4   4   4   4   4   4   4
#     4  10  22  39  59  83 116 162 212 255 305 369
#     4  10  24  43  67  98 126 160 201 245 296 361
#     4  10  21  40  63  92 127 162 202 253 300 360
#     4  10  22  39  58  83 117 159 207 257 312 368
#     4  11  22  38  58  87 123 156 205 257 302 365
#     4  10  22  40  64  88 124 164 204 250 294 365
#     4  12  24  36  58  91 122 158 204 258 316 361
#
# _framework density 20.428543000000001
#
# number of rings (size 3 to 8) (size 9 to 14) (size 15 to 20)
#    0.000    1.571    2.857    2.143    6.000    4.571 
#    0.000    0.000    0.000    2.143    0.000    0.000 
#    0.000    0.000    0.000    0.000    0.000    0.000 
#
# Total GULP energy -156388.405207 kJ/mol
# GULP energy per Si atom -5585.300186 kJ/mol
# Density = 2.038205 g / cm^3
# Si number density = 20.428543 Si / 1000 Ang^3
#
#
#
# Elastic Constant Matrix: (Units=GPa)
#
#
# Indices 1 2 3 4 5 6 
#
# 1 91.2960 24.2333 23.0960 0.0000 20.2934 0.0000
# 2 24.2333 53.4476 12.6163 0.0000 3.5677 0.0000
# 3 23.0960 12.6163 93.2241 0.0000 29.6632 0.0000
# 4 0.0000 0.0000 0.0000 22.3853 0.0000 1.5765
# 5 20.2934 3.5677 29.6632 0.0000 38.4979 0.0000
# 6 0.0000 0.0000 0.0000 1.5765 0.0000 -9.2570
#
#
#
# Elastic Compliance Matrix: (Units=1/GPa)
#
#
# Indices 1 2 3 4 5 6 
#
# 1 0.014078 -0.005798 -0.000679 0.000000 -0.006360 0.000000
# 2 -0.005798 0.021718 -0.002431 0.000000 0.002917 0.000000
# 3 -0.000679 -0.002431 0.014624 0.000000 -0.010685 0.000000
# 4 0.000000 0.000000 0.000000 0.044143 0.000000 0.007518
# 5 -0.006360 0.002917 -0.010685 0.000000 0.037290 0.000000
# 6 0.000000 0.000000 0.000000 0.007518 0.000000 -0.106746
#
#
# Mechanical properties :
#
#
# Convention : Reuss Voigt Hill
#
# Bulk Modulus (GPa) = 30.67167 39.76211 35.21689
# Shear Modulus (GPa) = 92.95286 22.19338 57.57312
#
# Velocity S-wave (km/s) = 6.75280 3.29962 5.31450
# Velocity P-wave (km/s) = 8.70902 5.83292 7.41181
#
# Compressibility (1/GPa) = 0.03260337
#
# Stress axis : x y z
#
# Youngs Moduli (GPa) = 71.03274 46.04502 68.38140
#
# Poissons Ratio (x) = 0.26697 0.04646
# Poissons Ratio (y) = 0.41185 0.16622
# Poissons Ratio (z) = 0.04826 0.11192
#
# Static dielectric constant tensor:
#      x y z
#    x 1.723260 0.000000 0.031730 
#    y 0.000000 1.741510 0.000000 
#    z 0.031730 0.000000 1.729310 
# 
# From -- ./inp_files/62538.got.cif
#   From: 2010.05.17/outbox.cif.g08.bks.cpg/sg10_32_cif.got.tgz:62538.got - 2010.06.03 11:33:40.
