data_PCOD9153368
_publ_section_title
;
Structure prediction by ZEFSAII (Michael W. Deem and Ramdas Pophale) SiO2 
 PCOD9153368
Probable space group: P 2/M
;
_chemical_formula_sum "Si O2"
_cell_formula_units_Z 32
_cell_length_a 18.379731
_cell_length_b 11.296879
_cell_length_c 15.488737
_cell_angle_alpha 90.000000
_cell_angle_beta 22.024552
_cell_angle_gamma 90.000000
_cell_volume 1206.005761
_symmetry_space_group_name_H-M "P 2/M"
_symmetry_group_IT_number 10
_symmetry_cell_setting 'monoclinic'
loop_
_space_group_symop_operation_xyz
x,y,z
-x,y,-z
-x,-y,-z
x,-y,z
loop_
_atom_site_type_symbol
_atom_site_label
_atom_site_fract_x
_atom_site_fract_y
_atom_site_fract_z
Si Si1 0.773297 0.626093 0.557676
Si Si2 0.065954 0.374623 0.076618
Si Si3 0.183491 0.125566 0.495745
Si Si4 0.488268 0.368635 0.408872
Si Si5 0.463071 0.130197 0.713919
Si Si6 0.283237 0.629214 0.195542
Si Si7 0.783071 0.132653 0.837718
Si Si8 0.063151 0.873991 0.056341
O O1 0.666782 0.500000 0.661462
O O2 0.685477 0.757700 0.648887
O O3 0.848399 0.624285 0.573241
O O4 0.934676 0.627644 0.306314
O O5 0.039611 0.500000 0.060074
O O6 0.032617 0.258398 0.056789
O O7 0.287091 0.372237 0.866431
O O8 0.991661 0.134249 0.379779
O O9 0.067976 0.123047 0.713033
O O10 0.285865 0.000000 0.370814
O O11 0.500000 0.357368 0.500000
O O12 0.403617 0.500000 0.481924
O O13 0.414512 0.247916 0.444866
O O14 0.561327 0.000000 0.603114
O O15 0.347618 0.138846 0.931301
O O16 0.289752 0.125700 0.834396
O O17 0.261820 0.500000 0.175134
O O18 0.252939 0.750500 0.178607
O O19 0.500000 0.631240 0.000000
O O20 0.751457 0.000000 0.833848
O O21 0.027247 0.000000 0.053506
#
# Coordination Sequence:
#
# PCOD9153368 Si02
#       8
#     4   4   4   4   4   4   4   4
#     4   9  17  29  45  63  84 114 151 186 220 264
#     4   8  13  22  36  53  75 106 141 171 200 239
#     4   8  14  25  41  62  85 106 132 170 216 260
#     4   9  16  24  36  59  92 124 148 171 204 253
#     4   8  14  25  40  58  81 111 146 177 207 250
#     4  10  22  37  48  61  85 116 152 195 237 272
#     4   9  18  32  49  68  90 117 150 188 228 271
#     4   7  10  18  32  49  71  98 126 157 191 230
#
# _framework density 26.533868999999999
#
# number of rings (size 3 to 8) (size 9 to 14) (size 15 to 20)
#    0.000    3.500    0.000    2.250    0.000    2.500 
#    0.000    3.750    0.000    0.000    0.000    0.000 
#    0.000    1.000    0.000   12.500    0.000    2.000 
#
# Total GULP energy -178500.438552 kJ/mol
# GULP energy per Si atom -5578.138705 kJ/mol
# Density = 2.647348 g / cm^3
# Si number density = 26.533869 Si / 1000 Ang^3
#
#
#
# Elastic Constant Matrix: (Units=GPa)
#
#
# Indices 1 2 3 4 5 6 
#
# 1 41.5547 80.3118 152.2090 0.0000 48.1697 0.0000
# 2 80.3118 373.7873 -34.8201 0.0000 -10.7575 0.0000
# 3 152.2090 -34.8201 -280.6415 0.0000 -142.9104 0.0000
# 4 0.0000 0.0000 0.0000 79.4956 0.0000 143.3880
# 5 48.1697 -10.7575 -142.9104 0.0000 -21.6793 0.0000
# 6 0.0000 0.0000 0.0000 143.3880 0.0000 233.4483
#
#
#
# Elastic Compliance Matrix: (Units=1/GPa)
#
#
# Indices 1 2 3 4 5 6 
#
# 1 0.010427 -0.001809 0.002705 0.000000 0.006234 0.000000
# 2 -0.001809 0.002965 -0.000614 0.000000 -0.001443 0.000000
# 3 0.002705 -0.000614 0.002221 0.000000 -0.008329 0.000000
# 4 0.000000 0.000000 0.000000 -0.116607 0.000000 0.071622
# 5 0.006234 -0.001443 -0.008329 0.000000 0.023348 0.000000
# 6 0.000000 0.000000 0.000000 0.071622 0.000000 -0.039708
#
#
# Mechanical properties :
#
#
# Convention : Reuss Voigt Hill
#
# Bulk Modulus (GPa) = 61.81435 58.90023 60.35729
# Shear Modulus (GPa) = -44.43455 54.05290 4.80918
#
# Velocity S-wave (km/s) = -4.09667 4.51835 1.34774
# Velocity P-wave (km/s) = 0.98490 7.03328 5.02180
#
# Compressibility (1/GPa) = 0.01617747
#
# Stress axis : x y z
#
# Youngs Moduli (GPa) = 95.90852 337.24106 450.14893
#
# Poissons Ratio (x) = 0.61002 -1.21760
# Poissons Ratio (y) = 0.17349 0.27637
# Poissons Ratio (z) = -0.25942 0.20705
#
# Static dielectric constant tensor:
#      x y z
#    x 2.030620 0.000000 -0.016080 
#    y 0.000000 2.202150 0.000000 
#    z -0.016080 0.000000 2.042550 
# 
# From -- ./inp_files/80535.got.cif
#   From: 2010.05.17/outbox.cif.g08.bks.cpg/sg10_41_cif.got.tgz:80535.got - 2010.06.03 11:33:40.
