data_PCOD9153279
_publ_section_title
;
Structure prediction by ZEFSAII (Michael W. Deem and Ramdas Pophale) SiO2 
 PCOD9153279
Probable space group: P 2/M
;
_chemical_formula_sum "Si O2"
_cell_formula_units_Z 28
_cell_length_a 8.921296
_cell_length_b 31.242798
_cell_length_c 5.302614
_cell_angle_alpha 90.000000
_cell_angle_beta 105.005138
_cell_angle_gamma 90.000000
_cell_volume 1427.582531
_symmetry_space_group_name_H-M "P 2/M"
_symmetry_group_IT_number 10
_symmetry_cell_setting 'monoclinic'
loop_
_space_group_symop_operation_xyz
x,y,z
-x,y,-z
-x,-y,-z
x,-y,z
loop_
_atom_site_type_symbol
_atom_site_label
_atom_site_fract_x
_atom_site_fract_y
_atom_site_fract_z
Si Si1 0.000000 0.290863 0.500000
Si Si2 0.189537 0.085393 0.589986
Si Si3 0.599163 0.696084 0.794653
Si Si4 0.187115 0.864458 0.093679
Si Si5 0.392334 0.000000 0.705529
Si Si6 0.829989 0.232387 0.801463
Si Si7 0.892633 0.453596 0.205083
Si Si8 0.156998 0.362210 0.918466
O O1 0.873953 0.258251 0.566863
O O2 0.894708 0.323864 0.291520
O O3 0.236873 0.104372 0.339744
O O4 0.280211 0.041314 0.664868
O O5 0.000000 0.080174 0.500000
O O6 0.232954 0.118028 0.837595
O O7 0.500000 0.699650 0.500000
O O8 0.701376 0.738537 0.873412
O O9 0.500000 0.689260 0.000000
O O10 0.717160 0.656580 0.836999
O O11 0.225546 0.816388 0.201145
O O12 0.000000 0.865237 0.000000
O O13 0.500000 0.000000 0.500000
O O14 0.500000 0.000000 0.000000
O O15 0.000000 0.233570 0.000000
O O16 0.809304 0.500000 0.174599
O O17 0.799206 0.408807 0.167856
O O18 0.000000 0.451718 0.500000
O O19 0.000000 0.454717 0.000000
O O20 0.000000 0.369305 0.000000
#
# Coordination Sequence:
#
# PCOD9153279 Si02
#       8
#     2   4   4   4   2   4   4   4
#     4  12  18  34  65  92 118 153 214 254 300 356
#     4  10  21  42  64  94 122 159 198 250 300 356
#     4  12  26  40  55  85 126 162 203 254 311 362
#     4   9  21  36  64  93 120 153 205 249 298 350
#     4  12  25  42  67  96 126 162 204 252 303 358
#     4  11  23  38  63  89 119 166 208 257 297 369
#     4   9  18  31  54  87 118 143 188 258 316 361
#     4  11  21  37  61  88 116 159 210 253 310 374
#
# _framework density 19.613576999999999
#
# number of rings (size 3 to 8) (size 9 to 14) (size 15 to 20)
#    0.000    1.429    3.571    1.929    5.000    0.000 
#    0.000    7.143    0.000    0.857    0.000    0.000 
#    0.000    0.000    0.000    0.000    0.000    0.000 
#
# Total GULP energy -155969.580005 kJ/mol
# GULP energy per Si atom -5570.342143 kJ/mol
# Density = 1.956894 g / cm^3
# Si number density = 19.613577 Si / 1000 Ang^3
#
#
#
# Elastic Constant Matrix: (Units=GPa)
#
#
# Indices 1 2 3 4 5 6 
#
# 1 41.3006 19.8308 10.9970 0.0000 1.8701 0.0000
# 2 19.8308 179.9536 51.3741 0.0000 17.2964 0.0000
# 3 10.9970 51.3741 109.6159 0.0000 0.8892 0.0000
# 4 0.0000 0.0000 0.0000 232.1655 0.0000 -44.5109
# 5 1.8701 17.2964 0.8892 0.0000 27.1181 0.0000
# 6 0.0000 0.0000 0.0000 -44.5109 0.0000 -6.2076
#
#
#
# Elastic Compliance Matrix: (Units=1/GPa)
#
#
# Indices 1 2 3 4 5 6 
#
# 1 0.025764 -0.002405 -0.001456 0.000000 -0.000195 0.000000
# 2 -0.002405 0.007104 -0.003053 0.000000 -0.004265 0.000000
# 3 -0.001456 -0.003053 0.010686 0.000000 0.001698 0.000000
# 4 0.000000 0.000000 0.000000 0.001814 0.000000 -0.013006
# 5 -0.000195 -0.004265 0.001698 0.000000 0.039554 0.000000
# 6 0.000000 0.000000 0.000000 -0.013006 0.000000 -0.067837
#
#
# Mechanical properties :
#
#
# Convention : Reuss Voigt Hill
#
# Bulk Modulus (GPa) = 33.64152 55.03042 44.33597
# Shear Modulus (GPa) = 122.48553 67.19308 94.83930
#
# Velocity S-wave (km/s) = 7.91106 5.85942 6.96124
# Velocity P-wave (km/s) = 10.03175 8.59624 9.34161
#
# Compressibility (1/GPa) = 0.02972517
#
# Stress axis : x y z
#
# Youngs Moduli (GPa) = 38.81401 140.77343 93.57920
#
# Poissons Ratio (x) = 0.33852 0.13626
# Poissons Ratio (y) = 0.09334 0.28574
# Poissons Ratio (z) = 0.05652 0.42984
#
# Static dielectric constant tensor:
#      x y z
#    x 1.708200 0.000000 -0.016650 
#    y 0.000000 1.743010 0.000000 
#    z -0.016650 0.000000 1.698010 
# 
# From -- ./inp_files/5478.got.cif
#   From: 2010.05.17/outbox.cif.g08.bks.cpg/sg10_3_cif.got.tgz:5478.got - 2010.06.03 11:33:40.
