data_PCOD9153693
_publ_section_title
;
Structure prediction by ZEFSAII (Michael W. Deem and Ramdas Pophale) SiO2 
 PCOD9153693
Probable space group: P 2/M
;
_chemical_formula_sum "Si O2"
_cell_formula_units_Z 32
_cell_length_a 11.200658
_cell_length_b 14.020471
_cell_length_c 17.071204
_cell_angle_alpha 90.000000
_cell_angle_beta 32.923155
_cell_angle_gamma 90.000000
_cell_volume 1457.071305
_symmetry_space_group_name_H-M "P 2/M"
_symmetry_group_IT_number 10
_symmetry_cell_setting 'monoclinic'
loop_
_space_group_symop_operation_xyz
x,y,z
-x,y,-z
-x,-y,-z
x,-y,z
loop_
_atom_site_type_symbol
_atom_site_label
_atom_site_fract_x
_atom_site_fract_y
_atom_site_fract_z
Si Si1 0.727397 0.894424 0.951646
Si Si2 0.062800 0.398438 0.874390
Si Si3 0.522624 0.887471 0.650080
Si Si4 0.752464 0.388847 0.603815
Si Si5 0.440135 0.391537 0.448603
Si Si6 0.979891 0.110708 0.649695
Si Si7 0.385877 0.790674 0.236326
Si Si8 0.062851 0.809080 0.873925
O O1 0.845784 0.880749 0.803932
O O2 0.921723 0.886728 0.907393
O O3 0.624764 0.000000 0.010815
O O4 0.548447 0.817571 0.076482
O O5 0.985385 0.500000 0.882344
O O6 0.325944 0.397364 0.723290
O O7 0.995960 0.295579 0.878273
O O8 0.000000 0.398236 0.000000
O O9 0.543281 0.855620 0.729079
O O10 0.321150 0.829260 0.724587
O O11 0.762432 0.869358 0.481538
O O12 0.474889 0.000000 0.671038
O O13 0.682076 0.500000 0.645700
O O14 0.724564 0.355767 0.528258
O O15 0.611635 0.317230 0.734567
O O16 0.000000 0.384855 0.500000
O O17 0.500000 0.346170 0.500000
O O18 0.361635 0.500000 0.510650
O O19 0.857243 0.178358 0.656131
O O20 0.964675 0.000000 0.631235
O O21 0.000000 0.811329 0.000000
#
# Coordination Sequence:
#
# PCOD9153693 Si02
#       8
#     4   4   4   4   4   4   4   4
#     4  11  24  42  65  91 127 168 208 262 331 395
#     4   9  19  36  58  86 119 160 210 261 307 368
#     4  11  22  37  63  94 125 158 205 264 320 386
#     4  10  22  40  64  95 134 175 217 269 327 387
#     4   9  18  36  63  92 121 161 211 261 315 373
#     4  10  23  42  64  94 124 161 211 269 326 380
#     4  12  22  39  67  93 123 164 218 260 311 384
#     4  11  22  38  60  91 126 166 211 257 326 398
#
# _framework density 21.961863000000001
#
# number of rings (size 3 to 8) (size 9 to 14) (size 15 to 20)
#    0.000    1.625    1.250    3.750    1.750    3.000 
#    6.750    1.875    0.000    1.500    0.000    0.000 
#    0.000    0.000    0.000    0.000    0.000    0.000 
#
# Total GULP energy -178709.923783 kJ/mol
# GULP energy per Si atom -5584.685118 kJ/mol
# Density = 2.191188 g / cm^3
# Si number density = 21.961863 Si / 1000 Ang^3
#
#
#
# Elastic Constant Matrix: (Units=GPa)
#
#
# Indices 1 2 3 4 5 6 
#
# 1 104.4750 31.4382 31.9698 0.0000 -7.0412 0.0000
# 2 31.4382 145.2861 32.9049 0.0000 3.4730 0.0000
# 3 31.9698 32.9049 106.0342 0.0000 -3.9054 0.0000
# 4 0.0000 0.0000 0.0000 28.2511 0.0000 -0.4814
# 5 -7.0412 3.4730 -3.9054 0.0000 23.8382 0.0000
# 6 0.0000 0.0000 0.0000 -0.4814 0.0000 8.0255
#
#
#
# Elastic Compliance Matrix: (Units=1/GPa)
#
#
# Indices 1 2 3 4 5 6 
#
# 1 0.011167 -0.001888 -0.002666 0.000000 0.003137 0.000000
# 2 -0.001888 0.007774 -0.001917 0.000000 -0.002004 0.000000
# 3 -0.002666 -0.001917 0.010876 0.000000 0.001274 0.000000
# 4 0.000000 0.000000 0.000000 0.035433 0.000000 0.002126
# 5 0.003137 -0.002004 0.001274 0.000000 0.043377 0.000000
# 6 0.000000 0.000000 0.000000 0.002126 0.000000 0.124730
#
#
# Mechanical properties :
#
#
# Convention : Reuss Voigt Hill
#
# Bulk Modulus (GPa) = 59.25447 60.93566 60.09507
# Shear Modulus (GPa) = 19.84741 29.32178 24.58459
#
# Velocity S-wave (km/s) = 3.00946 3.65790 3.34941
# Velocity P-wave (km/s) = 6.25420 6.75623 6.51005
#
# Compressibility (1/GPa) = 0.01687636
#
# Stress axis : x y z
#
# Youngs Moduli (GPa) = 89.55153 128.64200 91.94229
#
# Poissons Ratio (x) = 0.24283 0.24507
# Poissons Ratio (y) = 0.16904 0.17625
# Poissons Ratio (z) = 0.23870 0.24660
#
# Static dielectric constant tensor:
#      x y z
#    x 1.817760 0.000000 -0.003550 
#    y 0.000000 1.853560 0.000000 
#    z -0.003550 0.000000 1.801100 
# 
# From -- ./inp_files/77010.got.cif
#   From: 2010.05.17/outbox.cif.g08.bks.cpg/sg10_39_cif.got.tgz:77010.got - 2010.06.03 11:33:40.
