data_PCOD9153710
_publ_section_title
;
Structure prediction by ZEFSAII (Michael W. Deem and Ramdas Pophale) SiO2 
 PCOD9153710
Probable space group: P 2/M
;
_chemical_formula_sum "Si O2"
_cell_formula_units_Z 14
_cell_length_a 5.018571
_cell_length_b 14.152467
_cell_length_c 9.056872
_cell_angle_alpha 90.000000
_cell_angle_beta 65.655769
_cell_angle_gamma 90.000000
_cell_volume 586.070019
_symmetry_space_group_name_H-M "P 2/M"
_symmetry_group_IT_number 10
_symmetry_cell_setting 'monoclinic'
loop_
_space_group_symop_operation_xyz
x,y,z
-x,y,-z
-x,-y,-z
x,-y,z
loop_
_atom_site_type_symbol
_atom_site_label
_atom_site_fract_x
_atom_site_fract_y
_atom_site_fract_z
Si Si1 0.290405 0.275276 0.282698
Si Si2 0.500000 0.831067 0.500000
Si Si3 0.310355 0.892928 0.849405
Si Si4 0.852516 0.394193 0.194119
O O1 0.289614 0.232790 0.448100
O O2 0.452538 0.187074 0.165975
O O3 0.523597 0.360240 0.244500
O O4 0.025493 0.318367 0.252404
O O5 0.312141 0.885710 0.667816
O O6 0.400696 0.000000 0.863808
O O7 0.000000 0.875340 0.000000
O O8 0.867070 0.500000 0.254016
O O9 0.000000 0.395139 0.000000
#
# Coordination Sequence:
#
# PCOD9153710 Si02
#       4
#     4   2   4   4
#     4  10  22  40  67 101 140 181 233 283 354 416
#     4   8  21  38  67 102 146 186 223 292 345 418
#     4   9  18  38  70 104 141 186 233 283 347 419
#     4  11  23  42  69 101 135 183 238 293 351 415
#
# _framework density 23.887930999999998
#
# number of rings (size 3 to 8) (size 9 to 14) (size 15 to 20)
#    1.714    0.571    0.000    3.000    0.000    3.429 
#    0.000    5.714    0.000   11.143    0.000    0.000 
#    0.000    0.000    0.000    0.000    0.000    0.000 
#
# Total GULP energy -78123.129256 kJ/mol
# GULP energy per Si atom -5580.223518 kJ/mol
# Density = 2.383356 g / cm^3
# Si number density = 23.887931 Si / 1000 Ang^3
#
#
#
# Elastic Constant Matrix: (Units=GPa)
#
#
# Indices 1 2 3 4 5 6 
#
# 1 41.3898 -0.4979 23.3164 0.0000 1.1451 0.0000
# 2 -0.4979 147.1620 36.3598 0.0000 -9.6260 0.0000
# 3 23.3164 36.3598 165.3073 0.0000 4.1839 0.0000
# 4 0.0000 0.0000 0.0000 28.1220 0.0000 -26.6840
# 5 1.1451 -9.6260 4.1839 0.0000 28.2449 0.0000
# 6 0.0000 0.0000 0.0000 -26.6840 0.0000 250.3868
#
#
#
# Elastic Compliance Matrix: (Units=1/GPa)
#
#
# Indices 1 2 3 4 5 6 
#
# 1 0.026404 0.001058 -0.003954 0.000000 -0.000124 0.000000
# 2 0.001058 0.007438 -0.001855 0.000000 0.002767 0.000000
# 3 -0.003954 -0.001855 0.007054 0.000000 -0.001517 0.000000
# 4 0.000000 0.000000 0.000000 0.039560 0.000000 0.004216
# 5 -0.000124 0.002767 -0.001517 0.000000 0.036577 0.000000
# 6 0.000000 0.000000 0.000000 0.004216 0.000000 0.004443
#
#
# Mechanical properties :
#
#
# Convention : Reuss Voigt Hill
#
# Bulk Modulus (GPa) = 31.85365 52.46842 42.16103
# Shear Modulus (GPa) = 35.35001 80.99611 58.17306
#
# Velocity S-wave (km/s) = 3.85103 5.82926 4.94018
# Velocity P-wave (km/s) = 5.75651 8.20483 7.08719
#
# Compressibility (1/GPa) = 0.03139358
#
# Stress axis : x y z
#
# Youngs Moduli (GPa) = 37.87299 134.44112 141.77356
#
# Poissons Ratio (x) = -0.14225 0.56055
# Poissons Ratio (y) = -0.04007 0.26304
# Poissons Ratio (z) = 0.14974 0.24943
#
# Static dielectric constant tensor:
#      x y z
#    x 1.906140 0.000000 -0.033730 
#    y 0.000000 1.890910 0.000000 
#    z -0.033730 0.000000 2.026110 
# 
# From -- ./inp_files/14099.got.cif
#   From: 2010.05.17/outbox.cif.g08.bks.cpg/sg10_8_cif.got.tgz:14099.got - 2010.06.03 11:33:40.
