data_PCOD9153337
_publ_section_title
;
Structure prediction by ZEFSAII (Michael W. Deem and Ramdas Pophale) SiO2 
 PCOD9153337
Probable space group: P 2/M
;
_chemical_formula_sum "Si O2"
_cell_formula_units_Z 30
_cell_length_a 17.059911
_cell_length_b 19.156931
_cell_length_c 5.309442
_cell_angle_alpha 90.000000
_cell_angle_beta 63.691618
_cell_angle_gamma 90.000000
_cell_volume 1555.478064
_symmetry_space_group_name_H-M "P 2/M"
_symmetry_group_IT_number 10
_symmetry_cell_setting 'monoclinic'
loop_
_space_group_symop_operation_xyz
x,y,z
-x,y,-z
-x,-y,-z
x,-y,z
loop_
_atom_site_type_symbol
_atom_site_label
_atom_site_fract_x
_atom_site_fract_y
_atom_site_fract_z
Si Si1 0.398046 0.364900 0.157672
Si Si2 0.441719 0.500000 0.337762
Si Si3 0.267626 0.420626 0.947843
Si Si4 0.907671 0.373404 0.575156
Si Si5 0.908106 0.282102 0.076333
Si Si6 0.278437 0.280303 0.635107
Si Si7 0.394157 0.920296 0.161324
Si Si8 0.604994 0.165352 0.337197
O O1 0.394535 0.425770 0.375093
O O2 0.354830 0.402451 0.981101
O O3 0.336928 0.299590 0.310985
O O4 0.500000 0.344168 0.000000
O O5 0.500000 0.500000 0.500000
O O6 0.500000 0.500000 0.000000
O O7 0.270563 0.500000 0.849970
O O8 0.181934 0.414696 0.251084
O O9 0.254665 0.356174 0.779408
O O10 0.909343 0.342751 0.290656
O O11 0.000000 0.411250 0.500000
O O12 0.908463 0.312072 0.789832
O O13 0.815646 0.244456 0.259311
O O14 0.000000 0.243835 0.000000
O O15 0.342117 0.236960 0.722389
O O16 0.371280 0.879345 0.448149
O O17 0.361857 0.000000 0.206546
O O18 0.500000 0.923800 0.000000
O O19 0.370485 0.877399 0.946202
O O20 0.500000 0.177536 0.500000
#
# Coordination Sequence:
#
# PCOD9153337 Si02
#       8
#     4   2   4   4   4   4   4   4
#     4  11  25  36  54  72 101 145 189 239 282 334
#     4  10  24  40  54  70  90 132 192 238 274 320
#     4  11  24  39  54  76 103 148 199 243 298 344
#     4   9  18  36  57  78 100 128 177 244 308 357
#     4   9  18  36  58  78 104 140 180 231 291 346
#     4  11  25  36  56  79 115 146 190 242 289 336
#     4   9  18  36  59  85 117 152 185 217 261 324
#     4  10  22  34  55  85 117 152 184 223 272 325
#
# _framework density 19.286676
#
# number of rings (size 3 to 8) (size 9 to 14) (size 15 to 20)
#    0.000    2.000    2.000    0.400    8.400    2.400 
#    0.000    0.000    0.000    4.400    0.000    0.000 
#    0.000    3.200    0.000    0.000    0.000    0.000 
#
# Total GULP energy -167248.239999 kJ/mol
# GULP energy per Si atom -5574.941333 kJ/mol
# Density = 1.924278 g / cm^3
# Si number density = 19.286676 Si / 1000 Ang^3
#
#
#
# Elastic Constant Matrix: (Units=GPa)
#
#
# Indices 1 2 3 4 5 6 
#
# 1 100.7889 15.9910 35.2473 0.0000 -10.1054 0.0000
# 2 15.9910 57.1098 24.4676 0.0000 3.6139 0.0000
# 3 35.2473 24.4676 84.9920 0.0000 5.3601 0.0000
# 4 0.0000 0.0000 0.0000 7.5874 0.0000 9.7886
# 5 -10.1054 3.6139 5.3601 0.0000 48.0855 0.0000
# 6 0.0000 0.0000 0.0000 9.7886 0.0000 10.4872
#
#
#
# Elastic Compliance Matrix: (Units=1/GPa)
#
#
# Indices 1 2 3 4 5 6 
#
# 1 0.012169 -0.001553 -0.004802 0.000000 0.003209 0.000000
# 2 -0.001553 0.020208 -0.005093 0.000000 -0.001277 0.000000
# 3 -0.004802 -0.005093 0.015371 0.000000 -0.002340 0.000000
# 4 0.000000 0.000000 0.000000 -0.645561 0.000000 0.602553
# 5 0.003209 -0.001277 -0.002340 0.000000 0.021828 0.000000
# 6 0.000000 0.000000 0.000000 0.602553 0.000000 -0.467057
#
#
# Mechanical properties :
#
#
# Convention : Reuss Voigt Hill
#
# Bulk Modulus (GPa) = 40.23817 43.81141 42.02479
# Shear Modulus (GPa) = -4.94138 24.37768 9.71815
#
# Velocity S-wave (km/s) = -1.60238 3.55909 2.24716
# Velocity P-wave (km/s) = 4.18150 6.29719 5.34507
#
# Compressibility (1/GPa) = 0.02485203
#
# Stress axis : x y z
#
# Youngs Moduli (GPa) = 82.17406 49.48594 65.05779
#
# Poissons Ratio (x) = 0.07686 0.31241
# Poissons Ratio (y) = 0.12763 0.33132
# Poissons Ratio (z) = 0.39460 0.25202
#
# Static dielectric constant tensor:
#      x y z
#    x 1.728400 0.000000 -0.051320 
#    y 0.000000 1.671640 0.000000 
#    z -0.051320 0.000000 1.797500 
# 
# From -- ./inp_files/11632.got.cif
#   From: 2010.05.17/outbox.cif.g08.bks.cpg/sg10_6_cif.got.tgz:11632.got - 2010.06.03 11:33:40.
