data_PCOD9153220
_publ_section_title
;
Structure prediction by ZEFSAII (Michael W. Deem and Ramdas Pophale) SiO2 
 PCOD9153220
Probable space group: P 2/M
;
_chemical_formula_sum "Si O2"
_cell_formula_units_Z 21
_cell_length_a 5.167014
_cell_length_b 9.356786
_cell_length_c 20.675331
_cell_angle_alpha 90.000000
_cell_angle_beta 80.278885
_cell_angle_gamma 90.000000
_cell_volume 985.230172
_symmetry_space_group_name_H-M "P 2/M"
_symmetry_group_IT_number 10
_symmetry_cell_setting 'monoclinic'
loop_
_space_group_symop_operation_xyz
x,y,z
-x,y,-z
-x,-y,-z
x,-y,z
loop_
_atom_site_type_symbol
_atom_site_label
_atom_site_fract_x
_atom_site_fract_y
_atom_site_fract_z
Si Si1 0.946843 0.159847 0.073429
Si Si2 0.537743 0.664891 0.732265
Si Si3 0.780897 0.664298 0.454259
Si Si4 0.078299 0.172536 0.678854
Si Si5 0.500000 0.500000 0.000000
Si Si6 0.417863 0.279785 0.120719
O O1 0.642148 0.160513 0.103359
O O2 0.118458 0.236640 0.120402
O O3 0.052825 0.000000 0.065256
O O4 0.000000 0.226189 0.000000
O O5 0.541402 0.500000 0.707741
O O6 0.282236 0.750738 0.719008
O O7 0.547395 0.659662 0.809570
O O8 0.792744 0.755204 0.699863
O O9 0.500000 0.679722 0.500000
O O10 0.800402 0.500000 0.427851
O O11 0.822701 0.778070 0.395997
O O12 0.000000 0.680624 0.500000
O O13 0.071049 0.000000 0.686693
O O14 0.485579 0.380250 0.057986
#
# Coordination Sequence:
#
# PCOD9153220 Si02
#       6
#     4   4   4   4   1   4
#     4  11  23  40  61  89 120 156 200 260 338 410
#     4  12  26  46  69  98 133 187 237 281 348 425
#     4  10  21  40  70 106 142 185 231 277 333 399
#     4  12  27  46  71 104 147 187 231 290 343 401
#     4  12  24  46  62  98 124 158 220 292 344 398
#     4  12  25  42  68  92 124 166 215 284 343 405
#
# _framework density 21.314814999999999
#
# number of rings (size 3 to 8) (size 9 to 14) (size 15 to 20)
#    0.000    0.571    2.857    5.143    0.000    9.905 
#    0.000    0.000    0.000    0.000    0.000    0.000 
#    0.000    0.000    0.000    0.000    0.000    0.000 
#
# Total GULP energy -117069.160104 kJ/mol
# GULP energy per Si atom -5574.721910 kJ/mol
# Density = 2.126630 g / cm^3
# Si number density = 21.314815 Si / 1000 Ang^3
#
#
#
# Elastic Constant Matrix: (Units=GPa)
#
#
# Indices 1 2 3 4 5 6 
#
# 1 105.8133 34.8683 6.8284 0.0000 1.1910 0.0000
# 2 34.8683 144.0155 31.5064 0.0000 3.6884 0.0000
# 3 6.8284 31.5064 83.4505 0.0000 8.9652 0.0000
# 4 0.0000 0.0000 0.0000 35.1793 0.0000 -20.3140
# 5 1.1910 3.6884 8.9652 0.0000 36.1600 0.0000
# 6 0.0000 0.0000 0.0000 -20.3140 0.0000 52.5174
#
#
#
# Elastic Compliance Matrix: (Units=1/GPa)
#
#
# Indices 1 2 3 4 5 6 
#
# 1 0.010271 -0.002510 0.000119 0.000000 -0.000112 0.000000
# 2 -0.002510 0.008182 -0.002880 0.000000 -0.000038 0.000000
# 3 0.000119 -0.002880 0.013386 0.000000 -0.003029 0.000000
# 4 0.000000 0.000000 0.000000 0.036601 0.000000 0.014157
# 5 -0.000112 -0.000038 -0.003029 0.000000 0.028413 0.000000
# 6 0.000000 0.000000 0.000000 0.014157 0.000000 0.024517
#
#
# Mechanical properties :
#
#
# Convention : Reuss Voigt Hill
#
# Bulk Modulus (GPa) = 46.95156 53.29841 50.12498
# Shear Modulus (GPa) = 35.96805 42.10976 39.03890
#
# Velocity S-wave (km/s) = 4.11234 4.44961 4.28429
# Velocity P-wave (km/s) = 6.68011 7.17344 6.93117
#
# Compressibility (1/GPa) = 0.02129855
#
# Stress axis : x y z
#
# Youngs Moduli (GPa) = 97.35862 122.21353 74.70465
#
# Poissons Ratio (x) = 0.30676 -0.00891
# Poissons Ratio (y) = 0.24438 0.21513
# Poissons Ratio (z) = -0.01161 0.35195
#
# Static dielectric constant tensor:
#      x y z
#    x 1.760800 0.000000 0.005680 
#    y 0.000000 1.749720 0.000000 
#    z 0.005680 0.000000 1.756870 
# 
# From -- ./inp_files/80906.got.cif
#   From: 2010.05.17/outbox.cif.g08.bks.cpg/sg10_41_cif.got.tgz:80906.got - 2010.06.03 11:33:40.
