data_PCOD9153903
_publ_section_title
;
Structure prediction by ZEFSAII (Michael W. Deem and Ramdas Pophale) SiO2 
 PCOD9153903
Probable space group: P 2/M
;
_chemical_formula_sum "Si O2"
_cell_formula_units_Z 20
_cell_length_a 13.553378
_cell_length_b 11.952504
_cell_length_c 6.660075
_cell_angle_alpha 90.000000
_cell_angle_beta 117.641417
_cell_angle_gamma 90.000000
_cell_volume 955.773098
_symmetry_space_group_name_H-M "P 2/M"
_symmetry_group_IT_number 10
_symmetry_cell_setting 'monoclinic'
loop_
_space_group_symop_operation_xyz
x,y,z
-x,y,-z
-x,-y,-z
x,-y,z
loop_
_atom_site_type_symbol
_atom_site_label
_atom_site_fract_x
_atom_site_fract_y
_atom_site_fract_z
Si Si1 0.500000 0.709562 0.500000
Si Si2 0.133530 0.000000 0.265137
Si Si3 0.818338 0.195083 0.362379
Si Si4 0.265013 0.629556 0.395168
Si Si5 0.405069 0.876314 0.079564
Si Si6 0.109503 0.226116 0.989709
O O1 0.398666 0.641815 0.502962
O O2 0.443201 0.788936 0.281118
O O3 0.143962 0.098810 0.448690
O O4 0.126682 0.099297 0.085080
O O5 0.780626 0.301649 0.457288
O O6 0.708850 0.152149 0.139934
O O7 0.901020 0.223720 0.259101
O O8 0.234532 0.500000 0.371398
O O9 0.209459 0.694171 0.154738
O O10 0.395725 0.000000 0.165060
O O11 0.500000 0.878969 0.000000
O O12 0.000000 0.268414 0.000000
#
# Coordination Sequence:
#
# PCOD9153903 Si02
#       6
#     2   2   4   4   4   4
#     4  12  22  42  66  96 130 169 213 264 322 390
#     4  10  23  39  68  97 133 165 209 260 320 397
#     4  11  22  42  64  96 133 169 213 264 326 386
#     4  11  26  44  66  94 127 171 224 274 318 378
#     4  11  22  36  62  98 134 168 209 255 324 396
#     4  11  25  43  67  97 131 171 215 268 326 382
#
# _framework density 20.925470000000001
#
# number of rings (size 3 to 8) (size 9 to 14) (size 15 to 20)
#    0.000    1.000    5.000    1.500    0.000    5.200 
#    0.000    2.000    0.000    0.000    0.000    0.000 
#    0.000    0.000    0.000    0.000    0.000    0.000 
#
# Total GULP energy -111340.698906 kJ/mol
# GULP energy per Si atom -5567.034945 kJ/mol
# Density = 2.087784 g / cm^3
# Si number density = 20.925470 Si / 1000 Ang^3
#
#
#
# Elastic Constant Matrix: (Units=GPa)
#
#
# Indices 1 2 3 4 5 6 
#
# 1 87.6785 33.3559 32.9049 0.0000 -12.7648 0.0000
# 2 33.3559 151.5963 38.4446 0.0000 -14.0182 0.0000
# 3 32.9049 38.4446 126.0197 0.0000 -22.9344 0.0000
# 4 0.0000 0.0000 0.0000 19.2222 0.0000 9.8689
# 5 -12.7648 -14.0182 -22.9344 0.0000 35.0965 0.0000
# 6 0.0000 0.0000 0.0000 9.8689 0.0000 5.9194
#
#
#
# Elastic Compliance Matrix: (Units=1/GPa)
#
#
# Indices 1 2 3 4 5 6 
#
# 1 0.013482 -0.002124 -0.002423 0.000000 0.002472 0.000000
# 2 -0.002124 0.007567 -0.001526 0.000000 0.001253 0.000000
# 3 -0.002423 -0.001526 0.009945 0.000000 0.005008 0.000000
# 4 0.000000 0.000000 0.000000 0.361191 0.000000 -0.602183
# 5 0.002472 0.001253 0.005008 0.000000 0.033165 0.000000
# 6 0.000000 0.000000 0.000000 -0.602183 0.000000 1.172905
#
#
# Mechanical properties :
#
#
# Convention : Reuss Voigt Hill
#
# Bulk Modulus (GPa) = 53.05154 63.85614 58.45384
# Shear Modulus (GPa) = 3.09276 29.42023 16.25649
#
# Velocity S-wave (km/s) = 1.21704 3.75367 2.79027
# Velocity P-wave (km/s) = 5.23284 7.02631 6.19482
#
# Compressibility (1/GPa) = 0.01884959
#
# Stress axis : x y z
#
# Youngs Moduli (GPa) = 74.17141 132.16142 100.55586
#
# Poissons Ratio (x) = 0.28065 0.24361
# Poissons Ratio (y) = 0.15751 0.15343
# Poissons Ratio (z) = 0.17969 0.20166
#
# Static dielectric constant tensor:
#      x y z
#    x 1.910470 0.000000 -0.004820 
#    y 0.000000 1.689160 0.000000 
#    z -0.004820 0.000000 1.739990 
# 
# From -- ./inp_files/8984.got.cif
#   From: 2010.05.17/outbox.cif.g08.bks.cpg/sg10_5_cif.got.tgz:8984.got - 2010.06.03 11:33:40.
