data_PCOD9153124
_publ_section_title
;
Structure prediction by ZEFSAII (Michael W. Deem and Ramdas Pophale) SiO2 
 PCOD9153124
Probable space group: P 2/M
;
_chemical_formula_sum "Si O2"
_cell_formula_units_Z 28
_cell_length_a 9.382535
_cell_length_b 14.290613
_cell_length_c 11.395479
_cell_angle_alpha 90.000000
_cell_angle_beta 64.504721
_cell_angle_gamma 90.000000
_cell_volume 1379.141896
_symmetry_space_group_name_H-M "P 2/M"
_symmetry_group_IT_number 10
_symmetry_cell_setting 'monoclinic'
loop_
_space_group_symop_operation_xyz
x,y,z
-x,y,-z
-x,-y,-z
x,-y,z
loop_
_atom_site_type_symbol
_atom_site_label
_atom_site_fract_x
_atom_site_fract_y
_atom_site_fract_z
Si Si1 0.690880 0.608666 0.924240
Si Si2 0.952787 0.611695 0.648685
Si Si3 0.111655 0.892910 0.116903
Si Si4 0.701114 0.769374 0.101722
Si Si5 0.405922 0.104748 0.190531
Si Si6 0.333506 0.102181 0.490707
Si Si7 0.840423 0.246292 0.296408
O O1 0.733244 0.500000 0.934817
O O2 0.779936 0.632493 0.769094
O O3 0.500000 0.613088 0.000000
O O4 0.745026 0.682917 0.002610
O O5 0.966578 0.500000 0.642810
O O6 0.079162 0.658888 0.690036
O O7 0.000000 0.644366 0.500000
O O8 0.257251 0.886195 0.157847
O O9 0.978080 0.823443 0.207104
O O10 0.061227 0.000000 0.128147
O O11 0.181347 0.854221 0.970915
O O12 0.530857 0.812402 0.131415
O O13 0.721420 0.742838 0.229766
O O14 0.356086 0.106790 0.343821
O O15 0.476734 0.000000 0.145042
O O16 0.500000 0.102383 0.500000
O O17 0.241098 0.191299 0.569031
O O18 0.257865 0.000000 0.544674
#
# Coordination Sequence:
#
# PCOD9153124 Si02
#       7
#     4   4   4   4   4   4   4
#     4  10  22  42  69  98 126 165 217 268 321 388
#     4  10  24  46  70  95 129 169 213 269 334 392
#     4  11  24  38  57  90 126 164 213 265 309 367
#     4  12  23  38  61  91 128 168 206 256 321 385
#     4  10  22  40  62  88 124 173 220 261 313 380
#     4  10  21  40  62  88 127 174 216 260 317 382
#     4  12  25  38  62  95 125 165 212 261 327 385
#
# _framework density 20.302479999999999
#
# number of rings (size 3 to 8) (size 9 to 14) (size 15 to 20)
#    0.000    1.286    2.857    2.571    2.000    4.000 
#    0.000    3.571    0.000    0.429    0.000    0.000 
#    0.000    0.000    0.000    0.000    0.000    0.000 
#
# Total GULP energy -156356.646911 kJ/mol
# GULP energy per Si atom -5584.165961 kJ/mol
# Density = 2.025627 g / cm^3
# Si number density = 20.302480 Si / 1000 Ang^3
#
#
#
# Elastic Constant Matrix: (Units=GPa)
#
#
# Indices 1 2 3 4 5 6 
#
# 1 60.0064 19.7078 23.6613 0.0000 10.9754 0.0000
# 2 19.7078 61.5060 33.3793 0.0000 3.0885 0.0000
# 3 23.6613 33.3793 115.6668 0.0000 12.4203 0.0000
# 4 0.0000 0.0000 0.0000 188.2370 0.0000 549.3574
# 5 10.9754 3.0885 12.4203 0.0000 32.0554 0.0000
# 6 0.0000 0.0000 0.0000 549.3574 0.0000 2001.4688
#
#
#
# Elastic Compliance Matrix: (Units=1/GPa)
#
#
# Indices 1 2 3 4 5 6 
#
# 1 0.020168 -0.005061 -0.002062 0.000000 -0.005619 0.000000
# 2 -0.005061 0.020551 -0.005080 0.000000 0.001721 0.000000
# 3 -0.002062 -0.005080 0.010857 0.000000 -0.003011 0.000000
# 4 0.000000 0.000000 0.000000 0.026702 0.000000 -0.007329
# 5 -0.005619 0.001721 -0.003011 0.000000 0.034121 0.000000
# 6 0.000000 0.000000 0.000000 -0.007329 0.000000 0.002511
#
#
# Mechanical properties :
#
#
# Convention : Reuss Voigt Hill
#
# Bulk Modulus (GPa) = 36.80621 43.40845 40.10733
# Shear Modulus (GPa) = 33.69930 455.04762 244.37346
#
# Velocity S-wave (km/s) = 4.07856 14.98735 10.98306
# Velocity P-wave (km/s) = 6.35199 17.91428 13.44004
#
# Compressibility (1/GPa) = 0.02716933
#
# Stress axis : x y z
#
# Youngs Moduli (GPa) = 49.58407 48.65993 92.10962
#
# Poissons Ratio (x) = 0.24628 0.18990
# Poissons Ratio (y) = 0.25095 0.46792
# Poissons Ratio (z) = 0.10223 0.24720
#
# Static dielectric constant tensor:
#      x y z
#    x 1.733770 0.000000 -0.027290 
#    y 0.000000 1.711780 0.000000 
#    z -0.027290 0.000000 1.747630 
# 
# From -- ./inp_files/25399.got.cif
#   From: 2010.05.17/outbox.cif.g08.bks.cpg/sg10_13_cif.got.tgz:25399.got - 2010.06.03 11:33:40.
