data_PCOD9153688
_publ_section_title
;
Structure prediction by ZEFSAII (Michael W. Deem and Ramdas Pophale) SiO2 
 PCOD9153688
Probable space group: P 2/M
;
_chemical_formula_sum "Si O2"
_cell_formula_units_Z 32
_cell_length_a 15.144990
_cell_length_b 9.152893
_cell_length_c 12.095785
_cell_angle_alpha 90.000000
_cell_angle_beta 90.000000
_cell_angle_gamma 90.000000
_cell_volume 1676.723437
_symmetry_space_group_name_H-M "P 2/M"
_symmetry_group_IT_number 10
_symmetry_cell_setting 'monoclinic'
loop_
_space_group_symop_operation_xyz
x,y,z
-x,y,-z
-x,-y,-z
x,-y,z
loop_
_atom_site_type_symbol
_atom_site_label
_atom_site_fract_x
_atom_site_fract_y
_atom_site_fract_z
Si Si1 0.645916 0.833043 0.240089
Si Si2 0.598719 0.330680 0.454324
Si Si3 0.854084 0.833043 0.240089
Si Si4 0.750000 0.325725 0.831985
Si Si5 0.104822 0.671353 0.984366
Si Si6 0.098719 0.330681 0.545676
Si Si7 0.750000 0.825123 0.594237
Si Si8 0.604822 0.671353 0.015634
O O1 0.600142 0.732280 0.330737
O O2 0.750000 0.831786 0.266358
O O3 0.633549 0.769417 0.118218
O O4 0.614310 0.000000 0.246659
O O5 0.500000 0.322433 0.500000
O O6 0.627263 0.500000 0.454781
O O7 0.665085 0.237167 0.529304
O O8 0.866451 0.769417 0.118218
O O9 0.899858 0.732280 0.330737
O O10 0.885690 0.000000 0.246659
O O11 0.750000 0.500000 0.807197
O O12 0.750000 0.236536 0.718890
O O13 0.836072 0.294312 0.907941
O O14 0.663928 0.294312 0.907941
O O15 0.122057 0.500000 0.958918
O O16 0.000000 0.688881 0.000000
O O17 0.127264 0.500000 0.545220
O O18 0.165085 0.237167 0.470696
O O19 0.000000 0.322434 0.500000
O O20 0.750000 0.000000 0.592772
O O21 0.622058 0.500000 0.041082
O O22 0.500000 0.688880 0.000000
#
# Coordination Sequence:
#
# PCOD9153688 Si02
#       8
#     4   4   4   4   4   4   4   4
#     4  11  23  40  64  94 127 161 203 259 321 375
#     4  11  25  44  68  94 123 166 217 262 309 372
#     4  11  23  40  64  94 127 161 203 259 321 375
#     4  10  22  41  62  87 126 167 207 257 305 362
#     4  10  22  40  64  92 121 162 213 257 304 367
#     4  11  25  44  68  94 123 166 217 262 309 372
#     4  12  26  43  64  93 132 169 205 257 321 380
#     4  10  22  40  64  92 121 162 213 257 304 367
#
# _framework density 19.08484
#
# number of rings (size 3 to 8) (size 9 to 14) (size 15 to 20)
#    0.000    1.250    2.500    2.625    3.500    4.500 
#    0.000    0.000    0.000    0.000    0.000    0.000 
#    0.000    0.000    0.000    0.000    0.000    0.000 
#
# Total GULP energy -178911.667788 kJ/mol
# GULP energy per Si atom -5590.989618 kJ/mol
# Density = 1.904140 g / cm^3
# Si number density = 19.084840 Si / 1000 Ang^3
#
#
#
# Elastic Constant Matrix: (Units=GPa)
#
#
# Indices 1 2 3 4 5 6 
#
# 1 61.2942 36.9856 11.3984 0.0000 0.0001 0.0000
# 2 36.9856 134.4737 70.3399 0.0000 -0.0002 0.0000
# 3 11.3984 70.3399 102.6255 0.0000 0.0000 0.0000
# 4 0.0000 0.0000 0.0000 186.3821 0.0000 0.0003
# 5 0.0001 -0.0002 0.0000 0.0000 23.4999 0.0000
# 6 0.0000 0.0000 0.0000 0.0003 0.0000 -4.2063
#
#
#
# Elastic Compliance Matrix: (Units=1/GPa)
#
#
# Indices 1 2 3 4 5 6 
#
# 1 0.019935 -0.006742 0.002407 0.000000 0.000000 0.000000
# 2 -0.006742 0.013873 -0.008760 0.000000 0.000000 0.000000
# 3 0.002407 -0.008760 0.015481 0.000000 0.000000 0.000000
# 4 0.000000 0.000000 0.000000 0.005365 0.000000 0.000000
# 5 0.000000 0.000000 0.000000 0.000000 0.042553 0.000000
# 6 0.000000 0.000000 0.000000 0.000000 0.000000 -0.237738
#
#
# Mechanical properties :
#
#
# Convention : Reuss Voigt Hill
#
# Bulk Modulus (GPa) = 43.29144 59.53790 51.41467
# Shear Modulus (GPa) = -46.88577 53.11312 3.11367
#
# Velocity S-wave (km/s) = -4.96189 5.28114 1.27868
# Velocity P-wave (km/s) = 3.17714 8.27354 5.40172
#
# Compressibility (1/GPa) = 0.02309925
#
# Stress axis : x y z
#
# Youngs Moduli (GPa) = 50.16214 72.08462 64.59672
#
# Poissons Ratio (x) = 0.48599 -0.15547
# Poissons Ratio (y) = 0.33819 0.56584
# Poissons Ratio (z) = -0.12073 0.63143
#
# Static dielectric constant tensor:
#      x y z
#    x 1.667620 0.000000 0.000000 
#    y 0.000000 1.647290 0.000000 
#    z 0.000000 0.000000 1.628580 
# 
# From -- ./inp_files/49819.got.cif
#   From: 2010.05.17/outbox.cif.g08.bks.cpg/sg10_25_cif.got.tgz:49819.got - 2010.06.03 11:33:40.
