data_PCOD9153563
_publ_section_title
;
Structure prediction by ZEFSAII (Michael W. Deem and Ramdas Pophale) SiO2 
 PCOD9153563
Probable space group: P 2/M
;
_chemical_formula_sum "Si O2"
_cell_formula_units_Z 32
_cell_length_a 14.723747
_cell_length_b 14.280256
_cell_length_c 20.562259
_cell_angle_alpha 90.000000
_cell_angle_beta 159.764324
_cell_angle_gamma 90.000000
_cell_volume 1495.387516
_symmetry_space_group_name_H-M "P 2/M"
_symmetry_group_IT_number 10
_symmetry_cell_setting 'monoclinic'
loop_
_space_group_symop_operation_xyz
x,y,z
-x,y,-z
-x,-y,-z
x,-y,z
loop_
_atom_site_type_symbol
_atom_site_label
_atom_site_fract_x
_atom_site_fract_y
_atom_site_fract_z
Si Si1 0.441967 0.609199 0.133785
Si Si2 0.378231 0.895278 0.812542
Si Si3 0.562247 0.752515 0.471684
Si Si4 0.082228 0.111268 0.129976
Si Si5 0.319149 0.693310 0.576623
Si Si6 0.863109 0.214881 0.104882
Si Si7 0.751085 0.611384 0.212829
Si Si8 0.208969 0.894634 0.546831
O O1 0.375894 0.500000 0.085419
O O2 0.549194 0.638356 0.275940
O O3 0.669193 0.627588 0.232703
O O4 0.204720 0.677992 0.956924
O O5 0.290640 0.892017 0.677743
O O6 0.106498 0.880675 0.667930
O O7 0.472423 0.000000 0.890228
O O8 0.619108 0.825555 0.981354
O O9 0.500000 0.709569 0.500000
O O10 0.357985 0.836983 0.326417
O O11 0.545252 0.679900 0.401514
O O12 0.859462 0.790582 0.673231
O O13 0.892423 0.156946 0.057022
O O14 0.094392 0.000000 0.148641
O O15 0.000000 0.127986 0.000000
O O16 0.339196 0.804984 0.602246
O O17 0.014542 0.664428 0.371231
O O18 0.796776 0.500000 0.235316
O O19 0.500000 0.635989 0.000000
O O20 0.274426 0.000000 0.566734
#
# Coordination Sequence:
#
# PCOD9153563 Si02
#       8
#     4   4   4   4   4   4   4   4
#     4  11  23  38  63  98 128 158 204 257 307 372
#     4   9  17  31  52  84 121 160 200 240 297 369
#     4  10  25  42  61  88 122 161 208 263 322 374
#     4  10  22  40  64  93 122 155 206 268 319 366
#     4  12  21  37  63  87 121 167 211 261 314 373
#     4  11  20  38  62  84 120 164 206 249 315 380
#     4  10  22  39  61  94 132 166 203 250 310 379
#     4   9  19  32  51  84 124 160 203 250 296 366
#
# _framework density 21.399135999999999
#
# number of rings (size 3 to 8) (size 9 to 14) (size 15 to 20)
#    0.000    1.750    1.250    4.125    1.750    4.250 
#    0.000    0.625    0.000   19.125    0.000    0.000 
#    0.000    0.000    0.000    0.000    0.000    0.000 
#
# Total GULP energy -178917.847973 kJ/mol
# GULP energy per Si atom -5591.182749 kJ/mol
# Density = 2.135043 g / cm^3
# Si number density = 21.399136 Si / 1000 Ang^3
#
#
#
# Elastic Constant Matrix: (Units=GPa)
#
#
# Indices 1 2 3 4 5 6 
#
# 1 86.9690 37.3575 -1.3857 0.0000 -14.1642 0.0000
# 2 37.3575 87.8419 28.7729 0.0000 8.5904 0.0000
# 3 -1.3857 28.7729 80.7158 0.0000 6.6885 0.0000
# 4 0.0000 0.0000 0.0000 19.7250 0.0000 4.4160
# 5 -14.1642 8.5904 6.6885 0.0000 20.7972 0.0000
# 6 0.0000 0.0000 0.0000 4.4160 0.0000 18.6643
#
#
#
# Elastic Compliance Matrix: (Units=1/GPa)
#
#
# Indices 1 2 3 4 5 6 
#
# 1 0.018618 -0.010371 0.002682 0.000000 0.016102 0.000000
# 2 -0.010371 0.018990 -0.005869 0.000000 -0.013020 0.000000
# 3 0.002682 -0.005869 0.014563 0.000000 -0.000433 0.000000
# 4 0.000000 0.000000 0.000000 0.053533 0.000000 -0.012666
# 5 0.016102 -0.013020 -0.000433 0.000000 0.064567 0.000000
# 6 0.000000 0.000000 0.000000 -0.012666 0.000000 0.056575
#
#
# Mechanical properties :
#
#
# Convention : Reuss Voigt Hill
#
# Bulk Modulus (GPa) = 39.90928 42.77956 41.34442
# Shear Modulus (GPa) = 19.06110 24.55608 21.80859
#
# Velocity S-wave (km/s) = 2.98777 3.39119 3.19585
# Velocity P-wave (km/s) = 5.53107 5.94712 5.74287
#
# Compressibility (1/GPa) = 0.02505683
#
# Stress axis : x y z
#
# Youngs Moduli (GPa) = 53.71005 52.65805 68.66684
#
# Poissons Ratio (x) = 0.54614 -0.18420
# Poissons Ratio (y) = 0.55705 0.40298
# Poissons Ratio (z) = -0.14408 0.30903
#
# Static dielectric constant tensor:
#      x y z
#    x 1.830100 0.000000 -0.017110 
#    y 0.000000 1.749140 0.000000 
#    z -0.017110 0.000000 1.774100 
# 
# From -- ./inp_files/85415.got.cif
#   From: 2010.05.17/outbox.cif.g08.bks.cpg/sg10_43_cif.got.tgz:85415.got - 2010.06.03 11:33:40.
