data_PCOD9153987
_publ_section_title
;
Structure prediction by ZEFSAII (Michael W. Deem and Ramdas Pophale) SiO2 
 PCOD9153987
Probable space group: P 2/M
;
_chemical_formula_sum "Si O2"
_cell_formula_units_Z 14
_cell_length_a 5.206739
_cell_length_b 19.815723
_cell_length_c 5.110926
_cell_angle_alpha 90.000000
_cell_angle_beta 93.036033
_cell_angle_gamma 90.000000
_cell_volume 526.581176
_symmetry_space_group_name_H-M "P 2/M"
_symmetry_group_IT_number 10
_symmetry_cell_setting 'monoclinic'
loop_
_space_group_symop_operation_xyz
x,y,z
-x,y,-z
-x,-y,-z
x,-y,z
loop_
_atom_site_type_symbol
_atom_site_label
_atom_site_fract_x
_atom_site_fract_y
_atom_site_fract_z
Si Si1 0.500000 0.826139 0.500000
Si Si2 0.828564 0.718643 0.227925
Si Si3 0.830670 0.080668 0.243052
Si Si4 0.259632 0.427434 0.684260
O O1 0.604739 0.768010 0.302091
O O2 0.440402 0.885128 0.717303
O O3 0.747469 0.642054 0.157732
O O4 0.000000 0.716192 0.500000
O O5 0.000000 0.745283 0.000000
O O6 0.000000 0.107908 0.500000
O O7 0.806610 0.000000 0.256317
O O8 0.000000 0.096872 0.000000
O O9 0.500000 0.423980 0.500000
O O10 0.267209 0.500000 0.827198
O O11 0.000000 0.428196 0.500000
#
# Coordination Sequence:
#
# PCOD9153987 Si02
#       4
#     2   4   4   4
#     4  12  23  42  65  94 124 174 206 268 319 404
#     4  11  25  42  62  93 130 169 216 271 330 394
#     4  10  23  42  64  93 126 162 210 263 318 386
#     4   9  18  38  64  94 130 175 226 281 338 400
#
# _framework density 26.586593000000001
#
# number of rings (size 3 to 8) (size 9 to 14) (size 15 to 20)
#    0.000    1.714    1.429    2.143    0.000    5.143 
#    0.000    4.286    0.000    8.571    0.000    0.000 
#    0.000    0.000    0.000    0.000    0.000    0.000 
#
# Total GULP energy -77972.107071 kJ/mol
# GULP energy per Si atom -5569.436219 kJ/mol
# Density = 2.652608 g / cm^3
# Si number density = 26.586593 Si / 1000 Ang^3
#
#
#
# Elastic Constant Matrix: (Units=GPa)
#
#
# Indices 1 2 3 4 5 6 
#
# 1 114.2076 -2.9360 49.0088 0.0000 -14.3029 0.0000
# 2 -2.9360 205.2882 61.9218 0.0000 -39.4467 0.0000
# 3 49.0088 61.9218 208.4902 0.0000 -50.6269 0.0000
# 4 0.0000 0.0000 0.0000 43.1975 0.0000 -45.6991
# 5 -14.3029 -39.4467 -50.6269 0.0000 68.4710 0.0000
# 6 0.0000 0.0000 0.0000 -45.6991 0.0000 15.6295
#
#
#
# Elastic Compliance Matrix: (Units=1/GPa)
#
#
# Indices 1 2 3 4 5 6 
#
# 1 0.009937 0.001045 -0.002433 0.000000 0.000879 0.000000
# 2 0.001045 0.005782 -0.001342 0.000000 0.002557 0.000000
# 3 -0.002433 -0.001342 0.006650 0.000000 0.003635 0.000000
# 4 0.000000 0.000000 0.000000 -0.011059 0.000000 -0.032336
# 5 0.000879 0.002557 0.003635 0.000000 0.018949 0.000000
# 6 0.000000 0.000000 0.000000 -0.032336 0.000000 -0.030566
#
#
# Mechanical properties :
#
#
# Convention : Reuss Voigt Hill
#
# Bulk Modulus (GPa) = 59.14040 82.66390 70.90215
# Shear Modulus (GPa) = 463.44225 53.45902 258.45064
#
# Velocity S-wave (km/s) = 13.21714 4.48900 9.87025
# Velocity P-wave (km/s) = 15.97549 7.61761 12.51488
#
# Compressibility (1/GPa) = 0.01690892
#
# Stress axis : x y z
#
# Youngs Moduli (GPa) = 100.63571 172.94132 150.38598
#
# Poissons Ratio (x) = -0.18069 0.36584
# Poissons Ratio (y) = -0.10514 0.20182
# Poissons Ratio (z) = 0.24482 0.23208
#
# Static dielectric constant tensor:
#      x y z
#    x 2.434390 0.000000 0.054790 
#    y 0.000000 2.060420 0.000000 
#    z 0.054790 0.000000 2.004340 
# 
# From -- ./inp_files/963.got.cif
#   From: 2010.05.17/outbox.cif.g08.bks.cpg/sg10_1_cif.got.tgz:963.got - 2010.06.03 11:33:40.
