data_PCOD9153542
_publ_section_title
;
Structure prediction by ZEFSAII (Michael W. Deem and Ramdas Pophale) SiO2 
 PCOD9153542
Probable space group: P 2/M
;
_chemical_formula_sum "Si O2"
_cell_formula_units_Z 24
_cell_length_a 13.528110
_cell_length_b 14.914145
_cell_length_c 8.096281
_cell_angle_alpha 90.000000
_cell_angle_beta 47.114896
_cell_angle_gamma 90.000000
_cell_volume 1196.903171
_symmetry_space_group_name_H-M "P 2/M"
_symmetry_group_IT_number 10
_symmetry_cell_setting 'monoclinic'
loop_
_space_group_symop_operation_xyz
x,y,z
-x,y,-z
-x,-y,-z
x,-y,z
loop_
_atom_site_type_symbol
_atom_site_label
_atom_site_fract_x
_atom_site_fract_y
_atom_site_fract_z
Si Si1 0.797186 0.396210 0.357228
Si Si2 0.378943 0.743422 0.241900
Si Si3 0.894042 0.397013 0.877399
Si Si4 0.410732 0.100155 0.437437
Si Si5 0.147036 0.218612 0.258353
Si Si6 0.134419 0.894052 0.940353
O O1 0.757383 0.500000 0.427110
O O2 0.696125 0.327570 0.556342
O O3 0.946989 0.385412 0.263882
O O4 0.816780 0.381843 0.138693
O O5 0.446079 0.821679 0.273248
O O6 0.265566 0.789969 0.256036
O O7 0.500000 0.700508 0.000000
O O8 0.872561 0.500000 0.849644
O O9 0.852103 0.323119 0.794711
O O10 0.500000 0.104602 0.500000
O O11 0.257684 0.113594 0.673229
O O12 0.425134 0.000000 0.350433
O O13 0.000000 0.197065 0.500000
O O14 0.163217 0.160567 0.073856
O O15 0.117642 0.000000 0.998856
O O16 0.000000 0.861196 0.000000
#
# Coordination Sequence:
#
# PCOD9153542 Si02
#       6
#     4   4   4   4   4   4
#     4   9  19  38  62  86 116 159 205 244 286 344
#     4  12  25  38  57  93 129 153 187 247 310 355
#     4   9  19  37  63  88 112 155 212 249 274 341
#     4  10  22  43  66  83 109 160 211 242 280 351
#     4  12  23  35  59  90 122 157 192 244 304 354
#     4  10  22  39  60  85 116 155 199 245 292 348
#
# _framework density 20.051746000000001
#
# number of rings (size 3 to 8) (size 9 to 14) (size 15 to 20)
#    0.000    1.667    1.667    4.000    2.333    2.667 
#    0.000    0.000    0.000    2.500    0.000    0.000 
#    0.000    0.000    0.000    0.000    0.000    0.000 
#
# Total GULP energy -134183.371299 kJ/mol
# GULP energy per Si atom -5590.973804 kJ/mol
# Density = 2.000611 g / cm^3
# Si number density = 20.051746 Si / 1000 Ang^3
#
#
#
# Elastic Constant Matrix: (Units=GPa)
#
#
# Indices 1 2 3 4 5 6 
#
# 1 30.7997 0.6807 -6.6020 0.0000 -5.4694 0.0000
# 2 0.6807 73.2890 37.4050 0.0000 13.0607 0.0000
# 3 -6.6020 37.4050 72.2777 0.0000 -8.5292 0.0000
# 4 0.0000 0.0000 0.0000 -10.9363 0.0000 -9.7806
# 5 -5.4694 13.0607 -8.5292 0.0000 26.0549 0.0000
# 6 0.0000 0.0000 0.0000 -9.7806 0.0000 21.6122
#
#
#
# Elastic Compliance Matrix: (Units=1/GPa)
#
#
# Indices 1 2 3 4 5 6 
#
# 1 0.037141 -0.007525 0.008999 0.000000 0.014514 0.000000
# 2 -0.007525 0.025482 -0.016194 0.000000 -0.019654 0.000000
# 3 0.008999 -0.016194 0.025192 0.000000 0.018254 0.000000
# 4 0.000000 0.000000 0.000000 -0.065093 0.000000 -0.029458
# 5 0.014514 -0.019654 0.018254 0.000000 0.057255 0.000000
# 6 0.000000 0.000000 0.000000 -0.029458 0.000000 0.032939
#
#
# Mechanical properties :
#
#
# Convention : Reuss Voigt Hill
#
# Bulk Modulus (GPa) = 17.13019 26.59266 21.86142
# Shear Modulus (GPa) = 30.89977 17.00500 23.95239
#
# Velocity S-wave (km/s) = 3.92982 2.91530 3.45994
# Velocity P-wave (km/s) = 5.39934 4.96213 5.18534
#
# Compressibility (1/GPa) = 0.05837647
#
# Stress axis : x y z
#
# Youngs Moduli (GPa) = 26.92466 39.24311 39.69461
#
# Poissons Ratio (x) = 0.29529 -0.35723
# Poissons Ratio (y) = 0.20260 0.64282
# Poissons Ratio (z) = -0.24231 0.63551
#
# Static dielectric constant tensor:
#      x y z
#    x 1.678400 0.000000 0.030630 
#    y 0.000000 1.702500 0.000000 
#    z 0.030630 0.000000 1.625490 
# 
# From -- ./inp_files/29267.got.cif
#   From: 2010.05.17/outbox.cif.g08.bks.cpg/sg10_15_cif.got.tgz:29267.got - 2010.06.03 11:33:40.
