data_PCOD9153164
_publ_section_title
;
Structure prediction by ZEFSAII (Michael W. Deem and Ramdas Pophale) SiO2 
 PCOD9153164
Probable space group: P 2/M
;
_chemical_formula_sum "Si O2"
_cell_formula_units_Z 32
_cell_length_a 11.363890
_cell_length_b 18.271617
_cell_length_c 14.605728
_cell_angle_alpha 90.000000
_cell_angle_beta 30.658534
_cell_angle_gamma 90.000000
_cell_volume 1546.427911
_symmetry_space_group_name_H-M "P 2/M"
_symmetry_group_IT_number 10
_symmetry_cell_setting 'monoclinic'
loop_
_space_group_symop_operation_xyz
x,y,z
-x,y,-z
-x,-y,-z
x,-y,z
loop_
_atom_site_type_symbol
_atom_site_label
_atom_site_fract_x
_atom_site_fract_y
_atom_site_fract_z
Si Si1 0.242790 0.186099 0.560579
Si Si2 0.611096 0.582374 0.516595
Si Si3 0.684112 0.666327 0.158594
Si Si4 0.497010 0.784538 0.859702
Si Si5 0.792896 0.210173 0.203352
Si Si6 0.847039 0.582497 0.876343
Si Si7 0.231078 0.084151 0.406209
Si Si8 0.831773 0.272714 0.775212
O O1 0.522051 0.189937 0.371491
O O2 0.165992 0.192147 0.717793
O O3 0.182442 0.115217 0.540484
O O4 0.099136 0.251091 0.606648
O O5 0.500000 0.616186 0.500000
O O6 0.514446 0.500000 0.589188
O O7 0.537357 0.625050 0.655116
O O8 0.880983 0.578701 0.322130
O O9 0.619291 0.735935 0.140620
O O10 0.794892 0.703422 0.175159
O O11 0.805887 0.610874 0.007239
O O12 0.582877 0.861557 0.764200
O O13 0.718895 0.741403 0.752480
O O14 0.306592 0.784776 0.067208
O O15 0.000000 0.178685 0.000000
O O16 0.751254 0.500000 0.927108
O O17 0.772093 0.647565 0.857063
O O18 0.000000 0.089357 0.500000
O O19 0.305668 0.000000 0.358951
#
# Coordination Sequence:
#
# PCOD9153164 Si02
#       8
#     4   4   4   4   4   4   4   4
#     4  11  23  41  66  96 130 170 217 264 314 385
#     4  10  23  37  52  79 118 160 204 256 320 375
#     4  11  22  36  63  87 119 165 213 262 311 375
#     4  10  21  40  64  96 124 163 214 262 315 383
#     4  11  24  38  63  97 127 167 224 267 307 370
#     4  10  22  39  56  86 128 165 210 269 323 373
#     4  11  23  42  68 101 135 165 204 266 331 384
#     4  10  21  40  65  92 125 168 219 265 316 379
#
# _framework density 20.692848999999999
#
# number of rings (size 3 to 8) (size 9 to 14) (size 15 to 20)
#    0.000    1.500    2.500    2.625    5.250    0.000 
#    0.000   10.625    0.000    2.250    0.000    0.000 
#    0.000    0.000    0.000    0.000    0.000    0.000 
#
# Total GULP energy -178405.806128 kJ/mol
# GULP energy per Si atom -5575.181442 kJ/mol
# Density = 2.064575 g / cm^3
# Si number density = 20.692849 Si / 1000 Ang^3
#
#
#
# Elastic Constant Matrix: (Units=GPa)
#
#
# Indices 1 2 3 4 5 6 
#
# 1 69.9725 18.9725 22.3807 0.0000 5.0671 0.0000
# 2 18.9725 129.6452 37.2197 0.0000 14.0376 0.0000
# 3 22.3807 37.2197 111.1093 0.0000 10.8793 0.0000
# 4 0.0000 0.0000 0.0000 31.8192 0.0000 -1.4608
# 5 5.0671 14.0376 10.8793 0.0000 33.0745 0.0000
# 6 0.0000 0.0000 0.0000 -1.4608 0.0000 24.8379
#
#
#
# Elastic Compliance Matrix: (Units=1/GPa)
#
#
# Indices 1 2 3 4 5 6 
#
# 1 0.015569 -0.001442 -0.002562 0.000000 -0.000930 0.000000
# 2 -0.001442 0.008921 -0.002427 0.000000 -0.002767 0.000000
# 3 -0.002562 -0.002427 0.010529 0.000000 -0.002041 0.000000
# 4 0.000000 0.000000 0.000000 0.031513 0.000000 0.001853
# 5 -0.000930 -0.002767 -0.002041 0.000000 0.032223 0.000000
# 6 0.000000 0.000000 0.000000 0.001853 0.000000 0.040370
#
#
# Mechanical properties :
#
#
# Convention : Reuss Voigt Hill
#
# Bulk Modulus (GPa) = 45.13245 51.98587 48.55916
# Shear Modulus (GPa) = 31.37314 33.42328 32.39821
#
# Velocity S-wave (km/s) = 3.89798 4.02333 3.96115
# Velocity P-wave (km/s) = 6.48976 6.83813 6.66622
#
# Compressibility (1/GPa) = 0.02215700
#
# Stress axis : x y z
#
# Youngs Moduli (GPa) = 64.22958 112.09842 94.97605
#
# Poissons Ratio (x) = 0.16167 0.24332
# Poissons Ratio (y) = 0.09263 0.23049
# Poissons Ratio (z) = 0.16455 0.27205
#
# Static dielectric constant tensor:
#      x y z
#    x 1.832810 0.000000 -0.007170 
#    y 0.000000 1.746740 0.000000 
#    z -0.007170 0.000000 1.801450 
# 
# From -- ./inp_files/65387.got.cif
#   From: 2010.05.17/outbox.cif.g08.bks.cpg/sg10_33_cif.got.tgz:65387.got - 2010.06.03 11:33:40.
