data_PCOD9153699
_publ_section_title
;
Structure prediction by ZEFSAII (Michael W. Deem and Ramdas Pophale) SiO2 
 PCOD9153699
Probable space group: P 2/M
;
_chemical_formula_sum "Si O2"
_cell_formula_units_Z 20
_cell_length_a 10.044556
_cell_length_b 7.926329
_cell_length_c 27.745834
_cell_angle_alpha 90.000000
_cell_angle_beta 26.655884
_cell_angle_gamma 90.000000
_cell_volume 991.037069
_symmetry_space_group_name_H-M "P 2/M"
_symmetry_group_IT_number 10
_symmetry_cell_setting 'monoclinic'
loop_
_space_group_symop_operation_xyz
x,y,z
-x,y,-z
-x,-y,-z
x,-y,z
loop_
_atom_site_type_symbol
_atom_site_label
_atom_site_fract_x
_atom_site_fract_y
_atom_site_fract_z
Si Si1 0.634058 0.799155 0.808452
Si Si2 0.375179 0.696913 0.988585
Si Si3 0.213616 0.189166 0.559375
Si Si4 0.260391 0.500000 0.476052
Si Si5 0.558746 0.500000 0.684798
Si Si6 0.736087 0.805998 0.163132
O O1 0.602537 0.713802 0.870486
O O2 0.357681 0.765195 0.861739
O O3 0.928518 0.754243 0.682977
O O4 0.644995 0.000000 0.813436
O O5 0.295898 0.500000 0.020549
O O6 0.500000 0.757162 0.000000
O O7 0.081530 0.790923 0.064631
O O8 0.500000 0.176178 0.500000
O O9 0.294767 0.328649 0.494400
O O10 0.147229 0.000000 0.561592
O O11 0.480034 0.500000 0.359861
O O12 0.911247 0.500000 0.576921
O O13 0.427511 0.667170 0.751553
O O14 0.639606 0.000000 0.202658
#
# Coordination Sequence:
#
# PCOD9153699 Si02
#       6
#     4   4   4   2   2   4
#     4  10  22  40  65  94 123 166 218 258 309 377
#     4  11  25  41  62  96 132 165 207 258 319 382
#     4  10  22  41  64  94 127 167 215 258 310 371
#     4  11  23  40  63  92 130 166 207 261 315 369
#     4  11  24  40  63  97 124 164 213 255 318 371
#     4  11  23  43  68  94 126 167 214 259 311 377
#
# _framework density 20.180879999999998
#
# number of rings (size 3 to 8) (size 9 to 14) (size 15 to 20)
#    0.000    1.400    3.000    1.500    2.800    6.400 
#    0.000    4.000    0.000    0.000    0.000    0.000 
#    0.000    0.000    0.000    0.000    0.000    0.000 
#
# Total GULP energy -111655.510727 kJ/mol
# GULP energy per Si atom -5582.775536 kJ/mol
# Density = 2.013495 g / cm^3
# Si number density = 20.180880 Si / 1000 Ang^3
#
#
#
# Elastic Constant Matrix: (Units=GPa)
#
#
# Indices 1 2 3 4 5 6 
#
# 1 121.3467 36.1622 42.7367 0.0000 18.9817 0.0000
# 2 36.1622 98.2170 29.5012 0.0000 29.3322 0.0000
# 3 42.7367 29.5012 48.5822 0.0000 21.0739 0.0000
# 4 0.0000 0.0000 0.0000 35.5889 0.0000 2.3631
# 5 18.9817 29.3322 21.0739 0.0000 42.5749 0.0000
# 6 0.0000 0.0000 0.0000 2.3631 0.0000 29.2976
#
#
#
# Elastic Compliance Matrix: (Units=1/GPa)
#
#
# Indices 1 2 3 4 5 6 
#
# 1 0.012142 -0.001682 -0.009950 0.000000 0.000671 0.000000
# 2 -0.001682 0.014098 -0.004066 0.000000 -0.006950 0.000000
# 3 -0.009950 -0.004066 0.036504 0.000000 -0.010831 0.000000
# 4 0.000000 0.000000 0.000000 0.028250 0.000000 -0.002279
# 5 0.000671 -0.006950 -0.010831 0.000000 0.033338 0.000000
# 6 0.000000 0.000000 0.000000 -0.002279 0.000000 0.034316
#
#
# Mechanical properties :
#
#
# Convention : Reuss Voigt Hill
#
# Bulk Modulus (GPa) = 31.90156 53.88291 42.89223
# Shear Modulus (GPa) = 24.93831 32.14200 28.54015
#
# Velocity S-wave (km/s) = 3.51912 3.99519 3.76469
# Velocity P-wave (km/s) = 5.68809 6.93109 6.34013
#
# Compressibility (1/GPa) = 0.03134643
#
# Stress axis : x y z
#
# Youngs Moduli (GPa) = 82.36210 70.93272 27.39392
#
# Poissons Ratio (x) = 0.11930 0.27258
# Poissons Ratio (y) = 0.13853 0.11140
# Poissons Ratio (z) = 0.81953 0.28845
#
# Static dielectric constant tensor:
#      x y z
#    x 1.745440 0.000000 -0.004820 
#    y 0.000000 1.722170 0.000000 
#    z -0.004820 0.000000 1.714060 
# 
# From -- ./inp_files/71247.got.cif
#   From: 2010.05.17/outbox.cif.g08.bks.cpg/sg10_36_cif.got.tgz:71247.got - 2010.06.03 11:33:40.
