data_PCOD9153521
_publ_section_title
;
Structure prediction by ZEFSAII (Michael W. Deem and Ramdas Pophale) SiO2 
 PCOD9153521
Probable space group: P 2/M
;
_chemical_formula_sum "Si O2"
_cell_formula_units_Z 32
_cell_length_a 18.034642
_cell_length_b 13.951458
_cell_length_c 12.001159
_cell_angle_alpha 90.000000
_cell_angle_beta 147.107207
_cell_angle_gamma 90.000000
_cell_volume 1639.854027
_symmetry_space_group_name_H-M "P 2/M"
_symmetry_group_IT_number 10
_symmetry_cell_setting 'monoclinic'
loop_
_space_group_symop_operation_xyz
x,y,z
-x,y,-z
-x,-y,-z
x,-y,z
loop_
_atom_site_type_symbol
_atom_site_label
_atom_site_fract_x
_atom_site_fract_y
_atom_site_fract_z
Si Si1 0.167582 0.735107 0.987987
Si Si2 0.385312 0.388414 0.653121
Si Si3 0.971964 0.390676 0.596311
Si Si4 0.346717 0.887321 0.638497
Si Si5 0.590025 0.242789 0.864463
Si Si6 0.040334 0.888751 0.179718
Si Si7 0.299255 0.269645 0.748970
Si Si8 0.162405 0.611831 0.192018
O O1 0.097498 0.652599 0.823699
O O2 0.054463 0.816080 0.871407
O O3 0.296791 0.776538 0.085048
O O4 0.209333 0.684103 0.155751
O O5 0.407639 0.500000 0.693955
O O6 0.503326 0.338545 0.730212
O O7 0.383621 0.337594 0.770893
O O8 0.243073 0.371554 0.408739
O O9 0.938080 0.500000 0.591581
O O10 0.000000 0.395864 0.500000
O O11 0.849715 0.315101 0.453326
O O12 0.474926 0.838101 0.739257
O O13 0.201788 0.868910 0.394997
O O14 0.324798 0.834733 0.728912
O O15 0.367458 0.000000 0.675404
O O16 0.663647 0.263986 0.075320
O O17 0.018864 0.000000 0.187164
O O18 0.000000 0.879713 0.000000
O O19 0.185861 0.500000 0.191379
O O20 0.000000 0.625331 0.000000
#
# Coordination Sequence:
#
# PCOD9153521 Si02
#       8
#     4   4   4   4   4   4   4   4
#     4  12  23  40  64  94 130 164 201 261 315 377
#     4  10  22  39  58  85 123 166 212 256 304 360
#     4  11  22  37  61  91 129 171 210 253 308 367
#     4  10  22  43  68  91 121 162 208 259 315 375
#     4  11  26  38  58  94 132 160 205 252 311 382
#     4  10  23  43  69  96 119 157 211 261 313 373
#     4  11  21  40  61  91 124 160 216 262 297 369
#     4  10  22  39  62  90 120 162 217 263 301 366
#
# _framework density 19.513933000000002
#
# number of rings (size 3 to 8) (size 9 to 14) (size 15 to 20)
#    0.000    1.375    2.500    3.375    5.250    5.500 
#    0.000    1.250    0.000    4.500    0.000    0.000 
#    0.000    0.000    0.000    0.000    0.000    0.000 
#
# Total GULP energy -178715.856814 kJ/mol
# GULP energy per Si atom -5584.870525 kJ/mol
# Density = 1.946952 g / cm^3
# Si number density = 19.513933 Si / 1000 Ang^3
#
#
#
# Elastic Constant Matrix: (Units=GPa)
#
#
# Indices 1 2 3 4 5 6 
#
# 1 101.7172 55.4210 37.9574 0.0000 14.8012 0.0000
# 2 55.4210 130.8261 37.3269 0.0000 6.6146 0.0000
# 3 37.9574 37.3269 86.4818 0.0000 3.3642 0.0000
# 4 0.0000 0.0000 0.0000 19.4277 0.0000 1.3777
# 5 14.8012 6.6146 3.3642 0.0000 30.5765 0.0000
# 6 0.0000 0.0000 0.0000 1.3777 0.0000 10.8950
#
#
#
# Elastic Compliance Matrix: (Units=1/GPa)
#
#
# Indices 1 2 3 4 5 6 
#
# 1 0.014849 -0.004797 -0.004226 0.000000 -0.005685 0.000000
# 2 -0.004797 0.010334 -0.002368 0.000000 0.000347 0.000000
# 3 -0.004226 -0.002368 0.014402 0.000000 0.000973 0.000000
# 4 0.000000 0.000000 0.000000 0.051939 0.000000 -0.006568
# 5 -0.005685 0.000347 0.000973 0.000000 0.035275 0.000000
# 6 0.000000 0.000000 0.000000 -0.006568 0.000000 0.092616
#
#
# Mechanical properties :
#
#
# Convention : Reuss Voigt Hill
#
# Bulk Modulus (GPa) = 59.51357 64.49285 62.00321
# Shear Modulus (GPa) = 20.17772 24.73449 22.45610
#
# Velocity S-wave (km/s) = 3.21910 3.56410 3.39598
# Velocity P-wave (km/s) = 6.66191 7.07520 6.87166
#
# Compressibility (1/GPa) = 0.01680289
#
# Stress axis : x y z
#
# Youngs Moduli (GPa) = 67.34370 96.76642 69.43423
#
# Poissons Ratio (x) = 0.46422 0.29340
# Poissons Ratio (y) = 0.32307 0.16444
# Poissons Ratio (z) = 0.28457 0.22917
#
# Static dielectric constant tensor:
#      x y z
#    x 1.683510 0.000000 0.015360 
#    y 0.000000 1.684840 0.000000 
#    z 0.015360 0.000000 1.714310 
# 
# From -- ./inp_files/54070.got.cif
#   From: 2010.05.17/outbox.cif.g08.bks.cpg/sg10_28_cif.got.tgz:54070.got - 2010.06.03 11:33:40.
