data_PCOD9153348
_publ_section_title
;
Structure prediction by ZEFSAII (Michael W. Deem and Ramdas Pophale) SiO2 
 PCOD9153348
Probable space group: P 2/M
;
_chemical_formula_sum "Si O2"
_cell_formula_units_Z 24
_cell_length_a 12.380758
_cell_length_b 14.402240
_cell_length_c 14.424526
_cell_angle_alpha 90.000000
_cell_angle_beta 29.577241
_cell_angle_gamma 90.000000
_cell_volume 1269.553054
_symmetry_space_group_name_H-M "P 2/M"
_symmetry_group_IT_number 10
_symmetry_cell_setting 'monoclinic'
loop_
_space_group_symop_operation_xyz
x,y,z
-x,y,-z
-x,-y,-z
x,-y,z
loop_
_atom_site_type_symbol
_atom_site_label
_atom_site_fract_x
_atom_site_fract_y
_atom_site_fract_z
Si Si1 0.629713 0.709798 0.132862
Si Si2 0.799156 0.609512 0.580144
Si Si3 0.342272 0.892510 0.980106
Si Si4 0.942657 0.610486 0.262873
Si Si5 0.744803 0.605666 0.224353
Si Si6 0.169530 0.891352 0.300428
O O1 0.409571 0.674419 0.247286
O O2 0.627651 0.672433 0.239389
O O3 0.662512 0.819539 0.098902
O O4 0.835275 0.661772 0.929729
O O5 0.735042 0.500000 0.634390
O O6 0.000000 0.623839 0.500000
O O7 0.875734 0.627790 0.417907
O O8 0.192998 0.856591 0.177627
O O9 0.289979 0.000000 0.997583
O O10 0.589847 0.890982 0.834684
O O11 0.979222 0.500000 0.225056
O O12 0.762010 0.633675 0.319008
O O13 0.658609 0.500000 0.279936
O O14 0.000000 0.603508 0.000000
O O15 0.000000 0.848626 0.500000
O O16 0.106833 0.000000 0.335385
#
# Coordination Sequence:
#
# PCOD9153348 Si02
#       6
#     4   4   4   4   4   4
#     4  11  20  32  53  75 103 140 171 207 257 304
#     4  10  22  36  50  77 112 139 168 204 252 320
#     4   9  19  31  45  72 102 131 172 214 252 300
#     4   9  19  36  56  77 101 130 170 220 260 298
#     4   8  15  31  55  78  96 123 172 221 257 297
#     4   8  15  31  51  66  89 129 174 219 258 290
#
# _framework density 18.90429
#
# number of rings (size 3 to 8) (size 9 to 14) (size 15 to 20)
#    0.000    2.833    0.000    3.500    0.000    6.000 
#    0.000    5.000    0.000    4.500    0.000    1.167 
#    0.000    0.000    0.000    0.000    0.000    0.000 
#
# Total GULP energy -133864.795377 kJ/mol
# GULP energy per Si atom -5577.699807 kJ/mol
# Density = 1.886126 g / cm^3
# Si number density = 18.904290 Si / 1000 Ang^3
#
#
#
# Elastic Constant Matrix: (Units=GPa)
#
#
# Indices 1 2 3 4 5 6 
#
# 1 106.4444 51.7382 27.3814 0.0000 11.3191 0.0000
# 2 51.7382 83.6186 39.6464 0.0000 7.5365 0.0000
# 3 27.3814 39.6464 70.8046 0.0000 6.2691 0.0000
# 4 0.0000 0.0000 0.0000 11.1839 0.0000 2.0218
# 5 11.3191 7.5365 6.2691 0.0000 25.2975 0.0000
# 6 0.0000 0.0000 0.0000 2.0218 0.0000 0.2637
#
#
#
# Elastic Compliance Matrix: (Units=1/GPa)
#
#
# Indices 1 2 3 4 5 6 
#
# 1 0.013784 -0.007931 -0.000566 0.000000 -0.003665 0.000000
# 2 -0.007931 0.021020 -0.008653 0.000000 -0.000569 0.000000
# 3 -0.000566 -0.008653 0.019361 0.000000 -0.001967 0.000000
# 4 0.000000 0.000000 0.000000 -0.231453 0.000000 1.774892
# 5 -0.003665 -0.000569 -0.001967 0.000000 0.041827 0.000000
# 6 0.000000 0.000000 0.000000 1.774892 0.000000 -9.817894
#
#
# Mechanical properties :
#
#
# Convention : Reuss Voigt Hill
#
# Bulk Modulus (GPa) = 50.33184 55.37774 52.85479
# Shear Modulus (GPa) = -0.50442 16.82245 8.15902
#
# Velocity S-wave (km/s) = -0.51711 2.98631 2.07974
# Velocity P-wave (km/s) = 5.13087 6.42247 5.81265
#
# Compressibility (1/GPa) = 0.01986814
#
# Stress axis : x y z
#
# Youngs Moduli (GPa) = 72.54536 47.57424 51.64975
#
# Poissons Ratio (x) = 0.37729 0.02921
# Poissons Ratio (y) = 0.57532 0.44690
# Poissons Ratio (z) = 0.04103 0.41164
#
# Static dielectric constant tensor:
#      x y z
#    x 1.669260 0.000000 0.016410 
#    y 0.000000 1.659950 0.000000 
#    z 0.016410 0.000000 1.715880 
# 
# From -- ./inp_files/51532.got.cif
#   From: 2010.05.17/outbox.cif.g08.bks.cpg/sg10_26_cif.got.tgz:51532.got - 2010.06.03 11:33:40.
