data_PCOD9153516
_publ_section_title
;
Structure prediction by ZEFSAII (Michael W. Deem and Ramdas Pophale) SiO2 
 PCOD9153516
Probable space group: P 2/M
;
_chemical_formula_sum "Si O2"
_cell_formula_units_Z 32
_cell_length_a 20.639907
_cell_length_b 8.210813
_cell_length_c 26.448695
_cell_angle_alpha 90.000000
_cell_angle_beta 20.206724
_cell_angle_gamma 90.000000
_cell_volume 1548.213886
_symmetry_space_group_name_H-M "P 2/M"
_symmetry_group_IT_number 10
_symmetry_cell_setting 'monoclinic'
loop_
_space_group_symop_operation_xyz
x,y,z
-x,y,-z
-x,-y,-z
x,-y,z
loop_
_atom_site_type_symbol
_atom_site_label
_atom_site_fract_x
_atom_site_fract_y
_atom_site_fract_z
Si Si1 0.286401 0.692095 0.151154
Si Si2 0.188812 0.802674 0.331738
Si Si3 0.616883 0.689652 0.631647
Si Si4 0.474431 0.808489 0.842109
Si Si5 0.938361 0.698324 0.125358
Si Si6 0.704571 0.697723 0.205742
Si Si7 0.048435 0.693011 0.154846
Si Si8 0.964998 0.815204 0.323841
O O1 0.285415 0.500000 0.140614
O O2 0.190373 0.727139 0.275165
O O3 0.175148 0.784053 0.189101
O O4 0.500000 0.748356 0.000000
O O5 0.374896 0.751384 0.226427
O O6 0.000000 0.758081 0.500000
O O7 0.191896 0.000000 0.325233
O O8 0.570933 0.500000 0.674567
O O9 0.569820 0.782061 0.717568
O O10 0.485535 0.751440 0.681821
O O11 0.827892 0.706215 0.457952
O O12 0.441136 0.000000 0.874604
O O13 0.272554 0.722847 0.990431
O O14 0.932778 0.500000 0.131289
O O15 0.961739 0.755073 0.165494
O O16 0.765045 0.754317 0.217327
O O17 0.125900 0.740143 0.956537
O O18 0.698172 0.500000 0.213168
O O19 0.015945 0.500000 0.182197
O O20 0.959178 0.774503 0.269238
O O21 0.910391 0.000000 0.373458
#
# Coordination Sequence:
#
# PCOD9153516 Si02
#       8
#     4   4   4   4   4   4   4   4
#     4  11  24  42  64  89 113 144 192 246 292 343
#     4  10  22  39  58  82 114 152 190 229 283 348
#     4  11  21  37  61  89 118 154 199 247 291 340
#     4  11  22  36  58  88 121 155 191 235 291 354
#     4   8  14  28  54  87 118 147 188 241 290 336
#     4   8  14  28  54  88 118 147 188 239 291 339
#     4  11  21  37  60  87 115 151 198 248 288 335
#     4  12  26  42  59  82 119 161 194 236 295 360
#
# _framework density 20.668977999999999
#
# number of rings (size 3 to 8) (size 9 to 14) (size 15 to 20)
#    0.000    1.750    1.250    4.875    0.000    5.250 
#    0.000    0.625    0.000    7.500    0.000    0.000 
#    0.000    0.000    0.000    0.000    0.000    0.000 
#
# Total GULP energy -178796.635178 kJ/mol
# GULP energy per Si atom -5587.394849 kJ/mol
# Density = 2.062193 g / cm^3
# Si number density = 20.668978 Si / 1000 Ang^3
#
#
#
# Elastic Constant Matrix: (Units=GPa)
#
#
# Indices 1 2 3 4 5 6 
#
# 1 111.8592 6.4194 -8.6049 0.0000 -4.2205 0.0000
# 2 6.4194 21.0497 -8.9412 0.0000 -4.2257 0.0000
# 3 -8.6049 -8.9412 23.4646 0.0000 5.8579 0.0000
# 4 0.0000 0.0000 0.0000 5.4001 0.0000 12.9622
# 5 -4.2205 -4.2257 5.8579 0.0000 31.2096 0.0000
# 6 0.0000 0.0000 0.0000 12.9622 0.0000 8.3080
#
#
#
# Elastic Compliance Matrix: (Units=1/GPa)
#
#
# Indices 1 2 3 4 5 6 
#
# 1 0.009255 -0.001587 0.002655 0.000000 0.000538 0.000000
# 2 -0.001587 0.057386 0.020353 0.000000 0.003735 0.000000
# 3 0.002655 0.020353 0.053055 0.000000 -0.006843 0.000000
# 4 0.000000 0.000000 0.000000 -0.067460 0.000000 0.105252
# 5 0.000538 0.003735 -0.006843 0.000000 0.033904 0.000000
# 6 0.000000 0.000000 0.000000 0.105252 0.000000 -0.043849
#
#
# Mechanical properties :
#
#
# Convention : Reuss Voigt Hill
#
# Bulk Modulus (GPa) = 6.15240 14.90221 10.52730
# Shear Modulus (GPa) = 93.23277 20.15022 56.69149
#
# Velocity S-wave (km/s) = 6.72350 3.12573 5.24289
# Velocity P-wave (km/s) = 7.95343 4.50028 6.46180
#
# Compressibility (1/GPa) = 0.16253822
#
# Stress axis : x y z
#
# Youngs Moduli (GPa) = 108.04470 17.42597 18.84836
#
# Poissons Ratio (x) = 0.02765 -0.05004
# Poissons Ratio (y) = 0.17143 -0.38361
# Poissons Ratio (z) = -0.28687 -0.35466
#
# Static dielectric constant tensor:
#      x y z
#    x 1.750790 0.000000 -0.023300 
#    y 0.000000 1.711800 0.000000 
#    z -0.023300 0.000000 1.717290 
# 
# From -- ./inp_files/93646.got.cif
#   From: 2010.05.17/outbox.cif.g08.bks.cpg/sg10_47_cif.got.tgz:93646.got - 2010.06.03 11:33:40.
