data_PCOD9153393
_publ_section_title
;
Structure prediction by ZEFSAII (Michael W. Deem and Ramdas Pophale) SiO2 
 PCOD9153393
Probable space group: P 2/M
;
_chemical_formula_sum "Si O2"
_cell_formula_units_Z 32
_cell_length_a 8.683151
_cell_length_b 23.440772
_cell_length_c 15.454023
_cell_angle_alpha 90.000000
_cell_angle_beta 151.818133
_cell_angle_gamma 90.000000
_cell_volume 1485.534889
_symmetry_space_group_name_H-M "P 2/M"
_symmetry_group_IT_number 10
_symmetry_cell_setting 'monoclinic'
loop_
_space_group_symop_operation_xyz
x,y,z
-x,y,-z
-x,-y,-z
x,-y,z
loop_
_atom_site_type_symbol
_atom_site_label
_atom_site_fract_x
_atom_site_fract_y
_atom_site_fract_z
Si Si1 0.224195 0.126496 0.696596
Si Si2 0.735518 0.396306 0.041395
Si Si3 0.902423 0.715751 0.699994
Si Si4 0.880893 0.155147 0.707117
Si Si5 0.134163 0.064588 0.969698
Si Si6 0.274826 0.749444 0.706997
Si Si7 0.572370 0.436683 0.635443
Si Si8 0.609471 0.358107 0.806586
O O1 0.415280 0.187394 0.788310
O O2 0.000000 0.119194 0.500000
O O3 0.031677 0.135199 0.690518
O O4 0.480946 0.076341 0.833855
O O5 0.912362 0.335844 0.158009
O O6 0.035690 0.436656 0.168244
O O7 0.500000 0.415539 0.000000
O O8 0.514521 0.390202 0.847179
O O9 0.500000 0.708118 0.500000
O O10 0.965988 0.778726 0.771223
O O11 0.089334 0.723091 0.699496
O O12 0.500000 0.155488 0.500000
O O13 0.981304 0.110995 0.830154
O O14 0.065376 0.000000 0.906497
O O15 0.000000 0.071652 0.000000
O O16 0.514906 0.706024 0.779436
O O17 0.000000 0.758755 0.500000
O O18 0.500000 0.423248 0.500000
O O19 0.445649 0.500000 0.593186
O O20 0.467928 0.388239 0.651665
O O21 0.000000 0.362037 0.000000
#
# Coordination Sequence:
#
# PCOD9153393 Si02
#       8
#     4   4   4   4   4   4   4   4
#     4  10  22  41  63  93 132 170 218 266 329 388
#     4  11  22  37  62  97 130 162 205 261 322 381
#     4  10  22  38  62  93 131 171 207 256 319 389
#     4  10  22  41  65  95 129 171 215 271 330 393
#     4  11  25  43  65  93 127 174 224 276 322 381
#     4  10  22  37  59  94 130 167 207 259 315 386
#     4  10  24  46  68  88 122 172 220 264 312 378
#     4  10  23  38  61  95 126 164 206 257 319 373
#
# _framework density 21.541062
#
# number of rings (size 3 to 8) (size 9 to 14) (size 15 to 20)
#    0.000    1.750    1.250    1.500    7.000    5.500 
#    0.000    0.000    0.000    1.875    0.000    0.000 
#    0.000    0.000    0.000    0.000    0.000    0.000 
#
# Total GULP energy -178540.923544 kJ/mol
# GULP energy per Si atom -5579.403861 kJ/mol
# Density = 2.149203 g / cm^3
# Si number density = 21.541062 Si / 1000 Ang^3
#
#
#
# Elastic Constant Matrix: (Units=GPa)
#
#
# Indices 1 2 3 4 5 6 
#
# 1 62.8993 37.9734 -4.0358 0.0000 -9.6696 0.0000
# 2 37.9734 115.1774 24.3686 0.0000 -19.4743 0.0000
# 3 -4.0358 24.3686 47.9803 0.0000 -16.0879 0.0000
# 4 0.0000 0.0000 0.0000 15.8220 0.0000 -10.0809
# 5 -9.6696 -19.4743 -16.0879 0.0000 30.8591 0.0000
# 6 0.0000 0.0000 0.0000 -10.0809 0.0000 54.6962
#
#
#
# Elastic Compliance Matrix: (Units=1/GPa)
#
#
# Indices 1 2 3 4 5 6 
#
# 1 0.022140 -0.007954 0.007932 0.000000 0.006053 0.000000
# 2 -0.007954 0.013084 -0.006521 0.000000 0.002365 0.000000
# 3 0.007932 -0.006521 0.029417 0.000000 0.013706 0.000000
# 4 0.000000 0.000000 0.000000 0.071613 0.000000 0.013199
# 5 0.006053 0.002365 0.013706 0.000000 0.042940 0.000000
# 6 0.000000 0.000000 0.000000 0.013199 0.000000 0.020715
#
#
# Mechanical properties :
#
#
# Convention : Reuss Voigt Hill
#
# Bulk Modulus (GPa) = 19.39745 38.07438 28.73592
# Shear Modulus (GPa) = 21.72200 31.45883 26.59042
#
# Velocity S-wave (km/s) = 3.17898 3.82568 3.51722
# Velocity P-wave (km/s) = 4.74330 6.10148 5.46475
#
# Compressibility (1/GPa) = 0.05155316
#
# Stress axis : x y z
#
# Youngs Moduli (GPa) = 45.16736 76.42739 33.99410
#
# Poissons Ratio (x) = 0.60791 -0.26963
# Poissons Ratio (y) = 0.35927 0.22169
# Poissons Ratio (z) = -0.35825 0.49842
#
# Static dielectric constant tensor:
#      x y z
#    x 1.782740 0.000000 -0.008860 
#    y 0.000000 1.850080 0.000000 
#    z -0.008860 0.000000 1.804070 
# 
# From -- ./inp_files/62714.got.cif
#   From: 2010.05.17/outbox.cif.g08.bks.cpg/sg10_32_cif.got.tgz:62714.got - 2010.06.03 11:33:40.
