data_PCOD9153358
_publ_section_title
;
Structure prediction by ZEFSAII (Michael W. Deem and Ramdas Pophale) SiO2 
 PCOD9153358
Probable space group: P 2/M
;
_chemical_formula_sum "Si O2"
_cell_formula_units_Z 14
_cell_length_a 7.333522
_cell_length_b 10.027207
_cell_length_c 16.864671
_cell_angle_alpha 90.000000
_cell_angle_beta 150.159096
_cell_angle_gamma 90.000000
_cell_volume 617.085032
_symmetry_space_group_name_H-M "P 2/M"
_symmetry_group_IT_number 10
_symmetry_cell_setting 'monoclinic'
loop_
_space_group_symop_operation_xyz
x,y,z
-x,y,-z
-x,-y,-z
x,-y,z
loop_
_atom_site_type_symbol
_atom_site_label
_atom_site_fract_x
_atom_site_fract_y
_atom_site_fract_z
Si Si1 0.211224 0.000000 0.467706
Si Si2 0.000000 0.269137 0.000000
Si Si3 0.874357 0.500000 0.747789
Si Si4 0.172399 0.000000 0.816286
Si Si5 0.686332 0.210557 0.715818
Si Si6 0.526664 0.500000 0.884914
O O1 0.500000 0.000000 0.500000
O O2 0.320156 0.872523 0.560526
O O3 0.822265 0.000000 0.277073
O O4 0.131485 0.194703 0.128633
O O5 0.343466 0.367623 0.111282
O O6 0.108297 0.500000 0.755030
O O7 0.656233 0.364515 0.680667
O O8 0.194252 0.500000 0.935073
O O9 0.972469 0.862034 0.765161
O O10 0.500000 0.000000 0.000000
#
# Coordination Sequence:
#
# PCOD9153358 Si02
#       6
#     2   2   2   2   4   2
#     4   8  18  38  51  77 110 139 173 232 264 320
#     4   9  16  27  48  82 114 150 174 210 268 324
#     4   9  16  28  53  83 106 144 184 223 256 301
#     4  10  22  36  57  81 102 134 186 236 265 310
#     4   9  18  32  56  81 113 141 178 216 269 316
#     4   8  16  26  42  79 126 138 178 224 254 303
#
# _framework density 22.68731
#
# number of rings (size 3 to 8) (size 9 to 14) (size 15 to 20)
#    0.000    3.429    0.000    0.857    8.000    2.286 
#    0.000    6.429    0.000    3.429    0.000   18.000 
#    0.000    0.000    0.000    0.000    0.000    0.000 
#
# Total GULP energy -77971.937053 kJ/mol
# GULP energy per Si atom -5569.424075 kJ/mol
# Density = 2.263567 g / cm^3
# Si number density = 22.687310 Si / 1000 Ang^3
#
#
#
# Elastic Constant Matrix: (Units=GPa)
#
#
# Indices 1 2 3 4 5 6 
#
# 1 55.8814 23.8340 18.6812 0.0000 -13.1665 0.0000
# 2 23.8340 157.2498 62.5715 0.0000 -15.0347 0.0000
# 3 18.6812 62.5715 142.2126 0.0000 -31.4995 0.0000
# 4 0.0000 0.0000 0.0000 -15.4495 0.0000 -32.1590
# 5 -13.1665 -15.0347 -31.4995 0.0000 25.9854 0.0000
# 6 0.0000 0.0000 0.0000 -32.1590 0.0000 4.9498
#
#
#
# Elastic Compliance Matrix: (Units=1/GPa)
#
#
# Indices 1 2 3 4 5 6 
#
# 1 0.021101 -0.002451 0.000493 0.000000 0.009871 0.000000
# 2 -0.002451 0.007998 -0.003345 0.000000 -0.000669 0.000000
# 3 0.000493 -0.003345 0.011026 0.000000 0.011680 0.000000
# 4 0.000000 0.000000 0.000000 -0.004457 0.000000 -0.028954
# 5 0.009871 -0.000669 0.011680 0.000000 0.057255 0.000000
# 6 0.000000 0.000000 0.000000 -0.028954 0.000000 0.013910
#
#
# Mechanical properties :
#
#
# Convention : Reuss Voigt Hill
#
# Bulk Modulus (GPa) = 33.87667 62.83525 48.35596
# Shear Modulus (GPa) = 39.28352 19.78096 29.53224
#
# Velocity S-wave (km/s) = 4.16567 2.95599 3.61183
# Velocity P-wave (km/s) = 6.17264 6.27749 6.22528
#
# Compressibility (1/GPa) = 0.02951884
#
# Stress axis : x y z
#
# Youngs Moduli (GPa) = 47.39038 125.03322 90.69558
#
# Poissons Ratio (x) = 0.30640 -0.04469
# Poissons Ratio (y) = 0.11613 0.30341
# Poissons Ratio (z) = -0.02335 0.41828
#
# Static dielectric constant tensor:
#      x y z
#    x 1.972950 0.000000 0.039330 
#    y 0.000000 1.873040 0.000000 
#    z 0.039330 0.000000 1.989230 
# 
# From -- ./inp_files/74264.got.cif
#   From: 2010.05.17/outbox.cif.g08.bks.cpg/sg10_38_cif.got.tgz:74264.got - 2010.06.03 11:33:40.
