data_PCOD9153546
_publ_section_title
;
Structure prediction by ZEFSAII (Michael W. Deem and Ramdas Pophale) SiO2 
 PCOD9153546
Probable space group: P 2/M
;
_chemical_formula_sum "Si O2"
_cell_formula_units_Z 32
_cell_length_a 31.226765
_cell_length_b 7.908683
_cell_length_c 13.226496
_cell_angle_alpha 90.000000
_cell_angle_beta 152.745494
_cell_angle_gamma 90.000000
_cell_volume 1495.850463
_symmetry_space_group_name_H-M "P 2/M"
_symmetry_group_IT_number 10
_symmetry_cell_setting 'monoclinic'
loop_
_space_group_symop_operation_xyz
x,y,z
-x,y,-z
-x,-y,-z
x,-y,z
loop_
_atom_site_type_symbol
_atom_site_label
_atom_site_fract_x
_atom_site_fract_y
_atom_site_fract_z
Si Si1 0.207508 0.801919 0.924731
Si Si2 0.095505 0.803806 0.880040
Si Si3 0.412158 0.299474 0.043047
Si Si4 0.782366 0.293407 0.457779
Si Si5 0.600033 0.794777 0.751160
Si Si6 0.888527 0.696833 0.481331
Si Si7 0.431397 0.802852 0.767490
Si Si8 0.780208 0.697252 0.677334
O O1 0.144038 0.729694 0.881177
O O2 0.156902 0.785969 0.710753
O O3 0.218290 0.000000 0.972665
O O4 0.311925 0.731749 0.129316
O O5 0.999602 0.713974 0.708235
O O6 0.070735 0.000000 0.809074
O O7 0.169096 0.791420 0.125467
O O8 0.422025 0.500000 0.049909
O O9 0.389653 0.261798 0.111787
O O10 0.507316 0.214853 0.205091
O O11 0.323470 0.240121 0.790909
O O12 0.782708 0.500000 0.460664
O O13 0.848171 0.238976 0.503502
O O14 0.808599 0.238106 0.625392
O O15 0.500000 0.737732 0.500000
O O16 0.601623 0.000000 0.753184
O O17 0.861439 0.500000 0.416783
O O18 0.332032 0.713215 0.552510
O O19 0.413041 0.000000 0.749803
O O20 0.500000 0.735589 0.000000
O O21 0.806024 0.500000 0.739649
#
# Coordination Sequence:
#
# PCOD9153546 Si02
#       8
#     4   4   4   4   4   4   4   4
#     4  10  22  41  63  88 124 164 200 250 311 370
#     4  11  25  43  61  89 127 164 203 253 314 370
#     4  11  21  38  61  89 122 161 204 252 306 364
#     4   9  20  38  62  90 124 158 197 254 312 361
#     4  10  22  39  60  89 124 164 203 247 309 371
#     4  11  22  41  67  93 118 155 208 261 310 367
#     4  11  23  38  59  89 123 161 202 245 294 359
#     4  11  23  42  64  90 124 164 206 251 308 368
#
# _framework density 21.392513000000001
#
# number of rings (size 3 to 8) (size 9 to 14) (size 15 to 20)
#    0.000    1.500    2.500    2.250    1.750    3.750 
#    0.000    5.000    0.000    0.000    0.000    0.000 
#    0.000    0.000    0.000    0.000    0.000    0.000 
#
# Total GULP energy -178889.356320 kJ/mol
# GULP energy per Si atom -5590.292385 kJ/mol
# Density = 2.134382 g / cm^3
# Si number density = 21.392513 Si / 1000 Ang^3
#
#
#
# Elastic Constant Matrix: (Units=GPa)
#
#
# Indices 1 2 3 4 5 6 
#
# 1 157.2961 -4.8864 33.1533 0.0000 11.1977 0.0000
# 2 -4.8864 30.9452 -10.9044 0.0000 1.5084 0.0000
# 3 33.1533 -10.9044 63.4193 0.0000 19.5949 0.0000
# 4 0.0000 0.0000 0.0000 32.1345 0.0000 8.9043
# 5 11.1977 1.5084 19.5949 0.0000 27.3843 0.0000
# 6 0.0000 0.0000 0.0000 8.9043 0.0000 23.1488
#
#
#
# Elastic Compliance Matrix: (Units=1/GPa)
#
#
# Indices 1 2 3 4 5 6 
#
# 1 0.007147 -0.000152 -0.003675 0.000000 -0.000285 0.000000
# 2 -0.000152 0.035775 0.008756 0.000000 -0.008174 0.000000
# 3 -0.003675 0.008756 0.024238 0.000000 -0.016323 0.000000
# 4 0.000000 0.000000 0.000000 0.034832 0.000000 -0.013398
# 5 -0.000285 -0.008174 -0.016323 0.000000 0.048764 0.000000
# 6 0.000000 0.000000 0.000000 -0.013398 0.000000 0.048352
#
#
# Mechanical properties :
#
#
# Convention : Reuss Voigt Hill
#
# Bulk Modulus (GPa) = 12.98371 31.82063 22.40217
# Shear Modulus (GPa) = 23.26411 32.15339 27.70875
#
# Velocity S-wave (km/s) = 3.30129 3.88109 3.60287
# Velocity P-wave (km/s) = 4.54024 5.91530 5.27278
#
# Compressibility (1/GPa) = 0.07701957
#
# Stress axis : x y z
#
# Youngs Moduli (GPa) = 139.90932 27.95237 41.25738
#
# Poissons Ratio (x) = 0.00426 0.15160
# Poissons Ratio (y) = 0.02131 -0.36127
# Poissons Ratio (z) = 0.51411 -0.24476
#
# Static dielectric constant tensor:
#      x y z
#    x 1.784370 0.000000 0.003610 
#    y 0.000000 1.765920 0.000000 
#    z 0.003610 0.000000 1.735340 
# 
# From -- ./inp_files/58221.got.cif
#   From: 2010.05.17/outbox.cif.g08.bks.cpg/sg10_30_cif.got.tgz:58221.got - 2010.06.03 11:33:40.
