data_PCOD9153061
_publ_section_title
;
Structure prediction by ZEFSAII (Michael W. Deem and Ramdas Pophale) SiO2 
 PCOD9153061
Probable space group: P 2/M
;
_chemical_formula_sum "Si O2"
_cell_formula_units_Z 15
_cell_length_a 16.134973
_cell_length_b 11.360891
_cell_length_c 13.885986
_cell_angle_alpha 90.000000
_cell_angle_beta 162.532585
_cell_angle_gamma 90.000000
_cell_volume 764.038131
_symmetry_space_group_name_H-M "P 2/M"
_symmetry_group_IT_number 10
_symmetry_cell_setting 'monoclinic'
loop_
_space_group_symop_operation_xyz
x,y,z
-x,y,-z
-x,-y,-z
x,-y,z
loop_
_atom_site_type_symbol
_atom_site_label
_atom_site_fract_x
_atom_site_fract_y
_atom_site_fract_z
Si Si1 0.348973 0.871469 0.018586
Si Si2 0.113520 0.729480 0.399319
Si Si3 0.808462 0.500000 0.381844
Si Si4 0.206034 0.637641 0.138423
Si Si5 0.500000 0.000000 0.000000
O O1 0.370366 0.899434 0.929103
O O2 0.588744 0.777372 0.303727
O O3 0.411149 0.000000 0.133164
O O4 0.052349 0.827995 0.724274
O O5 0.142725 0.614502 0.497899
O O6 0.928005 0.700775 0.101033
O O7 0.000000 0.500000 0.500000
O O8 0.500000 0.500000 0.000000
O O9 0.500000 0.684981 0.500000
O O10 0.245855 0.500000 0.155483
O O11 0.000000 0.642364 0.000000
#
# Coordination Sequence:
#
# PCOD9153061 Si02
#       5
#     4   4   2   4   1
#     4  10  24  39  66  87 125 162 223 258 297 358
#     4  12  23  43  63  94 130 163 210 262 320 379
#     4  12  28  38  58  94 134 172 190 248 330 387
#     4  10  21  39  65  93 123 162 213 261 313 379
#     4   8  24  42  60  96 108 182 232 250 286 366
#
# _framework density 19.632528000000001
#
# number of rings (size 3 to 8) (size 9 to 14) (size 15 to 20)
#    0.800    0.533    1.333    4.000    5.600    1.067 
#    0.000    0.000    0.000   16.000    0.000    0.000 
#    0.000    0.000    0.000    0.000    0.000    0.000 
#
# Total GULP energy -83507.224015 kJ/mol
# GULP energy per Si atom -5567.148268 kJ/mol
# Density = 1.958784 g / cm^3
# Si number density = 19.632528 Si / 1000 Ang^3
#
#
#
# Elastic Constant Matrix: (Units=GPa)
#
#
# Indices 1 2 3 4 5 6 
#
# 1 44.4694 7.8037 24.1040 0.0000 -7.7074 0.0000
# 2 7.8037 75.7997 11.6000 0.0000 -7.6061 0.0000
# 3 24.1040 11.6000 98.2809 0.0000 -2.1133 0.0000
# 4 0.0000 0.0000 0.0000 -25.2573 0.0000 8.3304
# 5 -7.7074 -7.6061 -2.1133 0.0000 38.4066 0.0000
# 6 0.0000 0.0000 0.0000 8.3304 0.0000 -10.0410
#
#
#
# Elastic Compliance Matrix: (Units=1/GPa)
#
#
# Indices 1 2 3 4 5 6 
#
# 1 0.027002 -0.001324 -0.006363 0.000000 0.004806 0.000000
# 2 -0.001324 0.013760 -0.001248 0.000000 0.002391 0.000000
# 3 -0.006363 -0.001248 0.011864 0.000000 -0.000871 0.000000
# 4 0.000000 0.000000 0.000000 -0.054508 0.000000 -0.045222
# 5 0.004806 0.002391 -0.000871 0.000000 0.027427 0.000000
# 6 0.000000 0.000000 0.000000 -0.045222 0.000000 -0.137109
#
#
# Mechanical properties :
#
#
# Convention : Reuss Voigt Hill
#
# Bulk Modulus (GPa) = 28.77173 33.95170 31.36172
# Shear Modulus (GPa) = -60.89396 12.29114 -24.30141
#
# Velocity S-wave (km/s) = -5.57532 2.50483 -3.52207
# Velocity P-wave (km/s) = 5.17288 5.06919 0.72868
#
# Compressibility (1/GPa) = 0.03475633
#
# Stress axis : x y z
#
# Youngs Moduli (GPa) = 37.03497 72.67528 84.28883
#
# Poissons Ratio (x) = 0.09621 0.53630
# Poissons Ratio (y) = 0.04903 0.10519
# Poissons Ratio (z) = 0.23564 0.09070
#
# Static dielectric constant tensor:
#      x y z
#    x 1.616520 0.000000 -0.014750 
#    y 0.000000 1.713170 0.000000 
#    z -0.014750 0.000000 1.692750 
# 
# From -- ./inp_files/51198.got.cif
#   From: 2010.05.17/outbox.cif.g08.bks.cpg/sg10_26_cif.got.tgz:51198.got - 2010.06.03 11:33:40.
