data_PCOD9153932
_publ_section_title
;
Structure prediction by ZEFSAII (Michael W. Deem and Ramdas Pophale) SiO2 
 PCOD9153932
Probable space group: P 2/M
;
_chemical_formula_sum "Si O2"
_cell_formula_units_Z 32
_cell_length_a 20.921034
_cell_length_b 7.857123
_cell_length_c 14.439012
_cell_angle_alpha 90.000000
_cell_angle_beta 142.760539
_cell_angle_gamma 90.000000
_cell_volume 1436.300996
_symmetry_space_group_name_H-M "P 2/M"
_symmetry_group_IT_number 10
_symmetry_cell_setting 'monoclinic'
loop_
_space_group_symop_operation_xyz
x,y,z
-x,y,-z
-x,-y,-z
x,-y,z
loop_
_atom_site_type_symbol
_atom_site_label
_atom_site_fract_x
_atom_site_fract_y
_atom_site_fract_z
Si Si1 0.935406 0.197830 0.567455
Si Si2 0.620895 0.699683 0.017910
Si Si3 0.279148 0.697417 0.353975
Si Si4 0.426740 0.698662 0.678639
Si Si5 0.840415 0.201208 0.957716
Si Si6 0.706150 0.199627 0.303297
Si Si7 0.832754 0.208111 0.159874
Si Si8 0.069636 0.198289 0.213714
O O1 0.821822 0.269668 0.408243
O O2 0.931833 0.202140 0.675946
O O3 0.050415 0.266523 0.673067
O O4 0.935702 0.000000 0.537528
O O5 0.598134 0.500000 0.005493
O O6 0.628174 0.781881 0.127140
O O7 0.734945 0.724325 0.103940
O O8 0.532398 0.772996 0.846418
O O9 0.302214 0.500000 0.366025
O O10 0.373338 0.774114 0.524890
O O11 0.250632 0.771918 0.221457
O O12 0.171735 0.712842 0.290227
O O13 0.448455 0.500000 0.684183
O O14 0.340152 0.710760 0.660222
O O15 0.858333 0.000000 0.988351
O O16 0.819387 0.263326 0.037184
O O17 0.954103 0.268402 0.053134
O O18 0.718642 0.000000 0.340877
O O19 0.831662 0.000000 0.163106
O O20 0.079181 0.000000 0.195288
#
# Coordination Sequence:
#
# PCOD9153932 Si02
#       8
#     4   4   4   4   4   4   4   4
#     4   8  16  32  56  84 113 143 173 220 277 325
#     4  11  24  41  58  77 109 151 188 227 280 330
#     4  11  21  32  51  80 111 144 184 225 269 323
#     4  10  23  41  56  77 114 153 184 224 278 330
#     4   9  19  34  55  80 110 146 180 220 273 328
#     4  11  21  36  62  90 111 137 182 231 278 331
#     4   9  19  39  61  81 109 145 189 228 265 322
#     4   9  16  31  52  77 111 148 179 211 268 334
#
# _framework density 22.279453
#
# number of rings (size 3 to 8) (size 9 to 14) (size 15 to 20)
#    0.000    2.250    1.250    3.375    0.000    6.000 
#    0.000    6.250    0.000    3.750    0.000    0.000 
#    0.000    0.000    0.000    0.000    0.000    0.000 
#
# Total GULP energy -178659.939676 kJ/mol
# GULP energy per Si atom -5583.123115 kJ/mol
# Density = 2.222874 g / cm^3
# Si number density = 22.279453 Si / 1000 Ang^3
#
#
#
# Elastic Constant Matrix: (Units=GPa)
#
#
# Indices 1 2 3 4 5 6 
#
# 1 33.1357 -11.7837 17.8704 0.0000 2.4129 0.0000
# 2 -11.7837 24.8120 -2.7379 0.0000 -1.6162 0.0000
# 3 17.8704 -2.7379 155.3678 0.0000 1.8370 0.0000
# 4 0.0000 0.0000 0.0000 25.7788 0.0000 -12.0721
# 5 2.4129 -1.6162 1.8370 0.0000 27.9912 0.0000
# 6 0.0000 0.0000 0.0000 -12.0721 0.0000 79.7501
#
#
#
# Elastic Compliance Matrix: (Units=1/GPa)
#
#
# Indices 1 2 3 4 5 6 
#
# 1 0.038924 0.017895 -0.004137 0.000000 -0.002050 0.000000
# 2 0.017895 0.048756 -0.001215 0.000000 0.001352 0.000000
# 3 -0.004137 -0.001215 0.006893 0.000000 -0.000166 0.000000
# 4 0.000000 0.000000 0.000000 0.041751 0.000000 0.006320
# 5 -0.002050 0.001352 -0.000166 0.000000 0.035991 0.000000
# 6 0.000000 0.000000 0.000000 0.006320 0.000000 0.013496
#
#
# Mechanical properties :
#
#
# Convention : Reuss Voigt Hill
#
# Bulk Modulus (GPa) = 8.35715 24.44592 16.40153
# Shear Modulus (GPa) = 24.92386 40.70178 32.81282
#
# Velocity S-wave (km/s) = 3.34831 4.27883 3.84185
# Velocity P-wave (km/s) = 4.32521 5.95042 5.20168
#
# Compressibility (1/GPa) = 0.11965803
#
# Stress axis : x y z
#
# Youngs Moduli (GPa) = 25.69138 20.51031 145.07952
#
# Poissons Ratio (x) = -0.36704 0.60025
# Poissons Ratio (y) = -0.45976 0.17629
# Poissons Ratio (z) = 0.10630 0.02492
#
# Static dielectric constant tensor:
#      x y z
#    x 1.797550 0.000000 0.004750 
#    y 0.000000 1.807330 0.000000 
#    z 0.004750 0.000000 1.891910 
# 
# From -- ./inp_files/70045.got.cif
#   From: 2010.05.17/outbox.cif.g08.bks.cpg/sg10_36_cif.got.tgz:70045.got - 2010.06.03 11:33:40.
