data_PCOD9153298
_publ_section_title
;
Structure prediction by ZEFSAII (Michael W. Deem and Ramdas Pophale) SiO2 
 PCOD9153298
Probable space group: P 2/M
;
_chemical_formula_sum "Si O2"
_cell_formula_units_Z 32
_cell_length_a 18.468280
_cell_length_b 15.055146
_cell_length_c 5.581187
_cell_angle_alpha 90.000000
_cell_angle_beta 87.550534
_cell_angle_gamma 90.000000
_cell_volume 1550.390154
_symmetry_space_group_name_H-M "P 2/M"
_symmetry_group_IT_number 10
_symmetry_cell_setting 'monoclinic'
loop_
_space_group_symop_operation_xyz
x,y,z
-x,y,-z
-x,-y,-z
x,-y,z
loop_
_atom_site_type_symbol
_atom_site_label
_atom_site_fract_x
_atom_site_fract_y
_atom_site_fract_z
Si Si1 0.963369 0.892951 0.754020
Si Si2 0.155944 0.656422 0.924829
Si Si3 0.694718 0.750796 0.555246
Si Si4 0.584765 0.744098 0.953780
Si Si5 0.806317 0.830220 0.898617
Si Si6 0.918538 0.605930 0.566619
Si Si7 0.309842 0.398154 0.814337
Si Si8 0.326032 0.899517 0.826925
O O1 0.878375 0.869135 0.773943
O O2 0.000000 0.861160 0.500000
O O3 0.970274 0.000000 0.754221
O O4 0.000000 0.861013 0.000000
O O5 0.123638 0.624100 0.676851
O O6 0.232468 0.606906 0.957253
O O7 0.170312 0.761824 0.897130
O O8 0.109274 0.645044 0.175328
O O9 0.614934 0.744448 0.681257
O O10 0.758251 0.768255 0.733219
O O11 0.706470 0.658123 0.421823
O O12 0.693841 0.839223 0.396458
O O13 0.500000 0.734252 0.000000
O O14 0.629548 0.663197 0.068478
O O15 0.613672 0.838080 0.053896
O O16 0.747351 0.898991 0.004677
O O17 0.918662 0.500000 0.603604
O O18 0.000000 0.636746 0.500000
O O19 0.331565 0.500000 0.778160
O O20 0.348460 0.000000 0.773702
#
# Coordination Sequence:
#
# PCOD9153298 Si02
#       8
#     4   4   4   4   4   4   4   4
#     4  10  24  42  61  92 131 175 227 283 343 406
#     4  12  23  40  66  96 129 177 231 282 337 402
#     4  10  21  43  64  96 125 173 219 273 327 408
#     4  10  23  44  66  95 136 171 212 273 334 406
#     4  11  23  40  64  89 132 169 224 277 335 400
#     4  11  25  43  63  93 132 177 228 286 346 404
#     4  11  23  40  64  97 131 174 224 277 334 399
#     4  10  22  40  66  98 127 170 219 270 335 401
#
# _framework density 20.639963999999999
#
# number of rings (size 3 to 8) (size 9 to 14) (size 15 to 20)
#    0.000    1.375    3.750    2.625    1.750    8.000 
#    0.000    1.250    0.000    0.000    0.000    0.000 
#    0.000    0.000    0.000    0.000    0.000    0.000 
#
# Total GULP energy -178540.934670 kJ/mol
# GULP energy per Si atom -5579.404208 kJ/mol
# Density = 2.059299 g / cm^3
# Si number density = 20.639964 Si / 1000 Ang^3
#
#
#
# Elastic Constant Matrix: (Units=GPa)
#
#
# Indices 1 2 3 4 5 6 
#
# 1 163.0609 26.3640 54.9367 0.0000 -19.8040 0.0000
# 2 26.3640 133.0483 33.1329 0.0000 0.2092 0.0000
# 3 54.9367 33.1329 96.0576 0.0000 -19.0819 0.0000
# 4 0.0000 0.0000 0.0000 2.2104 0.0000 -7.5931
# 5 -19.8040 0.2092 -19.0819 0.0000 19.3939 0.0000
# 6 0.0000 0.0000 0.0000 -7.5931 0.0000 10.9921
#
#
#
# Elastic Compliance Matrix: (Units=1/GPa)
#
#
# Indices 1 2 3 4 5 6 
#
# 1 0.007968 -0.000758 -0.003328 0.000000 0.004870 0.000000
# 2 -0.000758 0.008499 -0.003319 0.000000 -0.004131 0.000000
# 3 -0.003328 -0.003319 0.015898 0.000000 0.012279 0.000000
# 4 0.000000 0.000000 0.000000 -0.329521 0.000000 -0.227626
# 5 0.004870 -0.004131 0.012279 0.000000 0.068662 0.000000
# 6 0.000000 0.000000 0.000000 -0.227626 0.000000 -0.066265
#
#
# Mechanical properties :
#
#
# Convention : Reuss Voigt Hill
#
# Bulk Modulus (GPa) = 56.96217 69.00376 62.98296
# Shear Modulus (GPa) = -18.24168 25.03485 3.39658
#
# Velocity S-wave (km/s) = -2.97611 3.48649 1.28421
# Velocity P-wave (km/s) = 3.98099 7.05069 5.72540
#
# Compressibility (1/GPa) = 0.01755551
#
# Stress axis : x y z
#
# Youngs Moduli (GPa) = 125.50280 117.65817 62.90131
#
# Poissons Ratio (x) = 0.08915 0.20935
# Poissons Ratio (y) = 0.09510 0.20876
# Poissons Ratio (z) = 0.41770 0.39049
#
# Static dielectric constant tensor:
#      x y z
#    x 1.746600 0.000000 -0.006280 
#    y 0.000000 1.733100 0.000000 
#    z -0.006280 0.000000 1.819390 
# 
# From -- ./inp_files/11431.got.cif
#   From: 2010.05.17/outbox.cif.g08.bks.cpg/sg10_6_cif.got.tgz:11431.got - 2010.06.03 11:33:40.
