data_PCOD9153230
_publ_section_title
;
Structure prediction by ZEFSAII (Michael W. Deem and Ramdas Pophale) SiO2 
 PCOD9153230
Probable space group: P 2/M
;
_chemical_formula_sum "Si O2"
_cell_formula_units_Z 20
_cell_length_a 20.231061
_cell_length_b 7.925997
_cell_length_c 9.359509
_cell_angle_alpha 90.000000
_cell_angle_beta 36.708902
_cell_angle_gamma 90.000000
_cell_volume 897.108567
_symmetry_space_group_name_H-M "P 2/M"
_symmetry_group_IT_number 10
_symmetry_cell_setting 'monoclinic'
loop_
_space_group_symop_operation_xyz
x,y,z
-x,y,-z
-x,-y,-z
x,-y,z
loop_
_atom_site_type_symbol
_atom_site_label
_atom_site_fract_x
_atom_site_fract_y
_atom_site_fract_z
Si Si1 0.330845 0.500000 0.374176
Si Si2 0.753787 0.693626 0.235324
Si Si3 0.652534 0.812801 0.138100
Si Si4 0.427595 0.500000 0.901785
Si Si5 0.886400 0.696728 0.624939
Si Si6 0.999173 0.198269 0.841710
O O1 0.275320 0.663548 0.547241
O O2 0.453243 0.500000 0.231185
O O3 0.341548 0.500000 0.185248
O O4 0.760426 0.500000 0.170718
O O5 0.665631 0.782161 0.285490
O O6 0.872972 0.776466 0.010278
O O7 0.778149 0.794525 0.860754
O O8 0.609883 0.000000 0.183328
O O9 0.588744 0.663781 0.168335
O O10 0.872954 0.500000 0.686101
O O11 0.000000 0.761093 0.500000
O O12 0.914019 0.712219 0.410574
O O13 0.025383 0.000000 0.798332
O O14 0.000000 0.267672 0.000000
#
# Coordination Sequence:
#
# PCOD9153230 Si02
#       6
#     2   4   4   2   4   4
#     4   9  25  45  75  89 129 166 208 282 332 395
#     4  10  21  41  63  94 122 174 214 263 318 377
#     4  12  24  40  68 100 133 171 219 268 317 388
#     4  11  23  51  69  99 123 165 216 269 348 385
#     4  11  22  37  59  91 127 174 215 252 307 370
#     4  11  24  37  55  92 137 174 215 259 311 380
#
# _framework density 22.293845000000001
#
# number of rings (size 3 to 8) (size 9 to 14) (size 15 to 20)
#    0.600    0.600    4.000    1.800    2.800    4.000 
#    0.000    6.000    0.000    0.000    0.000    0.000 
#    0.000    0.000    0.000    0.000    0.000    0.000 
#
# Total GULP energy -111766.030944 kJ/mol
# GULP energy per Si atom -5588.301547 kJ/mol
# Density = 2.224310 g / cm^3
# Si number density = 22.293845 Si / 1000 Ang^3
#
#
#
# Elastic Constant Matrix: (Units=GPa)
#
#
# Indices 1 2 3 4 5 6 
#
# 1 72.5723 15.5622 -0.5316 0.0000 8.1641 0.0000
# 2 15.5622 90.3729 -1.8660 0.0000 5.3409 0.0000
# 3 -0.5316 -1.8660 87.9913 0.0000 9.5095 0.0000
# 4 0.0000 0.0000 0.0000 21.0266 0.0000 0.7616
# 5 8.1641 5.3409 9.5095 0.0000 35.0239 0.0000
# 6 0.0000 0.0000 0.0000 0.7616 0.0000 23.6053
#
#
#
# Elastic Compliance Matrix: (Units=1/GPa)
#
#
# Indices 1 2 3 4 5 6 
#
# 1 0.014636 -0.002326 0.000381 0.000000 -0.003160 0.000000
# 2 -0.002326 0.011552 0.000374 0.000000 -0.001321 0.000000
# 3 0.000381 0.000374 0.011735 0.000000 -0.003332 0.000000
# 4 0.000000 0.000000 0.000000 0.047614 0.000000 -0.001536
# 5 -0.003160 -0.001321 -0.003332 0.000000 0.030395 0.000000
# 6 0.000000 0.000000 0.000000 -0.001536 0.000000 0.042413
#
#
# Mechanical properties :
#
#
# Convention : Reuss Voigt Hill
#
# Bulk Modulus (GPa) = 28.75202 30.80731 29.77967
# Shear Modulus (GPa) = 28.88816 31.78263 30.33539
#
# Velocity S-wave (km/s) = 3.60361 3.77984 3.69278
# Velocity P-wave (km/s) = 5.49905 5.73571 5.61862
#
# Compressibility (1/GPa) = 0.03478016
#
# Stress axis : x y z
#
# Youngs Moduli (GPa) = 68.32271 86.56860 85.21465
#
# Poissons Ratio (x) = 0.20134 -0.03244
# Poissons Ratio (y) = 0.15890 -0.03184
# Poissons Ratio (z) = -0.02601 -0.03235
#
# Static dielectric constant tensor:
#      x y z
#    x 1.862480 0.000000 0.020090 
#    y 0.000000 1.779090 0.000000 
#    z 0.020090 0.000000 1.857440 
# 
# From -- ./inp_files/33663.got.cif
#   From: 2010.05.17/outbox.cif.g08.bks.cpg/sg10_17_cif.got.tgz:33663.got - 2010.06.03 11:33:40.
