data_PCOD9153678
_publ_section_title
;
Structure prediction by ZEFSAII (Michael W. Deem and Ramdas Pophale) SiO2 
 PCOD9153678
Probable space group: P 2/M
;
_chemical_formula_sum "Si O2"
_cell_formula_units_Z 28
_cell_length_a 19.300538
_cell_length_b 8.795238
_cell_length_c 14.355194
_cell_angle_alpha 90.000000
_cell_angle_beta 34.037824
_cell_angle_gamma 90.000000
_cell_volume 1363.994056
_symmetry_space_group_name_H-M "P 2/M"
_symmetry_group_IT_number 10
_symmetry_cell_setting 'monoclinic'
loop_
_space_group_symop_operation_xyz
x,y,z
-x,y,-z
-x,-y,-z
x,-y,z
loop_
_atom_site_type_symbol
_atom_site_label
_atom_site_fract_x
_atom_site_fract_y
_atom_site_fract_z
Si Si1 0.947068 0.681215 0.786111
Si Si2 0.114691 0.175848 0.944698
Si Si3 0.262425 0.323970 0.623439
Si Si4 0.538347 0.317430 0.852130
Si Si5 0.200953 0.179257 0.502190
Si Si6 0.510319 0.826159 0.377496
Si Si7 0.676585 0.682162 0.053979
O O1 0.960511 0.500000 0.779313
O O2 0.074265 0.748667 0.604626
O O3 0.922982 0.750626 0.915715
O O4 0.820021 0.714244 0.871785
O O5 0.217811 0.270100 0.774072
O O6 0.152744 0.000000 0.914846
O O7 0.000000 0.178493 0.000000
O O8 0.234103 0.500000 0.639774
O O9 0.201311 0.223502 0.611198
O O10 0.407664 0.290009 0.454326
O O11 0.552302 0.500000 0.828954
O O12 0.670325 0.244835 0.680116
O O13 0.424941 0.273365 0.910246
O O14 0.500000 0.279802 0.000000
O O15 0.198158 0.000000 0.494223
O O16 0.500000 0.821657 0.500000
O O17 0.637761 0.771771 0.190476
O O18 0.482676 0.000000 0.379227
O O19 0.667396 0.500000 0.079539
#
# Coordination Sequence:
#
# PCOD9153678 Si02
#       7
#     4   4   4   4   4   4   4
#     4  11  23  39  61  90 126 169 213 258 313 372
#     4  11  22  35  53  81 121 167 214 262 308 364
#     4  12  23  36  57  83 117 162 214 263 307 361
#     4  10  22  44  73 100 125 159 205 261 323 386
#     4  12  24  40  63  92 124 161 205 256 315 375
#     4  11  23  37  56  85 124 168 210 255 312 370
#     4  10  22  40  63  93 126 163 209 261 315 374
#
# _framework density 20.527947999999999
#
# number of rings (size 3 to 8) (size 9 to 14) (size 15 to 20)
#    0.000    1.000    2.857    4.714    0.000    5.429 
#    0.000    0.714    0.000    4.286    0.000    0.000 
#    0.000    0.000    0.000    0.000    0.000    0.000 
#
# Total GULP energy -156529.907319 kJ/mol
# GULP energy per Si atom -5590.353833 kJ/mol
# Density = 2.048123 g / cm^3
# Si number density = 20.527948 Si / 1000 Ang^3
#
#
#
# Elastic Constant Matrix: (Units=GPa)
#
#
# Indices 1 2 3 4 5 6 
#
# 1 80.0103 35.5352 65.2368 0.0000 -15.3906 0.0000
# 2 35.5352 68.0381 49.1876 0.0000 -6.9618 0.0000
# 3 65.2368 49.1876 131.9483 0.0000 -26.1421 0.0000
# 4 0.0000 0.0000 0.0000 -12.1013 0.0000 6.0570
# 5 -15.3906 -6.9618 -26.1421 0.0000 34.6017 0.0000
# 6 0.0000 0.0000 0.0000 6.0570 0.0000 8.8221
#
#
#
# Elastic Compliance Matrix: (Units=1/GPa)
#
#
# Indices 1 2 3 4 5 6 
#
# 1 0.022273 -0.005158 -0.008623 0.000000 0.002354 0.000000
# 2 -0.005158 0.021422 -0.005922 0.000000 -0.002459 0.000000
# 3 -0.008623 -0.005922 0.015352 0.000000 0.006572 0.000000
# 4 0.000000 0.000000 0.000000 -0.061501 0.000000 0.042225
# 5 0.002354 -0.002459 0.006572 0.000000 0.034418 0.000000
# 6 0.000000 0.000000 0.000000 0.042225 0.000000 0.084362
#
#
# Mechanical properties :
#
#
# Convention : Reuss Voigt Hill
#
# Bulk Modulus (GPa) = 50.91759 64.43511 57.67635
# Shear Modulus (GPa) = 30.81164 14.93365 22.87264
#
# Velocity S-wave (km/s) = 3.87843 2.70011 3.34161
# Velocity P-wave (km/s) = 6.70180 6.41700 6.56095
#
# Compressibility (1/GPa) = 0.01963958
#
# Stress axis : x y z
#
# Youngs Moduli (GPa) = 44.89821 46.68177 65.13996
#
# Poissons Ratio (x) = 0.24079 0.56167
# Poissons Ratio (y) = 0.23159 0.38579
# Poissons Ratio (z) = 0.38714 0.27647
#
# Static dielectric constant tensor:
#      x y z
#    x 1.770210 0.000000 -0.053620 
#    y 0.000000 1.683950 0.000000 
#    z -0.053620 0.000000 1.746640 
# 
# From -- ./inp_files/70189.got.cif
#   From: 2010.05.17/outbox.cif.g08.bks.cpg/sg10_36_cif.got.tgz:70189.got - 2010.06.03 11:33:40.
