data_PCOD9153570
_publ_section_title
;
Structure prediction by ZEFSAII (Michael W. Deem and Ramdas Pophale) SiO2 
 PCOD9153570
Probable space group: P 2/M
;
_chemical_formula_sum "Si O2"
_cell_formula_units_Z 28
_cell_length_a 15.107422
_cell_length_b 8.775537
_cell_length_c 11.328314
_cell_angle_alpha 90.000000
_cell_angle_beta 67.049660
_cell_angle_gamma 90.000000
_cell_volume 1382.977168
_symmetry_space_group_name_H-M "P 2/M"
_symmetry_group_IT_number 10
_symmetry_cell_setting 'monoclinic'
loop_
_space_group_symop_operation_xyz
x,y,z
-x,y,-z
-x,-y,-z
x,-y,z
loop_
_atom_site_type_symbol
_atom_site_label
_atom_site_fract_x
_atom_site_fract_y
_atom_site_fract_z
Si Si1 0.861594 0.177542 0.404193
Si Si2 0.097306 0.178243 0.019479
Si Si3 0.454742 0.685000 0.148294
Si Si4 0.057300 0.324824 0.284513
Si Si5 0.771300 0.679713 0.224937
Si Si6 0.247892 0.675893 0.342245
Si Si7 0.453451 0.684879 0.648605
O O1 0.832644 0.227080 0.288120
O O2 0.772609 0.222169 0.533585
O O3 0.956214 0.271938 0.391228
O O4 0.882729 0.000000 0.400288
O O5 0.077006 0.215542 0.164735
O O6 0.117268 0.000000 0.990989
O O7 0.184314 0.277976 0.924189
O O8 0.000000 0.217917 0.000000
O O9 0.464608 0.500000 0.141391
O O10 0.341447 0.720156 0.219090
O O11 0.501459 0.737022 0.249154
O O12 0.500000 0.739622 0.000000
O O13 0.046486 0.500000 0.250520
O O14 0.150566 0.316875 0.317731
O O15 0.781800 0.500000 0.242915
O O16 0.659584 0.720135 0.292004
O O17 0.262408 0.500000 0.373716
O O18 0.500000 0.738464 0.500000
O O19 0.463409 0.500000 0.643492
#
# Coordination Sequence:
#
# PCOD9153570 Si02
#       7
#     4   4   4   4   4   4   4
#     4  12  24  39  59  86 122 162 197 235 298 365
#     4  11  23  39  58  84 121 162 199 239 297 362
#     4   9  18  34  59  89 122 153 193 254 310 355
#     4  11  23  38  61  90 119 153 200 250 293 346
#     4  11  22  36  62  91 118 153 200 251 297 346
#     4  10  22  39  62  90 118 152 199 249 298 348
#     4   9  18  33  57  90 122 152 193 249 310 359
#
# _framework density 20.246176999999999
#
# number of rings (size 3 to 8) (size 9 to 14) (size 15 to 20)
#    0.000    1.571    1.429    3.857    2.000    5.714 
#    0.000    0.000    0.000    8.143    0.000    0.000 
#    0.000    0.000    0.000    0.000    0.000    0.000 
#
# Total GULP energy -156376.707577 kJ/mol
# GULP energy per Si atom -5584.882413 kJ/mol
# Density = 2.020010 g / cm^3
# Si number density = 20.246177 Si / 1000 Ang^3
#
#
#
# Elastic Constant Matrix: (Units=GPa)
#
#
# Indices 1 2 3 4 5 6 
#
# 1 81.8497 18.2729 40.7294 0.0000 -12.4626 0.0000
# 2 18.2729 21.4516 4.9499 0.0000 -9.8941 0.0000
# 3 40.7294 4.9499 133.4957 0.0000 -18.1442 0.0000
# 4 0.0000 0.0000 0.0000 151.6035 0.0000 29.5914
# 5 -12.4626 -9.8941 -18.1442 0.0000 33.4470 0.0000
# 6 0.0000 0.0000 0.0000 29.5914 0.0000 -2.8899
#
#
#
# Elastic Compliance Matrix: (Units=1/GPa)
#
#
# Indices 1 2 3 4 5 6 
#
# 1 0.017791 -0.014120 -0.004935 0.000000 -0.000225 0.000000
# 2 -0.014120 0.065192 0.004099 0.000000 0.016247 0.000000
# 3 -0.004935 0.004099 0.009457 0.000000 0.004504 0.000000
# 4 0.000000 0.000000 0.000000 0.002200 0.000000 0.022524
# 5 -0.000225 0.016247 0.004504 0.000000 0.037063 0.000000
# 6 0.000000 0.000000 0.000000 0.022524 0.000000 -0.115396
#
#
# Mechanical properties :
#
#
# Convention : Reuss Voigt Hill
#
# Bulk Modulus (GPa) = 15.99286 40.52238 28.25762
# Shear Modulus (GPa) = 74.55718 47.95511 61.25614
#
# Velocity S-wave (km/s) = 6.07497 4.87211 5.50648
# Velocity P-wave (km/s) = 7.55800 7.19084 7.37670
#
# Compressibility (1/GPa) = 0.06252792
#
# Stress axis : x y z
#
# Youngs Moduli (GPa) = 56.20702 15.33925 105.74488
#
# Poissons Ratio (x) = 0.21659 0.52187
# Poissons Ratio (y) = 0.79365 -0.43345
# Poissons Ratio (z) = 0.27739 -0.06288
#
# Static dielectric constant tensor:
#      x y z
#    x 1.712470 0.000000 0.006000 
#    y 0.000000 1.673700 0.000000 
#    z 0.006000 0.000000 1.728750 
# 
# From -- ./inp_files/49202.got.cif
#   From: 2010.05.17/outbox.cif.g08.bks.cpg/sg10_25_cif.got.tgz:49202.got - 2010.06.03 11:33:40.
