data_PCOD9153478
_publ_section_title
;
Structure prediction by ZEFSAII (Michael W. Deem and Ramdas Pophale) SiO2 
 PCOD9153478
Probable space group: P 2/M
;
_chemical_formula_sum "Si O2"
_cell_formula_units_Z 32
_cell_length_a 17.176949
_cell_length_b 13.673021
_cell_length_c 12.050245
_cell_angle_alpha 90.000000
_cell_angle_beta 32.599675
_cell_angle_gamma 90.000000
_cell_volume 1524.777834
_symmetry_space_group_name_H-M "P 2/M"
_symmetry_group_IT_number 10
_symmetry_cell_setting 'monoclinic'
loop_
_space_group_symop_operation_xyz
x,y,z
-x,y,-z
-x,-y,-z
x,-y,z
loop_
_atom_site_type_symbol
_atom_site_label
_atom_site_fract_x
_atom_site_fract_y
_atom_site_fract_z
Si Si1 0.668093 0.115815 0.283195
Si Si2 0.272064 0.741649 0.984874
Si Si3 0.845998 0.821936 0.645700
Si Si4 0.803588 0.881884 0.358608
Si Si5 0.043891 0.287241 0.692252
Si Si6 0.533762 0.614177 0.589926
Si Si7 0.855786 0.387477 0.231378
Si Si8 0.393357 0.891652 0.213216
O O1 0.500000 0.145031 0.500000
O O2 0.718146 0.170014 0.113626
O O3 0.765805 0.133891 0.275215
O O4 0.670285 0.000000 0.263281
O O5 0.412772 0.674985 0.800481
O O6 0.242623 0.783283 0.142651
O O7 0.123651 0.689802 0.125125
O O8 0.886643 0.736081 0.510040
O O9 0.752276 0.894334 0.684281
O O10 0.000000 0.862958 0.500000
O O11 0.922619 0.809943 0.270783
O O12 0.658949 0.856243 0.604473
O O13 0.831742 0.000000 0.339684
O O14 0.116612 0.374163 0.671934
O O15 0.500000 0.616134 0.500000
O O16 0.532132 0.500000 0.628235
O O17 0.697127 0.654418 0.401367
O O18 0.847588 0.500000 0.204664
O O19 0.000000 0.345249 0.000000
O O20 0.454871 0.000000 0.159828
O O21 0.500000 0.837314 0.000000
#
# Coordination Sequence:
#
# PCOD9153478 Si02
#       8
#     4   4   4   4   4   4   4   4
#     4  10  23  37  53  84 121 155 193 245 301 355
#     4  11  23  37  61  86 116 157 199 240 296 347
#     4   9  21  39  53  80 115 151 196 243 286 349
#     4   9  20  37  54  79 120 155 195 246 292 350
#     4  10  22  38  61  85 116 156 199 243 296 343
#     4  10  22  40  61  89 121 151 188 237 291 349
#     4  10  22  39  63  93 122 153 191 236 289 351
#     4   9  18  32  54  78 103 148 199 245 292 338
#
# _framework density 20.986664999999999
#
# number of rings (size 3 to 8) (size 9 to 14) (size 15 to 20)
#    0.000    2.250    0.000    1.125    7.000    3.750 
#    0.000    4.375    0.000    3.750    0.000    0.000 
#    0.000    0.000    0.000    0.000    0.000    0.000 
#
# Total GULP energy -178431.228690 kJ/mol
# GULP energy per Si atom -5575.975897 kJ/mol
# Density = 2.093890 g / cm^3
# Si number density = 20.986665 Si / 1000 Ang^3
#
#
#
# Elastic Constant Matrix: (Units=GPa)
#
#
# Indices 1 2 3 4 5 6 
#
# 1 95.7105 5.9504 47.8078 0.0000 6.6334 0.0000
# 2 5.9504 57.6022 33.2787 0.0000 0.9902 0.0000
# 3 47.8078 33.2787 138.0263 0.0000 1.8852 0.0000
# 4 0.0000 0.0000 0.0000 9.6565 0.0000 -7.6254
# 5 6.6334 0.9902 1.8852 0.0000 27.6700 0.0000
# 6 0.0000 0.0000 0.0000 -7.6254 0.0000 15.4149
#
#
#
# Elastic Compliance Matrix: (Units=1/GPa)
#
#
# Indices 1 2 3 4 5 6 
#
# 1 0.012953 0.001487 -0.004806 0.000000 -0.002831 0.000000
# 2 0.001487 0.020345 -0.005411 0.000000 -0.000716 0.000000
# 3 -0.004806 -0.005411 0.010205 0.000000 0.000651 0.000000
# 4 0.000000 0.000000 0.000000 0.169943 0.000000 0.084067
# 5 -0.002831 -0.000716 0.000651 0.000000 0.036800 0.000000
# 6 0.000000 0.000000 0.000000 0.084067 0.000000 0.106459
#
#
# Mechanical properties :
#
#
# Convention : Reuss Voigt Hill
#
# Bulk Modulus (GPa) = 38.39669 51.71252 45.05461
# Shear Modulus (GPa) = 13.06010 24.16842 18.61426
#
# Velocity S-wave (km/s) = 2.49731 3.39722 2.98141
# Velocity P-wave (km/s) = 5.16245 6.33106 5.77638
#
# Compressibility (1/GPa) = 0.02604391
#
# Stress axis : x y z
#
# Youngs Moduli (GPa) = 77.20404 49.15205 97.98731
#
# Poissons Ratio (x) = -0.07311 0.47096
# Poissons Ratio (y) = -0.11483 0.53018
# Poissons Ratio (z) = 0.37107 0.26595
#
# Static dielectric constant tensor:
#      x y z
#    x 1.765140 0.000000 -0.029160 
#    y 0.000000 1.804610 0.000000 
#    z -0.029160 0.000000 1.811600 
# 
# From -- ./inp_files/53998.got.cif
#   From: 2010.05.17/outbox.cif.g08.bks.cpg/sg10_27_cif.got.tgz:53998.got - 2010.06.03 11:33:40.
