data_PCOD9153498
_publ_section_title
;
Structure prediction by ZEFSAII (Michael W. Deem and Ramdas Pophale) SiO2 
 PCOD9153498
Probable space group: P 2/M
;
_chemical_formula_sum "Si O2"
_cell_formula_units_Z 28
_cell_length_a 11.616679
_cell_length_b 21.664164
_cell_length_c 7.383637
_cell_angle_alpha 90.000000
_cell_angle_beta 36.627375
_cell_angle_gamma 90.000000
_cell_volume 1108.622300
_symmetry_space_group_name_H-M "P 2/M"
_symmetry_group_IT_number 10
_symmetry_cell_setting 'monoclinic'
loop_
_space_group_symop_operation_xyz
x,y,z
-x,y,-z
-x,-y,-z
x,-y,z
loop_
_atom_site_type_symbol
_atom_site_label
_atom_site_fract_x
_atom_site_fract_y
_atom_site_fract_z
Si Si1 0.700047 0.320690 0.363404
Si Si2 0.768412 0.068508 0.824769
Si Si3 0.230777 0.064328 0.743373
Si Si4 0.184296 0.660991 0.149479
Si Si5 0.771104 0.192845 0.271900
Si Si6 0.771474 0.795014 0.840569
Si Si7 0.520483 0.568855 0.760417
O O1 0.500000 0.318012 0.500000
O O2 0.708737 0.254821 0.449720
O O3 0.684788 0.382334 0.497587
O O4 0.861745 0.321824 0.001716
O O5 0.705179 0.138224 0.844837
O O6 0.000000 0.069181 0.500000
O O7 0.705529 0.000000 0.834361
O O8 0.740836 0.066502 0.077112
O O9 0.309567 0.127438 0.562755
O O10 0.311570 0.000000 0.571077
O O11 0.000000 0.063234 0.000000
O O12 0.282214 0.722163 0.117897
O O13 0.000000 0.645894 0.500000
O O14 0.321744 0.602020 0.956369
O O15 0.732255 0.198358 0.106333
O O16 0.000000 0.189206 0.000000
O O17 0.000000 0.793249 0.500000
O O18 0.548277 0.500000 0.652003
O O19 0.500000 0.565215 0.000000
#
# Coordination Sequence:
#
# PCOD9153498 Si02
#       7
#     4   4   4   4   4   4   4
#     4   9  19  34  52  73 101 135 164 197 244 298
#     4   8  12  18  30  50  81 120 154 185 226 273
#     4   8  13  21  34  56  88 122 155 196 243 281
#     4   9  18  33  54  78 102 131 165 202 241 287
#     4   9  16  26  44  69  94 124 165 207 240 278
#     4   8  14  24  38  62  94 122 153 194 237 275
#     4  10  22  39  56  75 100 128 159 198 244 296
#
# _framework density 25.256572999999999
#
# number of rings (size 3 to 8) (size 9 to 14) (size 15 to 20)
#    0.000    3.286    0.000    0.000    0.000    6.286 
#    0.000    0.000    0.000    2.571    0.000    3.000 
#    0.000    1.143    0.000    0.000    0.000    1.857 
#
# Total GULP energy -156067.824714 kJ/mol
# GULP energy per Si atom -5573.850883 kJ/mol
# Density = 2.519909 g / cm^3
# Si number density = 25.256573 Si / 1000 Ang^3
#
#
#
# Elastic Constant Matrix: (Units=GPa)
#
#
# Indices 1 2 3 4 5 6 
#
# 1 45.6862 6.8003 5.3542 0.0000 8.6067 0.0000
# 2 6.8003 303.1224 44.3441 0.0000 5.5981 0.0000
# 3 5.3542 44.3441 107.4156 0.0000 7.0696 0.0000
# 4 0.0000 0.0000 0.0000 134.6852 0.0000 -28.3592
# 5 8.6067 5.5981 7.0696 0.0000 34.4701 0.0000
# 6 0.0000 0.0000 0.0000 -28.3592 0.0000 -4.9741
#
#
#
# Elastic Compliance Matrix: (Units=1/GPa)
#
#
# Indices 1 2 3 4 5 6 
#
# 1 0.023062 -0.000319 -0.000651 0.000000 -0.005573 0.000000
# 2 -0.000319 0.003518 -0.001423 0.000000 -0.000200 0.000000
# 3 -0.000651 -0.001423 0.010039 0.000000 -0.001665 0.000000
# 4 0.000000 0.000000 0.000000 0.003374 0.000000 -0.019237
# 5 -0.005573 -0.000200 -0.001665 0.000000 0.030776 0.000000
# 6 0.000000 0.000000 0.000000 -0.019237 0.000000 -0.091363
#
#
# Mechanical properties :
#
#
# Convention : Reuss Voigt Hill
#
# Bulk Modulus (GPa) = 31.41447 63.24684 47.33065
# Shear Modulus (GPa) = -962.46751 59.48462 -451.49145
#
# Velocity S-wave (km/s) = -19.54235 4.85832 -13.38469
# Velocity P-wave (km/s) = 22.28765 7.52111 14.83530
#
# Compressibility (1/GPa) = 0.03183247
#
# Stress axis : x y z
#
# Youngs Moduli (GPa) = 43.36112 284.24731 99.60897
#
# Poissons Ratio (x) = 0.09074 0.06484
# Poissons Ratio (y) = 0.01384 0.14177
# Poissons Ratio (z) = 0.02823 0.40457
#
# Static dielectric constant tensor:
#      x y z
#    x 2.090600 0.000000 0.000640 
#    y 0.000000 2.086000 0.000000 
#    z 0.000640 0.000000 2.004560 
# 
# From -- ./inp_files/30397.got.cif
#   From: 2010.05.17/outbox.cif.g08.bks.cpg/sg10_16_cif.got.tgz:30397.got - 2010.06.03 11:33:40.
