data_PCOD9153782
_publ_section_title
;
Structure prediction by ZEFSAII (Michael W. Deem and Ramdas Pophale) SiO2 
 PCOD9153782
Probable space group: P 2/M
;
_chemical_formula_sum "Si O2"
_cell_formula_units_Z 20
_cell_length_a 11.472116
_cell_length_b 11.668865
_cell_length_c 10.408807
_cell_angle_alpha 90.000000
_cell_angle_beta 138.726408
_cell_angle_gamma 90.000000
_cell_volume 919.158019
_symmetry_space_group_name_H-M "P 2/M"
_symmetry_group_IT_number 10
_symmetry_cell_setting 'monoclinic'
loop_
_space_group_symop_operation_xyz
x,y,z
-x,y,-z
-x,-y,-z
x,-y,z
loop_
_atom_site_type_symbol
_atom_site_label
_atom_site_fract_x
_atom_site_fract_y
_atom_site_fract_z
Si Si1 0.000000 0.784828 0.000000
Si Si2 0.681349 0.155915 0.579341
Si Si3 0.794573 0.229027 0.297539
Si Si4 0.311902 0.000000 0.672184
Si Si5 0.217399 0.366006 0.978941
Si Si6 0.371747 0.370805 0.610540
O O1 0.852413 0.862006 0.807781
O O2 0.094933 0.702928 0.975606
O O3 0.500000 0.125458 0.500000
O O4 0.679704 0.291304 0.550073
O O5 0.688790 0.097073 0.446343
O O6 0.782115 0.291796 0.150930
O O7 0.715096 0.318007 0.334076
O O8 0.000000 0.206987 0.500000
O O9 0.703290 0.104589 0.234010
O O10 0.166512 0.500000 0.917099
O O11 0.417659 0.366019 0.197104
O O12 0.313757 0.500000 0.543695
#
# Coordination Sequence:
#
# PCOD9153782 Si02
#       6
#     2   4   4   2   4   4
#     4  12  25  41  70 104 138 177 223 268 334 414
#     4  11  23  45  69  98 139 175 226 276 336 398
#     4  11  23  41  66  95 132 176 229 282 332 393
#     4  10  24  45  71  92 130 180 227 288 335 388
#     4  11  23  41  66 100 141 178 220 271 334 407
#     4  10  22  41  67  98 137 179 220 276 336 399
#
# _framework density 21.759045
#
# number of rings (size 3 to 8) (size 9 to 14) (size 15 to 20)
#    0.000    1.200    2.000    4.500    0.000    7.200 
#    0.000    9.000    4.400    0.000    0.000    0.000 
#    0.000    0.000    0.000    0.000    0.000    0.000 
#
# Total GULP energy -111349.428561 kJ/mol
# GULP energy per Si atom -5567.471428 kJ/mol
# Density = 2.170952 g / cm^3
# Si number density = 21.759045 Si / 1000 Ang^3
#
#
#
# Elastic Constant Matrix: (Units=GPa)
#
#
# Indices 1 2 3 4 5 6 
#
# 1 123.4785 43.4028 26.0810 0.0000 -2.9893 0.0000
# 2 43.4028 168.5350 9.8508 0.0000 -9.2978 0.0000
# 3 26.0810 9.8508 60.7414 0.0000 3.0960 0.0000
# 4 0.0000 0.0000 0.0000 6.6349 0.0000 -21.3845
# 5 -2.9893 -9.2978 3.0960 0.0000 32.7364 0.0000
# 6 0.0000 0.0000 0.0000 -21.3845 0.0000 0.4403
#
#
#
# Elastic Compliance Matrix: (Units=1/GPa)
#
#
# Indices 1 2 3 4 5 6 
#
# 1 0.009712 -0.002243 -0.003838 0.000000 0.000613 0.000000
# 2 -0.002243 0.006616 -0.000196 0.000000 0.001693 0.000000
# 3 -0.003838 -0.000196 0.018252 0.000000 -0.002132 0.000000
# 4 0.000000 0.000000 0.000000 -0.000969 0.000000 -0.047063
# 5 0.000613 0.001693 -0.002132 0.000000 0.031285 0.000000
# 6 0.000000 0.000000 0.000000 -0.047063 0.000000 -0.014602
#
#
# Mechanical properties :
#
#
# Convention : Reuss Voigt Hill
#
# Bulk Modulus (GPa) = 45.40074 56.82490 51.11282
# Shear Modulus (GPa) = 71.23507 26.19036 48.71271
#
# Velocity S-wave (km/s) = 5.72793 3.47314 4.73666
# Velocity P-wave (km/s) = 8.04090 6.50044 7.31136
#
# Compressibility (1/GPa) = 0.02202607
#
# Stress axis : x y z
#
# Youngs Moduli (GPa) = 102.96024 151.14856 54.78980
#
# Poissons Ratio (x) = 0.33905 0.21027
# Poissons Ratio (y) = 0.23095 0.01074
# Poissons Ratio (z) = 0.39514 0.02964
#
# Static dielectric constant tensor:
#      x y z
#    x 1.778310 0.000000 0.018720 
#    y 0.000000 1.802040 0.000000 
#    z 0.018720 0.000000 1.852330 
# 
# From -- ./inp_files/46326.got.cif
#   From: 2010.05.17/outbox.cif.g08.bks.cpg/sg10_24_cif.got.tgz:46326.got - 2010.06.03 11:33:40.
