data_PCOD9153150
_publ_section_title
;
Structure prediction by ZEFSAII (Michael W. Deem and Ramdas Pophale) SiO2 
 PCOD9153150
Probable space group: P 2/M
;
_chemical_formula_sum "Si O2"
_cell_formula_units_Z 30
_cell_length_a 36.655899
_cell_length_b 7.650180
_cell_length_c 5.165056
_cell_angle_alpha 90.000000
_cell_angle_beta 72.787108
_cell_angle_gamma 90.000000
_cell_volume 1383.535295
_symmetry_space_group_name_H-M "P 2/M"
_symmetry_group_IT_number 10
_symmetry_cell_setting 'monoclinic'
loop_
_space_group_symop_operation_xyz
x,y,z
-x,y,-z
-x,-y,-z
x,-y,z
loop_
_atom_site_type_symbol
_atom_site_label
_atom_site_fract_x
_atom_site_fract_y
_atom_site_fract_z
Si Si1 0.889981 0.713363 0.564543
Si Si2 0.154385 0.286488 0.839414
Si Si3 0.234306 0.302125 0.892264
Si Si4 0.361066 0.290931 0.987220
Si Si5 0.976412 0.713741 0.297869
Si Si6 0.473307 0.000000 0.306344
Si Si7 0.276315 0.806779 0.320433
Si Si8 0.409463 0.710616 0.388026
O O1 0.890293 0.500000 0.560014
O O2 0.859615 0.771729 0.412224
O O3 0.932579 0.771748 0.405041
O O4 0.876444 0.763420 0.878490
O O5 0.156067 0.500000 0.825030
O O6 0.195627 0.225300 0.851275
O O7 0.225112 0.500000 0.993689
O O8 0.264205 0.307560 0.591862
O O9 0.251111 0.218486 0.115813
O O10 0.356437 0.500000 0.998951
O O11 0.378311 0.243285 0.673361
O O12 0.319877 0.216604 0.141582
O O13 0.391393 0.247069 0.147233
O O14 0.975414 0.500000 0.293702
O O15 0.000000 0.765546 0.500000
O O16 0.000000 0.772333 0.000000
O O17 0.500000 0.000000 0.500000
O O18 0.446330 0.171159 0.358080
O O19 0.500000 0.000000 0.000000
O O20 0.270596 0.000000 0.435811
O O21 0.416684 0.500000 0.387158
#
# Coordination Sequence:
#
# PCOD9153150 Si02
#       8
#     4   4   4   4   4   2   4   4
#     4   9  15  24  37  57  82 114 169 224 264 321
#     4   9  17  28  45  64  86 125 176 229 271 314
#     4  11  22  39  58  80 114 154 198 245 293 351
#     4  10  21  40  64  90 119 159 201 246 298 352
#     4   9  15  21  30  47  76 114 154 204 265 325
#     4  12  26  42  66  96 128 170 210 254 312 368
#     4  12  25  38  60  91 122 156 195 247 305 362
#     4  10  23  41  65  93 126 163 208 257 305 364
#
# _framework density 21.683582000000001
#
# number of rings (size 3 to 8) (size 9 to 14) (size 15 to 20)
#    0.000    1.867    0.000    4.800    1.867    6.933 
#    0.000    0.000    0.000    0.000    0.000    0.000 
#    0.000    0.000    0.000    0.000    0.000  168.000 
#
# Total GULP energy -167706.621821 kJ/mol
# GULP energy per Si atom -5590.220727 kJ/mol
# Density = 2.163423 g / cm^3
# Si number density = 21.683582 Si / 1000 Ang^3
#
#
#
# Elastic Constant Matrix: (Units=GPa)
#
#
# Indices 1 2 3 4 5 6 
#
# 1 62.3505 10.3386 -23.5224 0.0000 -0.8201 0.0000
# 2 10.3386 46.2870 -7.3527 0.0000 -1.0141 0.0000
# 3 -23.5224 -7.3527 65.5656 0.0000 2.3561 0.0000
# 4 0.0000 0.0000 0.0000 76.4450 0.0000 -131.5189
# 5 -0.8201 -1.0141 2.3561 0.0000 41.9972 0.0000
# 6 0.0000 0.0000 0.0000 -131.5189 0.0000 268.3663
#
#
#
# Elastic Compliance Matrix: (Units=1/GPa)
#
#
# Indices 1 2 3 4 5 6 
#
# 1 0.019009 -0.003221 0.006461 0.000000 -0.000069 0.000000
# 2 -0.003221 0.022548 0.001359 0.000000 0.000405 0.000000
# 3 0.006461 0.001359 0.017752 0.000000 -0.000837 0.000000
# 4 0.000000 0.000000 0.000000 0.083395 0.000000 0.040870
# 5 -0.000069 0.000405 -0.000837 0.000000 0.023867 0.000000
# 6 0.000000 0.000000 0.000000 0.040870 0.000000 0.023755
#
#
# Mechanical properties :
#
#
# Convention : Reuss Voigt Hill
#
# Bulk Modulus (GPa) = 14.59711 14.79222 14.69467
# Shear Modulus (GPa) = 24.51400 90.34434 57.42917
#
# Velocity S-wave (km/s) = 3.36599 6.46183 5.15195
# Velocity P-wave (km/s) = 4.67472 7.90635 6.49474
#
# Compressibility (1/GPa) = 0.06850670
#
# Stress axis : x y z
#
# Youngs Moduli (GPa) = 52.60660 44.34892 56.33082
#
# Poissons Ratio (x) = 0.14285 -0.36395
# Poissons Ratio (y) = 0.16945 -0.07653
# Poissons Ratio (z) = -0.33989 -0.06025
#
# Static dielectric constant tensor:
#      x y z
#    x 1.751310 0.000000 -0.011310 
#    y 0.000000 1.822920 0.000000 
#    z -0.011310 0.000000 1.731760 
# 
# From -- ./inp_files/13620.got.cif
#   From: 2010.05.17/outbox.cif.g08.bks.cpg/sg10_7_cif.got.tgz:13620.got - 2010.06.03 11:33:40.
