data_PCOD9153249
_publ_section_title
;
Structure prediction by ZEFSAII (Michael W. Deem and Ramdas Pophale) SiO2 
 PCOD9153249
Probable space group: P 2/M
;
_chemical_formula_sum "Si O2"
_cell_formula_units_Z 24
_cell_length_a 22.649339
_cell_length_b 7.758863
_cell_length_c 9.333653
_cell_angle_alpha 90.000000
_cell_angle_beta 134.999686
_cell_angle_gamma 90.000000
_cell_volume 1159.825489
_symmetry_space_group_name_H-M "P 2/M"
_symmetry_group_IT_number 10
_symmetry_cell_setting 'monoclinic'
loop_
_space_group_symop_operation_xyz
x,y,z
-x,y,-z
-x,-y,-z
x,-y,z
loop_
_atom_site_type_symbol
_atom_site_label
_atom_site_fract_x
_atom_site_fract_y
_atom_site_fract_z
Si Si1 0.793964 0.306801 0.647147
Si Si2 0.367358 0.203290 0.452953
Si Si3 0.323930 0.708846 0.052330
Si Si4 0.529717 0.701534 0.897518
Si Si5 0.085601 0.000000 0.058129
Si Si6 0.968470 0.000000 0.604992
Si Si7 0.165697 0.701599 0.607155
O O1 0.824971 0.500000 0.729118
O O2 0.707429 0.279617 0.580422
O O3 0.786043 0.288927 0.462155
O O4 0.859185 0.165447 0.811554
O O5 0.348737 0.232510 0.253484
O O6 0.453519 0.284000 0.655377
O O7 0.371568 0.000000 0.486997
O O8 0.327587 0.500000 0.058783
O O9 0.389595 0.774613 0.045744
O O10 0.230504 0.754856 0.842307
O O11 0.548895 0.500000 0.957943
O O12 0.500000 0.775854 0.000000
O O13 0.051840 0.000000 0.841016
O O14 0.000000 0.000000 0.000000
O O15 0.911404 0.168206 0.534916
O O16 0.000000 0.000000 0.500000
O O17 0.141509 0.500000 0.585795
#
# Coordination Sequence:
#
# PCOD9153249 Si02
#       7
#     4   4   4   4   2   2   4
#     4  11  23  43  70  96 130 172 216 268 324 384
#     4  12  25  39  61  96 134 170 218 267 319 383
#     4  10  22  40  63  92 129 171 219 266 316 383
#     4  10  21  41  66  92 126 171 221 269 318 378
#     4  12  24  46  68 101 130 163 218 266 325 394
#     4  12  28  44  68  95 136 169 204 272 329 384
#     4  10  23  44  68  96 127 171 218 261 322 388
#
# _framework density 20.692769999999999
#
# number of rings (size 3 to 8) (size 9 to 14) (size 15 to 20)
#    0.000    1.167    2.500    3.000    3.500    7.000 
#    0.000    0.000    0.000    0.000    0.000    0.000 
#    0.000    0.000    0.000    0.000    0.000    0.000 
#
# Total GULP energy -134170.278393 kJ/mol
# GULP energy per Si atom -5590.428266 kJ/mol
# Density = 2.064567 g / cm^3
# Si number density = 20.692770 Si / 1000 Ang^3
#
#
#
# Elastic Constant Matrix: (Units=GPa)
#
#
# Indices 1 2 3 4 5 6 
#
# 1 55.5201 15.5771 -9.2206 0.0000 -6.7784 0.0000
# 2 15.5771 64.2053 -4.8830 0.0000 6.0427 0.0000
# 3 -9.2206 -4.8830 68.8667 0.0000 -4.5085 0.0000
# 4 0.0000 0.0000 0.0000 21.3156 0.0000 -2.6909
# 5 -6.7784 6.0427 -4.5085 0.0000 39.8217 0.0000
# 6 0.0000 0.0000 0.0000 -2.6909 0.0000 15.0065
#
#
#
# Elastic Compliance Matrix: (Units=1/GPa)
#
#
# Indices 1 2 3 4 5 6 
#
# 1 0.020471 -0.005194 0.002672 0.000000 0.004575 0.000000
# 2 -0.005194 0.017183 0.000297 0.000000 -0.003458 0.000000
# 3 0.002672 0.000297 0.015038 0.000000 0.002112 0.000000
# 4 0.000000 0.000000 0.000000 0.048001 0.000000 0.008607
# 5 0.004575 -0.003458 0.002112 0.000000 0.026655 0.000000
# 6 0.000000 0.000000 0.000000 0.008607 0.000000 0.068181
#
#
# Mechanical properties :
#
#
# Convention : Reuss Voigt Hill
#
# Bulk Modulus (GPa) = 20.72895 21.28211 21.00553
# Shear Modulus (GPa) = 23.14176 27.70333 25.42254
#
# Velocity S-wave (km/s) = 3.34780 3.66292 3.50890
# Velocity P-wave (km/s) = 4.99829 5.31003 5.15652
#
# Compressibility (1/GPa) = 0.04824172
#
# Stress axis : x y z
#
# Youngs Moduli (GPa) = 48.84932 58.19646 66.49861
#
# Poissons Ratio (x) = 0.30227 -0.17769
# Poissons Ratio (y) = 0.25372 -0.01972
# Poissons Ratio (z) = -0.13053 -0.01726
#
# Static dielectric constant tensor:
#      x y z
#    x 1.724370 0.000000 0.004260 
#    y 0.000000 1.882200 0.000000 
#    z 0.004260 0.000000 1.502760 
# 
# From -- ./inp_files/33982.got.cif
#   From: 2010.05.17/outbox.cif.g08.bks.cpg/sg10_17_cif.got.tgz:33982.got - 2010.06.03 11:33:40.
