data_PCOD9153071
_publ_section_title
;
Structure prediction by ZEFSAII (Michael W. Deem and Ramdas Pophale) SiO2 
 PCOD9153071
Probable space group: P 2/M
;
_chemical_formula_sum "Si O2"
_cell_formula_units_Z 24
_cell_length_a 8.283587
_cell_length_b 19.029243
_cell_length_c 7.495541
_cell_angle_alpha 90.000000
_cell_angle_beta 57.098899
_cell_angle_gamma 90.000000
_cell_volume 992.019570
_symmetry_space_group_name_H-M "P 2/M"
_symmetry_group_IT_number 10
_symmetry_cell_setting 'monoclinic'
loop_
_space_group_symop_operation_xyz
x,y,z
-x,y,-z
-x,-y,-z
x,-y,z
loop_
_atom_site_type_symbol
_atom_site_label
_atom_site_fract_x
_atom_site_fract_y
_atom_site_fract_z
Si Si1 0.673559 0.210133 0.788955
Si Si2 0.721653 0.275337 0.393206
Si Si3 0.711639 0.418754 0.822394
Si Si4 0.134627 0.581241 0.675386
Si Si5 0.974389 0.146180 0.202658
Si Si6 0.632592 0.922489 0.595784
O O1 0.754700 0.262053 0.586902
O O2 0.577539 0.142324 0.752258
O O3 0.500000 0.244344 0.000000
O O4 0.157691 0.178227 0.191987
O O5 0.500000 0.260726 0.500000
O O6 0.764031 0.352816 0.293467
O O7 0.843879 0.213937 0.232840
O O8 0.706574 0.500000 0.884098
O O9 0.761551 0.419662 0.581362
O O10 0.912541 0.393998 0.788913
O O11 0.500000 0.391477 0.000000
O O12 0.145838 0.500000 0.734887
O O13 0.848954 0.097139 0.406425
O O14 0.000000 0.107629 0.000000
O O15 0.500000 0.921576 0.500000
O O16 0.621378 0.000000 0.683564
#
# Coordination Sequence:
#
# PCOD9153071 Si02
#       6
#     4   4   4   4   4   4
#     4  11  23  40  65  90 121 166 207 251 306 369
#     4  11  23  40  59  85 123 161 206 259 311 374
#     4   8  15  30  53  82 114 148 193 251 309 376
#     4   9  19  34  56  84 118 158 202 260 323 377
#     4  11  23  41  63  88 123 160 207 256 303 367
#     4  10  21  39  65  96 130 163 200 249 299 355
#
# _framework density 24.193071
#
# number of rings (size 3 to 8) (size 9 to 14) (size 15 to 20)
#    0.000    2.000    0.000    7.000    4.667    3.000 
#    3.000    0.000    0.000    0.500    0.000    0.000 
#    0.000    0.000    0.000    0.000    0.000    0.000 
#
# Total GULP energy -134045.303479 kJ/mol
# GULP energy per Si atom -5585.220978 kJ/mol
# Density = 2.413801 g / cm^3
# Si number density = 24.193071 Si / 1000 Ang^3
#
#
#
# Elastic Constant Matrix: (Units=GPa)
#
#
# Indices 1 2 3 4 5 6 
#
# 1 100.4689 10.1255 16.7729 0.0000 -25.6198 0.0000
# 2 10.1255 147.6050 -3.3643 0.0000 -2.0510 0.0000
# 3 16.7729 -3.3643 110.6027 0.0000 -20.0172 0.0000
# 4 0.0000 0.0000 0.0000 185.0960 0.0000 -56.1976
# 5 -25.6198 -2.0510 -20.0172 0.0000 40.8018 0.0000
# 6 0.0000 0.0000 0.0000 -56.1976 0.0000 32.4312
#
#
#
# Elastic Compliance Matrix: (Units=1/GPa)
#
#
# Indices 1 2 3 4 5 6 
#
# 1 0.011954 -0.000732 -0.000530 0.000000 0.007209 0.000000
# 2 -0.000732 0.006833 0.000327 0.000000 0.000044 0.000000
# 3 -0.000530 0.000327 0.009959 0.000000 0.004569 0.000000
# 4 0.000000 0.000000 0.000000 0.011401 0.000000 0.019755
# 5 0.007209 0.000044 0.004569 0.000000 0.031279 0.000000
# 6 0.000000 0.000000 0.000000 0.019755 0.000000 0.065067
#
#
# Mechanical properties :
#
#
# Convention : Reuss Voigt Hill
#
# Bulk Modulus (GPa) = 37.20955 45.08275 41.14615
# Shear Modulus (GPa) = 33.93945 74.00865 53.97405
#
# Velocity S-wave (km/s) = 3.74954 5.53690 4.72844
# Velocity P-wave (km/s) = 5.84457 7.71695 6.84509
#
# Compressibility (1/GPa) = 0.02687482
#
# Stress axis : x y z
#
# Youngs Moduli (GPa) = 83.65431 146.34615 100.41498
#
# Poissons Ratio (x) = 0.10712 0.05326
# Poissons Ratio (y) = 0.06123 -0.03282
# Poissons Ratio (z) = 0.04437 -0.04783
#
# Static dielectric constant tensor:
#      x y z
#    x 2.010490 0.000000 0.054790 
#    y 0.000000 1.911410 0.000000 
#    z 0.054790 0.000000 2.002060 
# 
# From -- ./inp_files/20139.got.cif
#   From: 2010.05.17/outbox.cif.g08.bks.cpg/sg10_11_cif.got.tgz:20139.got - 2010.06.03 11:33:40.
