data_PCOD9153631
_publ_section_title
;
Structure prediction by ZEFSAII (Michael W. Deem and Ramdas Pophale) SiO2 
 PCOD9153631
Probable space group: P 2/M
;
_chemical_formula_sum "Si O2"
_cell_formula_units_Z 20
_cell_length_a 6.882841
_cell_length_b 7.529457
_cell_length_c 20.251369
_cell_angle_alpha 90.000000
_cell_angle_beta 51.091804
_cell_angle_gamma 90.000000
_cell_volume 816.678179
_symmetry_space_group_name_H-M "P 2/M"
_symmetry_group_IT_number 10
_symmetry_cell_setting 'monoclinic'
loop_
_space_group_symop_operation_xyz
x,y,z
-x,y,-z
-x,-y,-z
x,-y,z
loop_
_atom_site_type_symbol
_atom_site_label
_atom_site_fract_x
_atom_site_fract_y
_atom_site_fract_z
Si Si1 0.028077 0.786984 0.389299
Si Si2 0.596912 0.215861 0.568401
Si Si3 0.647104 0.206975 0.906455
Si Si4 0.524581 0.705483 0.791604
Si Si5 0.829480 0.795325 0.250986
O O1 0.211498 0.747579 0.412021
O O2 0.185987 0.722129 0.293312
O O3 0.753248 0.724407 0.470751
O O4 0.012735 0.000000 0.387043
O O5 0.332880 0.281371 0.653553
O O6 0.575113 0.000000 0.567562
O O7 0.494511 0.218254 0.870975
O O8 0.915407 0.288071 0.830091
O O9 0.695061 0.000000 0.912735
O O10 0.500000 0.284663 0.000000
O O11 0.457037 0.500000 0.806417
O O12 0.358402 0.796923 0.771254
O O13 0.885535 0.000000 0.257729
#
# Coordination Sequence:
#
# PCOD9153631 Si02
#       5
#     4   4   4   4   4
#     4   8  13  26  49  75 105 140 180 218 252 302
#     4   7  11  23  48  78 103 134 176 219 258 298
#     4  10  22  40  61  82 103 134 181 233 276 315
#     4  11  22  35  54  81 114 147 176 213 268 328
#     4   9  18  36  60  82 107 140 181 225 265 312
#
# _framework density 24.489450000000001
#
# number of rings (size 3 to 8) (size 9 to 14) (size 15 to 20)
#    0.000    3.000    0.000    4.200    0.000    2.000 
#    0.000   13.000    0.000    6.000    0.000    0.000 
#    0.000    0.000    0.000    0.000    0.000    0.000 
#
# Total GULP energy -111673.447837 kJ/mol
# GULP energy per Si atom -5583.672392 kJ/mol
# Density = 2.443371 g / cm^3
# Si number density = 24.489450 Si / 1000 Ang^3
#
#
#
# Elastic Constant Matrix: (Units=GPa)
#
#
# Indices 1 2 3 4 5 6 
#
# 1 81.3197 -11.1651 61.4722 0.0000 2.9711 0.0000
# 2 -11.1651 64.4680 8.3656 0.0000 -13.5065 0.0000
# 3 61.4722 8.3656 245.5666 0.0000 17.9048 0.0000
# 4 0.0000 0.0000 0.0000 53.7897 0.0000 19.1049
# 5 2.9711 -13.5065 17.9048 0.0000 37.9051 0.0000
# 6 0.0000 0.0000 0.0000 19.1049 0.0000 -28.6774
#
#
#
# Elastic Compliance Matrix: (Units=1/GPa)
#
#
# Indices 1 2 3 4 5 6 
#
# 1 0.015973 0.003764 -0.004281 0.000000 0.002111 0.000000
# 2 0.003764 0.017912 -0.002067 0.000000 0.007064 0.000000
# 3 -0.004281 -0.002067 0.005430 0.000000 -0.002966 0.000000
# 4 0.000000 0.000000 0.000000 0.015034 0.000000 0.010015
# 5 0.002111 0.007064 -0.002966 0.000000 0.030134 0.000000
# 6 0.000000 0.000000 0.000000 0.010015 0.000000 -0.028198
#
#
# Mechanical properties :
#
#
# Convention : Reuss Voigt Hill
#
# Bulk Modulus (GPa) = 29.28536 56.52220 42.90378
# Shear Modulus (GPa) = 68.64863 34.78225 51.71544
#
# Velocity S-wave (km/s) = 5.30026 3.77277 4.60036
# Velocity P-wave (km/s) = 7.03145 6.48912 6.76572
#
# Compressibility (1/GPa) = 0.03414676
#
# Stress axis : x y z
#
# Youngs Moduli (GPa) = 62.60718 55.82953 184.14620
#
# Poissons Ratio (x) = -0.21014 0.78825
# Poissons Ratio (y) = -0.23566 0.38072
# Poissons Ratio (z) = 0.26799 0.11543
#
# Static dielectric constant tensor:
#      x y z
#    x 2.006400 0.000000 -0.014500 
#    y 0.000000 1.887170 0.000000 
#    z -0.014500 0.000000 1.964840 
# 
# From -- ./inp_files/26751.got.cif
#   From: 2010.05.17/outbox.cif.g08.bks.cpg/sg10_14_cif.got.tgz:26751.got - 2010.06.03 11:33:40.
