data_PCOD9153494
_publ_section_title
;
Structure prediction by ZEFSAII (Michael W. Deem and Ramdas Pophale) SiO2 
 PCOD9153494
Probable space group: P 2/M
;
_chemical_formula_sum "Si O2"
_cell_formula_units_Z 24
_cell_length_a 11.208652
_cell_length_b 17.787852
_cell_length_c 11.088717
_cell_angle_alpha 90.000000
_cell_angle_beta 34.403501
_cell_angle_gamma 90.000000
_cell_volume 1249.165642
_symmetry_space_group_name_H-M "P 2/M"
_symmetry_group_IT_number 10
_symmetry_cell_setting 'monoclinic'
loop_
_space_group_symop_operation_xyz
x,y,z
-x,y,-z
-x,-y,-z
x,-y,z
loop_
_atom_site_type_symbol
_atom_site_label
_atom_site_fract_x
_atom_site_fract_y
_atom_site_fract_z
Si Si1 0.279661 0.692570 0.411781
Si Si2 0.724344 0.587082 0.380978
Si Si3 0.406490 0.801619 0.709449
Si Si4 0.105780 0.912008 0.045676
Si Si5 0.934589 0.814119 0.689443
Si Si6 0.000000 0.699546 0.000000
Si Si7 0.500000 0.744364 0.000000
O O1 0.292594 0.613419 0.467258
O O2 0.423426 0.750987 0.366328
O O3 0.383227 0.693679 0.195141
O O4 0.054595 0.734043 0.599068
O O5 0.500000 0.599418 0.500000
O O6 0.780724 0.500000 0.319616
O O7 0.895715 0.644012 0.183811
O O8 0.500000 0.816704 0.500000
O O9 0.339287 0.878141 0.830162
O O10 0.191146 0.752105 0.884552
O O11 0.102068 0.000000 0.076430
O O12 0.012198 0.865597 0.238283
O O13 0.000000 0.902471 0.000000
O O14 0.000000 0.843407 0.500000
O O15 0.685645 0.796621 0.897891
#
# Coordination Sequence:
#
# PCOD9153494 Si02
#       7
#     4   4   4   4   4   2   2
#     4  11  20  38  62  89 115 157 205 256 290 356
#     4  11  23  37  57  94 130 157 193 247 312 366
#     4  12  21  35  63  88 118 162 206 244 302 362
#     4  11  23  39  61  93 130 162 200 257 315 365
#     4  10  22  41  67  89 118 162 214 256 302 366
#     4  12  19  36  59  90 116 166 198 240 295 364
#     4  10  22  38  66  90 112 156 220 250 296 358
#
# _framework density 19.212824000000001
#
# number of rings (size 3 to 8) (size 9 to 14) (size 15 to 20)
#    0.000    1.000    5.833    2.250    0.000    0.667 
#    0.000    1.667    0.000    4.500    0.000    0.000 
#    0.000    0.000    0.000    0.000    0.000    0.000 
#
# Total GULP energy -133887.808278 kJ/mol
# GULP energy per Si atom -5578.658678 kJ/mol
# Density = 1.916909 g / cm^3
# Si number density = 19.212824 Si / 1000 Ang^3
#
#
#
# Elastic Constant Matrix: (Units=GPa)
#
#
# Indices 1 2 3 4 5 6 
#
# 1 79.2218 25.8839 32.6431 0.0000 7.5055 0.0000
# 2 25.8839 86.8692 35.6131 0.0000 10.4437 0.0000
# 3 32.6431 35.6131 90.8845 0.0000 5.3329 0.0000
# 4 0.0000 0.0000 0.0000 0.4639 0.0000 -0.1337
# 5 7.5055 10.4437 5.3329 0.0000 47.7435 0.0000
# 6 0.0000 0.0000 0.0000 -0.1337 0.0000 9.3493
#
#
#
# Elastic Compliance Matrix: (Units=1/GPa)
#
#
# Indices 1 2 3 4 5 6 
#
# 1 0.015435 -0.002616 -0.004439 0.000000 -0.001358 0.000000
# 2 -0.002616 0.014441 -0.004588 0.000000 -0.002235 0.000000
# 3 -0.004439 -0.004588 0.014390 0.000000 0.000094 0.000000
# 4 0.000000 0.000000 0.000000 2.164402 0.000000 0.030962
# 5 -0.001358 -0.002235 0.000094 0.000000 0.021637 0.000000
# 6 0.000000 0.000000 0.000000 0.030962 0.000000 0.107403
#
#
# Mechanical properties :
#
#
# Convention : Reuss Voigt Hill
#
# Bulk Modulus (GPa) = 47.66527 49.47286 48.56906
# Shear Modulus (GPa) = 2.11150 22.36706 12.23928
#
# Velocity S-wave (km/s) = 1.04947 3.41570 2.52670
# Velocity P-wave (km/s) = 5.13142 6.43132 5.81779
#
# Compressibility (1/GPa) = 0.02097964
#
# Stress axis : x y z
#
# Youngs Moduli (GPa) = 64.78648 69.24940 69.49470
#
# Poissons Ratio (x) = 0.18116 0.30850
# Poissons Ratio (y) = 0.16948 0.31883
# Poissons Ratio (z) = 0.28760 0.31770
#
# Static dielectric constant tensor:
#      x y z
#    x 1.750090 0.000000 0.028530 
#    y 0.000000 1.630470 0.000000 
#    z 0.028530 0.000000 1.708550 
# 
# From -- ./inp_files/47864.got.cif
#   From: 2010.05.17/outbox.cif.g08.bks.cpg/sg10_24_cif.got.tgz:47864.got - 2010.06.03 11:33:40.
