data_PCOD9153804
_publ_section_title
;
Structure prediction by ZEFSAII (Michael W. Deem and Ramdas Pophale) SiO2 
 PCOD9153804
Probable space group: P 2/M
;
_chemical_formula_sum "Si O2"
_cell_formula_units_Z 26
_cell_length_a 5.607961
_cell_length_b 12.891910
_cell_length_c 20.031968
_cell_angle_alpha 90.000000
_cell_angle_beta 118.986106
_cell_angle_gamma 90.000000
_cell_volume 1266.845014
_symmetry_space_group_name_H-M "P 2/M"
_symmetry_group_IT_number 10
_symmetry_cell_setting 'monoclinic'
loop_
_space_group_symop_operation_xyz
x,y,z
-x,y,-z
-x,-y,-z
x,-y,z
loop_
_atom_site_type_symbol
_atom_site_label
_atom_site_fract_x
_atom_site_fract_y
_atom_site_fract_z
Si Si1 0.347504 0.219605 0.909306
Si Si2 0.362655 0.219672 0.304595
Si Si3 0.734191 0.123927 0.846553
Si Si4 0.142210 0.686968 0.640940
Si Si5 0.178107 0.500000 0.456756
Si Si6 0.760056 0.116185 0.582690
Si Si7 0.861750 0.622329 0.218036
O O1 0.547901 0.158911 0.884470
O O2 0.298570 0.330224 0.866283
O O3 0.047585 0.167956 0.883198
O O4 0.500000 0.228550 0.000000
O O5 0.414662 0.166569 0.240279
O O6 0.593918 0.293650 0.367571
O O7 0.321572 0.127651 0.351039
O O8 0.115353 0.298924 0.260301
O O9 0.750651 0.000000 0.848551
O O10 0.273875 0.646572 0.728649
O O11 0.926224 0.601376 0.594511
O O12 0.990666 0.796374 0.612020
O O13 0.500000 0.500000 0.500000
O O14 0.000000 0.500000 0.500000
O O15 0.500000 0.137545 0.500000
O O16 0.856437 0.000000 0.580172
O O17 0.918692 0.500000 0.219411
#
# Coordination Sequence:
#
# PCOD9153804 Si02
#       7
#     4   4   4   4   2   4   4
#     4  11  24  43  65 100 136 169 219 273 327 396
#     4  10  23  40  63  95 124 173 222 280 320 403
#     4  11  23  42  68  97 133 176 221 270 327 395
#     4  11  23  41  67  92 130 174 221 280 330 402
#     4  12  30  44  70 104 135 173 223 287 342 396
#     4  10  23  41  61  89 131 174 222 275 336 396
#     4  10  22  42  65  90 127 170 220 267 333 393
#
# _framework density 20.523427000000002
#
# number of rings (size 3 to 8) (size 9 to 14) (size 15 to 20)
#    0.000    1.385    2.308    1.846    7.538    3.385 
#    0.000    1.538    0.000    2.769    0.000    0.000 
#    0.000    0.000    0.000    0.000    0.000    0.000 
#
# Total GULP energy -144792.380559 kJ/mol
# GULP energy per Si atom -5568.937714 kJ/mol
# Density = 2.047671 g / cm^3
# Si number density = 20.523427 Si / 1000 Ang^3
#
#
#
# Elastic Constant Matrix: (Units=GPa)
#
#
# Indices 1 2 3 4 5 6 
#
# 1 73.2424 14.1582 25.5953 0.0000 -0.9029 0.0000
# 2 14.1582 125.4717 44.0893 0.0000 -0.8098 0.0000
# 3 25.5953 44.0893 103.8244 0.0000 -1.4490 0.0000
# 4 0.0000 0.0000 0.0000 21.2213 0.0000 -3.2905
# 5 -0.9029 -0.8098 -1.4490 0.0000 28.0486 0.0000
# 6 0.0000 0.0000 0.0000 -3.2905 0.0000 15.1219
#
#
#
# Elastic Compliance Matrix: (Units=1/GPa)
#
#
# Indices 1 2 3 4 5 6 
#
# 1 0.014965 -0.000461 -0.003490 0.000000 0.000288 0.000000
# 2 -0.000461 0.009382 -0.003870 0.000000 0.000056 0.000000
# 3 -0.003490 -0.003870 0.012141 0.000000 0.000403 0.000000
# 4 0.000000 0.000000 0.000000 0.048768 0.000000 0.010612
# 5 0.000288 0.000056 0.000403 0.000000 0.035684 0.000000
# 6 0.000000 0.000000 0.000000 0.010612 0.000000 0.068438
#
#
# Mechanical properties :
#
#
# Convention : Reuss Voigt Hill
#
# Bulk Modulus (GPa) = 47.96588 52.24712 50.10650
# Shear Modulus (GPa) = 23.58844 27.45809 25.52326
#
# Velocity S-wave (km/s) = 3.39387 3.66169 3.53032
# Velocity P-wave (km/s) = 6.22735 6.58710 6.40975
#
# Compressibility (1/GPa) = 0.02084815
#
# Stress axis : x y z
#
# Youngs Moduli (GPa) = 66.82076 106.58645 82.36625
#
# Poissons Ratio (x) = 0.04909 0.28744
# Poissons Ratio (y) = 0.03078 0.31874
# Poissons Ratio (z) = 0.23319 0.41247
#
# Static dielectric constant tensor:
#      x y z
#    x 1.799670 0.000000 -0.015800 
#    y 0.000000 1.699710 0.000000 
#    z -0.015800 0.000000 1.774020 
# 
# From -- ./inp_files/12351.got.cif
#   From: 2010.05.17/outbox.cif.g08.bks.cpg/sg10_7_cif.got.tgz:12351.got - 2010.06.03 11:33:40.
