data_PCOD9153651
_publ_section_title
;
Structure prediction by ZEFSAII (Michael W. Deem and Ramdas Pophale) SiO2 
 PCOD9153651
Probable space group: P 2/M
;
_chemical_formula_sum "Si O2"
_cell_formula_units_Z 32
_cell_length_a 9.540557
_cell_length_b 22.110524
_cell_length_c 16.622665
_cell_angle_alpha 90.000000
_cell_angle_beta 154.528605
_cell_angle_gamma 90.000000
_cell_volume 1508.005409
_symmetry_space_group_name_H-M "P 2/M"
_symmetry_group_IT_number 10
_symmetry_cell_setting 'monoclinic'
loop_
_space_group_symop_operation_xyz
x,y,z
-x,y,-z
-x,-y,-z
x,-y,z
loop_
_atom_site_type_symbol
_atom_site_label
_atom_site_fract_x
_atom_site_fract_y
_atom_site_fract_z
Si Si1 0.743001 0.338510 0.294798
Si Si2 0.863037 0.759470 0.217675
Si Si3 0.379564 0.860586 0.691484
Si Si4 0.383088 0.069069 0.850414
Si Si5 0.647848 0.265072 0.803631
Si Si6 0.344463 0.431307 0.008083
Si Si7 0.294172 0.879014 0.474954
Si Si8 0.779608 0.331336 0.709026
O O1 0.837113 0.292188 0.272881
O O2 0.404974 0.313683 0.155046
O O3 0.644496 0.404476 0.214859
O O4 0.000000 0.337570 0.500000
O O5 0.088540 0.815608 0.361600
O O6 0.031571 0.725462 0.231417
O O7 0.500000 0.776850 0.000000
O O8 0.508010 0.888645 0.841635
O O9 0.401712 0.788390 0.696624
O O10 0.501200 0.879745 0.665386
O O11 0.000000 0.877788 0.500000
O O12 0.992282 0.073086 0.658746
O O13 0.480746 0.000000 0.884194
O O14 0.500000 0.086524 0.000000
O O15 0.625495 0.302128 0.709618
O O16 0.000000 0.236365 0.000000
O O17 0.259347 0.500000 0.985251
O O18 0.500000 0.429467 0.000000
O O19 0.030149 0.387073 0.848763
O O20 0.500000 0.886444 0.500000
O O21 0.500000 0.348584 0.500000
#
# Coordination Sequence:
#
# PCOD9153651 Si02
#       8
#     4   4   4   4   4   4   4   4
#     4  12  22  39  63  91 125 164 213 264 327 390
#     4  12  21  40  64  92 130 173 215 259 318 392
#     4  10  22  40  61  94 132 169 216 267 325 393
#     4  10  23  45  68  89 122 177 232 270 318 393
#     4  12  23  37  60  95 133 160 198 262 331 393
#     4  11  24  46  67  90 123 169 227 271 315 395
#     4  11  23  37  61 100 134 165 214 272 340 393
#     4  12  23  40  64  94 127 167 210 265 334 392
#
# _framework density 21.220082999999999
#
# number of rings (size 3 to 8) (size 9 to 14) (size 15 to 20)
#    0.000    0.750    3.750    5.625    0.000    5.000 
#    0.000    1.250    0.000    1.875    0.000    0.000 
#    0.000    0.000    0.000    0.000    0.000    0.000 
#
# Total GULP energy -178562.352975 kJ/mol
# GULP energy per Si atom -5580.073530 kJ/mol
# Density = 2.117178 g / cm^3
# Si number density = 21.220083 Si / 1000 Ang^3
#
#
#
# Elastic Constant Matrix: (Units=GPa)
#
#
# Indices 1 2 3 4 5 6 
#
# 1 134.7736 38.8353 25.5174 0.0000 -24.6424 0.0000
# 2 38.8353 104.4640 27.2836 0.0000 -19.2613 0.0000
# 3 25.5174 27.2836 84.0585 0.0000 -19.4192 0.0000
# 4 0.0000 0.0000 0.0000 4.3041 0.0000 -8.0221
# 5 -24.6424 -19.2613 -19.4192 0.0000 36.6808 0.0000
# 6 0.0000 0.0000 0.0000 -8.0221 0.0000 -36.7439
#
#
#
# Elastic Compliance Matrix: (Units=1/GPa)
#
#
# Indices 1 2 3 4 5 6 
#
# 1 0.009070 -0.002309 -0.000999 0.000000 0.004352 0.000000
# 2 -0.002309 0.011650 -0.002308 0.000000 0.003345 0.000000
# 3 -0.000999 -0.002308 0.014258 0.000000 0.005665 0.000000
# 4 0.000000 0.000000 0.000000 0.165138 0.000000 -0.036054
# 5 0.004352 0.003345 0.005665 0.000000 0.034942 0.000000
# 6 0.000000 0.000000 0.000000 -0.036054 0.000000 -0.019344
#
#
# Mechanical properties :
#
#
# Convention : Reuss Voigt Hill
#
# Bulk Modulus (GPa) = 42.10906 56.28540 49.19723
# Shear Modulus (GPa) = 21.28932 16.29220 18.79076
#
# Velocity S-wave (km/s) = 3.17087 2.77388 2.97899
# Velocity P-wave (km/s) = 5.77000 6.06971 5.92175
#
# Compressibility (1/GPa) = 0.02374786
#
# Stress axis : x y z
#
# Youngs Moduli (GPa) = 110.25459 85.83383 70.13846
#
# Poissons Ratio (x) = 0.19815 0.07004
# Poissons Ratio (y) = 0.25452 0.16188
# Poissons Ratio (z) = 0.11009 0.19810
#
# Static dielectric constant tensor:
#      x y z
#    x 1.818870 0.000000 -0.019240 
#    y 0.000000 1.748930 0.000000 
#    z -0.019240 0.000000 1.860780 
# 
# From -- ./inp_files/62722.got.cif
#   From: 2010.05.17/outbox.cif.g08.bks.cpg/sg10_32_cif.got.tgz:62722.got - 2010.06.03 11:33:40.
