data_PCOD9153138
_publ_section_title
;
Structure prediction by ZEFSAII (Michael W. Deem and Ramdas Pophale) SiO2 
 PCOD9153138
Probable space group: P 2/M
;
_chemical_formula_sum "Si O2"
_cell_formula_units_Z 32
_cell_length_a 16.426166
_cell_length_b 12.633833
_cell_length_c 12.915186
_cell_angle_alpha 90.000000
_cell_angle_beta 145.913317
_cell_angle_gamma 90.000000
_cell_volume 1502.125363
_symmetry_space_group_name_H-M "P 2/M"
_symmetry_group_IT_number 10
_symmetry_cell_setting 'monoclinic'
loop_
_space_group_symop_operation_xyz
x,y,z
-x,y,-z
-x,-y,-z
x,-y,z
loop_
_atom_site_type_symbol
_atom_site_label
_atom_site_fract_x
_atom_site_fract_y
_atom_site_fract_z
Si Si1 0.400312 0.197671 0.804962
Si Si2 0.394109 0.613591 0.060334
Si Si3 0.836408 0.374108 0.779927
Si Si4 0.118532 0.875702 0.862566
Si Si5 0.841402 0.269902 0.294619
Si Si6 0.201905 0.819203 0.405404
Si Si7 0.327635 0.284604 0.196453
Si Si8 0.446320 0.109847 0.559276
O O1 0.501125 0.294521 0.872345
O O2 0.256658 0.231402 0.714463
O O3 0.328640 0.154960 0.623576
O O4 0.500000 0.142098 0.000000
O O5 0.461200 0.500000 0.111726
O O6 0.346589 0.626758 0.129120
O O7 0.243753 0.631489 0.842093
O O8 0.817367 0.500000 0.740450
O O9 0.817934 0.301243 0.657522
O O10 0.721496 0.333822 0.746339
O O11 0.000000 0.359144 0.000000
O O12 0.149854 0.821414 0.784203
O O13 0.949634 0.861178 0.713025
O O14 0.155380 0.000000 0.902566
O O15 0.209286 0.803480 0.037874
O O16 0.000000 0.295414 0.500000
O O17 0.273172 0.878304 0.382881
O O18 0.476659 0.220138 0.335410
O O19 0.500000 0.099637 0.500000
O O20 0.492557 0.000000 0.662185
#
# Coordination Sequence:
#
# PCOD9153138 Si02
#       8
#     4   4   4   4   4   4   4   4
#     4  10  22  41  64  87 129 167 208 265 324 373
#     4  10  22  39  65  91 123 170 211 257 320 386
#     4  11  24  42  66  98 136 174 212 261 324 384
#     4  11  24  41  67  96 126 168 219 268 323 387
#     4  10  21  40  63  89 125 157 207 276 321 371
#     4  12  22  43  65  95 130 171 216 267 318 379
#     4  11  21  43  64  93 135 168 211 263 318 380
#     4  11  23  39  62  93 132 172 207 257 322 384
#
# _framework density 21.303149000000001
#
# number of rings (size 3 to 8) (size 9 to 14) (size 15 to 20)
#    0.000    1.250    5.000    1.125    0.000    3.250 
#    0.000    1.250    0.000    3.375    0.000    0.000 
#    0.000    0.000    0.000    0.000    0.000    0.000 
#
# Total GULP energy -178249.338031 kJ/mol
# GULP energy per Si atom -5570.291813 kJ/mol
# Density = 2.125466 g / cm^3
# Si number density = 21.303149 Si / 1000 Ang^3
#
#
#
# Elastic Constant Matrix: (Units=GPa)
#
#
# Indices 1 2 3 4 5 6 
#
# 1 99.3668 15.0914 5.6258 0.0000 12.8022 0.0000
# 2 15.0914 95.3760 5.9966 0.0000 -2.4785 0.0000
# 3 5.6258 5.9966 69.0987 0.0000 12.1914 0.0000
# 4 0.0000 0.0000 0.0000 -2.6299 0.0000 20.1520
# 5 12.8022 -2.4785 12.1914 0.0000 36.9490 0.0000
# 6 0.0000 0.0000 0.0000 20.1520 0.0000 5.1337
#
#
#
# Elastic Compliance Matrix: (Units=1/GPa)
#
#
# Indices 1 2 3 4 5 6 
#
# 1 0.010839 -0.001813 -0.000044 0.000000 -0.003863 0.000000
# 2 -0.001813 0.010886 -0.001101 0.000000 0.001721 0.000000
# 3 -0.000044 -0.001101 0.015483 0.000000 -0.005167 0.000000
# 4 0.000000 0.000000 0.000000 -0.012235 0.000000 0.048026
# 5 -0.003863 0.001721 -0.005167 0.000000 0.030223 0.000000
# 6 0.000000 0.000000 0.000000 0.048026 0.000000 0.006268
#
#
# Mechanical properties :
#
#
# Convention : Reuss Voigt Hill
#
# Bulk Modulus (GPa) = 31.95583 35.25212 33.60397
# Shear Modulus (GPa) = 64.25996 23.69910 43.97953
#
# Velocity S-wave (km/s) = 5.49818 3.33899 4.54856
# Velocity P-wave (km/s) = 7.43907 5.60793 6.58744
#
# Compressibility (1/GPa) = 0.03129320
#
# Stress axis : x y z
#
# Youngs Moduli (GPa) = 92.25795 91.86450 64.58771
#
# Poissons Ratio (x) = 0.16653 0.00282
# Poissons Ratio (y) = 0.16724 0.07110
# Poissons Ratio (z) = 0.00403 0.10113
#
# Static dielectric constant tensor:
#      x y z
#    x 1.760990 0.000000 0.006930 
#    y 0.000000 1.891320 0.000000 
#    z 0.006930 0.000000 1.771140 
# 
# From -- ./inp_files/69184.got.cif
#   From: 2010.05.17/outbox.cif.g08.bks.cpg/sg10_35_cif.got.tgz:69184.got - 2010.06.03 11:33:40.
