data_PCOD9153197
_publ_section_title
;
Structure prediction by ZEFSAII (Michael W. Deem and Ramdas Pophale) SiO2 
 PCOD9153197
Probable space group: P 2/M
;
_chemical_formula_sum "Si O2"
_cell_formula_units_Z 28
_cell_length_a 29.132024
_cell_length_b 9.359848
_cell_length_c 8.037793
_cell_angle_alpha 90.000000
_cell_angle_beta 35.798280
_cell_angle_gamma 90.000000
_cell_volume 1281.984100
_symmetry_space_group_name_H-M "P 2/M"
_symmetry_group_IT_number 10
_symmetry_cell_setting 'monoclinic'
loop_
_space_group_symop_operation_xyz
x,y,z
-x,y,-z
-x,-y,-z
x,-y,z
loop_
_atom_site_type_symbol
_atom_site_label
_atom_site_fract_x
_atom_site_fract_y
_atom_site_fract_z
Si Si1 0.179637 0.671920 0.305541
Si Si2 0.491411 0.340050 0.327992
Si Si3 0.046651 0.164038 0.534968
Si Si4 0.626858 0.158410 0.790708
Si Si5 0.322697 0.266972 0.693665
Si Si6 0.766060 0.341756 0.361379
Si Si7 0.113755 0.832001 0.820059
O O1 0.189928 0.500000 0.282109
O O2 0.114168 0.721391 0.364567
O O3 0.144749 0.736982 0.577739
O O4 0.260729 0.753759 0.022899
O O5 0.500000 0.314355 0.500000
O O6 0.521502 0.500000 0.202847
O O7 0.401078 0.333043 0.538826
O O8 0.543508 0.227671 0.074474
O O9 0.978359 0.181271 0.873220
O O10 0.000000 0.177056 0.500000
O O11 0.077453 0.000000 0.455621
O O12 0.645366 0.155037 0.537869
O O13 0.692932 0.265363 0.668947
O O14 0.633347 0.000000 0.840318
O O15 0.268097 0.353809 0.724285
O O16 0.784763 0.500000 0.367919
O O17 0.837626 0.232741 0.167618
O O18 0.130864 0.000000 0.747929
#
# Coordination Sequence:
#
# PCOD9153197 Si02
#       7
#     4   4   4   4   4   4   4
#     4  12  25  41  65  98 134 172 219 271 324 384
#     4  11  24  42  67  95 128 173 218 267 328 390
#     4  10  23  44  68  94 130 175 220 267 325 391
#     4  10  24  43  65  93 126 166 214 267 324 385
#     4  10  25  41  65  93 130 166 217 269 322 386
#     4  10  21  40  67  93 124 166 213 265 319 382
#     4  11  24  42  65  96 134 173 214 267 327 387
#
# _framework density 21.841144
#
# number of rings (size 3 to 8) (size 9 to 14) (size 15 to 20)
#    0.857    0.571    0.000    4.714    2.000    6.286 
#    0.000    0.000    0.000    0.000    0.000    0.000 
#    0.000    0.000    0.000    0.000    0.000    0.000 
#
# Total GULP energy -156113.433302 kJ/mol
# GULP energy per Si atom -5575.479761 kJ/mol
# Density = 2.179143 g / cm^3
# Si number density = 21.841144 Si / 1000 Ang^3
#
#
#
# Elastic Constant Matrix: (Units=GPa)
#
#
# Indices 1 2 3 4 5 6 
#
# 1 71.4772 18.2899 9.6636 0.0000 -0.3524 0.0000
# 2 18.2899 97.3136 43.6615 0.0000 0.8877 0.0000
# 3 9.6636 43.6615 108.0490 0.0000 -0.3425 0.0000
# 4 0.0000 0.0000 0.0000 24.6016 0.0000 -10.7861
# 5 -0.3524 0.8877 -0.3425 0.0000 34.6299 0.0000
# 6 0.0000 0.0000 0.0000 -10.7861 0.0000 30.5504
#
#
#
# Elastic Compliance Matrix: (Units=1/GPa)
#
#
# Indices 1 2 3 4 5 6 
#
# 1 0.014704 -0.002658 -0.000240 0.000000 0.000215 0.000000
# 2 -0.002658 0.013037 -0.005032 0.000000 -0.000411 0.000000
# 3 -0.000240 -0.005032 0.011311 0.000000 0.000238 0.000000
# 4 0.000000 0.000000 0.000000 0.048092 0.000000 0.016979
# 5 0.000215 -0.000411 0.000238 0.000000 0.028892 0.000000
# 6 0.000000 0.000000 0.000000 0.016979 0.000000 0.038727
#
#
# Mechanical properties :
#
#
# Convention : Reuss Voigt Hill
#
# Bulk Modulus (GPa) = 43.11854 46.67444 44.89649
# Shear Modulus (GPa) = 28.03427 31.63803 29.83615
#
# Velocity S-wave (km/s) = 3.58656 3.81011 3.70002
# Velocity P-wave (km/s) = 6.07749 6.38532 6.23331
#
# Compressibility (1/GPa) = 0.02319188
#
# Stress axis : x y z
#
# Youngs Moduli (GPa) = 68.00822 76.70554 88.41286
#
# Poissons Ratio (x) = 0.20386 0.02126
# Poissons Ratio (y) = 0.18074 0.44486
# Poissons Ratio (z) = 0.01635 0.38596
#
# Static dielectric constant tensor:
#      x y z
#    x 1.889150 0.000000 0.046980 
#    y 0.000000 1.756540 0.000000 
#    z 0.046980 0.000000 1.829790 
# 
# From -- ./inp_files/36982.got.cif
#   From: 2010.05.17/outbox.cif.g08.bks.cpg/sg10_19_cif.got.tgz:36982.got - 2010.06.03 11:33:40.
