data_PCOD9153108
_publ_section_title
;
Structure prediction by ZEFSAII (Michael W. Deem and Ramdas Pophale) SiO2 
 PCOD9153108
Probable space group: P 2/M
;
_chemical_formula_sum "Si O2"
_cell_formula_units_Z 28
_cell_length_a 9.406427
_cell_length_b 14.267144
_cell_length_c 19.567393
_cell_angle_alpha 90.000000
_cell_angle_beta 143.528639
_cell_angle_gamma 90.000000
_cell_volume 1560.949234
_symmetry_space_group_name_H-M "P 2/M"
_symmetry_group_IT_number 10
_symmetry_cell_setting 'monoclinic'
loop_
_space_group_symop_operation_xyz
x,y,z
-x,y,-z
-x,-y,-z
x,-y,z
loop_
_atom_site_type_symbol
_atom_site_label
_atom_site_fract_x
_atom_site_fract_y
_atom_site_fract_z
Si Si1 0.703374 0.612084 0.523045
Si Si2 0.478752 0.891667 0.379888
Si Si3 0.406633 0.391577 0.040405
Si Si4 0.093529 0.109328 0.344007
Si Si5 0.189227 0.285890 0.721000
Si Si6 0.423121 0.283819 0.667100
Si Si7 0.099592 0.392719 0.115364
O O1 0.500000 0.638736 0.500000
O O2 0.700301 0.500000 0.514557
O O3 0.656242 0.660813 0.431844
O O4 0.961648 0.647628 0.647481
O O5 0.703937 0.882721 0.518620
O O6 0.240401 0.868590 0.331402
O O7 0.523250 0.821446 0.335835
O O8 0.463739 0.000000 0.353438
O O9 0.408891 0.500000 0.067679
O O10 0.577339 0.327841 0.152254
O O11 0.500000 0.392349 0.000000
O O12 0.131000 0.360498 0.931498
O O13 0.888515 0.183681 0.281850
O O14 0.018185 0.000000 0.312500
O O15 0.240120 0.285477 0.659401
O O16 0.668525 0.331026 0.786399
O O17 0.159324 0.500000 0.157563
O O18 0.000000 0.391752 0.000000
#
# Coordination Sequence:
#
# PCOD9153108 Si02
#       7
#     4   4   4   4   4   4   4
#     4  11  25  39  54  82 119 159 193 232 289 349
#     4   9  19  37  60  85 114 152 195 236 286 350
#     4  10  23  40  60  85 113 154 204 245 279 331
#     4   9  19  37  60  84 115 153 194 238 286 347
#     4  12  23  37  59  89 121 149 189 243 296 349
#     4  12  23  36  60  89 119 152 189 240 298 349
#     4  10  21  40  60  81 113 156 200 238 283 339
#
# _framework density 17.937802999999999
#
# number of rings (size 3 to 8) (size 9 to 14) (size 15 to 20)
#    0.000    1.571    2.857    3.000    4.000    2.857 
#    0.000    1.429    0.000    1.714    0.000    0.000 
#    0.000    0.000    0.000    0.000    0.000    0.000 
#
# Total GULP energy -156349.420065 kJ/mol
# GULP energy per Si atom -5583.907859 kJ/mol
# Density = 1.789698 g / cm^3
# Si number density = 17.937803 Si / 1000 Ang^3
#
#
#
# Elastic Constant Matrix: (Units=GPa)
#
#
# Indices 1 2 3 4 5 6 
#
# 1 93.4717 38.6928 9.5421 0.0000 17.1894 0.0000
# 2 38.6928 86.5507 24.5716 0.0000 9.5513 0.0000
# 3 9.5421 24.5716 42.9300 0.0000 12.2148 0.0000
# 4 0.0000 0.0000 0.0000 36.5589 0.0000 10.4696
# 5 17.1894 9.5513 12.2148 0.0000 28.3134 0.0000
# 6 0.0000 0.0000 0.0000 10.4696 0.0000 29.6288
#
#
#
# Elastic Compliance Matrix: (Units=1/GPa)
#
#
# Indices 1 2 3 4 5 6 
#
# 1 0.014500 -0.006372 0.002642 0.000000 -0.007793 0.000000
# 2 -0.006372 0.016646 -0.008680 0.000000 0.001998 0.000000
# 3 0.002642 -0.008680 0.031117 0.000000 -0.012100 0.000000
# 4 0.000000 0.000000 0.000000 0.030433 0.000000 -0.010754
# 5 -0.007793 0.001998 -0.012100 0.000000 0.044596 0.000000
# 6 0.000000 0.000000 0.000000 -0.010754 0.000000 0.037551
#
#
# Mechanical properties :
#
#
# Convention : Reuss Voigt Hill
#
# Bulk Modulus (GPa) = 26.70737 40.95170 33.82953
# Shear Modulus (GPa) = 23.56882 28.90997 26.23940
#
# Velocity S-wave (km/s) = 3.62873 4.01893 3.82880
# Velocity P-wave (km/s) = 5.69896 6.66446 6.20053
#
# Compressibility (1/GPa) = 0.03744285
#
# Stress axis : x y z
#
# Youngs Moduli (GPa) = 68.96741 60.07342 32.13631
#
# Poissons Ratio (x) = 0.38279 -0.08489
# Poissons Ratio (y) = 0.43946 0.27894
# Poissons Ratio (z) = -0.18219 0.52143
#
# Static dielectric constant tensor:
#      x y z
#    x 1.655370 0.000000 0.016990 
#    y 0.000000 1.613330 0.000000 
#    z 0.016990 0.000000 1.595900 
# 
# From -- ./inp_files/24868.got.cif
#   From: 2010.05.17/outbox.cif.g08.bks.cpg/sg10_13_cif.got.tgz:24868.got - 2010.06.03 11:33:40.
