data_PCOD9153760
_publ_section_title
;
Structure prediction by ZEFSAII (Michael W. Deem and Ramdas Pophale) SiO2 
 PCOD9153760
Probable space group: P 2/M
;
_chemical_formula_sum "Si O2"
_cell_formula_units_Z 21
_cell_length_a 5.367330
_cell_length_b 28.845118
_cell_length_c 5.471338
_cell_angle_alpha 90.000000
_cell_angle_beta 92.612462
_cell_angle_gamma 90.000000
_cell_volume 846.199095
_symmetry_space_group_name_H-M "P 2/M"
_symmetry_group_IT_number 10
_symmetry_cell_setting 'monoclinic'
loop_
_space_group_symop_operation_xyz
x,y,z
-x,y,-z
-x,-y,-z
x,-y,z
loop_
_atom_site_type_symbol
_atom_site_label
_atom_site_fract_x
_atom_site_fract_y
_atom_site_fract_z
Si Si1 0.759587 0.049608 0.664401
Si Si2 0.742934 0.653799 0.862040
Si Si3 0.753606 0.436786 0.639903
Si Si4 0.234888 0.248160 0.348971
Si Si5 0.500000 0.500000 0.000000
Si Si6 0.344318 0.150009 0.236757
O O1 0.500000 0.049498 0.500000
O O2 0.769389 0.098732 0.800582
O O3 0.000000 0.049574 0.500000
O O4 0.761557 0.000000 0.803433
O O5 0.746273 0.619240 0.635102
O O6 0.736081 0.709105 0.830027
O O7 0.500000 0.641234 0.000000
O O8 0.000000 0.641952 0.000000
O O9 0.500000 0.452967 0.500000
O O10 0.699932 0.459461 0.903087
O O11 0.000000 0.450568 0.500000
O O12 0.500000 0.245553 0.500000
O O13 0.178743 0.196063 0.254158
O O14 0.000000 0.261896 0.500000
O O15 0.500000 0.147518 0.500000
O O16 0.500000 0.158645 0.000000
#
# Coordination Sequence:
#
# PCOD9153760 Si02
#       6
#     4   4   4   4   1   4
#     4   9  18  36  61  91 129 175 226 282 345 415
#     4  12  24  44  71 103 142 183 228 283 345 416
#     4  12  27  48  74 106 144 187 231 288 353 413
#     4  11  23  42  66  99 137 178 226 282 345 412
#     4  12  28  50  76 108 142 184 242 286 340 422
#     4  10  22  41  65  97 135 179 229 289 351 420
#
# _framework density 24.816856000000001
#
# number of rings (size 3 to 8) (size 9 to 14) (size 15 to 20)
#    0.000    1.143    0.952    5.143    0.000    2.667 
#    0.000   11.429    0.000   10.286    0.000    0.000 
#    0.000    0.000    0.000    0.000    0.000    0.000 
#
# Total GULP energy -116994.136336 kJ/mol
# GULP energy per Si atom -5571.149349 kJ/mol
# Density = 2.476037 g / cm^3
# Si number density = 24.816856 Si / 1000 Ang^3
#
#
#
# Elastic Constant Matrix: (Units=GPa)
#
#
# Indices 1 2 3 4 5 6 
#
# 1 191.5747 11.8107 48.9871 0.0000 -27.3942 0.0000
# 2 11.8107 175.9743 0.0582 0.0000 -3.3689 0.0000
# 3 48.9871 0.0582 71.5276 0.0000 -26.2868 0.0000
# 4 0.0000 0.0000 0.0000 27.6623 0.0000 -40.0596
# 5 -27.3942 -3.3689 -26.2868 0.0000 60.0880 0.0000
# 6 0.0000 0.0000 0.0000 -40.0596 0.0000 38.9316
#
#
#
# Elastic Compliance Matrix: (Units=1/GPa)
#
#
# Indices 1 2 3 4 5 6 
#
# 1 0.006428 -0.000408 -0.003972 0.000000 0.001170 0.000000
# 2 -0.000408 0.005716 0.000386 0.000000 0.000303 0.000000
# 3 -0.003972 0.000386 0.019117 0.000000 0.006574 0.000000
# 4 0.000000 0.000000 0.000000 -0.073757 0.000000 -0.075894
# 5 0.001170 0.000303 0.006574 0.000000 0.020068 0.000000
# 6 0.000000 0.000000 0.000000 -0.075894 0.000000 -0.052407
#
#
# Mechanical properties :
#
#
# Convention : Reuss Voigt Hill
#
# Bulk Modulus (GPa) = 42.96830 62.30984 52.63907
# Shear Modulus (GPa) = -84.61686 50.55108 -17.03289
#
# Velocity S-wave (km/s) = -5.84556 4.51817 -2.62266
# Velocity P-wave (km/s) = 5.31121 7.23746 3.47649
#
# Compressibility (1/GPa) = 0.02327297
#
# Stress axis : x y z
#
# Youngs Moduli (GPa) = 155.56897 174.95684 52.31083
#
# Poissons Ratio (x) = 0.07133 0.20778
# Poissons Ratio (y) = 0.06343 -0.02020
# Poissons Ratio (z) = 0.61792 -0.06755
#
# Static dielectric constant tensor:
#      x y z
#    x 1.920070 0.000000 0.108570 
#    y 0.000000 2.014860 0.000000 
#    z 0.108570 0.000000 2.077310 
# 
# From -- ./inp_files/2274.got.cif
#   From: 2010.05.17/outbox.cif.g08.bks.cpg/sg10_2_cif.got.tgz:2274.got - 2010.06.03 11:33:40.
