data_PCOD9153132
_publ_section_title
;
Structure prediction by ZEFSAII (Michael W. Deem and Ramdas Pophale) SiO2 
 PCOD9153132
Probable space group: P 2/M
;
_chemical_formula_sum "Si O2"
_cell_formula_units_Z 22
_cell_length_a 14.130339
_cell_length_b 7.529259
_cell_length_c 8.380656
_cell_angle_alpha 90.000000
_cell_angle_beta 98.246652
_cell_angle_gamma 90.000000
_cell_volume 882.406602
_symmetry_space_group_name_H-M "P 2/M"
_symmetry_group_IT_number 10
_symmetry_cell_setting 'monoclinic'
loop_
_space_group_symop_operation_xyz
x,y,z
-x,y,-z
-x,-y,-z
x,-y,z
loop_
_atom_site_type_symbol
_atom_site_label
_atom_site_fract_x
_atom_site_fract_y
_atom_site_fract_z
Si Si1 0.084567 0.295593 0.197009
Si Si2 0.725406 0.713256 0.908495
Si Si3 0.802032 0.197371 0.468618
Si Si4 0.631791 0.210992 0.224856
Si Si5 0.929508 0.000000 0.241581
Si Si6 0.446046 0.294953 0.335517
O O1 0.057766 0.500000 0.157699
O O2 0.166414 0.227646 0.093880
O O3 0.139441 0.295249 0.381566
O O4 0.999824 0.156788 0.189418
O O5 0.727886 0.500000 0.895288
O O6 0.651509 0.782229 0.757032
O O7 0.681605 0.758090 0.068177
O O8 0.704043 0.279214 0.379550
O O9 0.867787 0.152161 0.330933
O O10 0.781465 0.000000 0.531335
O O11 0.526758 0.289379 0.217635
O O12 0.623810 0.000000 0.243653
O O13 0.500000 0.211562 0.500000
O O14 0.426142 0.500000 0.371002
#
# Coordination Sequence:
#
# PCOD9153132 Si02
#       6
#     4   4   4   4   2   4
#     4  11  21  37  65  93 120 162 208 251 310 368
#     4  10  23  39  57  88 123 160 205 250 299 364
#     4   9  20  39  57  86 122 156 198 256 305 359
#     4  11  23  38  59  87 120 164 203 240 305 364
#     4  10  21  42  63  90 129 154 201 266 311 360
#     4  10  21  40  63  87 120 159 199 252 305 353
#
# _framework density 24.931816000000001
#
# number of rings (size 3 to 8) (size 9 to 14) (size 15 to 20)
#    0.545    1.273    0.909    3.273    1.273    7.636 
#    0.000    1.818    0.000    2.182    0.000    0.000 
#    0.000    0.000    0.000    0.000    0.000    0.000 
#
# Total GULP energy -122554.231375 kJ/mol
# GULP energy per Si atom -5570.646881 kJ/mol
# Density = 2.487507 g / cm^3
# Si number density = 24.931816 Si / 1000 Ang^3
#
#
#
# Elastic Constant Matrix: (Units=GPa)
#
#
# Indices 1 2 3 4 5 6 
#
# 1 128.9393 38.8547 44.8281 0.0000 -8.7064 0.0000
# 2 38.8547 100.4482 4.8170 0.0000 -4.4401 0.0000
# 3 44.8281 4.8170 74.0047 0.0000 2.3706 0.0000
# 4 0.0000 0.0000 0.0000 20.9442 0.0000 -23.4733
# 5 -8.7064 -4.4401 2.3706 0.0000 59.6092 0.0000
# 6 0.0000 0.0000 0.0000 -23.4733 0.0000 3.3834
#
#
#
# Elastic Compliance Matrix: (Units=1/GPa)
#
#
# Indices 1 2 3 4 5 6 
#
# 1 0.011406 -0.004019 -0.006700 0.000000 0.001633 0.000000
# 2 -0.004019 0.011438 0.001683 0.000000 0.000198 0.000000
# 3 -0.006700 0.001683 0.017511 0.000000 -0.001550 0.000000
# 4 0.000000 0.000000 0.000000 -0.007047 0.000000 -0.048889
# 5 0.001633 0.000198 -0.001550 0.000000 0.017091 0.000000
# 6 0.000000 0.000000 0.000000 -0.048889 0.000000 -0.043622
#
#
# Mechanical properties :
#
#
# Convention : Reuss Voigt Hill
#
# Bulk Modulus (GPa) = 44.87339 53.37685 49.12512
# Shear Modulus (GPa) = 154.91306 31.11352 93.01329
#
# Velocity S-wave (km/s) = 7.89111 3.53646 6.11458
# Velocity P-wave (km/s) = 10.05304 6.17503 8.34250
#
# Compressibility (1/GPa) = 0.02228492
#
# Stress axis : x y z
#
# Youngs Moduli (GPa) = 87.67152 87.42896 57.10613
#
# Poissons Ratio (x) = 0.35134 0.38261
# Poissons Ratio (y) = 0.35232 -0.09613
# Poissons Ratio (z) = 0.58740 -0.14718
#
# Static dielectric constant tensor:
#      x y z
#    x 1.969700 0.000000 0.026370 
#    y 0.000000 1.908990 0.000000 
#    z 0.026370 0.000000 2.036840 
# 
# From -- ./inp_files/27059.got.cif
#   From: 2010.05.17/outbox.cif.g08.bks.cpg/sg10_14_cif.got.tgz:27059.got - 2010.06.03 11:33:40.
