data_PCOD9153480
_publ_section_title
;
Structure prediction by ZEFSAII (Michael W. Deem and Ramdas Pophale) SiO2 
 PCOD9153480
Probable space group: P 2/M
;
_chemical_formula_sum "Si O2"
_cell_formula_units_Z 32
_cell_length_a 32.576995
_cell_length_b 11.181214
_cell_length_c 10.323308
_cell_angle_alpha 90.000000
_cell_angle_beta 154.642885
_cell_angle_gamma 90.000000
_cell_volume 1610.368413
_symmetry_space_group_name_H-M "P 2/M"
_symmetry_group_IT_number 10
_symmetry_cell_setting 'monoclinic'
loop_
_space_group_symop_operation_xyz
x,y,z
-x,y,-z
-x,-y,-z
x,-y,z
loop_
_atom_site_type_symbol
_atom_site_label
_atom_site_fract_x
_atom_site_fract_y
_atom_site_fract_z
Si Si1 0.630247 0.202495 0.610827
Si Si2 0.719980 0.747714 0.382362
Si Si3 0.532529 0.366304 0.942423
Si Si4 0.110558 0.354768 0.287792
Si Si5 0.214202 0.367992 0.835754
Si Si6 0.605155 0.864578 0.821131
Si Si7 0.764648 0.867112 0.763802
Si Si8 0.887141 0.366013 0.191204
O O1 0.525800 0.255918 0.285812
O O2 0.640874 0.130004 0.774431
O O3 0.677384 0.144546 0.618224
O O4 0.696144 0.314776 0.835108
O O5 0.824917 0.695245 0.645917
O O6 0.730511 0.851272 0.519115
O O7 0.644819 0.656163 0.235269
O O8 0.669052 0.793103 0.105261
O O9 0.507829 0.500000 0.822623
O O10 0.500000 0.364419 0.000000
O O11 0.110344 0.500000 0.278610
O O12 0.169128 0.310494 0.580955
O O13 0.000000 0.319597 0.000000
O O14 0.241767 0.500000 0.872026
O O15 0.133524 0.369991 0.714779
O O16 0.500000 0.808601 0.500000
O O17 0.593661 0.000000 0.838173
O O18 0.807878 0.000000 0.905383
O O19 0.831674 0.750504 0.979909
O O20 0.857995 0.500000 0.057276
O O21 0.000000 0.352925 0.500000
#
# Coordination Sequence:
#
# PCOD9153480 Si02
#       8
#     4   4   4   4   4   4   4   4
#     4  11  20  41  61  88 122 165 208 255 321 385
#     4  12  23  42  62  91 127 169 215 260 327 382
#     4  11  23  39  61  94 130 166 208 264 328 389
#     4  10  22  38  61  91 125 165 212 264 318 383
#     4   9  18  34  57  87 121 155 199 258 314 374
#     4  11  23  39  62  87 119 160 209 260 314 384
#     4  11  25  41  63  93 131 172 218 267 318 384
#     4   9  20  38  65  94 122 161 214 270 327 384
#
# _framework density 19.871227999999999
#
# number of rings (size 3 to 8) (size 9 to 14) (size 15 to 20)
#    0.000    1.500    3.750    1.500    1.750    1.750 
#    0.000    1.250    0.000    1.500    0.000    0.000 
#    0.000    0.000    0.000    0.000    0.000    0.000 
#
# Total GULP energy -178141.440413 kJ/mol
# GULP energy per Si atom -5566.920013 kJ/mol
# Density = 1.982600 g / cm^3
# Si number density = 19.871228 Si / 1000 Ang^3
#
#
#
# Elastic Constant Matrix: (Units=GPa)
#
#
# Indices 1 2 3 4 5 6 
#
# 1 109.5764 26.5687 47.7599 0.0000 10.3941 0.0000
# 2 26.5687 95.9966 28.6487 0.0000 3.4416 0.0000
# 3 47.7599 28.6487 48.9814 0.0000 5.5818 0.0000
# 4 0.0000 0.0000 0.0000 -130.7759 0.0000 -80.2926
# 5 10.3941 3.4416 5.5818 0.0000 35.7924 0.0000
# 6 0.0000 0.0000 0.0000 -80.2926 0.0000 -9.2259
#
#
#
# Elastic Compliance Matrix: (Units=1/GPa)
#
#
# Indices 1 2 3 4 5 6 
#
# 1 0.016055 0.000282 -0.015562 0.000000 -0.002263 0.000000
# 2 0.000282 0.012625 -0.007647 0.000000 -0.000103 0.000000
# 3 -0.015562 -0.007647 0.040178 0.000000 -0.001011 0.000000
# 4 0.000000 0.000000 0.000000 0.001761 0.000000 -0.015322
# 5 -0.002263 -0.000103 -0.001011 0.000000 0.028764 0.000000
# 6 0.000000 0.000000 0.000000 -0.015322 0.000000 0.024955
#
#
# Mechanical properties :
#
#
# Convention : Reuss Voigt Hill
#
# Bulk Modulus (GPa) = 43.47187 51.16767 47.31977
# Shear Modulus (GPa) = 28.11215 -10.73674 8.68771
#
# Velocity S-wave (km/s) = 3.76535 -2.32699 2.09320
# Velocity P-wave (km/s) = 6.38969 4.31111 5.45040
#
# Compressibility (1/GPa) = 0.02300338
#
# Stress axis : x y z
#
# Youngs Moduli (GPa) = 62.28570 79.20830 24.88954
#
# Poissons Ratio (x) = -0.02232 0.38732
# Poissons Ratio (y) = -0.01755 0.19033
# Poissons Ratio (z) = 0.96927 0.60572
#
# Static dielectric constant tensor:
#      x y z
#    x 1.772090 0.000000 0.017400 
#    y 0.000000 1.757320 0.000000 
#    z 0.017400 0.000000 1.714870 
# 
# From -- ./inp_files/38239.got.cif
#   From: 2010.05.17/outbox.cif.g08.bks.cpg/sg10_20_cif.got.tgz:38239.got - 2010.06.03 11:33:40.
