data_PCOD9153235
_publ_section_title
;
Structure prediction by ZEFSAII (Michael W. Deem and Ramdas Pophale) SiO2 
 PCOD9153235
Probable space group: P 2/M
;
_chemical_formula_sum "Si O2"
_cell_formula_units_Z 24
_cell_length_a 16.839311
_cell_length_b 9.131364
_cell_length_c 24.150145
_cell_angle_alpha 90.000000
_cell_angle_beta 19.686979
_cell_angle_gamma 90.000000
_cell_volume 1250.997983
_symmetry_space_group_name_H-M "P 2/M"
_symmetry_group_IT_number 10
_symmetry_cell_setting 'monoclinic'
loop_
_space_group_symop_operation_xyz
x,y,z
-x,y,-z
-x,-y,-z
x,-y,z
loop_
_atom_site_type_symbol
_atom_site_label
_atom_site_fract_x
_atom_site_fract_y
_atom_site_fract_z
Si Si1 0.938279 0.674184 0.787731
Si Si2 0.436498 0.172042 0.477431
Si Si3 0.840167 0.671918 0.724434
Si Si4 0.266817 0.325844 0.808018
Si Si5 0.481967 0.826108 0.878385
Si Si6 0.368752 0.327754 0.331674
O O1 0.944283 0.500000 0.792820
O O2 0.840613 0.699763 0.789721
O O3 0.198933 0.739842 0.620046
O O4 0.767370 0.751807 0.943489
O O5 0.500000 0.190220 0.500000
O O6 0.642181 0.235484 0.303909
O O7 0.400879 0.000000 0.489599
O O8 0.778948 0.500000 0.755811
O O9 0.662362 0.771150 0.807031
O O10 0.105559 0.694569 0.527736
O O11 0.279659 0.500000 0.787291
O O12 0.444015 0.297443 0.742701
O O13 0.000000 0.290723 0.000000
O O14 0.577864 0.768152 0.756906
O O15 0.461107 0.000000 0.892226
O O16 0.389431 0.500000 0.303048
#
# Coordination Sequence:
#
# PCOD9153235 Si02
#       6
#     4   4   4   4   4   4
#     4  11  23  43  68  92 121 164 214 260 307 362
#     4  11  25  43  64  95 132 165 200 250 316 377
#     4  10  21  41  66  90 120 161 214 263 309 364
#     4  10  22  42  68  97 123 160 214 258 301 365
#     4  12  26  39  58  94 132 166 206 252 313 377
#     4  10  21  41  64  91 125 164 210 260 307 360
#
# _framework density 19.184684000000001
#
# number of rings (size 3 to 8) (size 9 to 14) (size 15 to 20)
#    0.000    1.333    1.667    3.500    2.333    8.333 
#    0.000    0.000    0.000    0.000    0.000    0.000 
#    0.000    0.000    0.000    0.000    0.000    0.000 
#
# Total GULP energy -134267.939613 kJ/mol
# GULP energy per Si atom -5594.497484 kJ/mol
# Density = 1.914102 g / cm^3
# Si number density = 19.184684 Si / 1000 Ang^3
#
#
#
# Elastic Constant Matrix: (Units=GPa)
#
#
# Indices 1 2 3 4 5 6 
#
# 1 47.2027 51.4291 17.6763 0.0000 3.4802 0.0000
# 2 51.4291 87.6661 44.0619 0.0000 9.1840 0.0000
# 3 17.6763 44.0619 71.7104 0.0000 -2.5172 0.0000
# 4 0.0000 0.0000 0.0000 -14.0437 0.0000 -2.3452
# 5 3.4802 9.1840 -2.5172 0.0000 28.1813 0.0000
# 6 0.0000 0.0000 0.0000 -2.3452 0.0000 16.8875
#
#
#
# Elastic Compliance Matrix: (Units=1/GPa)
#
#
# Indices 1 2 3 4 5 6 
#
# 1 0.065268 -0.045060 0.011868 0.000000 0.007684 0.000000
# 2 -0.045060 0.048809 -0.019307 0.000000 -0.012066 0.000000
# 3 0.011868 -0.019307 0.023124 0.000000 0.006892 0.000000
# 4 0.000000 0.000000 0.000000 -0.069592 0.000000 -0.009664
# 5 0.007684 -0.012066 0.006892 0.000000 0.039083 0.000000
# 6 0.000000 0.000000 0.000000 -0.009664 0.000000 0.057873
#
#
# Mechanical properties :
#
#
# Convention : Reuss Voigt Hill
#
# Bulk Modulus (GPa) = 31.05135 48.10155 39.57645
# Shear Modulus (GPa) = 17.83817 12.43249 15.13533
#
# Velocity S-wave (km/s) = 3.05259 2.54843 2.81183
# Velocity P-wave (km/s) = 5.35211 5.81263 5.58711
#
# Compressibility (1/GPa) = 0.03220472
#
# Stress axis : x y z
#
# Youngs Moduli (GPa) = 15.32133 20.48809 43.24438
#
# Poissons Ratio (x) = 0.92318 -0.51321
# Poissons Ratio (y) = 0.69037 0.83491
# Poissons Ratio (z) = -0.18183 0.39556
#
# Static dielectric constant tensor:
#      x y z
#    x 1.641740 0.000000 -0.003720 
#    y 0.000000 1.636090 0.000000 
#    z -0.003720 0.000000 1.651230 
# 
# From -- ./inp_files/90002.got.cif
#   From: 2010.05.17/outbox.cif.g08.bks.cpg/sg10_46_cif.got.tgz:90002.got - 2010.06.03 11:33:40.
