data_PCOD9153331
_publ_section_title
;
Structure prediction by ZEFSAII (Michael W. Deem and Ramdas Pophale) SiO2 
 PCOD9153331
Probable space group: P 2/M
;
_chemical_formula_sum "Si O2"
_cell_formula_units_Z 13
_cell_length_a 5.155717
_cell_length_b 19.226760
_cell_length_c 5.238073
_cell_angle_alpha 90.000000
_cell_angle_beta 90.900426
_cell_angle_gamma 90.000000
_cell_volume 519.174186
_symmetry_space_group_name_H-M "P 2/M"
_symmetry_group_IT_number 10
_symmetry_cell_setting 'monoclinic'
loop_
_space_group_symop_operation_xyz
x,y,z
-x,y,-z
-x,-y,-z
x,-y,z
loop_
_atom_site_type_symbol
_atom_site_label
_atom_site_fract_x
_atom_site_fract_y
_atom_site_fract_z
Si Si1 0.233339 0.347872 0.834320
Si Si2 0.500000 0.243029 0.500000
Si Si3 0.820139 0.874117 0.751887
Si Si4 0.678524 0.500000 0.254612
Si Si5 0.500000 0.000000 0.000000
O O1 0.288535 0.294587 0.611897
O O2 0.172243 0.426983 0.748397
O O3 0.500000 0.350278 0.000000
O O4 0.000000 0.322381 0.000000
O O5 0.362457 0.191654 0.300737
O O6 0.000000 0.885537 0.500000
O O7 0.641748 0.939473 0.824353
O O8 0.000000 0.862868 0.000000
O O9 0.500000 0.500000 0.500000
O O10 0.500000 0.500000 0.000000
#
# Coordination Sequence:
#
# PCOD9153331 Si02
#       5
#     4   2   4   2   1
#     4  11  27  48  79 117 165 222 281 348 415 491
#     4  12  30  48  78 122 166 216 280 336 426 494
#     4  12  30  52  84 118 165 210 273 341 412 501
#     4  10  21  50  78 115 159 217 284 349 407 486
#     4  12  28  58  84 122 152 220 268 342 410 496
#
# _framework density 25.039766
#
# number of rings (size 3 to 8) (size 9 to 14) (size 15 to 20)
#    0.000    0.615    1.538    3.231   10.769    4.308 
#    0.000    3.077    0.000    0.000    0.000    1.077 
#    0.000    0.000    0.000    0.000    0.000    0.000 
#
# Total GULP energy -72699.406314 kJ/mol
# GULP energy per Si atom -5592.262024 kJ/mol
# Density = 2.498277 g / cm^3
# Si number density = 25.039766 Si / 1000 Ang^3
#
#
#
# Elastic Constant Matrix: (Units=GPa)
#
#
# Indices 1 2 3 4 5 6 
#
# 1 110.1317 54.3389 70.3618 0.0000 -21.1841 0.0000
# 2 54.3389 253.9293 69.8447 0.0000 -15.1102 0.0000
# 3 70.3618 69.8447 182.1629 0.0000 -25.5529 0.0000
# 4 0.0000 0.0000 0.0000 35.9987 0.0000 -13.6825
# 5 -21.1841 -15.1102 -25.5529 0.0000 74.3664 0.0000
# 6 0.0000 0.0000 0.0000 -13.6825 0.0000 -45.1594
#
#
#
# Elastic Compliance Matrix: (Units=1/GPa)
#
#
# Indices 1 2 3 4 5 6 
#
# 1 0.012813 -0.001498 -0.004103 0.000000 0.001936 0.000000
# 2 -0.001498 0.004585 -0.001165 0.000000 0.000105 0.000000
# 3 -0.004103 -0.001165 0.007695 0.000000 0.001238 0.000000
# 4 0.000000 0.000000 0.000000 0.024910 0.000000 -0.007547
# 5 0.001936 0.000105 0.001238 0.000000 0.014445 0.000000
# 6 0.000000 0.000000 0.000000 -0.007547 0.000000 -0.019857
#
#
# Mechanical properties :
#
#
# Convention : Reuss Voigt Hill
#
# Bulk Modulus (GPa) = 86.49768 103.92386 95.21077
# Shear Modulus (GPa) = 80.67500 36.48639 58.58069
#
# Velocity S-wave (km/s) = 5.68231 3.82139 4.84209
# Velocity P-wave (km/s) = 8.81310 7.81437 8.32872
#
# Compressibility (1/GPa) = 0.01156100
#
# Stress axis : x y z
#
# Youngs Moduli (GPa) = 78.04568 218.08895 129.95785
#
# Poissons Ratio (x) = 0.32672 0.53324
# Poissons Ratio (y) = 0.11692 0.15137
# Poissons Ratio (z) = 0.32024 0.25402
#
# Static dielectric constant tensor:
#      x y z
#    x 2.021410 0.000000 0.095810 
#    y 0.000000 1.931680 0.000000 
#    z 0.095810 0.000000 1.939940 
# 
# From -- ./inp_files/798.got.cif
#   From: 2010.05.17/outbox.cif.g08.bks.cpg/sg10_1_cif.got.tgz:798.got - 2010.06.03 11:33:40.
