data_PCOD9153639
_publ_section_title
;
Structure prediction by ZEFSAII (Michael W. Deem and Ramdas Pophale) SiO2 
 PCOD9153639
Probable space group: P 2/M
;
_chemical_formula_sum "Si O2"
_cell_formula_units_Z 32
_cell_length_a 23.380895
_cell_length_b 8.486153
_cell_length_c 28.369736
_cell_angle_alpha 90.000000
_cell_angle_beta 162.561090
_cell_angle_gamma 90.000000
_cell_volume 1686.932601
_symmetry_space_group_name_H-M "P 2/M"
_symmetry_group_IT_number 10
_symmetry_cell_setting 'monoclinic'
loop_
_space_group_symop_operation_xyz
x,y,z
-x,y,-z
-x,-y,-z
x,-y,z
loop_
_atom_site_type_symbol
_atom_site_label
_atom_site_fract_x
_atom_site_fract_y
_atom_site_fract_z
Si Si1 0.327190 0.190316 0.082247
Si Si2 0.163418 0.309355 0.165091
Si Si3 0.400604 0.309070 0.035709
Si Si4 0.908823 0.811075 0.786614
Si Si5 0.417417 0.311124 0.539457
Si Si6 0.346170 0.811105 0.588421
Si Si7 0.677306 0.317254 0.176452
Si Si8 0.060466 0.308645 0.697494
O O1 0.479768 0.242083 0.241386
O O2 0.326798 0.000000 0.081159
O O3 0.385096 0.250001 0.076351
O O4 0.114544 0.243701 0.928947
O O5 0.162188 0.500000 0.165749
O O6 0.122145 0.246897 0.184650
O O7 0.371914 0.258201 0.311129
O O8 0.000000 0.258380 0.000000
O O9 0.407464 0.500000 0.040745
O O10 0.212397 0.263507 0.857690
O O11 0.586075 0.249520 0.152361
O O12 0.741062 0.749834 0.621283
O O13 0.907341 0.000000 0.784900
O O14 0.414672 0.500000 0.536884
O O15 0.372454 0.253062 0.556528
O O16 0.146607 0.753945 0.453069
O O17 0.346770 0.000000 0.587102
O O18 0.725230 0.500000 0.224075
O O19 0.852746 0.250269 0.284285
O O20 0.500000 0.318437 0.000000
O O21 0.057188 0.500000 0.693550
#
# Coordination Sequence:
#
# PCOD9153639 Si02
#       8
#     4   4   4   4   4   4   4   4
#     4  10  23  39  52  73 108 146 180 219 267 318
#     4  10  22  40  61  86 116 147 179 219 266 315
#     4   9  17  31  55  82 104 134 177 222 267 318
#     4  11  23  39  60  84 111 145 184 223 265 316
#     4  11  23  39  60  85 111 140 178 223 269 316
#     4  11  23  38  54  75 107 144 182 222 266 318
#     4   7  12  26  49  77 106 133 168 217 267 315
#     4   9  17  32  55  81 107 136 174 221 271 321
#
# _framework density 18.969342000000001
#
# number of rings (size 3 to 8) (size 9 to 14) (size 15 to 20)
#    0.000    2.250    0.000    4.500    0.000    7.250 
#    0.000    1.250    0.000    6.000    0.000    0.000 
#    0.000    0.000    0.000    0.000    0.000    0.000 
#
# Total GULP energy -178621.085109 kJ/mol
# GULP energy per Si atom -5581.908910 kJ/mol
# Density = 1.892617 g / cm^3
# Si number density = 18.969342 Si / 1000 Ang^3
#
#
#
# Elastic Constant Matrix: (Units=GPa)
#
#
# Indices 1 2 3 4 5 6 
#
# 1 177.1370 29.1985 168.2033 0.0000 42.8095 0.0000
# 2 29.1985 14.9672 31.7379 0.0000 0.9599 0.0000
# 3 168.2033 31.7379 86.4800 0.0000 -39.2226 0.0000
# 4 0.0000 0.0000 0.0000 27.2404 0.0000 5.9157
# 5 42.8095 0.9599 -39.2226 0.0000 7.6362 0.0000
# 6 0.0000 0.0000 0.0000 5.9157 0.0000 54.6884
#
#
#
# Elastic Compliance Matrix: (Units=1/GPa)
#
#
# Indices 1 2 3 4 5 6 
#
# 1 0.002345 -0.013041 0.003757 0.000000 0.007788 0.000000
# 2 -0.013041 0.110197 -0.008875 0.000000 0.013673 0.000000
# 3 0.003757 -0.008875 0.001153 0.000000 -0.014023 0.000000
# 4 0.000000 0.000000 0.000000 0.037593 0.000000 -0.004067
# 5 0.007788 0.013673 -0.014023 0.000000 0.013545 0.000000
# 6 0.000000 0.000000 0.000000 -0.004067 0.000000 0.018725
#
#
# Mechanical properties :
#
#
# Convention : Reuss Voigt Hill
#
# Bulk Modulus (GPa) = 12.92385 81.87372 47.39878
# Shear Modulus (GPa) = 20.35249 21.20931 20.78090
#
# Velocity S-wave (km/s) = 3.27909 3.34740 3.31342
# Velocity P-wave (km/s) = 4.60048 7.62856 6.29918
#
# Compressibility (1/GPa) = 0.07737633
#
# Stress axis : x y z
#
# Youngs Moduli (GPa) = 426.38221 9.07467 867.18981
#
# Poissons Ratio (x) = 0.11835 -3.25798
# Poissons Ratio (y) = 5.56062 7.69632
# Poissons Ratio (z) = -1.60189 0.08054
#
# Static dielectric constant tensor:
#      x y z
#    x 1.640060 0.000000 0.019250 
#    y 0.000000 1.654080 0.000000 
#    z 0.019250 0.000000 1.648050 
# 
# From -- ./inp_files/93695.got.cif
#   From: 2010.05.17/outbox.cif.g08.bks.cpg/sg10_47_cif.got.tgz:93695.got - 2010.06.03 11:33:40.
