data_PCOD9153047
_publ_section_title
;
Structure prediction by ZEFSAII (Michael W. Deem and Ramdas Pophale) SiO2 
 PCOD9153047
Probable space group: P 2/M
;
_chemical_formula_sum "Si O2"
_cell_formula_units_Z 32
_cell_length_a 8.938781
_cell_length_b 13.339736
_cell_length_c 12.556037
_cell_angle_alpha 90.000000
_cell_angle_beta 84.536288
_cell_angle_gamma 90.000000
_cell_volume 1490.391942
_symmetry_space_group_name_H-M "P 2/M"
_symmetry_group_IT_number 10
_symmetry_cell_setting 'monoclinic'
loop_
_space_group_symop_operation_xyz
x,y,z
-x,y,-z
-x,-y,-z
x,-y,z
loop_
_atom_site_type_symbol
_atom_site_label
_atom_site_fract_x
_atom_site_fract_y
_atom_site_fract_z
Si Si1 0.881730 0.382629 0.372356
Si Si2 0.554142 0.306187 0.792700
Si Si3 0.647450 0.705372 0.556289
Si Si4 0.219682 0.241816 0.047097
Si Si5 0.976503 0.888377 0.176743
Si Si6 0.080029 0.813606 0.391471
Si Si7 0.633638 0.116709 0.136845
Si Si8 0.761087 0.612342 0.142277
O O1 0.926623 0.500000 0.377910
O O2 0.753792 0.358317 0.469300
O O3 0.816856 0.364670 0.258082
O O4 0.011515 0.299504 0.378870
O O5 0.598202 0.342518 0.671998
O O6 0.692813 0.298023 0.864015
O O7 0.480255 0.193898 0.799111
O O8 0.419124 0.374106 0.845036
O O9 0.500000 0.732443 0.500000
O O10 0.747317 0.798377 0.590395
O O11 0.075295 0.187582 0.102695
O O12 0.329566 0.159498 0.983943
O O13 0.182963 0.316781 0.954454
O O14 0.038068 0.875121 0.291277
O O15 0.797327 0.873974 0.182773
O O16 0.006255 0.000000 0.134272
O O17 0.000000 0.856862 0.500000
O O18 0.589391 0.000000 0.139493
O O19 0.806072 0.500000 0.115825
#
# Coordination Sequence:
#
# PCOD9153047 Si02
#       8
#     4   4   4   4   4   4   4   4
#     4  10  22  41  66  94 124 164 209 255 305 364
#     4  11  22  39  61  93 126 166 203 256 314 362
#     4  11  22  39  63  92 122 165 208 255 305 365
#     4  11  22  38  63  93 127 163 206 257 309 362
#     4  11  23  41  65  95 123 159 210 257 308 370
#     4  10  22  40  66  91 125 165 201 257 314 361
#     4  10  22  38  62  91 124 165 206 252 311 373
#     4  10  21  39  64  93 128 168 207 250 306 370
#
# _framework density 21.470863000000001
#
# number of rings (size 3 to 8) (size 9 to 14) (size 15 to 20)
#    0.000    1.500    2.500    3.750    1.750    6.750 
#    0.000    0.625    0.000    9.750    0.000    0.000 
#    0.000    0.000    0.000    0.000    0.000    0.000 
#
# Total GULP energy -178829.989224 kJ/mol
# GULP energy per Si atom -5588.437163 kJ/mol
# Density = 2.142199 g / cm^3
# Si number density = 21.470863 Si / 1000 Ang^3
#
#
#
# Elastic Constant Matrix: (Units=GPa)
#
#
# Indices 1 2 3 4 5 6 
#
# 1 73.9576 13.9569 36.2963 0.0000 12.4933 0.0000
# 2 13.9569 80.2521 46.1697 0.0000 3.1450 0.0000
# 3 36.2963 46.1697 148.5893 0.0000 6.8356 0.0000
# 4 0.0000 0.0000 0.0000 9.3554 0.0000 -4.5473
# 5 12.4933 3.1450 6.8356 0.0000 40.3661 0.0000
# 6 0.0000 0.0000 0.0000 -4.5473 0.0000 4.5314
#
#
#
# Elastic Compliance Matrix: (Units=1/GPa)
#
#
# Indices 1 2 3 4 5 6 
#
# 1 0.016109 -0.000588 -0.003553 0.000000 -0.004338 0.000000
# 2 -0.000588 0.015200 -0.004569 0.000000 -0.000229 0.000000
# 3 -0.003553 -0.004569 0.009021 0.000000 -0.000072 0.000000
# 4 0.000000 0.000000 0.000000 0.208674 0.000000 0.209406
# 5 -0.004338 -0.000229 -0.000072 0.000000 0.026146 0.000000
# 6 0.000000 0.000000 0.000000 0.209406 0.000000 0.430822
#
#
# Mechanical properties :
#
#
# Convention : Reuss Voigt Hill
#
# Bulk Modulus (GPa) = 43.64686 55.07163 49.35924
# Shear Modulus (GPa) = 6.83969 24.60900 15.72434
#
# Velocity S-wave (km/s) = 1.78675 3.38917 2.70915
# Velocity P-wave (km/s) = 4.96278 6.40472 5.72929
#
# Compressibility (1/GPa) = 0.02291116
#
# Stress axis : x y z
#
# Youngs Moduli (GPa) = 62.07882 65.78734 110.85487
#
# Poissons Ratio (x) = 0.03865 0.39384
# Poissons Ratio (y) = 0.03648 0.50650
# Poissons Ratio (z) = 0.22055 0.30059
#
# Static dielectric constant tensor:
#      x y z
#    x 1.817620 0.000000 -0.004230 
#    y 0.000000 1.765940 0.000000 
#    z -0.004230 0.000000 1.798580 
# 
# From -- ./inp_files/42972.got.cif
#   From: 2010.05.17/outbox.cif.g08.bks.cpg/sg10_22_cif.got.tgz:42972.got - 2010.06.03 11:33:40.
