data_PCOD9153904
_publ_section_title
;
Structure prediction by ZEFSAII (Michael W. Deem and Ramdas Pophale) SiO2 
 PCOD9153904
Probable space group: P 2/M
;
_chemical_formula_sum "Si O2"
_cell_formula_units_Z 28
_cell_length_a 13.637215
_cell_length_b 13.869519
_cell_length_c 9.104037
_cell_angle_alpha 90.000000
_cell_angle_beta 116.898372
_cell_angle_gamma 90.000000
_cell_volume 1535.654889
_symmetry_space_group_name_H-M "P 2/M"
_symmetry_group_IT_number 10
_symmetry_cell_setting 'monoclinic'
loop_
_space_group_symop_operation_xyz
x,y,z
-x,y,-z
-x,-y,-z
x,-y,z
loop_
_atom_site_type_symbol
_atom_site_label
_atom_site_fract_x
_atom_site_fract_y
_atom_site_fract_z
Si Si1 0.308210 0.755445 0.225518
Si Si2 0.669833 0.383310 0.191580
Si Si3 0.463812 0.115590 0.136908
Si Si4 0.120220 0.612597 0.154115
Si Si5 0.617763 0.891533 0.494838
Si Si6 0.555032 0.386187 0.808093
Si Si7 0.111878 0.616823 0.498517
O O1 0.360500 0.828073 0.138641
O O2 0.198698 0.692342 0.132911
O O3 0.304709 0.817253 0.371201
O O4 0.402320 0.673753 0.299355
O O5 0.674637 0.500000 0.197047
O O6 0.565779 0.357839 0.221615
O O7 0.782413 0.346784 0.338506
O O8 0.636313 0.361683 0.000819
O O9 0.574761 0.132242 0.305525
O O10 0.441377 0.000000 0.126350
O O11 0.500000 0.145063 0.000000
O O12 0.159208 0.500000 0.162383
O O13 0.116177 0.634247 0.326365
O O14 0.000000 0.616770 0.000000
O O15 0.500000 0.891901 0.500000
O O16 0.662251 0.000000 0.531351
O O17 0.558298 0.500000 0.786208
O O18 0.112478 0.500000 0.511795
O O19 0.000000 0.651377 0.500000
#
# Coordination Sequence:
#
# PCOD9153904 Si02
#       7
#     4   4   4   4   4   4   4
#     4  11  20  31  53  81 107 145 186 222 276 339
#     4   8  16  30  45  67 100 134 181 226 269 318
#     4   9  19  36  58  86 116 144 178 220 273 342
#     4  10  23  40  53  73 109 150 196 246 288 327
#     4   8  16  33  54  77 108 139 167 211 271 334
#     4   9  18  30  46  73 111 149 175 216 274 329
#     4   9  18  33  54  72  90 135 195 241 273 315
#
# _framework density 18.233263000000001
#
# number of rings (size 3 to 8) (size 9 to 14) (size 15 to 20)
#    0.000    2.857    0.000    2.571    4.000    3.429 
#    0.000    0.000    0.000   12.857    0.000    0.000 
#    0.000    5.714    0.000    0.000    0.000    0.143 
#
# Total GULP energy -155962.943762 kJ/mol
# GULP energy per Si atom -5570.105134 kJ/mol
# Density = 1.819176 g / cm^3
# Si number density = 18.233263 Si / 1000 Ang^3
#
#
#
# Elastic Constant Matrix: (Units=GPa)
#
#
# Indices 1 2 3 4 5 6 
#
# 1 85.3953 37.4930 46.1568 0.0000 11.6257 0.0000
# 2 37.4930 102.5646 32.8905 0.0000 1.8104 0.0000
# 3 46.1568 32.8905 82.9993 0.0000 9.8251 0.0000
# 4 0.0000 0.0000 0.0000 7.7791 0.0000 2.8969
# 5 11.6257 1.8104 9.8251 0.0000 25.2469 0.0000
# 6 0.0000 0.0000 0.0000 2.8969 0.0000 20.7737
#
#
#
# Elastic Compliance Matrix: (Units=1/GPa)
#
#
# Indices 1 2 3 4 5 6 
#
# 1 0.018590 -0.004106 -0.008106 0.000000 -0.005111 0.000000
# 2 -0.004106 0.012099 -0.002759 0.000000 0.002097 0.000000
# 3 -0.008106 -0.002759 0.018014 0.000000 -0.003080 0.000000
# 4 0.000000 0.000000 0.000000 0.135592 0.000000 -0.018908
# 5 -0.005111 0.002097 -0.003080 0.000000 0.043011 0.000000
# 6 0.000000 0.000000 0.000000 -0.018908 0.000000 0.050774
#
#
# Mechanical properties :
#
#
# Convention : Reuss Voigt Hill
#
# Bulk Modulus (GPa) = 53.30354 56.00442 54.65398
# Shear Modulus (GPa) = 15.90956 21.05453 18.48204
#
# Velocity S-wave (km/s) = 2.95711 3.40182 3.18723
# Velocity P-wave (km/s) = 6.39977 6.79794 6.60186
#
# Compressibility (1/GPa) = 0.01876048
#
# Stress axis : x y z
#
# Youngs Moduli (GPa) = 53.79146 82.65297 55.51188
#
# Poissons Ratio (x) = 0.33938 0.44998
# Poissons Ratio (y) = 0.22087 0.15317
# Poissons Ratio (z) = 0.43604 0.22806
#
# Static dielectric constant tensor:
#      x y z
#    x 1.647330 0.000000 -0.034220 
#    y 0.000000 1.665400 0.000000 
#    z -0.034220 0.000000 1.694130 
# 
# From -- ./inp_files/29196.got.cif
#   From: 2010.05.17/outbox.cif.g08.bks.cpg/sg10_15_cif.got.tgz:29196.got - 2010.06.03 11:33:40.
