data_PCOD9153966
_publ_section_title
;
Structure prediction by ZEFSAII (Michael W. Deem and Ramdas Pophale) SiO2 
 PCOD9153966
Probable space group: P 2/M
;
_chemical_formula_sum "Si O2"
_cell_formula_units_Z 22
_cell_length_a 7.726660
_cell_length_b 21.008298
_cell_length_c 12.755443
_cell_angle_alpha 90.000000
_cell_angle_beta 146.818366
_cell_angle_gamma 90.000000
_cell_volume 1133.182025
_symmetry_space_group_name_H-M "P 2/M"
_symmetry_group_IT_number 10
_symmetry_cell_setting 'monoclinic'
loop_
_space_group_symop_operation_xyz
x,y,z
-x,y,-z
-x,-y,-z
x,-y,z
loop_
_atom_site_type_symbol
_atom_site_label
_atom_site_fract_x
_atom_site_fract_y
_atom_site_fract_z
Si Si1 0.649326 0.928638 0.367955
Si Si2 0.633668 0.500000 0.781947
Si Si3 0.772661 0.932252 0.053272
Si Si4 0.799591 0.822997 0.789216
Si Si5 0.218729 0.500000 0.779168
Si Si6 0.793436 0.389963 0.503411
Si Si7 0.500000 0.715499 0.500000
O O1 0.519697 0.865563 0.358509
O O2 0.000000 0.919302 0.500000
O O3 0.650893 0.000000 0.418746
O O4 0.398698 0.932541 0.145630
O O5 0.384554 0.500000 0.750926
O O6 0.523416 0.433598 0.672898
O O7 0.000000 0.500000 0.000000
O O8 0.985939 0.871040 0.168954
O O9 0.946366 0.000000 0.151549
O O10 0.500000 0.930500 0.000000
O O11 0.716273 0.760009 0.683666
O O12 0.000000 0.811933 0.000000
O O13 0.010156 0.437295 0.681235
O O14 0.500000 0.500000 0.000000
O O15 0.701667 0.328223 0.522492
O O16 0.000000 0.378110 0.500000
#
# Coordination Sequence:
#
# PCOD9153966 Si02
#       7
#     4   2   4   4   2   4   2
#     4   9  18  34  60  87 113 148 197 272 334 361
#     4   9  19  36  71  99 125 155 197 266 316 347
#     4   9  18  35  59  85 112 145 199 268 325 369
#     4  10  23  42  57  84 121 163 214 251 303 381
#     4   9  19  38  67 101 120 154 198 255 320 352
#     4   9  22  44  61  93 132 158 205 257 301 363
#     4  12  26  41  65  86 130 184 208 238 306 362
#
# _framework density 19.414356999999999
#
# number of rings (size 3 to 8) (size 9 to 14) (size 15 to 20)
#    0.000    2.545    0.000    1.636    5.091    4.364 
#    6.545    0.909    0.000    0.000    0.000    0.000 
#    0.000    0.000    0.000    0.000    0.000    0.000 
#
# Total GULP energy -122549.131074 kJ/mol
# GULP energy per Si atom -5570.415049 kJ/mol
# Density = 1.937017 g / cm^3
# Si number density = 19.414357 Si / 1000 Ang^3
#
#
#
# Elastic Constant Matrix: (Units=GPa)
#
#
# Indices 1 2 3 4 5 6 
#
# 1 74.0284 70.2698 29.4785 0.0000 13.3236 0.0000
# 2 70.2698 177.9052 72.0468 0.0000 5.5411 0.0000
# 3 29.4785 72.0468 111.3209 0.0000 13.0712 0.0000
# 4 0.0000 0.0000 0.0000 -2.5203 0.0000 -8.1371
# 5 13.3236 5.5411 13.0712 0.0000 32.5126 0.0000
# 6 0.0000 0.0000 0.0000 -8.1371 0.0000 40.5815
#
#
#
# Elastic Compliance Matrix: (Units=1/GPa)
#
#
# Indices 1 2 3 4 5 6 
#
# 1 0.023615 -0.009396 0.000814 0.000000 -0.008403 0.000000
# 2 -0.009396 0.011372 -0.005349 0.000000 0.004063 0.000000
# 3 0.000814 -0.005349 0.012764 0.000000 -0.004554 0.000000
# 4 0.000000 0.000000 0.000000 -0.240850 0.000000 -0.048294
# 5 -0.008403 0.004063 -0.004554 0.000000 0.035339 0.000000
# 6 0.000000 0.000000 0.000000 -0.048294 0.000000 0.014958
#
#
# Mechanical properties :
#
#
# Convention : Reuss Voigt Hill
#
# Bulk Modulus (GPa) = 50.27609 78.53833 64.40721
# Shear Modulus (GPa) = -46.16309 26.87870 -9.64219
#
# Velocity S-wave (km/s) = -4.88154 3.72489 -2.23099
# Velocity P-wave (km/s) = 2.41247 7.68383 5.15855
#
# Compressibility (1/GPa) = 0.01989017
#
# Stress axis : x y z
#
# Youngs Moduli (GPa) = 42.34574 87.93817 78.34638
#
# Poissons Ratio (x) = 0.82623 -0.06378
# Poissons Ratio (y) = 0.39786 0.41905
# Poissons Ratio (z) = -0.03447 0.47036
#
# Static dielectric constant tensor:
#      x y z
#    x 1.693790 0.000000 -0.014590 
#    y 0.000000 1.672100 0.000000 
#    z -0.014590 0.000000 1.675120 
# 
# From -- ./inp_files/62425.got.cif
#   From: 2010.05.17/outbox.cif.g08.bks.cpg/sg10_32_cif.got.tgz:62425.got - 2010.06.03 11:33:40.
