data_PCOD9153199
_publ_section_title
;
Structure prediction by ZEFSAII (Michael W. Deem and Ramdas Pophale) SiO2 
 PCOD9153199
Probable space group: P 2/M
;
_chemical_formula_sum "Si O2"
_cell_formula_units_Z 24
_cell_length_a 9.604104
_cell_length_b 8.830111
_cell_length_c 14.814384
_cell_angle_alpha 90.000000
_cell_angle_beta 97.907293
_cell_angle_gamma 90.000000
_cell_volume 1244.393029
_symmetry_space_group_name_H-M "P 2/M"
_symmetry_group_IT_number 10
_symmetry_cell_setting 'monoclinic'
loop_
_space_group_symop_operation_xyz
x,y,z
-x,y,-z
-x,-y,-z
x,-y,z
loop_
_atom_site_type_symbol
_atom_site_label
_atom_site_fract_x
_atom_site_fract_y
_atom_site_fract_z
Si Si1 0.393700 0.819895 0.907284
Si Si2 0.443926 0.321969 0.244106
Si Si3 0.854609 0.673995 0.540883
Si Si4 0.400909 0.171094 0.578451
Si Si5 0.146583 0.818154 0.260946
Si Si6 0.072559 0.184221 0.913262
O O1 0.459779 0.731671 0.829719
O O2 0.235139 0.769801 0.917364
O O3 0.388458 0.000000 0.885663
O O4 0.500000 0.800469 0.000000
O O5 0.416839 0.500000 0.237902
O O6 0.527593 0.277457 0.341838
O O7 0.295786 0.234002 0.233456
O O8 0.805888 0.500000 0.546447
O O9 0.745393 0.766912 0.470957
O O10 0.868251 0.745600 0.641432
O O11 0.000000 0.674780 0.500000
O O12 0.500000 0.166192 0.500000
O O13 0.388178 0.000000 0.613969
O O14 0.022271 0.772249 0.181261
O O15 0.146272 0.000000 0.269508
O O16 0.072252 0.000000 0.916263
O O17 0.000000 0.236670 0.000000
#
# Coordination Sequence:
#
# PCOD9153199 Si02
#       6
#     4   4   4   4   4   4
#     4  10  21  40  67  96 125 160 205 257 308 367
#     4  12  25  40  62  91 127 166 205 256 318 374
#     4  11  25  42  61  90 129 167 204 250 313 373
#     4  11  23  41  66  93 120 161 215 260 304 362
#     4  11  22  39  63  91 121 162 213 258 306 365
#     4   9  19  37  63  94 123 155 199 253 307 359
#
# _framework density 19.286511999999998
#
# number of rings (size 3 to 8) (size 9 to 14) (size 15 to 20)
#    0.000    1.333    1.667    4.000    2.333    5.000 
#    0.000    0.833    0.000    3.500    0.000    0.000 
#    0.000    0.000    0.000    0.000    0.000    0.000 
#
# Total GULP energy -134161.179945 kJ/mol
# GULP energy per Si atom -5590.049164 kJ/mol
# Density = 1.924261 g / cm^3
# Si number density = 19.286512 Si / 1000 Ang^3
#
#
#
# Elastic Constant Matrix: (Units=GPa)
#
#
# Indices 1 2 3 4 5 6 
#
# 1 123.7199 14.9608 36.6508 0.0000 3.9009 0.0000
# 2 14.9608 47.1519 12.9807 0.0000 -7.3446 0.0000
# 3 36.6508 12.9807 64.2620 0.0000 -0.2328 0.0000
# 4 0.0000 0.0000 0.0000 159.5684 0.0000 -20.9416
# 5 3.9009 -7.3446 -0.2328 0.0000 34.9507 0.0000
# 6 0.0000 0.0000 0.0000 -20.9416 0.0000 33.5228
#
#
#
# Elastic Compliance Matrix: (Units=1/GPa)
#
#
# Indices 1 2 3 4 5 6 
#
# 1 0.009929 -0.001939 -0.005277 0.000000 -0.001551 0.000000
# 2 -0.001939 0.023631 -0.003649 0.000000 0.005158 0.000000
# 3 -0.005277 -0.003649 0.019308 0.000000 -0.000049 0.000000
# 4 0.000000 0.000000 0.000000 0.006827 0.000000 0.004265
# 5 -0.001551 0.005158 -0.000049 0.000000 0.029868 0.000000
# 6 0.000000 0.000000 0.000000 0.004265 0.000000 0.032495
#
#
# Mechanical properties :
#
#
# Convention : Reuss Voigt Hill
#
# Bulk Modulus (GPa) = 32.11457 40.47983 36.29720
# Shear Modulus (GPa) = 32.43223 56.97780 44.70502
#
# Velocity S-wave (km/s) = 4.10518 5.44123 4.81972
# Velocity P-wave (km/s) = 6.25759 7.77883 7.05931
#
# Compressibility (1/GPa) = 0.03113851
#
# Stress axis : x y z
#
# Youngs Moduli (GPa) = 100.71050 42.31673 51.79259
#
# Poissons Ratio (x) = 0.08207 0.27331
# Poissons Ratio (y) = 0.19531 0.18897
# Poissons Ratio (z) = 0.53145 0.15440
#
# Static dielectric constant tensor:
#      x y z
#    x 1.412690 0.000000 0.062540 
#    y 0.000000 1.658570 0.000000 
#    z 0.062540 0.000000 1.623270 
# 
# From -- ./inp_files/60344.got.cif
#   From: 2010.05.17/outbox.cif.g08.bks.cpg/sg10_31_cif.got.tgz:60344.got - 2010.06.03 11:33:40.
