data_PCOD9153176
_publ_section_title
;
Structure prediction by ZEFSAII (Michael W. Deem and Ramdas Pophale) SiO2 
 PCOD9153176
Probable space group: P 2/M
;
_chemical_formula_sum "Si O2"
_cell_formula_units_Z 32
_cell_length_a 23.079051
_cell_length_b 13.997740
_cell_length_c 7.977764
_cell_angle_alpha 90.000000
_cell_angle_beta 36.081578
_cell_angle_gamma 90.000000
_cell_volume 1517.838461
_symmetry_space_group_name_H-M "P 2/M"
_symmetry_group_IT_number 10
_symmetry_cell_setting 'monoclinic'
loop_
_space_group_symop_operation_xyz
x,y,z
-x,y,-z
-x,-y,-z
x,-y,z
loop_
_atom_site_type_symbol
_atom_site_label
_atom_site_fract_x
_atom_site_fract_y
_atom_site_fract_z
Si Si1 0.150837 0.892226 0.813914
Si Si2 0.557348 0.393880 0.695651
Si Si3 0.760184 0.614433 0.721819
Si Si4 0.885408 0.387601 0.749310
Si Si5 0.753865 0.107749 0.769813
Si Si6 0.239499 0.302456 0.661248
Si Si7 0.049255 0.115474 0.559009
Si Si8 0.416121 0.742136 0.816407
O O1 0.180349 0.898543 0.551429
O O2 0.225232 0.811643 0.704586
O O3 0.161149 0.000000 0.862684
O O4 0.037508 0.860942 0.106227
O O5 0.570647 0.500000 0.584513
O O6 0.658698 0.343871 0.508037
O O7 0.487820 0.318407 0.767035
O O8 0.500000 0.409547 0.000000
O O9 0.750122 0.500000 0.721804
O O10 0.846851 0.635537 0.651768
O O11 0.771735 0.661980 0.508123
O O12 0.664073 0.659358 0.038717
O O13 0.864130 0.500000 0.815000
O O14 0.000000 0.370768 0.500000
O O15 0.837224 0.340894 0.024367
O O16 0.837744 0.149564 0.696988
O O17 0.724420 0.000000 0.886951
O O18 0.658750 0.172860 0.961876
O O19 0.000000 0.143098 0.500000
O O20 0.058761 0.000000 0.543357
O O21 0.500000 0.783859 0.500000
#
# Coordination Sequence:
#
# PCOD9153176 Si02
#       8
#     4   4   4   4   4   4   4   4
#     4  10  21  40  65  94 133 176 218 272 333 400
#     4  11  22  40  66  93 123 161 216 282 339 398
#     4  11  23  43  69  97 130 173 226 279 342 414
#     4  10  24  44  65  98 141 179 220 275 341 416
#     4  10  21  42  64  88 132 179 222 273 328 398
#     4  12  23  42  70  99 134 179 228 281 342 407
#     4   9  19  36  63  97 128 167 221 275 332 393
#     4  12  25  40  62  94 128 166 220 280 345 404
#
# _framework density 21.082612999999998
#
# number of rings (size 3 to 8) (size 9 to 14) (size 15 to 20)
#    0.000    1.375    2.500    2.625    0.000    7.750 
#    2.250    2.500    0.000    2.250    0.000    0.000 
#    0.000    0.000    0.000    0.000    0.000    0.000 
#
# Total GULP energy -178267.504824 kJ/mol
# GULP energy per Si atom -5570.859526 kJ/mol
# Density = 2.103463 g / cm^3
# Si number density = 21.082613 Si / 1000 Ang^3
#
#
#
# Elastic Constant Matrix: (Units=GPa)
#
#
# Indices 1 2 3 4 5 6 
#
# 1 114.2271 35.1083 79.2472 0.0000 -33.7012 0.0000
# 2 35.1083 142.5589 35.9892 0.0000 -14.2351 0.0000
# 3 79.2472 35.9892 192.6439 0.0000 -57.8200 0.0000
# 4 0.0000 0.0000 0.0000 35.5047 0.0000 18.9165
# 5 -33.7012 -14.2351 -57.8200 0.0000 44.1422 0.0000
# 6 0.0000 0.0000 0.0000 18.9165 0.0000 72.5131
#
#
#
# Elastic Compliance Matrix: (Units=1/GPa)
#
#
# Indices 1 2 3 4 5 6 
#
# 1 0.013283 -0.001867 -0.003712 0.000000 0.004678 0.000000
# 2 -0.001867 0.007648 -0.000574 0.000000 0.000289 0.000000
# 3 -0.003712 -0.000574 0.009753 0.000000 0.009757 0.000000
# 4 0.000000 0.000000 0.000000 0.032712 0.000000 -0.008534
# 5 0.004678 0.000289 0.009757 0.000000 0.039099 0.000000
# 6 0.000000 0.000000 0.000000 -0.008534 0.000000 0.016017
#
#
# Mechanical properties :
#
#
# Convention : Reuss Voigt Hill
#
# Bulk Modulus (GPa) = 54.40833 83.34660 68.87746
# Shear Modulus (GPa) = 36.51119 50.37101 43.44110
#
# Velocity S-wave (km/s) = 4.16602 4.89327 4.54422
# Velocity P-wave (km/s) = 7.00030 8.45840 7.76366
#
# Compressibility (1/GPa) = 0.01837954
#
# Stress axis : x y z
#
# Youngs Moduli (GPa) = 75.28150 130.74874 102.52897
#
# Poissons Ratio (x) = 0.24414 0.38054
# Poissons Ratio (y) = 0.14057 0.05885
# Poissons Ratio (z) = 0.27941 0.07504
#
# Static dielectric constant tensor:
#      x y z
#    x 1.736280 0.000000 -0.128270 
#    y 0.000000 1.894780 0.000000 
#    z -0.128270 0.000000 1.547290 
# 
# From -- ./inp_files/36351.got.cif
#   From: 2010.05.17/outbox.cif.g08.bks.cpg/sg10_19_cif.got.tgz:36351.got - 2010.06.03 11:33:40.
