data_PCOD9153996
_publ_section_title
;
Structure prediction by ZEFSAII (Michael W. Deem and Ramdas Pophale) SiO2 
 PCOD9153996
Probable space group: P 2/M
;
_chemical_formula_sum "Si O2"
_cell_formula_units_Z 13
_cell_length_a 9.818043
_cell_length_b 10.853435
_cell_length_c 10.773016
_cell_angle_alpha 90.000000
_cell_angle_beta 151.687111
_cell_angle_gamma 90.000000
_cell_volume 544.465032
_symmetry_space_group_name_H-M "P 2/M"
_symmetry_group_IT_number 10
_symmetry_cell_setting 'monoclinic'
loop_
_space_group_symop_operation_xyz
x,y,z
-x,y,-z
-x,-y,-z
x,-y,z
loop_
_atom_site_type_symbol
_atom_site_label
_atom_site_fract_x
_atom_site_fract_y
_atom_site_fract_z
Si Si1 0.190070 0.243519 0.529067
Si Si2 0.664501 0.500000 0.462908
Si Si3 0.000000 0.500000 0.000000
Si Si4 0.341412 0.000000 0.743974
Si Si5 0.163550 0.148477 0.250300
O O1 0.306025 0.377182 0.595178
O O2 0.046416 0.203006 0.283977
O O3 0.000000 0.249206 0.500000
O O4 0.400790 0.125701 0.718326
O O5 0.902009 0.500000 0.764688
O O6 0.337027 0.500000 0.242726
O O7 0.000000 0.000000 0.500000
O O8 0.500000 0.000000 0.000000
O O9 0.500000 0.178400 0.500000
O O10 0.135261 0.000000 0.231586
O O11 0.000000 0.200672 0.000000
#
# Coordination Sequence:
#
# PCOD9153996 Si02
#       5
#     4   2   1   2   4
#     4  11  25  48  75 113 150 197 246 312 370 444
#     4  11  27  48  80 106 149 192 256 303 376 439
#     4  10  28  54  74 108 148 204 242 310 374 456
#     4  10  24  44  70 107 153 194 233 295 375 439
#     4  10  23  42  67 103 149 196 244 298 363 437
#
# _framework density 23.876647999999999
#
# number of rings (size 3 to 8) (size 9 to 14) (size 15 to 20)
#    0.000    1.538    1.538    0.462    6.462    9.846 
#    0.000    2.308    0.000    0.923    0.000    0.000 
#    0.000    0.000    0.000    0.000    0.000    0.000 
#
# Total GULP energy -72473.156211 kJ/mol
# GULP energy per Si atom -5574.858170 kJ/mol
# Density = 2.382230 g / cm^3
# Si number density = 23.876648 Si / 1000 Ang^3
#
#
#
# Elastic Constant Matrix: (Units=GPa)
#
#
# Indices 1 2 3 4 5 6 
#
# 1 146.2439 49.4693 57.8484 0.0000 -36.2389 0.0000
# 2 49.4693 180.2402 47.7642 0.0000 -18.2653 0.0000
# 3 57.8484 47.7642 173.0917 0.0000 -17.5245 0.0000
# 4 0.0000 0.0000 0.0000 21.7568 0.0000 -9.0806
# 5 -36.2389 -18.2653 -17.5245 0.0000 45.8039 0.0000
# 6 0.0000 0.0000 0.0000 -9.0806 0.0000 -22.9201
#
#
#
# Elastic Compliance Matrix: (Units=1/GPa)
#
#
# Indices 1 2 3 4 5 6 
#
# 1 0.009771 -0.001453 -0.002227 0.000000 0.006299 0.000000
# 2 -0.001453 0.006353 -0.001173 0.000000 0.000935 0.000000
# 3 -0.002227 -0.001173 0.006886 0.000000 0.000405 0.000000
# 4 0.000000 0.000000 0.000000 0.039441 0.000000 -0.015626
# 5 0.006299 0.000935 0.000405 0.000000 0.027344 0.000000
# 6 0.000000 0.000000 0.000000 -0.015626 0.000000 -0.037439
#
#
# Mechanical properties :
#
#
# Convention : Reuss Voigt Hill
#
# Bulk Modulus (GPa) = 75.16354 89.97105 82.56730
# Shear Modulus (GPa) = 75.19262 31.89438 53.54350
#
# Velocity S-wave (km/s) = 5.61787 3.65882 4.74065
# Velocity P-wave (km/s) = 8.58073 7.45739 8.03871
#
# Compressibility (1/GPa) = 0.01330432
#
# Stress axis : x y z
#
# Youngs Moduli (GPa) = 102.34045 157.41793 145.22003
#
# Poissons Ratio (x) = 0.22879 0.32338
# Poissons Ratio (y) = 0.14874 0.17028
# Poissons Ratio (z) = 0.22789 0.18459
#
# Static dielectric constant tensor:
#      x y z
#    x 1.852350 0.000000 -0.001410 
#    y 0.000000 2.041610 0.000000 
#    z -0.001410 0.000000 1.904570 
# 
# From -- ./inp_files/18175.got.cif
#   From: 2010.05.17/outbox.cif.g08.bks.cpg/sg10_10_cif.got.tgz:18175.got - 2010.06.03 11:33:40.
