data_PCOD9153460
_publ_section_title
;
Structure prediction by ZEFSAII (Michael W. Deem and Ramdas Pophale) SiO2 
 PCOD9153460
Probable space group: P 2/M
;
_chemical_formula_sum "Si O2"
_cell_formula_units_Z 18
_cell_length_a 9.433646
_cell_length_b 16.127923
_cell_length_c 6.224604
_cell_angle_alpha 90.000000
_cell_angle_beta 111.271028
_cell_angle_gamma 90.000000
_cell_volume 882.525588
_symmetry_space_group_name_H-M "P 2/M"
_symmetry_group_IT_number 10
_symmetry_cell_setting 'monoclinic'
loop_
_space_group_symop_operation_xyz
x,y,z
-x,y,-z
-x,-y,-z
x,-y,z
loop_
_atom_site_type_symbol
_atom_site_label
_atom_site_fract_x
_atom_site_fract_y
_atom_site_fract_z
Si Si1 0.145289 0.595270 0.418360
Si Si2 0.917692 0.000000 0.700701
Si Si3 0.157600 0.262241 0.076126
Si Si4 0.345674 0.707337 0.784407
Si Si5 0.334256 0.857149 0.449219
O O1 0.157985 0.500000 0.356951
O O2 0.130141 0.659331 0.214339
O O3 0.300283 0.629348 0.612942
O O4 0.000000 0.600057 0.500000
O O5 0.803592 0.078550 0.622982
O O6 0.000000 0.000000 0.500000
O O7 0.000000 0.000000 0.000000
O O8 0.293931 0.206336 0.236593
O O9 0.204485 0.287678 0.867769
O O10 0.000000 0.212963 0.000000
O O11 0.344857 0.794385 0.656477
O O12 0.500000 0.695211 0.000000
O O13 0.500000 0.895507 0.500000
#
# Coordination Sequence:
#
# PCOD9153460 Si02
#       5
#     4   2   4   4   4
#     4  10  22  38  59  93 131 174 229 283 343 411
#     4  12  31  50  75 112 146 182 230 286 341 412
#     4  11  22  39  66  94 128 174 228 279 343 402
#     4  11  23  41  66  97 130 175 226 283 343 411
#     4  11  25  45  70  99 135 177 222 279 342 416
#
# _framework density 20.396008999999999
#
# number of rings (size 3 to 8) (size 9 to 14) (size 15 to 20)
#    0.000    1.111    4.444    1.000    6.222    1.778 
#    0.000    2.778    0.000    0.000    0.000    0.000 
#    0.000    0.000    0.000    0.000    0.000    0.000 
#
# Total GULP energy -100209.917063 kJ/mol
# GULP energy per Si atom -5567.217615 kJ/mol
# Density = 2.034959 g / cm^3
# Si number density = 20.396009 Si / 1000 Ang^3
#
#
#
# Elastic Constant Matrix: (Units=GPa)
#
#
# Indices 1 2 3 4 5 6 
#
# 1 111.1054 32.2360 31.5074 0.0000 12.1441 0.0000
# 2 32.2360 106.6797 15.1327 0.0000 10.7532 0.0000
# 3 31.5074 15.1327 61.3991 0.0000 22.2842 0.0000
# 4 0.0000 0.0000 0.0000 50.0994 0.0000 21.8259
# 5 12.1441 10.7532 22.2842 0.0000 44.0357 0.0000
# 6 0.0000 0.0000 0.0000 21.8259 0.0000 36.5207
#
#
#
# Elastic Compliance Matrix: (Units=1/GPa)
#
#
# Indices 1 2 3 4 5 6 
#
# 1 0.011222 -0.002676 -0.005161 0.000000 0.000170 0.000000
# 2 -0.002676 0.010425 -0.000662 0.000000 -0.001473 0.000000
# 3 -0.005161 -0.000662 0.022691 0.000000 -0.009898 0.000000
# 4 0.000000 0.000000 0.000000 0.026987 0.000000 -0.016128
# 5 0.000170 -0.001473 -0.009898 0.000000 0.028030 0.000000
# 6 0.000000 0.000000 0.000000 -0.016128 0.000000 0.037020
#
#
# Mechanical properties :
#
#
# Convention : Reuss Voigt Hill
#
# Bulk Modulus (GPa) = 36.57604 48.54848 42.56226
# Shear Modulus (GPa) = 30.77217 39.48504 35.12860
#
# Velocity S-wave (km/s) = 3.88846 4.40468 4.15460
# Velocity P-wave (km/s) = 6.17511 7.05145 6.62778
#
# Compressibility (1/GPa) = 0.02734030
#
# Stress axis : x y z
#
# Youngs Moduli (GPa) = 89.11239 95.92517 44.07118
#
# Poissons Ratio (x) = 0.25670 0.22744
# Poissons Ratio (y) = 0.23847 0.02915
# Poissons Ratio (z) = 0.45989 0.06346
#
# Static dielectric constant tensor:
#      x y z
#    x 1.746340 0.000000 0.020250 
#    y 0.000000 1.698240 0.000000 
#    z 0.020250 0.000000 1.776360 
# 
# From -- ./inp_files/4187.got.cif
#   From: 2010.05.17/outbox.cif.g08.bks.cpg/sg10_3_cif.got.tgz:4187.got - 2010.06.03 11:33:40.
