data_PCOD9153970
_publ_section_title
;
Structure prediction by ZEFSAII (Michael W. Deem and Ramdas Pophale) SiO2 
 PCOD9153970
Probable space group: P 2/M
;
_chemical_formula_sum "Si O2"
_cell_formula_units_Z 32
_cell_length_a 11.925818
_cell_length_b 7.830963
_cell_length_c 15.572458
_cell_angle_alpha 90.000000
_cell_angle_beta 87.193171
_cell_angle_gamma 90.000000
_cell_volume 1452.577073
_symmetry_space_group_name_H-M "P 2/M"
_symmetry_group_IT_number 10
_symmetry_cell_setting 'monoclinic'
loop_
_space_group_symop_operation_xyz
x,y,z
-x,y,-z
-x,-y,-z
x,-y,z
loop_
_atom_site_type_symbol
_atom_site_label
_atom_site_fract_x
_atom_site_fract_y
_atom_site_fract_z
Si Si1 0.068529 0.706565 0.873167
Si Si2 0.321981 0.202080 0.601484
Si Si3 0.339513 0.804234 0.415515
Si Si4 0.171107 0.707973 0.049679
Si Si5 0.577457 0.709373 0.916259
Si Si6 0.092519 0.799881 0.683666
Si Si7 0.089579 0.302862 0.426052
Si Si8 0.499964 0.303509 0.266457
O O1 0.069990 0.500000 0.869963
O O2 0.114255 0.777023 0.783007
O O3 0.938759 0.761022 0.892267
O O4 0.141445 0.758173 0.953062
O O5 0.368332 0.268653 0.508986
O O6 0.198908 0.272049 0.627714
O O7 0.401823 0.224744 0.679660
O O8 0.308322 0.000000 0.587770
O O9 0.204939 0.797443 0.417996
O O10 0.392070 0.708741 0.332845
O O11 0.380453 0.000000 0.407864
O O12 0.172411 0.500000 0.051459
O O13 0.293384 0.765778 0.075567
O O14 0.578903 0.500000 0.914279
O O15 0.528145 0.768465 0.826468
O O16 0.500000 0.759072 0.000000
O O17 0.978729 0.708899 0.659813
O O18 0.079681 0.000000 0.665007
O O19 0.115575 0.500000 0.444794
O O20 0.000000 0.238399 0.500000
O O21 0.531525 0.500000 0.252437
#
# Coordination Sequence:
#
# PCOD9153970 Si02
#       8
#     4   4   4   4   4   4   4   4
#     4   9  18  33  58  87 112 150 196 245 294 349
#     4  10  23  42  61  82 118 165 205 242 296 362
#     4  11  23  42  65  86 120 166 202 238 297 371
#     4   8  16  33  55  81 116 151 192 240 299 360
#     4   9  19  35  55  83 120 155 189 241 303 360
#     4  11  23  38  58  86 121 160 198 239 295 366
#     4  11  23  39  61  90 121 152 193 247 297 342
#     4  11  24  38  61  94 120 151 205 261 300 343
#
# _framework density 22.029810999999999
#
# number of rings (size 3 to 8) (size 9 to 14) (size 15 to 20)
#    0.000    2.000    1.250    2.625    3.500    4.000 
#    0.000    1.250    0.000    3.000    0.000    0.000 
#    0.000    0.000    0.000    0.000    0.000    0.000 
#
# Total GULP energy -178765.866632 kJ/mol
# GULP energy per Si atom -5586.433332 kJ/mol
# Density = 2.197967 g / cm^3
# Si number density = 22.029811 Si / 1000 Ang^3
#
#
#
# Elastic Constant Matrix: (Units=GPa)
#
#
# Indices 1 2 3 4 5 6 
#
# 1 103.2913 -0.4652 39.8132 0.0000 17.6901 0.0000
# 2 -0.4652 35.4576 3.6040 0.0000 0.5905 0.0000
# 3 39.8132 3.6040 139.6480 0.0000 6.1006 0.0000
# 4 0.0000 0.0000 0.0000 33.1294 0.0000 -4.0896
# 5 17.6901 0.5905 6.1006 0.0000 25.2185 0.0000
# 6 0.0000 0.0000 0.0000 -4.0896 0.0000 21.1638
#
#
#
# Elastic Compliance Matrix: (Units=1/GPa)
#
#
# Indices 1 2 3 4 5 6 
#
# 1 0.012247 0.000613 -0.003165 0.000000 -0.007839 0.000000
# 2 0.000613 0.028314 -0.000867 0.000000 -0.000883 0.000000
# 3 -0.003165 -0.000867 0.008073 0.000000 0.000287 0.000000
# 4 0.000000 0.000000 0.000000 0.030922 0.000000 0.005975
# 5 -0.007839 -0.000883 0.000287 0.000000 0.045104 0.000000
# 6 0.000000 0.000000 0.000000 0.005975 0.000000 0.048405
#
#
# Mechanical properties :
#
#
# Convention : Reuss Voigt Hill
#
# Bulk Modulus (GPa) = 23.92596 40.47787 32.20192
# Shear Modulus (GPa) = 25.79534 31.59867 28.69700
#
# Velocity S-wave (km/s) = 3.42560 3.79140 3.61313
# Velocity P-wave (km/s) = 5.15078 6.13028 5.66175
#
# Compressibility (1/GPa) = 0.04179560
#
# Stress axis : x y z
#
# Youngs Moduli (GPa) = 81.65542 35.31873 123.87032
#
# Poissons Ratio (x) = -0.02165 0.39203
# Poissons Ratio (y) = -0.05005 0.10738
# Poissons Ratio (z) = 0.25842 0.03062
#
# Static dielectric constant tensor:
#      x y z
#    x 1.796700 0.000000 0.006530 
#    y 0.000000 1.804400 0.000000 
#    z 0.006530 0.000000 1.814710 
# 
# From -- ./inp_files/63843.got.cif
#   From: 2010.05.17/outbox.cif.g08.bks.cpg/sg10_32_cif.got.tgz:63843.got - 2010.06.03 11:33:40.
