data_PCOD9153771
_publ_section_title
;
Structure prediction by ZEFSAII (Michael W. Deem and Ramdas Pophale) SiO2 
 PCOD9153771
Probable space group: P 2/M
;
_chemical_formula_sum "Si O2"
_cell_formula_units_Z 28
_cell_length_a 9.568175
_cell_length_b 13.689887
_cell_length_c 12.284006
_cell_angle_alpha 90.000000
_cell_angle_beta 66.414784
_cell_angle_gamma 90.000000
_cell_volume 1474.637763
_symmetry_space_group_name_H-M "P 2/M"
_symmetry_group_IT_number 10
_symmetry_cell_setting 'monoclinic'
loop_
_space_group_symop_operation_xyz
x,y,z
-x,y,-z
-x,-y,-z
x,-y,z
loop_
_atom_site_type_symbol
_atom_site_label
_atom_site_fract_x
_atom_site_fract_y
_atom_site_fract_z
Si Si1 0.862793 0.615153 0.377021
Si Si2 0.175455 0.702653 0.233098
Si Si3 0.354114 0.613670 0.354742
Si Si4 0.146669 0.114937 0.378781
Si Si5 0.828991 0.384489 0.004087
Si Si6 0.518381 0.114143 0.623305
Si Si7 0.336808 0.704082 0.740734
O O1 0.841021 0.500000 0.357709
O O2 0.770465 0.637891 0.514965
O O3 0.798274 0.683120 0.301497
O O4 0.040566 0.638110 0.328933
O O5 0.325068 0.671859 0.252973
O O6 0.144265 0.814417 0.275325
O O7 0.180864 0.672909 0.106314
O O8 0.343806 0.500000 0.334805
O O9 0.520361 0.640459 0.345815
O O10 0.306832 0.131449 0.392880
O O11 0.000000 0.137514 0.500000
O O12 0.139277 0.000000 0.353654
O O13 0.796009 0.500000 0.998165
O O14 0.716994 0.336847 0.127053
O O15 0.000000 0.378209 0.000000
O O16 0.500000 0.132947 0.500000
O O17 0.400983 0.186290 0.719395
O O18 0.484897 0.000000 0.653220
#
# Coordination Sequence:
#
# PCOD9153771 Si02
#       7
#     4   4   4   4   4   4   4
#     4  11  22  37  60  88 125 165 201 250 316 384
#     4  12  23  39  62  89 125 166 208 256 311 368
#     4  11  22  35  56  92 125 153 199 258 320 380
#     4  10  22  41  66  97 130 164 206 259 320 379
#     4  11  24  43  64  85 120 174 223 257 298 367
#     4  10  22  41  66  97 130 164 206 259 320 379
#     4  12  23  39  62  89 125 166 208 256 311 368
#
# _framework density 18.987712999999999
#
# number of rings (size 3 to 8) (size 9 to 14) (size 15 to 20)
#    0.000    1.000    2.857    5.143    2.000    2.857 
#    0.000    2.143    0.000    2.571    0.000    0.000 
#    0.000    0.000    0.000    0.000    0.000    0.000 
#
# Total GULP energy -156476.746050 kJ/mol
# GULP energy per Si atom -5588.455216 kJ/mol
# Density = 1.894450 g / cm^3
# Si number density = 18.987713 Si / 1000 Ang^3
#
#
#
# Elastic Constant Matrix: (Units=GPa)
#
#
# Indices 1 2 3 4 5 6 
#
# 1 53.3759 32.7333 28.2782 0.0000 -1.5541 0.0000
# 2 32.7333 130.8984 61.0700 0.0000 11.0621 0.0000
# 3 28.2782 61.0700 99.7099 0.0000 8.9354 0.0000
# 4 0.0000 0.0000 0.0000 27.4083 0.0000 1.8937
# 5 -1.5541 11.0621 8.9354 0.0000 27.4897 0.0000
# 6 0.0000 0.0000 0.0000 1.8937 0.0000 30.7010
#
#
#
# Elastic Compliance Matrix: (Units=1/GPa)
#
#
# Indices 1 2 3 4 5 6 
#
# 1 0.023888 -0.004210 -0.004603 0.000000 0.004541 0.000000
# 2 -0.004210 0.011573 -0.005620 0.000000 -0.003069 0.000000
# 3 -0.004603 -0.005620 0.015035 0.000000 -0.002886 0.000000
# 4 0.000000 0.000000 0.000000 0.036641 0.000000 -0.002260
# 5 0.004541 -0.003069 -0.002886 0.000000 0.038807 0.000000
# 6 0.000000 0.000000 0.000000 -0.002260 0.000000 0.032712
#
#
# Mechanical properties :
#
#
# Convention : Reuss Voigt Hill
#
# Bulk Modulus (GPa) = 46.22958 58.68302 52.45630
# Shear Modulus (GPa) = 25.67645 27.91332 26.79489
#
# Velocity S-wave (km/s) = 3.68131 3.83831 3.76063
# Velocity P-wave (km/s) = 6.51685 7.11452 6.82223
#
# Compressibility (1/GPa) = 0.02163117
#
# Stress axis : x y z
#
# Youngs Moduli (GPa) = 41.86272 86.40613 66.51124
#
# Poissons Ratio (x) = 0.36373 0.30617
# Poissons Ratio (y) = 0.17622 0.37376
# Poissons Ratio (z) = 0.19271 0.48556
#
# Static dielectric constant tensor:
#      x y z
#    x 1.643760 0.000000 -0.000780 
#    y 0.000000 1.668520 0.000000 
#    z -0.000780 0.000000 1.631420 
# 
# From -- ./inp_files/24872.got.cif
#   From: 2010.05.17/outbox.cif.g08.bks.cpg/sg10_13_cif.got.tgz:24872.got - 2010.06.03 11:33:40.
