data_PCOD9153997
_publ_section_title
;
Structure prediction by ZEFSAII (Michael W. Deem and Ramdas Pophale) SiO2 
 PCOD9153997
Probable space group: P 2/M
;
_chemical_formula_sum "Si O2"
_cell_formula_units_Z 15
_cell_length_a 5.346895
_cell_length_b 20.980097
_cell_length_c 5.473302
_cell_angle_alpha 90.000000
_cell_angle_beta 90.455484
_cell_angle_gamma 90.000000
_cell_volume 613.966727
_symmetry_space_group_name_H-M "P 2/M"
_symmetry_group_IT_number 10
_symmetry_cell_setting 'monoclinic'
loop_
_space_group_symop_operation_xyz
x,y,z
-x,y,-z
-x,-y,-z
x,-y,z
loop_
_atom_site_type_symbol
_atom_site_label
_atom_site_fract_x
_atom_site_fract_y
_atom_site_fract_z
Si Si1 0.241799 0.223154 0.842547
Si Si2 0.252283 0.910934 0.641843
Si Si3 0.653953 0.360812 0.248144
Si Si4 0.245227 0.500000 0.659097
Si Si5 0.500000 0.000000 0.000000
O O1 0.259381 0.165490 0.654904
O O2 0.197076 0.294427 0.737238
O O3 0.500000 0.221893 0.000000
O O4 0.000000 0.207913 0.000000
O O5 0.500000 0.932768 0.500000
O O6 0.000000 0.929412 0.500000
O O7 0.301317 0.944064 0.901856
O O8 0.500000 0.363376 0.500000
O O9 0.767235 0.431364 0.211546
O O10 0.500000 0.352836 0.000000
O O11 0.500000 0.500000 0.500000
O O12 0.000000 0.500000 0.500000
#
# Coordination Sequence:
#
# PCOD9153997 Si02
#       5
#     4   4   4   2   1
#     4  11  24  46  73 104 143 188 239 304 363 434
#     4  12  27  47  76 108 143 193 242 301 370 446
#     4  10  23  45  73 106 148 194 248 304 372 436
#     4  10  23  42  68 102 146 190 244 304 368 436
#     4  12  28  50  76 104 158 174 254 290 390 426
#
# _framework density 24.431293
#
# number of rings (size 3 to 8) (size 9 to 14) (size 15 to 20)
#    0.000    1.067    1.333    3.600    0.000   12.800 
#    0.000    6.000    0.000    0.000    0.000    0.000 
#    0.000    0.000    0.000    0.000    0.000    0.000 
#
# Total GULP energy -83539.672485 kJ/mol
# GULP energy per Si atom -5569.311499 kJ/mol
# Density = 2.437569 g / cm^3
# Si number density = 24.431293 Si / 1000 Ang^3
#
#
#
# Elastic Constant Matrix: (Units=GPa)
#
#
# Indices 1 2 3 4 5 6 
#
# 1 183.7466 29.3393 50.8539 0.0000 25.2515 0.0000
# 2 29.3393 242.0347 16.9118 0.0000 17.6367 0.0000
# 3 50.8539 16.9118 82.6593 0.0000 19.0640 0.0000
# 4 0.0000 0.0000 0.0000 90.8754 0.0000 6.7528
# 5 25.2515 17.6367 19.0640 0.0000 61.0332 0.0000
# 6 0.0000 0.0000 0.0000 6.7528 0.0000 10.2112
#
#
#
# Elastic Compliance Matrix: (Units=1/GPa)
#
#
# Indices 1 2 3 4 5 6 
#
# 1 0.006748 -0.000449 -0.003713 0.000000 -0.001502 0.000000
# 2 -0.000449 0.004281 -0.000385 0.000000 -0.000931 0.000000
# 3 -0.003713 -0.000385 0.015174 0.000000 -0.003092 0.000000
# 4 0.000000 0.000000 0.000000 0.011573 0.000000 -0.007653
# 5 -0.001502 -0.000931 -0.003092 0.000000 0.018241 0.000000
# 6 0.000000 0.000000 0.000000 -0.007653 0.000000 0.102993
#
#
# Mechanical properties :
#
#
# Convention : Reuss Voigt Hill
#
# Bulk Modulus (GPa) = 58.44918 78.07227 68.26072
# Shear Modulus (GPa) = 28.76746 59.84633 44.30690
#
# Velocity S-wave (km/s) = 3.43517 4.95469 4.26318
# Velocity P-wave (km/s) = 6.30156 8.04718 7.22727
#
# Compressibility (1/GPa) = 0.01710888
#
# Stress axis : x y z
#
# Youngs Moduli (GPa) = 148.18952 233.60082 65.90116
#
# Poissons Ratio (x) = 0.10490 0.24471
# Poissons Ratio (y) = 0.06655 0.02536
# Poissons Ratio (z) = 0.55026 0.08990
#
# Static dielectric constant tensor:
#      x y z
#    x 1.895120 0.000000 -0.096380 
#    y 0.000000 2.261400 0.000000 
#    z -0.096380 0.000000 2.095070 
# 
# From -- ./inp_files/1338.got.cif
#   From: 2010.05.17/outbox.cif.g08.bks.cpg/sg10_1_cif.got.tgz:1338.got - 2010.06.03 11:33:40.
