data_PCOD9153379
_publ_section_title
;
Structure prediction by ZEFSAII (Michael W. Deem and Ramdas Pophale) SiO2 
 PCOD9153379
Probable space group: P 2/M
;
_chemical_formula_sum "Si O2"
_cell_formula_units_Z 32
_cell_length_a 25.471605
_cell_length_b 13.759146
_cell_length_c 9.195745
_cell_angle_alpha 90.000000
_cell_angle_beta 31.209391
_cell_angle_gamma 90.000000
_cell_volume 1669.954462
_symmetry_space_group_name_H-M "P 2/M"
_symmetry_group_IT_number 10
_symmetry_cell_setting 'monoclinic'
loop_
_space_group_symop_operation_xyz
x,y,z
-x,y,-z
-x,-y,-z
x,-y,z
loop_
_atom_site_type_symbol
_atom_site_label
_atom_site_fract_x
_atom_site_fract_y
_atom_site_fract_z
Si Si1 0.545506 0.785704 0.735851
Si Si2 0.297538 0.386056 0.583697
Si Si3 0.759565 0.612969 0.621266
Si Si4 0.679636 0.888723 0.203099
Si Si5 0.404664 0.723707 0.815104
Si Si6 0.053509 0.253989 0.733195
Si Si7 0.908234 0.113624 0.615182
Si Si8 0.070530 0.614189 0.190236
O O1 0.613842 0.687452 0.581448
O O2 0.617245 0.867083 0.496374
O O3 0.453815 0.770904 0.841461
O O4 0.500000 0.807416 0.000000
O O5 0.323095 0.500000 0.548082
O O6 0.277332 0.373801 0.458169
O O7 0.190844 0.364602 0.919121
O O8 0.784261 0.500000 0.581127
O O9 0.856477 0.678354 0.423693
O O10 0.675413 0.646372 0.937001
O O11 0.643687 0.808090 0.171162
O O12 0.662827 0.000000 0.192790
O O13 0.798991 0.876076 0.947639
O O14 0.500000 0.681149 0.500000
O O15 0.093298 0.174086 0.528157
O O16 0.975540 0.320607 0.827614
O O17 0.000000 0.209245 0.000000
O O18 0.000000 0.147237 0.500000
O O19 0.924940 0.000000 0.544909
O O20 0.065062 0.500000 0.162827
O O21 0.000000 0.626746 0.500000
#
# Coordination Sequence:
#
# PCOD9153379 Si02
#       8
#     4   4   4   4   4   4   4   4
#     4  11  23  38  63  91 123 154 213 258 299 361
#     4  10  22  39  60  89 128 169 205 247 307 362
#     4  11  22  38  60  90 128 166 207 246 300 363
#     4  10  23  44  68  90 121 159 196 250 315 370
#     4  10  22  41  62  89 120 160 204 257 306 356
#     4  12  23  36  62  91 125 163 201 251 303 359
#     4  10  23  43  67  94 123 158 199 246 309 376
#     4  10  22  37  56  87 124 164 206 249 297 360
#
# _framework density 19.162199999999999
#
# number of rings (size 3 to 8) (size 9 to 14) (size 15 to 20)
#    0.000    1.500    3.750    0.750    3.500    4.250 
#    0.000    3.125    0.000    0.750    0.000    0.000 
#    0.000    0.000    0.000    0.000    0.000    0.000 
#
# Total GULP energy -178729.869558 kJ/mol
# GULP energy per Si atom -5585.308424 kJ/mol
# Density = 1.911859 g / cm^3
# Si number density = 19.162200 Si / 1000 Ang^3
#
#
#
# Elastic Constant Matrix: (Units=GPa)
#
#
# Indices 1 2 3 4 5 6 
#
# 1 63.0248 15.7715 24.3586 0.0000 1.6472 0.0000
# 2 15.7715 65.8949 17.5353 0.0000 -5.1053 0.0000
# 3 24.3586 17.5353 102.5093 0.0000 12.4982 0.0000
# 4 0.0000 0.0000 0.0000 15.0784 0.0000 -7.9083
# 5 1.6472 -5.1053 12.4982 0.0000 34.2518 0.0000
# 6 0.0000 0.0000 0.0000 -7.9083 0.0000 24.2223
#
#
#
# Elastic Compliance Matrix: (Units=1/GPa)
#
#
# Indices 1 2 3 4 5 6 
#
# 1 0.018150 -0.003350 -0.003739 0.000000 -0.000008 0.000000
# 2 -0.003350 0.016934 -0.002541 0.000000 0.003612 0.000000
# 3 -0.003739 -0.002541 0.011620 0.000000 -0.004439 0.000000
# 4 0.000000 0.000000 0.000000 0.080022 0.000000 0.026126
# 5 -0.000008 0.003612 -0.004439 0.000000 0.031354 0.000000
# 6 0.000000 0.000000 0.000000 0.026126 0.000000 0.049814
#
#
# Mechanical properties :
#
#
# Convention : Reuss Voigt Hill
#
# Bulk Modulus (GPa) = 36.43822 38.52885 37.48354
# Shear Modulus (GPa) = 21.15941 26.29475 23.72708
#
# Velocity S-wave (km/s) = 3.32660 3.70837 3.52266
# Velocity P-wave (km/s) = 5.81480 6.20374 6.01242
#
# Compressibility (1/GPa) = 0.02744371
#
# Stress axis : x y z
#
# Youngs Moduli (GPa) = 55.09548 59.05450 86.06182
#
# Poissons Ratio (x) = 0.19782 0.32178
# Poissons Ratio (y) = 0.18456 0.21869
# Poissons Ratio (z) = 0.20600 0.15006
#
# Static dielectric constant tensor:
#      x y z
#    x 1.651250 0.000000 0.001650 
#    y 0.000000 1.644670 0.000000 
#    z 0.001650 0.000000 1.690590 
# 
# From -- ./inp_files/36344.got.cif
#   From: 2010.05.17/outbox.cif.g08.bks.cpg/sg10_19_cif.got.tgz:36344.got - 2010.06.03 11:33:40.
