data_PCOD9153715
_publ_section_title
;
Structure prediction by ZEFSAII (Michael W. Deem and Ramdas Pophale) SiO2 
 PCOD9153715
Probable space group: P 2/M
;
_chemical_formula_sum "Si O2"
_cell_formula_units_Z 20
_cell_length_a 9.037778
_cell_length_b 12.112281
_cell_length_c 10.050829
_cell_angle_alpha 90.000000
_cell_angle_beta 91.374983
_cell_angle_gamma 90.000000
_cell_volume 1099.928420
_symmetry_space_group_name_H-M "P 2/M"
_symmetry_group_IT_number 10
_symmetry_cell_setting 'monoclinic'
loop_
_space_group_symop_operation_xyz
x,y,z
-x,y,-z
-x,-y,-z
x,-y,z
loop_
_atom_site_type_symbol
_atom_site_label
_atom_site_fract_x
_atom_site_fract_y
_atom_site_fract_z
Si Si1 0.331969 0.239564 0.024689
Si Si2 0.066094 0.000000 0.784257
Si Si3 0.152260 0.370412 0.242471
Si Si4 0.234898 0.000000 0.073197
Si Si5 0.671868 0.629193 0.477127
Si Si6 0.155417 0.240044 0.743303
O O1 0.251771 0.316241 0.130140
O O2 0.326096 0.113228 0.078209
O O3 0.500000 0.272415 0.000000
O O4 0.240266 0.243754 0.885793
O O5 0.113364 0.887285 0.714607
O O6 0.892354 0.000000 0.817278
O O7 0.149311 0.000000 0.929438
O O8 0.129079 0.500000 0.216174
O O9 0.236707 0.359171 0.384599
O O10 0.996338 0.308035 0.246673
O O11 0.500000 0.654738 0.500000
O O12 0.681059 0.500000 0.435723
O O13 0.743537 0.705808 0.367130
#
# Coordination Sequence:
#
# PCOD9153715 Si02
#       6
#     4   2   4   2   4   4
#     4  11  22  36  59  88 117 149 188 237 284 333
#     4   9  18  34  59  85 112 146 188 236 281 327
#     4  11  23  38  58  85 115 151 193 234 281 337
#     4   9  17  36  57  82 115 151 186 226 284 343
#     4  10  22  41  61  82 115 154 188 230 287 343
#     4  11  21  38  61  85 114 149 195 235 278 336
#
# _framework density 18.183001000000001
#
# number of rings (size 3 to 8) (size 9 to 14) (size 15 to 20)
#    0.000    1.600    2.000    3.300    0.000    4.400 
#    0.000    3.500    0.000    0.000    0.000    0.000 
#    0.000    0.000    0.000    0.000    0.000    0.000 
#
# Total GULP energy -111745.446468 kJ/mol
# GULP energy per Si atom -5587.272323 kJ/mol
# Density = 1.814162 g / cm^3
# Si number density = 18.183001 Si / 1000 Ang^3
#
#
#
# Elastic Constant Matrix: (Units=GPa)
#
#
# Indices 1 2 3 4 5 6 
#
# 1 192.2486 89.1897 64.5336 0.0000 -19.6932 0.0000
# 2 89.1897 169.7018 83.0773 0.0000 -27.2407 0.0000
# 3 64.5336 83.0773 88.3024 0.0000 -26.4780 0.0000
# 4 0.0000 0.0000 0.0000 38.9722 0.0000 4.1718
# 5 -19.6932 -27.2407 -26.4780 0.0000 36.6269 0.0000
# 6 0.0000 0.0000 0.0000 4.1718 0.0000 38.9889
#
#
#
# Elastic Compliance Matrix: (Units=1/GPa)
#
#
# Indices 1 2 3 4 5 6 
#
# 1 0.007341 -0.002286 -0.003244 0.000000 -0.000098 0.000000
# 2 -0.002286 0.011659 -0.009022 0.000000 0.000919 0.000000
# 3 -0.003244 -0.009022 0.025087 0.000000 0.009681 0.000000
# 4 0.000000 0.000000 0.000000 0.025957 0.000000 -0.002777
# 5 -0.000098 0.000919 0.009681 0.000000 0.034932 0.000000
# 6 0.000000 0.000000 0.000000 -0.002777 0.000000 0.025946
#
#
# Mechanical properties :
#
#
# Convention : Reuss Voigt Hill
#
# Bulk Modulus (GPa) = 66.74543 102.65043 84.69793
# Shear Modulus (GPa) = 30.29963 37.14774 33.72369
#
# Velocity S-wave (km/s) = 4.08655 4.52485 4.31127
# Velocity P-wave (km/s) = 7.68465 9.15837 8.45368
#
# Compressibility (1/GPa) = 0.01498230
#
# Stress axis : x y z
#
# Youngs Moduli (GPa) = 136.22340 85.77354 39.86169
#
# Poissons Ratio (x) = 0.19607 0.12930
# Poissons Ratio (y) = 0.31140 0.35965
# Poissons Ratio (z) = 0.44185 0.77388
#
# Static dielectric constant tensor:
#      x y z
#    x 1.599250 0.000000 0.008790 
#    y 0.000000 1.621800 0.000000 
#    z 0.008790 0.000000 1.591740 
# 
# From -- ./inp_files/17813.got.cif
#   From: 2010.05.17/outbox.cif.g08.bks.cpg/sg10_9_cif.got.tgz:17813.got - 2010.06.03 11:33:40.
