data_PCOD9153718
_publ_section_title
;
Structure prediction by ZEFSAII (Michael W. Deem and Ramdas Pophale) SiO2 
 PCOD9153718
Probable space group: P 2/M
;
_chemical_formula_sum "Si O2"
_cell_formula_units_Z 24
_cell_length_a 15.507353
_cell_length_b 10.764201
_cell_length_c 15.913310
_cell_angle_alpha 90.000000
_cell_angle_beta 24.331453
_cell_angle_gamma 90.000000
_cell_volume 1094.441672
_symmetry_space_group_name_H-M "P 2/M"
_symmetry_group_IT_number 10
_symmetry_cell_setting 'monoclinic'
loop_
_space_group_symop_operation_xyz
x,y,z
-x,y,-z
-x,-y,-z
x,-y,z
loop_
_atom_site_type_symbol
_atom_site_label
_atom_site_fract_x
_atom_site_fract_y
_atom_site_fract_z
Si Si1 0.771997 0.636309 0.589940
Si Si2 0.959064 0.359835 0.135471
Si Si3 0.071745 0.807060 0.253434
Si Si4 0.276102 0.134956 0.242144
Si Si5 0.381090 0.264724 0.842745
Si Si6 0.283801 0.862013 0.561222
O O1 0.780162 0.500000 0.619902
O O2 0.751907 0.745290 0.675545
O O3 0.569849 0.650883 0.709692
O O4 0.982291 0.668523 0.351357
O O5 0.883413 0.500000 0.223016
O O6 0.803424 0.250322 0.303849
O O7 0.184152 0.336054 0.978753
O O8 0.000000 0.352076 0.000000
O O9 0.120908 0.862725 0.300321
O O10 0.882226 0.864958 0.368821
O O11 0.277524 0.807597 0.013330
O O12 0.267573 0.000000 0.292608
O O13 0.500000 0.145572 0.000000
O O14 0.492622 0.175021 0.676452
O O15 0.287153 0.000000 0.596818
#
# Coordination Sequence:
#
# PCOD9153718 Si02
#       6
#     4   4   4   4   4   4
#     4  11  24  40  62  91 122 161 210 264 315 365
#     4  10  23  44  69  96 128 167 209 253 307 375
#     4  10  22  41  61  89 122 168 208 258 305 373
#     4  11  23  40  61  86 119 165 213 259 310 368
#     4  10  22  41  64  92 126 164 205 255 312 375
#     4  10  23  41  67  99 129 164 208 259 314 370
#
# _framework density 21.928991
#
# number of rings (size 3 to 8) (size 9 to 14) (size 15 to 20)
#    0.000    1.667    1.667    1.500    0.000   17.333 
#    0.000    2.500    0.000    0.000    0.000    0.000 
#    0.000    0.000    0.000    0.000    0.000    0.000 
#
# Total GULP energy -134043.060737 kJ/mol
# GULP energy per Si atom -5585.127531 kJ/mol
# Density = 2.187908 g / cm^3
# Si number density = 21.928991 Si / 1000 Ang^3
#
#
#
# Elastic Constant Matrix: (Units=GPa)
#
#
# Indices 1 2 3 4 5 6 
#
# 1 56.7037 30.5784 1.6985 0.0000 17.8728 0.0000
# 2 30.5784 209.0019 67.5730 0.0000 27.7005 0.0000
# 3 1.6985 67.5730 130.3463 0.0000 6.4004 0.0000
# 4 0.0000 0.0000 0.0000 23.2796 0.0000 3.6931
# 5 17.8728 27.7005 6.4004 0.0000 17.2521 0.0000
# 6 0.0000 0.0000 0.0000 3.6931 0.0000 24.0851
#
#
#
# Elastic Compliance Matrix: (Units=1/GPa)
#
#
# Indices 1 2 3 4 5 6 
#
# 1 0.026401 -0.000777 0.001366 0.000000 -0.026609 0.000000
# 2 -0.000777 0.007224 -0.003264 0.000000 -0.009582 0.000000
# 3 0.001366 -0.003264 0.009328 0.000000 0.000366 0.000000
# 4 0.000000 0.000000 0.000000 0.044027 0.000000 -0.006751
# 5 -0.026609 -0.009582 0.000366 0.000000 0.100780 0.000000
# 6 0.000000 0.000000 0.000000 -0.006751 0.000000 0.042555
#
#
# Mechanical properties :
#
#
# Convention : Reuss Voigt Hill
#
# Bulk Modulus (GPa) = 26.59509 66.19462 46.39485
# Shear Modulus (GPa) = 20.14496 32.67014 26.40755
#
# Velocity S-wave (km/s) = 3.03420 3.86400 3.47397
# Velocity P-wave (km/s) = 4.94261 7.08228 6.10689
#
# Compressibility (1/GPa) = 0.03760093
#
# Stress axis : x y z
#
# Youngs Moduli (GPa) = 37.87740 138.43197 107.20020
#
# Poissons Ratio (x) = 0.10763 -0.14640
# Poissons Ratio (y) = 0.02945 0.34993
# Poissons Ratio (z) = -0.05173 0.45187
#
# Static dielectric constant tensor:
#      x y z
#    x 1.827710 0.000000 0.005270 
#    y 0.000000 1.817130 0.000000 
#    z 0.005270 0.000000 1.817290 
# 
# From -- ./inp_files/78984.got.cif
#   From: 2010.05.17/outbox.cif.g08.bks.cpg/sg10_40_cif.got.tgz:78984.got - 2010.06.03 11:33:40.
