data_PCOD9153586
_publ_section_title
;
Structure prediction by ZEFSAII (Michael W. Deem and Ramdas Pophale) SiO2 
 PCOD9153586
Probable space group: P 2/M
;
_chemical_formula_sum "Si O2"
_cell_formula_units_Z 32
_cell_length_a 30.720404
_cell_length_b 7.669300
_cell_length_c 12.604992
_cell_angle_alpha 90.000000
_cell_angle_beta 151.578297
_cell_angle_gamma 90.000000
_cell_volume 1413.491773
_symmetry_space_group_name_H-M "P 2/M"
_symmetry_group_IT_number 10
_symmetry_cell_setting 'monoclinic'
loop_
_space_group_symop_operation_xyz
x,y,z
-x,y,-z
-x,-y,-z
x,-y,z
loop_
_atom_site_type_symbol
_atom_site_label
_atom_site_fract_x
_atom_site_fract_y
_atom_site_fract_z
Si Si1 0.917465 0.299861 0.391174
Si Si2 0.602141 0.200889 0.215792
Si Si3 0.894517 0.712910 0.773034
Si Si4 0.224674 0.300051 0.286907
Si Si5 0.182304 0.286945 0.619337
Si Si6 0.457469 0.789680 0.520042
Si Si7 0.250814 0.799333 0.106823
Si Si8 0.624385 0.706417 0.025822
O O1 0.946026 0.500000 0.474913
O O2 0.885422 0.221390 0.434545
O O3 0.000000 0.218670 0.500000
O O4 0.826311 0.298061 0.124778
O O5 0.675061 0.294659 0.445612
O O6 0.631167 0.207832 0.155475
O O7 0.598051 0.000000 0.243865
O O8 0.500000 0.275352 0.000000
O O9 0.889538 0.500000 0.764442
O O10 0.841520 0.774278 0.763994
O O11 0.848728 0.766733 0.564480
O O12 0.000000 0.763438 0.000000
O O13 0.197933 0.500000 0.208662
O O14 0.226371 0.206663 0.178441
O O15 0.179040 0.500000 0.617323
O O16 0.288939 0.236802 0.859919
O O17 0.500000 0.728029 0.500000
O O18 0.353699 0.727684 0.313653
O O19 0.453844 0.000000 0.510436
O O20 0.528084 0.741233 0.763820
O O21 0.249895 0.000000 0.068283
O O22 0.633600 0.500000 0.063397
#
# Coordination Sequence:
#
# PCOD9153586 Si02
#       8
#     4   4   4   4   4   4   4   4
#     4  10  22  39  64  92 117 152 201 249 292 344
#     4  11  23  38  56  81 117 159 196 233 288 350
#     4   9  18  33  59  89 118 152 189 239 297 346
#     4  11  22  38  62  90 119 153 199 245 292 348
#     4   9  18  35  57  88 123 149 189 246 296 344
#     4  10  22  40  60  83 114 157 203 242 291 356
#     4  11  24  41  60  85 123 160 194 241 299 355
#     4  11  21  35  58  87 117 150 191 243 295 343
#
# _framework density 22.638971000000002
#
# number of rings (size 3 to 8) (size 9 to 14) (size 15 to 20)
#    0.000    1.750    1.250    3.000    1.750    5.500 
#    0.000    0.625    0.000    1.500    0.000    0.000 
#    0.000    0.000    0.000    0.000    0.000    0.000 
#
# Total GULP energy -178916.885544 kJ/mol
# GULP energy per Si atom -5591.152673 kJ/mol
# Density = 2.258744 g / cm^3
# Si number density = 22.638971 Si / 1000 Ang^3
#
#
#
# Elastic Constant Matrix: (Units=GPa)
#
#
# Indices 1 2 3 4 5 6 
#
# 1 142.3197 -2.4771 25.0536 0.0000 19.5968 0.0000
# 2 -2.4771 49.1789 -8.5146 0.0000 4.5606 0.0000
# 3 25.0536 -8.5146 72.0807 0.0000 17.2183 0.0000
# 4 0.0000 0.0000 0.0000 -137.0690 0.0000 44.2938
# 5 19.5968 4.5606 17.2183 0.0000 43.2373 0.0000
# 6 0.0000 0.0000 0.0000 44.2938 0.0000 -2.1921
#
#
#
# Elastic Compliance Matrix: (Units=1/GPa)
#
#
# Indices 1 2 3 4 5 6 
#
# 1 0.007764 0.000299 -0.002006 0.000000 -0.002751 0.000000
# 2 0.000299 0.021260 0.003288 0.000000 -0.003687 0.000000
# 3 -0.002006 0.003288 0.016383 0.000000 -0.005962 0.000000
# 4 0.000000 0.000000 0.000000 0.001319 0.000000 0.026659
# 5 -0.002751 -0.003687 -0.005962 0.000000 0.027138 0.000000
# 6 0.000000 0.000000 0.000000 0.026659 0.000000 0.082498
#
#
# Mechanical properties :
#
#
# Convention : Reuss Voigt Hill
#
# Bulk Modulus (GPa) = 20.58895 32.41146 26.50021
# Shear Modulus (GPa) = 29.51761 -2.57027 13.47367
#
# Velocity S-wave (km/s) = 3.61479 -1.06667 2.44222
# Velocity P-wave (km/s) = 5.15136 3.58200 4.43662
#
# Compressibility (1/GPa) = 0.04856974
#
# Stress axis : x y z
#
# Youngs Moduli (GPa) = 128.80599 47.03614 61.03841
#
# Poissons Ratio (x) = -0.01406 0.12244
# Poissons Ratio (y) = -0.03850 -0.20071
# Poissons Ratio (z) = 0.25837 -0.15467
#
# Static dielectric constant tensor:
#      x y z
#    x 1.861120 0.000000 0.031780 
#    y 0.000000 1.852410 0.000000 
#    z 0.031780 0.000000 1.788410 
# 
# From -- ./inp_files/58315.got.cif
#   From: 2010.05.17/outbox.cif.g08.bks.cpg/sg10_30_cif.got.tgz:58315.got - 2010.06.03 11:33:40.
