data_PCOD9153814
_publ_section_title
;
Structure prediction by ZEFSAII (Michael W. Deem and Ramdas Pophale) SiO2 
 PCOD9153814
Probable space group: P 2/M
;
_chemical_formula_sum "Si O2"
_cell_formula_units_Z 17
_cell_length_a 9.396485
_cell_length_b 20.920611
_cell_length_c 5.073686
_cell_angle_alpha 90.000000
_cell_angle_beta 125.264221
_cell_angle_gamma 90.000000
_cell_volume 814.364155
_symmetry_space_group_name_H-M "P 2/M"
_symmetry_group_IT_number 10
_symmetry_cell_setting 'monoclinic'
loop_
_space_group_symop_operation_xyz
x,y,z
-x,y,-z
-x,-y,-z
x,-y,z
loop_
_atom_site_type_symbol
_atom_site_label
_atom_site_fract_x
_atom_site_fract_y
_atom_site_fract_z
Si Si1 0.611741 0.684014 0.877776
Si Si2 0.792821 0.189350 0.298259
Si Si3 0.702439 0.108522 0.704025
Si Si4 0.124064 0.429285 0.882391
Si Si5 0.000000 0.000000 0.000000
O O1 0.500000 0.700887 0.500000
O O2 0.500000 0.656722 0.000000
O O3 0.701738 0.746450 0.099119
O O4 0.746039 0.629078 0.945159
O O5 0.730000 0.164976 0.517252
O O6 0.000000 0.198320 0.500000
O O7 0.743812 0.134554 0.038496
O O8 0.500000 0.087509 0.500000
O O9 0.847276 0.055386 0.797068
O O10 0.207627 0.500000 0.942500
O O11 0.000000 0.418385 0.500000
O O12 0.000000 0.431160 0.000000
#
# Coordination Sequence:
#
# PCOD9153814 Si02
#       5
#     4   4   4   4   1
#     4  12  25  40  65  99 135 176 226 280 345 403
#     4  12  24  46  68  98 135 178 226 281 339 406
#     4  12  26  46  73 101 138 176 226 283 337 408
#     4  10  22  42  66  95 133 180 230 278 337 408
#     4  12  26  50  72 108 136 182 228 270 352 420
#
# _framework density 20.875183
#
# number of rings (size 3 to 8) (size 9 to 14) (size 15 to 20)
#    0.000    0.471    2.353    6.706    0.000    4.706 
#    0.000    2.353    0.000    0.000    0.000    0.000 
#    0.000    0.000    0.000    0.000    0.000    0.000 
#
# Total GULP energy -94817.439341 kJ/mol
# GULP energy per Si atom -5577.496432 kJ/mol
# Density = 2.082767 g / cm^3
# Si number density = 20.875183 Si / 1000 Ang^3
#
#
#
# Elastic Constant Matrix: (Units=GPa)
#
#
# Indices 1 2 3 4 5 6 
#
# 1 102.9396 23.9971 50.9114 0.0000 17.0221 0.0000
# 2 23.9971 103.0906 23.9472 0.0000 39.7051 0.0000
# 3 50.9114 23.9472 106.4969 0.0000 19.3463 0.0000
# 4 0.0000 0.0000 0.0000 -13.0892 0.0000 59.5733
# 5 17.0221 39.7051 19.3463 0.0000 47.8992 0.0000
# 6 0.0000 0.0000 0.0000 59.5733 0.0000 -96.7140
#
#
#
# Elastic Compliance Matrix: (Units=1/GPa)
#
#
# Indices 1 2 3 4 5 6 
#
# 1 0.013045 -0.001192 -0.005726 0.000000 -0.001335 0.000000
# 2 -0.001192 0.014488 -0.000629 0.000000 -0.011332 0.000000
# 3 -0.005726 -0.000629 0.012739 0.000000 -0.002589 0.000000
# 4 0.000000 0.000000 0.000000 0.042361 0.000000 0.026094
# 5 -0.001335 -0.011332 -0.002589 0.000000 0.031791 0.000000
# 6 0.000000 0.000000 0.000000 0.026094 0.000000 0.005733
#
#
# Mechanical properties :
#
#
# Convention : Reuss Voigt Hill
#
# Bulk Modulus (GPa) = 39.71776 56.69316 48.20546
# Shear Modulus (GPa) = 34.80817 1.86396 18.33607
#
# Velocity S-wave (km/s) = 4.08786 0.94596 2.96694
# Velocity P-wave (km/s) = 6.43028 5.33013 5.90587
#
# Compressibility (1/GPa) = 0.02517765
#
# Stress axis : x y z
#
# Youngs Moduli (GPa) = 76.65864 69.02043 78.49991
#
# Poissons Ratio (x) = 0.08230 0.44945
# Poissons Ratio (y) = 0.09141 0.04940
# Poissons Ratio (z) = 0.43891 0.04343
#
# Static dielectric constant tensor:
#      x y z
#    x 1.807910 0.000000 0.018810 
#    y 0.000000 1.729010 0.000000 
#    z 0.018810 0.000000 1.721690 
# 
# From -- ./inp_files/4937.got.cif
#   From: 2010.05.17/outbox.cif.g08.bks.cpg/sg10_3_cif.got.tgz:4937.got - 2010.06.03 11:33:40.
