data_PCOD9153866
_publ_section_title
;
Structure prediction by ZEFSAII (Michael W. Deem and Ramdas Pophale) SiO2 
 PCOD9153866
Probable space group: P 2/M
;
_chemical_formula_sum "Si O2"
_cell_formula_units_Z 30
_cell_length_a 13.506226
_cell_length_b 17.008173
_cell_length_c 5.671350
_cell_angle_alpha 90.000000
_cell_angle_beta 102.316876
_cell_angle_gamma 90.000000
_cell_volume 1272.814279
_symmetry_space_group_name_H-M "P 2/M"
_symmetry_group_IT_number 10
_symmetry_cell_setting 'monoclinic'
loop_
_space_group_symop_operation_xyz
x,y,z
-x,y,-z
-x,-y,-z
x,-y,z
loop_
_atom_site_type_symbol
_atom_site_label
_atom_site_fract_x
_atom_site_fract_y
_atom_site_fract_z
Si Si1 0.405674 0.085615 0.274270
Si Si2 0.182415 0.913625 0.396036
Si Si3 0.150877 0.781466 0.771821
Si Si4 0.252723 0.342725 0.522293
Si Si5 0.664335 0.752833 0.819075
Si Si6 0.000000 0.852748 0.000000
Si Si7 0.619925 0.415209 0.034209
Si Si8 0.051471 0.594334 0.270009
O O1 0.500000 0.083880 0.500000
O O2 0.296358 0.087214 0.349680
O O3 0.407650 0.173089 0.162375
O O4 0.407395 0.000000 0.144523
O O5 0.173324 0.849158 0.594269
O O6 0.094293 0.900930 0.154949
O O7 0.165533 0.000000 0.493338
O O8 0.179961 0.700127 0.670463
O O9 0.227488 0.782110 0.030764
O O10 0.040094 0.797644 0.811502
O O11 0.321216 0.273781 0.443828
O O12 0.323166 0.404798 0.687905
O O13 0.169373 0.380067 0.310522
O O14 0.639172 0.668273 0.918420
O O15 0.652655 0.500000 0.944440
O O16 0.500000 0.418854 0.000000
O O17 0.047713 0.500000 0.264539
O O18 0.000000 0.615069 0.500000
O O19 0.000000 0.622870 0.000000
#
# Coordination Sequence:
#
# PCOD9153866 Si02
#       8
#     4   4   4   4   4   2   4   4
#     4  10  22  43  71 100 136 182 234 291 354 429
#     4  11  24  43  66  97 138 182 234 295 368 440
#     4  11  24  42  62 100 137 179 240 290 365 434
#     4  11  24  44  65  99 138 187 232 303 366 444
#     4  11  24  43  73 101 137 187 235 294 364 436
#     4  12  23  42  66  96 137 188 238 300 361 446
#     4  10  25  45  70 108 144 183 238 300 371 452
#     4  10  24  44  68  98 135 185 242 301 365 440
#
# _framework density 23.56982
#
# number of rings (size 3 to 8) (size 9 to 14) (size 15 to 20)
#    0.000    1.333    2.667    1.000    5.600    5.333 
#    1.200    1.333    0.000    2.800    0.000    0.000 
#    0.000    0.000    0.000    0.000    0.000    0.000 
#
# Total GULP energy -167347.976333 kJ/mol
# GULP energy per Si atom -5578.265878 kJ/mol
# Density = 2.351617 g / cm^3
# Si number density = 23.569820 Si / 1000 Ang^3
#
#
#
# Elastic Constant Matrix: (Units=GPa)
#
#
# Indices 1 2 3 4 5 6 
#
# 1 101.6261 40.2489 35.3352 0.0000 19.6958 0.0000
# 2 40.2489 163.0993 37.7270 0.0000 10.6796 0.0000
# 3 35.3352 37.7270 57.0809 0.0000 8.9205 0.0000
# 4 0.0000 0.0000 0.0000 27.9544 0.0000 -2.0471
# 5 19.6958 10.6796 8.9205 0.0000 35.5085 0.0000
# 6 0.0000 0.0000 0.0000 -2.0471 0.0000 12.0317
#
#
#
# Elastic Compliance Matrix: (Units=1/GPa)
#
#
# Indices 1 2 3 4 5 6 
#
# 1 0.013841 -0.001501 -0.006711 0.000000 -0.005540 0.000000
# 2 -0.001501 0.007436 -0.003920 0.000000 -0.000419 0.000000
# 3 -0.006711 -0.003920 0.024458 0.000000 -0.001243 0.000000
# 4 0.000000 0.000000 0.000000 0.036224 0.000000 0.006163
# 5 -0.005540 -0.000419 -0.001243 0.000000 0.031674 0.000000
# 6 0.000000 0.000000 0.000000 0.006163 0.000000 0.084162
#
#
# Mechanical properties :
#
#
# Convention : Reuss Voigt Hill
#
# Bulk Modulus (GPa) = 46.57086 60.93650 53.75368
# Shear Modulus (GPa) = 21.81350 28.99860 25.40605
#
# Velocity S-wave (km/s) = 3.04548 3.51141 3.28671
# Velocity P-wave (km/s) = 5.67170 6.50767 6.10401
#
# Compressibility (1/GPa) = 0.02147266
#
# Stress axis : x y z
#
# Youngs Moduli (GPa) = 72.24732 134.48469 40.88587
#
# Poissons Ratio (x) = 0.20182 0.27437
# Poissons Ratio (y) = 0.10842 0.16028
# Poissons Ratio (z) = 0.48482 0.52720
#
# Static dielectric constant tensor:
#      x y z
#    x 1.912980 0.000000 -0.037870 
#    y 0.000000 1.955270 0.000000 
#    z -0.037870 0.000000 1.949160 
# 
# From -- ./inp_files/9833.got.cif
#   From: 2010.05.17/outbox.cif.g08.bks.cpg/sg10_5_cif.got.tgz:9833.got - 2010.06.03 11:33:40.
