data_PCOD9153315
_publ_section_title
;
Structure prediction by ZEFSAII (Michael W. Deem and Ramdas Pophale) SiO2 
 PCOD9153315
Probable space group: P 2/M
;
_chemical_formula_sum "Si O2"
_cell_formula_units_Z 13
_cell_length_a 5.311961
_cell_length_b 18.702868
_cell_length_c 5.084568
_cell_angle_alpha 90.000000
_cell_angle_beta 86.684407
_cell_angle_gamma 90.000000
_cell_volume 504.300708
_symmetry_space_group_name_H-M "P 2/M"
_symmetry_group_IT_number 10
_symmetry_cell_setting 'monoclinic'
loop_
_space_group_symop_operation_xyz
x,y,z
-x,y,-z
-x,-y,-z
x,-y,z
loop_
_atom_site_type_symbol
_atom_site_label
_atom_site_fract_x
_atom_site_fract_y
_atom_site_fract_z
Si Si1 0.500000 0.238773 0.500000
Si Si2 0.244299 0.100261 0.657647
Si Si3 0.500000 0.000000 0.000000
Si Si4 0.739196 0.500000 0.678560
Si Si5 0.169259 0.655806 0.227069
O O1 0.291911 0.185136 0.636521
O O2 0.611165 0.290149 0.713383
O O3 0.500000 0.071360 0.500000
O O4 0.000000 0.082527 0.500000
O O5 0.288649 0.063104 0.933445
O O6 0.500000 0.500000 0.500000
O O7 0.741919 0.574635 0.833255
O O8 0.000000 0.500000 0.500000
O O9 0.000000 0.652957 0.500000
O O10 0.000000 0.681222 0.000000
#
# Coordination Sequence:
#
# PCOD9153315 Si02
#       5
#     2   4   1   2   4
#     4  10  24  44  66 100 144 186 240 292 370 426
#     4  10  25  44  67 102 136 174 234 285 351 429
#     4  12  24  46  80  96 140 180 232 290 362 414
#     4  10  21  44  70 107 143 195 248 308 360 429
#     4  11  24  44  71 103 148 192 248 302 365 428
#
# _framework density 25.778269000000002
#
# number of rings (size 3 to 8) (size 9 to 14) (size 15 to 20)
#    0.923    0.615    1.538    2.308    0.000    8.615 
#    0.000    3.077    0.000    0.000    0.000    0.000 
#    0.000    0.000    0.000    0.000    0.000    0.000 
#
# Total GULP energy -72493.591596 kJ/mol
# GULP energy per Si atom -5576.430123 kJ/mol
# Density = 2.571960 g / cm^3
# Si number density = 25.778269 Si / 1000 Ang^3
#
#
#
# Elastic Constant Matrix: (Units=GPa)
#
#
# Indices 1 2 3 4 5 6 
#
# 1 186.9667 48.5234 73.8527 0.0000 61.1298 0.0000
# 2 48.5234 231.6629 46.5476 0.0000 49.7039 0.0000
# 3 73.8527 46.5476 133.2328 0.0000 50.0294 0.0000
# 4 0.0000 0.0000 0.0000 79.0372 0.0000 73.1708
# 5 61.1298 49.7039 50.0294 0.0000 86.2832 0.0000
# 6 0.0000 0.0000 0.0000 73.1708 0.0000 41.9407
#
#
#
# Elastic Compliance Matrix: (Units=1/GPa)
#
#
# Indices 1 2 3 4 5 6 
#
# 1 0.007735 -0.000262 -0.002806 0.000000 -0.003702 0.000000
# 2 -0.000262 0.005008 -0.000755 0.000000 -0.002262 0.000000
# 3 -0.002806 -0.000755 0.010757 0.000000 -0.003814 0.000000
# 4 0.000000 0.000000 0.000000 -0.020568 0.000000 0.035884
# 5 -0.003702 -0.002262 -0.003814 0.000000 0.017727 0.000000
# 6 0.000000 0.000000 0.000000 0.035884 0.000000 -0.038761
#
#
# Mechanical properties :
#
#
# Convention : Reuss Voigt Hill
#
# Bulk Modulus (GPa) = 63.07433 98.85664 80.96549
# Shear Modulus (GPa) = -967.26999 66.98147 -450.14426
#
# Velocity S-wave (km/s) = -19.39179 5.10295 -13.22878
# Velocity P-wave (km/s) = 21.83730 8.55291 14.20766
#
# Compressibility (1/GPa) = 0.01585431
#
# Stress axis : x y z
#
# Youngs Moduli (GPa) = 129.27423 199.66071 92.96079
#
# Poissons Ratio (x) = 0.05233 0.26085
# Poissons Ratio (y) = 0.03388 0.07022
# Poissons Ratio (z) = 0.36275 0.15081
#
# Static dielectric constant tensor:
#      x y z
#    x 2.119270 0.000000 -0.213200 
#    y 0.000000 2.029800 0.000000 
#    z -0.213200 0.000000 2.357080 
# 
# From -- ./inp_files/887.got.cif
#   From: 2010.05.17/outbox.cif.g08.bks.cpg/sg10_1_cif.got.tgz:887.got - 2010.06.03 11:33:40.
