data_PCOD9153389
_publ_section_title
;
Structure prediction by ZEFSAII (Michael W. Deem and Ramdas Pophale) SiO2 
 PCOD9153389
Probable space group: P 2/M
;
_chemical_formula_sum "Si O2"
_cell_formula_units_Z 32
_cell_length_a 32.474260
_cell_length_b 7.906513
_cell_length_c 12.439849
_cell_angle_alpha 90.000000
_cell_angle_beta 28.494343
_cell_angle_gamma 90.000000
_cell_volume 1523.783547
_symmetry_space_group_name_H-M "P 2/M"
_symmetry_group_IT_number 10
_symmetry_cell_setting 'monoclinic'
loop_
_space_group_symop_operation_xyz
x,y,z
-x,y,-z
-x,-y,-z
x,-y,z
loop_
_atom_site_type_symbol
_atom_site_label
_atom_site_fract_x
_atom_site_fract_y
_atom_site_fract_z
Si Si1 0.638510 0.206478 0.704879
Si Si2 0.761671 0.804833 0.965923
Si Si3 0.916911 0.302310 0.757719
Si Si4 0.822104 0.795844 0.365837
Si Si5 0.842313 0.306680 0.565293
Si Si6 0.964058 0.196867 0.876594
Si Si7 0.519739 0.206192 0.784926
Si Si8 0.565681 0.207415 0.441531
O O1 0.734225 0.265778 0.511603
O O2 0.597386 0.259180 0.685827
O O3 0.640134 0.000000 0.700995
O O4 0.569849 0.258151 0.953881
O O5 0.832134 0.716821 0.879870
O O6 0.794284 0.795275 0.768563
O O7 0.760253 0.000000 0.004162
O O8 0.664384 0.737742 0.197600
O O9 0.932086 0.500000 0.744790
O O10 0.912868 0.212090 0.881964
O O11 0.000000 0.237184 0.500000
O O12 0.822977 0.748892 0.488449
O O13 0.823241 0.000000 0.355800
O O14 0.905637 0.735950 0.108068
O O15 0.816589 0.500000 0.639108
O O16 0.945010 0.288428 0.345167
O O17 0.984264 0.000000 0.851532
O O18 0.533177 0.262495 0.633036
O O19 0.519552 0.000000 0.785039
O O20 0.500000 0.263463 0.500000
O O21 0.565965 0.000000 0.438859
#
# Coordination Sequence:
#
# PCOD9153389 Si02
#       8
#     4   4   4   4   4   4   4   4
#     4   8  15  28  50  80 112 147 181 232 292 344
#     4  11  23  38  62  91 120 156 202 254 302 348
#     4  11  23  40  62  88 122 163 202 242 295 360
#     4  10  22  37  59  89 117 147 195 250 298 345
#     4  12  25  41  59  81 117 161 201 239 293 363
#     4  11  23  39  62  90 120 152 195 249 299 346
#     4   8  14  27  48  77 116 150 181 224 290 352
#     4   9  19  32  52  87 124 152 187 243 304 356
#
# _framework density 21.000357999999999
#
# number of rings (size 3 to 8) (size 9 to 14) (size 15 to 20)
#    0.000    2.000    1.250    3.375    3.500    3.000 
#    0.000    0.000    0.000    1.500    0.000    1.750 
#    0.000    0.000    0.000    0.000    0.000    0.000 
#
# Total GULP energy -178806.415585 kJ/mol
# GULP energy per Si atom -5587.700487 kJ/mol
# Density = 2.095256 g / cm^3
# Si number density = 21.000358 Si / 1000 Ang^3
#
#
#
# Elastic Constant Matrix: (Units=GPa)
#
#
# Indices 1 2 3 4 5 6 
#
# 1 111.7764 -9.5713 53.5442 0.0000 7.2371 0.0000
# 2 -9.5713 24.8170 -4.5910 0.0000 -4.4764 0.0000
# 3 53.5442 -4.5910 79.2971 0.0000 -6.2888 0.0000
# 4 0.0000 0.0000 0.0000 -26.8887 0.0000 14.1172
# 5 7.2371 -4.4764 -6.2888 0.0000 30.3014 0.0000
# 6 0.0000 0.0000 0.0000 14.1172 0.0000 -12.2099
#
#
#
# Elastic Compliance Matrix: (Units=1/GPa)
#
#
# Indices 1 2 3 4 5 6 
#
# 1 0.014224 0.002757 -0.009844 0.000000 -0.005033 0.000000
# 2 0.002757 0.042613 0.001070 0.000000 0.005859 0.000000
# 3 -0.009844 0.001070 0.019845 0.000000 0.006628 0.000000
# 4 0.000000 0.000000 0.000000 -0.094639 0.000000 -0.109423
# 5 -0.005033 0.005859 0.006628 0.000000 0.036445 0.000000
# 6 0.000000 0.000000 0.000000 -0.109423 0.000000 -0.208416
#
#
# Mechanical properties :
#
#
# Convention : Reuss Voigt Hill
#
# Bulk Modulus (GPa) = 15.46823 32.73937 24.10380
# Shear Modulus (GPa) = -31.98063 10.00780 -10.98642
#
# Velocity S-wave (km/s) = -3.90662 2.18538 -2.28974
# Velocity P-wave (km/s) = 3.60100 4.68952 2.12419
#
# Compressibility (1/GPa) = 0.06464865
#
# Stress axis : x y z
#
# Youngs Moduli (GPa) = 70.30392 23.46697 50.38936
#
# Poissons Ratio (x) = -0.06470 0.49604
# Poissons Ratio (y) = -0.19382 -0.05393
# Poissons Ratio (z) = 0.69208 -0.02512
#
# Static dielectric constant tensor:
#      x y z
#    x 1.728600 0.000000 0.001560 
#    y 0.000000 1.740040 0.000000 
#    z 0.001560 0.000000 1.734090 
# 
# From -- ./inp_files/58183.got.cif
#   From: 2010.05.17/outbox.cif.g08.bks.cpg/sg10_30_cif.got.tgz:58183.got - 2010.06.03 11:33:40.
