data_PCOD9153883
_publ_section_title
;
Structure prediction by ZEFSAII (Michael W. Deem and Ramdas Pophale) SiO2 
 PCOD9153883
Probable space group: P 2/M
;
_chemical_formula_sum "Si O2"
_cell_formula_units_Z 32
_cell_length_a 9.589526
_cell_length_b 14.016647
_cell_length_c 24.436319
_cell_angle_alpha 90.000000
_cell_angle_beta 149.615927
_cell_angle_gamma 90.000000
_cell_volume 1661.310166
_symmetry_space_group_name_H-M "P 2/M"
_symmetry_group_IT_number 10
_symmetry_cell_setting 'monoclinic'
loop_
_space_group_symop_operation_xyz
x,y,z
-x,y,-z
-x,-y,-z
x,-y,z
loop_
_atom_site_type_symbol
_atom_site_label
_atom_site_fract_x
_atom_site_fract_y
_atom_site_fract_z
Si Si1 0.514596 0.111707 0.340470
Si Si2 0.481968 0.831899 0.051321
Si Si3 0.907046 0.613413 0.596531
Si Si4 0.268779 0.888932 0.462625
Si Si5 0.325893 0.895679 0.114010
Si Si6 0.259068 0.780352 0.683029
Si Si7 0.702783 0.613837 0.650331
Si Si8 0.991322 0.239276 0.174293
O O1 0.616354 0.117828 0.437118
O O2 0.703392 0.175607 0.364560
O O3 0.206228 0.154629 0.234956
O O4 0.524617 0.000000 0.328384
O O5 0.431465 0.888660 0.088117
O O6 0.779267 0.782126 0.152260
O O7 0.500000 0.889124 0.000000
O O8 0.227345 0.759785 0.950403
O O9 0.945003 0.500000 0.603845
O O10 0.856664 0.632805 0.644276
O O11 0.618470 0.639391 0.468790
O O12 0.156174 0.672780 0.654509
O O13 0.500000 0.849535 0.500000
O O14 0.979015 0.836848 0.364949
O O15 0.225899 0.000000 0.433973
O O16 0.456854 0.809718 0.192048
O O17 0.400556 0.000000 0.162721
O O18 0.000000 0.888923 0.000000
O O19 0.717251 0.500000 0.664181
O O20 0.832299 0.671566 0.744745
#
# Coordination Sequence:
#
# PCOD9153883 Si02
#       8
#     4   4   4   4   4   4   4   4
#     4  11  23  38  56  82 121 160 197 239 296 357
#     4   8  21  35  53  78 111 152 202 249 295 350
#     4   9  20  35  58  91 121 150 192 248 305 364
#     4  10  23  37  54  86 120 154 199 244 287 359
#     4  11  23  38  57  85 117 153 202 252 298 355
#     4  12  23  37  62  83 116 162 197 244 301 363
#     4   9  17  34  60  89 118 149 191 245 306 363
#     4   9  19  36  55  80 113 153 199 244 295 346
#
# _framework density 19.261906
#
# number of rings (size 3 to 8) (size 9 to 14) (size 15 to 20)
#    0.750    1.250    0.000    4.500    5.250    3.250 
#    0.000    1.875    0.000    4.125    0.000    0.000 
#    0.000    0.000    0.000    0.000    0.000    0.000 
#
# Total GULP energy -178352.987034 kJ/mol
# GULP energy per Si atom -5573.530845 kJ/mol
# Density = 1.921807 g / cm^3
# Si number density = 19.261906 Si / 1000 Ang^3
#
#
#
# Elastic Constant Matrix: (Units=GPa)
#
#
# Indices 1 2 3 4 5 6 
#
# 1 60.4674 29.4861 22.8434 0.0000 -6.7878 0.0000
# 2 29.4861 92.9455 36.9871 0.0000 4.0429 0.0000
# 3 22.8434 36.9871 66.6514 0.0000 9.7222 0.0000
# 4 0.0000 0.0000 0.0000 85.8051 0.0000 13.4291
# 5 -6.7878 4.0429 9.7222 0.0000 25.3538 0.0000
# 6 0.0000 0.0000 0.0000 13.4291 0.0000 18.4322
#
#
#
# Elastic Compliance Matrix: (Units=1/GPa)
#
#
# Indices 1 2 3 4 5 6 
#
# 1 0.022364 -0.005020 -0.006217 0.000000 0.009172 0.000000
# 2 -0.005020 0.014950 -0.006389 0.000000 -0.001278 0.000000
# 3 -0.006217 -0.006389 0.022005 0.000000 -0.009084 0.000000
# 4 0.000000 0.000000 0.000000 0.013154 0.000000 -0.009584
# 5 0.009172 -0.001278 -0.009084 0.000000 0.045584 0.000000
# 6 0.000000 0.000000 0.000000 -0.009584 0.000000 0.061235
#
#
# Mechanical properties :
#
#
# Convention : Reuss Voigt Hill
#
# Bulk Modulus (GPa) = 41.55181 44.29973 42.92577
# Shear Modulus (GPa) = 22.46523 34.63473 28.54998
#
# Velocity S-wave (km/s) = 3.41882 4.24500 3.85411
# Velocity P-wave (km/s) = 6.09945 6.86114 6.49148
#
# Compressibility (1/GPa) = 0.02406634
#
# Stress axis : x y z
#
# Youngs Moduli (GPa) = 44.71509 66.89153 45.44462
#
# Poissons Ratio (x) = 0.33577 0.28253
# Poissons Ratio (y) = 0.22445 0.29036
# Poissons Ratio (z) = 0.27799 0.42739
#
# Static dielectric constant tensor:
#      x y z
#    x 1.688070 0.000000 0.002600 
#    y 0.000000 1.687960 0.000000 
#    z 0.002600 0.000000 1.710770 
# 
# From -- ./inp_files/88262.got.cif
#   From: 2010.05.17/outbox.cif.g08.bks.cpg/sg10_45_cif.got.tgz:88262.got - 2010.06.03 11:33:40.
