data_PCOD9153072
_publ_section_title
;
Structure prediction by ZEFSAII (Michael W. Deem and Ramdas Pophale) SiO2 
 PCOD9153072
Probable space group: P 2/M
;
_chemical_formula_sum "Si O2"
_cell_formula_units_Z 18
_cell_length_a 5.146447
_cell_length_b 8.276366
_cell_length_c 21.021279
_cell_angle_alpha 90.000000
_cell_angle_beta 60.568132
_cell_angle_gamma 90.000000
_cell_volume 779.820921
_symmetry_space_group_name_H-M "P 2/M"
_symmetry_group_IT_number 10
_symmetry_cell_setting 'monoclinic'
loop_
_space_group_symop_operation_xyz
x,y,z
-x,y,-z
-x,-y,-z
x,-y,z
loop_
_atom_site_type_symbol
_atom_site_label
_atom_site_fract_x
_atom_site_fract_y
_atom_site_fract_z
Si Si1 0.650271 0.000000 0.552021
Si Si2 0.150623 0.805705 0.047510
Si Si3 0.212020 0.809856 0.296417
Si Si4 0.110480 0.310169 0.788728
Si Si5 0.618005 0.676025 0.413622
O O1 0.500000 0.000000 0.500000
O O2 0.539392 0.834084 0.596662
O O3 0.000000 0.000000 0.500000
O O4 0.007171 0.727722 0.126791
O O5 0.111878 0.000000 0.057950
O O6 0.500000 0.770953 0.000000
O O7 0.000000 0.752667 0.000000
O O8 0.545051 0.742147 0.257392
O O9 0.082284 0.784877 0.240547
O O10 0.968952 0.713585 0.367832
O O11 0.201978 0.000000 0.313503
O O12 0.079056 0.500000 0.779531
O O13 0.500000 0.668443 0.500000
O O14 0.555363 0.500000 0.392260
#
# Coordination Sequence:
#
# PCOD9153072 Si02
#       5
#     2   4   4   4   4
#     4  10  22  40  62  90 126 164 210 266 332 394
#     4  10  21  39  65  96 132 175 222 271 330 405
#     4  12  25  45  70  97 136 184 231 282 344 414
#     4  12  26  44  68 102 140 177 225 283 345 408
#     4  10  22  43  69  99 133 175 228 286 343 406
#
# _framework density 23.082224
#
# number of rings (size 3 to 8) (size 9 to 14) (size 15 to 20)
#    0.000    1.111    1.111    5.333    0.000    6.667 
#    0.000    4.444    0.000    0.000    0.000    0.000 
#    0.000    0.000    0.000    0.000    0.000    0.000 
#
# Total GULP energy -100870.974173 kJ/mol
# GULP energy per Si atom -5603.943010 kJ/mol
# Density = 2.302969 g / cm^3
# Si number density = 23.082224 Si / 1000 Ang^3
#
#
#
# Elastic Constant Matrix: (Units=GPa)
#
#
# Indices 1 2 3 4 5 6 
#
# 1 91.4954 30.4289 3.6927 0.0000 9.2592 0.0000
# 2 30.4289 179.5021 33.5679 0.0000 -19.0942 0.0000
# 3 3.6927 33.5679 145.3353 0.0000 16.6950 0.0000
# 4 0.0000 0.0000 0.0000 73.3352 0.0000 15.6083
# 5 9.2592 -19.0942 16.6950 0.0000 33.5708 0.0000
# 6 0.0000 0.0000 0.0000 15.6083 0.0000 30.7428
#
#
#
# Elastic Compliance Matrix: (Units=1/GPa)
#
#
# Indices 1 2 3 4 5 6 
#
# 1 0.012409 -0.002879 0.000987 0.000000 -0.005551 0.000000
# 2 -0.002879 0.007115 -0.002255 0.000000 0.005962 0.000000
# 3 0.000987 -0.002255 0.008013 0.000000 -0.005540 0.000000
# 4 0.000000 0.000000 0.000000 0.015288 0.000000 -0.007762
# 5 -0.005551 0.005962 -0.005540 0.000000 0.037465 0.000000
# 6 0.000000 0.000000 0.000000 -0.007762 0.000000 0.036469
#
#
# Mechanical properties :
#
#
# Convention : Reuss Voigt Hill
#
# Bulk Modulus (GPa) = 51.96562 61.30130 56.63346
# Shear Modulus (GPa) = 38.03294 50.77265 44.40279
#
# Velocity S-wave (km/s) = 4.06361 4.69512 4.39074
# Velocity P-wave (km/s) = 6.67678 7.48383 7.09179
#
# Compressibility (1/GPa) = 0.01924349
#
# Stress axis : x y z
#
# Youngs Moduli (GPa) = 80.58855 140.55116 124.80097
#
# Poissons Ratio (x) = 0.40458 -0.12320
# Poissons Ratio (y) = 0.23198 0.28143
# Poissons Ratio (z) = -0.07956 0.31695
#
# Static dielectric constant tensor:
#      x y z
#    x 1.794490 0.000000 0.006950 
#    y 0.000000 1.875140 0.000000 
#    z 0.006950 0.000000 1.795680 
# 
# From -- ./inp_files/10591.got.cif
#   From: 2010.05.17/outbox.cif.g08.bks.cpg/sg10_6_cif.got.tgz:10591.got - 2010.06.03 11:33:40.
