data_PCOD9153686
_publ_section_title
;
Structure prediction by ZEFSAII (Michael W. Deem and Ramdas Pophale) SiO2 
 PCOD9153686
Probable space group: P 2/M
;
_chemical_formula_sum "Si O2"
_cell_formula_units_Z 28
_cell_length_a 26.700385
_cell_length_b 7.903633
_cell_length_c 9.775027
_cell_angle_alpha 90.000000
_cell_angle_beta 136.446057
_cell_angle_gamma 90.000000
_cell_volume 1421.362730
_symmetry_space_group_name_H-M "P 2/M"
_symmetry_group_IT_number 10
_symmetry_cell_setting 'monoclinic'
loop_
_space_group_symop_operation_xyz
x,y,z
-x,y,-z
-x,-y,-z
x,-y,z
loop_
_atom_site_type_symbol
_atom_site_label
_atom_site_fract_x
_atom_site_fract_y
_atom_site_fract_z
Si Si1 0.156495 0.195019 0.384251
Si Si2 0.834286 0.805094 0.102535
Si Si3 0.426599 0.500000 0.268586
Si Si4 0.317201 0.803349 0.053427
Si Si5 0.426141 0.500000 0.938953
Si Si6 0.069569 0.305984 0.462457
Si Si7 0.682673 0.804242 0.274974
Si Si8 0.923476 0.694046 0.036744
O O1 0.127025 0.300512 0.452759
O O2 0.238788 0.241154 0.507009
O O3 0.159140 0.000000 0.435475
O O4 0.102713 0.214143 0.150788
O O5 0.895568 0.786877 0.340429
O O6 0.859848 0.701147 0.022641
O O7 0.829086 0.000000 0.049150
O O8 0.757613 0.756809 0.018473
O O9 0.500000 0.500000 0.500000
O O10 0.379155 0.667163 0.207749
O O11 0.439843 0.500000 0.130373
O O12 0.335078 0.000000 0.122150
O O13 0.305774 0.796753 0.866765
O O14 0.378282 0.666973 0.811629
O O15 0.500000 0.500000 0.000000
O O16 0.055922 0.500000 0.477260
O O17 0.995174 0.233842 0.252314
O O18 0.664294 0.000000 0.273249
O O19 0.940010 0.500000 0.032010
#
# Coordination Sequence:
#
# PCOD9153686 Si02
#       8
#     4   4   2   4   2   4   4   4
#     4  11  22  38  60  85 114 155 205 249 296 351
#     4  11  22  38  60  85 114 155 205 249 296 351
#     4  10  22  40  64  92 119 153 188 228 289 353
#     4   9  19  37  62  90 117 153 199 240 283 348
#     4  10  22  40  64  92 119 153 188 228 289 353
#     4  11  23  37  59  83 115 156 205 250 300 354
#     4   9  19  37  62  90 117 153 199 240 283 348
#     4  11  25  39  51  83 123 160 195 252 310 350
#
# _framework density 19.699406
#
# number of rings (size 3 to 8) (size 9 to 14) (size 15 to 20)
#    0.000    1.714    1.429    2.571    4.000    6.286 
#    2.571    0.000    0.000    0.000    0.000    0.000 
#    0.000    0.000    0.000    0.000    0.000    0.000 
#
# Total GULP energy -156421.753305 kJ/mol
# GULP energy per Si atom -5586.491189 kJ/mol
# Density = 1.965457 g / cm^3
# Si number density = 19.699406 Si / 1000 Ang^3
#
#
#
# Elastic Constant Matrix: (Units=GPa)
#
#
# Indices 1 2 3 4 5 6 
#
# 1 71.6145 29.7936 5.3895 0.0000 13.2431 0.0000
# 2 29.7936 66.2075 25.0647 0.0000 16.8167 0.0000
# 3 5.3895 25.0647 74.7198 0.0000 17.6783 0.0000
# 4 0.0000 0.0000 0.0000 18.2351 0.0000 91.8577
# 5 13.2431 16.8167 17.6783 0.0000 28.7925 0.0000
# 6 0.0000 0.0000 0.0000 91.8577 0.0000 -674.8631
#
#
#
# Elastic Compliance Matrix: (Units=1/GPa)
#
#
# Indices 1 2 3 4 5 6 
#
# 1 0.017957 -0.007691 0.002546 0.000000 -0.005331 0.000000
# 2 -0.007691 0.022167 -0.005446 0.000000 -0.006066 0.000000
# 3 0.002546 -0.005446 0.017024 0.000000 -0.008443 0.000000
# 4 0.000000 0.000000 0.000000 0.032533 0.000000 0.004428
# 5 -0.005331 -0.006066 -0.008443 0.000000 0.045910 0.000000
# 6 0.000000 0.000000 0.000000 0.004428 0.000000 -0.000879
#
#
# Mechanical properties :
#
#
# Convention : Reuss Voigt Hill
#
# Bulk Modulus (GPa) = 27.80338 37.00413 32.40376
# Shear Modulus (GPa) = 29.78260 -115.41417 -42.81579
#
# Velocity S-wave (km/s) = 3.89247 -7.66256 -4.66709
# Velocity P-wave (km/s) = 5.86057 7.71111 3.54366
#
# Compressibility (1/GPa) = 0.03596685
#
# Stress axis : x y z
#
# Youngs Moduli (GPa) = 55.68753 45.11130 58.74038
#
# Poissons Ratio (x) = 0.34693 -0.14954
# Poissons Ratio (y) = 0.42827 0.31991
# Poissons Ratio (z) = -0.14177 0.24568
#
# Static dielectric constant tensor:
#      x y z
#    x 1.677600 0.000000 0.010020 
#    y 0.000000 1.680300 0.000000 
#    z 0.010020 0.000000 1.678450 
# 
# From -- ./inp_files/37431.got.cif
#   From: 2010.05.17/outbox.cif.g08.bks.cpg/sg10_19_cif.got.tgz:37431.got - 2010.06.03 11:33:40.
