data_PCOD9153282
_publ_section_title
;
Structure prediction by ZEFSAII (Michael W. Deem and Ramdas Pophale) SiO2 
 PCOD9153282
Probable space group: P 2/M
;
_chemical_formula_sum "Si O2"
_cell_formula_units_Z 28
_cell_length_a 29.147136
_cell_length_b 7.982786
_cell_length_c 10.051261
_cell_angle_alpha 90.000000
_cell_angle_beta 140.442498
_cell_angle_gamma 90.000000
_cell_volume 1489.394163
_symmetry_space_group_name_H-M "P 2/M"
_symmetry_group_IT_number 10
_symmetry_cell_setting 'monoclinic'
loop_
_space_group_symop_operation_xyz
x,y,z
-x,y,-z
-x,-y,-z
x,-y,z
loop_
_atom_site_type_symbol
_atom_site_label
_atom_site_fract_x
_atom_site_fract_y
_atom_site_fract_z
Si Si1 0.183335 0.699632 0.195207
Si Si2 0.571233 0.000000 0.069732
Si Si3 0.330016 0.686122 0.024307
Si Si4 0.213421 0.808517 0.961491
Si Si5 0.316681 0.302426 0.685358
Si Si6 0.021679 0.197429 0.901188
Si Si7 0.566880 0.000000 0.747138
Si Si8 0.938914 0.305586 0.463886
O O1 0.174015 0.500000 0.174662
O O2 0.246545 0.740594 0.441140
O O3 0.206314 0.754182 0.098710
O O4 0.106088 0.775874 0.060481
O O5 0.620560 0.166526 0.202515
O O6 0.500000 0.000000 0.000000
O O7 0.549001 0.000000 0.864396
O O8 0.362523 0.500000 0.102762
O O9 0.386252 0.833916 0.172964
O O10 0.267861 0.701579 0.994632
O O11 0.300712 0.709286 0.807890
O O12 0.134595 0.791648 0.720942
O O13 0.237892 0.000000 0.010658
O O14 0.335501 0.500000 0.700911
O O15 0.973234 0.291127 0.685151
O O16 0.005847 0.000000 0.853763
O O17 0.000000 0.252924 0.000000
O O18 0.500000 0.000000 0.500000
O O19 0.924440 0.500000 0.397386
O O20 0.000000 0.241081 0.500000
#
# Coordination Sequence:
#
# PCOD9153282 Si02
#       8
#     4   2   4   4   4   4   2   4
#     4  11  23  40  60  87 119 159 206 255 308 365
#     4  10  22  40  66  96 126 166 198 241 298 364
#     4  10  21  42  65  93 127 166 207 249 304 363
#     4  12  24  38  61  90 121 161 205 257 311 369
#     4   9  22  41  64  92 126 163 205 252 299 358
#     4  11  25  41  57  85 117 156 206 260 313 368
#     4  10  22  42  64  98 132 160 204 246 296 362
#     4  11  23  40  60  83 116 159 205 258 312 364
#
# _framework density 18.799589999999998
#
# number of rings (size 3 to 8) (size 9 to 14) (size 15 to 20)
#    0.000    1.429    2.143    2.571    4.000    3.429 
#    0.000    0.000    0.000    0.000    0.000    0.000 
#    0.000    0.000    0.000    0.000    0.000    0.000 
#
# Total GULP energy -156413.170581 kJ/mol
# GULP energy per Si atom -5586.184664 kJ/mol
# Density = 1.875680 g / cm^3
# Si number density = 18.799590 Si / 1000 Ang^3
#
#
#
# Elastic Constant Matrix: (Units=GPa)
#
#
# Indices 1 2 3 4 5 6 
#
# 1 123.6981 29.5938 47.7390 0.0000 -6.5192 0.0000
# 2 29.5938 75.7227 36.3054 0.0000 0.4692 0.0000
# 3 47.7390 36.3054 132.8226 0.0000 -6.8404 0.0000
# 4 0.0000 0.0000 0.0000 -13.6127 0.0000 -1.6886
# 5 -6.5192 0.4692 -6.8404 0.0000 16.0623 0.0000
# 6 0.0000 0.0000 0.0000 -1.6886 0.0000 93.7630
#
#
#
# Elastic Compliance Matrix: (Units=1/GPa)
#
#
# Indices 1 2 3 4 5 6 
#
# 1 0.009901 -0.002594 -0.002698 0.000000 0.002946 0.000000
# 2 -0.002594 0.015958 -0.003586 0.000000 -0.003046 0.000000
# 3 -0.002698 -0.003586 0.009639 0.000000 0.003115 0.000000
# 4 0.000000 0.000000 0.000000 -0.073297 0.000000 -0.001320
# 5 0.002946 -0.003046 0.003115 0.000000 0.064869 0.000000
# 6 0.000000 0.000000 0.000000 -0.001320 0.000000 0.010641
#
#
# Mechanical properties :
#
#
# Convention : Reuss Voigt Hill
#
# Bulk Modulus (GPa) = 56.36487 62.16885 59.26686
# Shear Modulus (GPa) = 81.45536 33.81619 57.63577
#
# Velocity S-wave (km/s) = 6.58956 4.24580 5.54297
# Velocity P-wave (km/s) = 9.37782 7.56153 8.51822
#
# Compressibility (1/GPa) = 0.01774155
#
# Stress axis : x y z
#
# Youngs Moduli (GPa) = 100.99661 62.66287 103.74260
#
# Poissons Ratio (x) = 0.16257 0.27989
# Poissons Ratio (y) = 0.26202 0.37207
# Poissons Ratio (z) = 0.27248 0.22474
#
# Static dielectric constant tensor:
#      x y z
#    x 1.633750 0.000000 -0.007840 
#    y 0.000000 1.664070 0.000000 
#    z -0.007840 0.000000 1.575070 
# 
# From -- ./inp_files/37429.got.cif
#   From: 2010.05.17/outbox.cif.g08.bks.cpg/sg10_19_cif.got.tgz:37429.got - 2010.06.03 11:33:40.
