data_PCOD9153999
_publ_section_title
;
Structure prediction by ZEFSAII (Michael W. Deem and Ramdas Pophale) SiO2 
 PCOD9153999
Probable space group: P 2/M
;
_chemical_formula_sum "Si O2"
_cell_formula_units_Z 22
_cell_length_a 12.909888
_cell_length_b 7.408192
_cell_length_c 17.742670
_cell_angle_alpha 90.000000
_cell_angle_beta 146.828484
_cell_angle_gamma 90.000000
_cell_volume 928.448533
_symmetry_space_group_name_H-M "P 2/M"
_symmetry_group_IT_number 10
_symmetry_cell_setting 'monoclinic'
loop_
_space_group_symop_operation_xyz
x,y,z
-x,y,-z
-x,-y,-z
x,-y,z
loop_
_atom_site_type_symbol
_atom_site_label
_atom_site_fract_x
_atom_site_fract_y
_atom_site_fract_z
Si Si1 0.360381 0.780842 0.349141
Si Si2 0.438285 0.794732 0.678119
Si Si3 0.920555 0.218408 0.090241
Si Si4 0.018956 0.284362 0.425529
Si Si5 0.708132 0.788136 0.112503
Si Si6 0.650074 0.500000 0.868642
O O1 0.500000 0.718675 0.500000
O O2 0.439399 0.717998 0.317058
O O3 0.142315 0.736432 0.229200
O O4 0.373226 0.000000 0.354537
O O5 0.220472 0.788546 0.520097
O O6 0.483400 0.658476 0.772216
O O7 0.488879 0.000000 0.726946
O O8 0.816706 0.279434 0.104446
O O9 0.905791 0.000000 0.070548
O O10 0.811930 0.338574 0.963656
O O11 0.030226 0.500000 0.431795
O O12 0.000000 0.221171 0.500000
O O13 0.845391 0.230855 0.267255
O O14 0.682593 0.000000 0.081759
O O15 0.500000 0.709536 0.000000
#
# Coordination Sequence:
#
# PCOD9153999 Si02
#       6
#     4   4   4   4   4   2
#     4   9  19  40  69  96 128 172 219 273 334 394
#     4  11  24  43  68  96 131 174 222 273 328 396
#     4  10  23  43  67  96 133 174 220 274 332 393
#     4  11  25  43  67  99 135 173 221 275 333 395
#     4  10  23  42  68  98 130 174 224 271 330 396
#     4  12  26  43  64  98 134 180 216 277 326 406
#
# _framework density 23.695444999999999
#
# number of rings (size 3 to 8) (size 9 to 14) (size 15 to 20)
#    0.000    1.636    0.909    2.182    3.818    6.909 
#    0.000    3.636    0.000    0.000    0.000    0.000 
#    0.000    0.000    0.000    0.000    0.000    0.000 
#
# Total GULP energy -122584.790925 kJ/mol
# GULP energy per Si atom -5572.035951 kJ/mol
# Density = 2.364151 g / cm^3
# Si number density = 23.695445 Si / 1000 Ang^3
#
#
#
# Elastic Constant Matrix: (Units=GPa)
#
#
# Indices 1 2 3 4 5 6 
#
# 1 133.3446 4.8821 54.2296 0.0000 26.0281 0.0000
# 2 4.8821 125.3016 2.7851 0.0000 13.8719 0.0000
# 3 54.2296 2.7851 148.1566 0.0000 37.5410 0.0000
# 4 0.0000 0.0000 0.0000 68.1921 0.0000 19.9313
# 5 26.0281 13.8719 37.5410 0.0000 42.6755 0.0000
# 6 0.0000 0.0000 0.0000 19.9313 0.0000 -1.6805
#
#
#
# Elastic Compliance Matrix: (Units=1/GPa)
#
#
# Indices 1 2 3 4 5 6 
#
# 1 0.009180 0.000078 -0.002492 0.000000 -0.003432 0.000000
# 2 0.000078 0.008332 0.000660 0.000000 -0.003337 0.000000
# 3 -0.002492 0.000660 0.009418 0.000000 -0.006980 0.000000
# 4 0.000000 0.000000 0.000000 0.003283 0.000000 0.038939
# 5 -0.003432 -0.003337 -0.006980 0.000000 0.032750 0.000000
# 6 0.000000 0.000000 0.000000 0.038939 0.000000 -0.133225
#
#
# Mechanical properties :
#
#
# Convention : Reuss Voigt Hill
#
# Bulk Modulus (GPa) = 42.69391 58.95516 50.82453
# Shear Modulus (GPa) = -84.82299 44.83115 -19.99592
#
# Velocity S-wave (km/s) = -5.98956 4.35440 -2.90810
# Velocity P-wave (km/s) = 5.45677 7.08629 3.19681
#
# Compressibility (1/GPa) = 0.02342255
#
# Stress axis : x y z
#
# Youngs Moduli (GPa) = 108.93410 120.01263 106.18122
#
# Poissons Ratio (x) = -0.00932 0.26460
# Poissons Ratio (y) = -0.00846 -0.07013
# Poissons Ratio (z) = 0.27146 -0.07926
#
# Static dielectric constant tensor:
#      x y z
#    x 1.970790 0.000000 -0.050410 
#    y 0.000000 1.958280 0.000000 
#    z -0.050410 0.000000 1.962970 
# 
# From -- ./inp_files/77866.got.cif
#   From: 2010.05.17/outbox.cif.g08.bks.cpg/sg10_39_cif.got.tgz:77866.got - 2010.06.03 11:33:40.
