data_PCOD9153557
_publ_section_title
;
Structure prediction by ZEFSAII (Michael W. Deem and Ramdas Pophale) SiO2 
 PCOD9153557
Probable space group: P 2/M
;
_chemical_formula_sum "Si O2"
_cell_formula_units_Z 26
_cell_length_a 5.450433
_cell_length_b 10.869409
_cell_length_c 21.725667
_cell_angle_alpha 90.000000
_cell_angle_beta 73.831409
_cell_angle_gamma 90.000000
_cell_volume 1236.184304
_symmetry_space_group_name_H-M "P 2/M"
_symmetry_group_IT_number 10
_symmetry_cell_setting 'monoclinic'
loop_
_space_group_symop_operation_xyz
x,y,z
-x,y,-z
-x,-y,-z
x,-y,z
loop_
_atom_site_type_symbol
_atom_site_label
_atom_site_fract_x
_atom_site_fract_y
_atom_site_fract_z
Si Si1 0.372404 0.638871 0.691542
Si Si2 0.746783 0.639109 0.445979
Si Si3 0.595090 0.853638 0.863028
Si Si4 0.817063 0.206094 0.622315
Si Si5 0.697339 0.000000 0.542661
Si Si6 0.020031 0.863632 0.734503
Si Si7 0.973271 0.850212 0.073652
O O1 0.345510 0.500000 0.718082
O O2 0.303203 0.634461 0.623743
O O3 0.660368 0.688218 0.668581
O O4 0.205624 0.748224 0.732687
O O5 0.500000 0.681969 0.500000
O O6 0.799699 0.500000 0.462822
O O7 0.982927 0.727788 0.435244
O O8 0.305233 0.806205 0.883615
O O9 0.756186 0.841790 0.789309
O O10 0.786225 0.805443 0.902894
O O11 0.568324 0.000000 0.876299
O O12 0.654329 0.115815 0.591248
O O13 0.961143 0.134069 0.666147
O O14 0.500000 0.000000 0.500000
O O15 0.000000 0.000000 0.500000
O O16 0.118602 0.000000 0.747070
O O17 0.978029 0.000000 0.078139
O O18 0.000000 0.819626 0.000000
#
# Coordination Sequence:
#
# PCOD9153557 Si02
#       7
#     4   4   4   4   2   4   4
#     4  10  23  39  61  87 119 157 202 256 315 377
#     4   9  20  39  63  89 114 148 196 251 314 382
#     4   9  18  30  50  82 117 161 206 246 297 361
#     4  11  24  40  63  85 119 158 201 257 318 374
#     4  12  32  46  64  92 124 160 205 255 317 387
#     4  10  22  39  61  88 121 162 204 257 308 375
#     4   9  16  28  47  77 121 166 203 243 296 357
#
# _framework density 21.032461999999999
#
# number of rings (size 3 to 8) (size 9 to 14) (size 15 to 20)
#    0.000    2.154    0.769    0.923    9.692    2.462 
#    0.000    2.308    0.000    1.385    0.000    0.000 
#    0.000    3.692    0.000    0.000    0.000    0.000 
#
# Total GULP energy -145202.601564 kJ/mol
# GULP energy per Si atom -5584.715445 kJ/mol
# Density = 2.098459 g / cm^3
# Si number density = 21.032462 Si / 1000 Ang^3
#
#
#
# Elastic Constant Matrix: (Units=GPa)
#
#
# Indices 1 2 3 4 5 6 
#
# 1 75.4558 29.1924 17.8683 0.0000 -10.8053 0.0000
# 2 29.1924 115.8885 18.3721 0.0000 -15.9018 0.0000
# 3 17.8683 18.3721 53.7397 0.0000 -7.4873 0.0000
# 4 0.0000 0.0000 0.0000 5.9639 0.0000 -11.6873
# 5 -10.8053 -15.9018 -7.4873 0.0000 36.8730 0.0000
# 6 0.0000 0.0000 0.0000 -11.6873 0.0000 41.2254
#
#
#
# Elastic Compliance Matrix: (Units=1/GPa)
#
#
# Indices 1 2 3 4 5 6 
#
# 1 0.015682 -0.002995 -0.003839 0.000000 0.002524 0.000000
# 2 -0.002995 0.010129 -0.002038 0.000000 0.003076 0.000000
# 3 -0.003839 -0.002038 0.020893 0.000000 0.002239 0.000000
# 4 0.000000 0.000000 0.000000 0.377281 0.000000 0.106958
# 5 0.002524 0.003076 0.002239 0.000000 0.029641 0.000000
# 6 0.000000 0.000000 0.000000 0.106958 0.000000 0.054579
#
#
# Mechanical properties :
#
#
# Convention : Reuss Voigt Hill
#
# Bulk Modulus (GPa) = 34.53044 41.77215 38.15130
# Shear Modulus (GPa) = 9.33527 28.78920 19.06224
#
# Velocity S-wave (km/s) = 2.10906 3.70374 3.01379
# Velocity P-wave (km/s) = 4.73119 6.18014 5.50356
#
# Compressibility (1/GPa) = 0.02895995
#
# Stress axis : x y z
#
# Youngs Moduli (GPa) = 63.76686 98.72848 47.86246
#
# Poissons Ratio (x) = 0.29573 0.18372
# Poissons Ratio (y) = 0.19101 0.09755
# Poissons Ratio (z) = 0.24477 0.20122
#
# Static dielectric constant tensor:
#      x y z
#    x 1.831570 0.000000 0.016470 
#    y 0.000000 1.768860 0.000000 
#    z 0.016470 0.000000 1.755930 
# 
# From -- ./inp_files/81065.got.cif
#   From: 2010.05.17/outbox.cif.g08.bks.cpg/sg10_41_cif.got.tgz:81065.got - 2010.06.03 11:33:40.
