data_PCOD9153860
_publ_section_title
;
Structure prediction by ZEFSAII (Michael W. Deem and Ramdas Pophale) SiO2 
 PCOD9153860
Probable space group: P 2/M
;
_chemical_formula_sum "Si O2"
_cell_formula_units_Z 21
_cell_length_a 11.329911
_cell_length_b 12.249487
_cell_length_c 13.664653
_cell_angle_alpha 90.000000
_cell_angle_beta 31.685584
_cell_angle_gamma 90.000000
_cell_volume 996.128402
_symmetry_space_group_name_H-M "P 2/M"
_symmetry_group_IT_number 10
_symmetry_cell_setting 'monoclinic'
loop_
_space_group_symop_operation_xyz
x,y,z
-x,y,-z
-x,-y,-z
x,-y,z
loop_
_atom_site_type_symbol
_atom_site_label
_atom_site_fract_x
_atom_site_fract_y
_atom_site_fract_z
Si Si1 0.836743 0.810098 0.338668
Si Si2 0.314211 0.870970 0.912647
Si Si3 0.241992 0.253777 0.381164
Si Si4 0.228591 0.500000 0.396555
Si Si5 0.448238 0.500000 0.422507
Si Si6 0.500000 0.000000 0.500000
Si Si7 0.240050 0.694436 0.801012
O O1 0.807404 0.769998 0.469422
O O2 0.664859 0.905980 0.432764
O O3 0.772519 0.717284 0.305114
O O4 0.092794 0.846013 0.133499
O O5 0.546955 0.824777 0.792501
O O6 0.272423 0.805863 0.840015
O O7 0.328953 0.000000 0.882934
O O8 0.319111 0.379101 0.306223
O O9 0.000000 0.234774 0.500000
O O10 0.219066 0.500000 0.522567
O O11 0.000000 0.500000 0.500000
O O12 0.500000 0.500000 0.500000
O O13 0.576944 0.608142 0.297894
O O14 0.000000 0.648347 0.000000
#
# Coordination Sequence:
#
# PCOD9153860 Si02
#       7
#     4   4   4   2   2   1   4
#     4  11  25  42  65 102 135 176 221 277 339 409
#     4  11  24  43  65  99 136 176 223 277 336 403
#     4  11  25  46  70  96 132 182 230 280 339 402
#     4  10  22  43  68  95 132 173 228 286 339 408
#     4  12  21  37  64  97 130 168 221 286 342 404
#     4  12  24  40  68  92 138 176 216 268 346 402
#     4  10  23  38  62  95 132 170 214 277 343 401
#
# _framework density 21.081619
#
# number of rings (size 3 to 8) (size 9 to 14) (size 15 to 20)
#    0.000    1.143    2.857    2.571    6.667    2.286 
#    0.000    2.857    0.000    3.429    0.000    0.000 
#    0.000    0.000    0.000    0.000    0.000    0.000 
#
# Total GULP energy -116906.897175 kJ/mol
# GULP energy per Si atom -5566.995104 kJ/mol
# Density = 2.103364 g / cm^3
# Si number density = 21.081619 Si / 1000 Ang^3
#
#
#
# Elastic Constant Matrix: (Units=GPa)
#
#
# Indices 1 2 3 4 5 6 
#
# 1 130.2175 39.7178 48.4832 0.0000 -31.9978 0.0000
# 2 39.7178 138.3848 47.8986 0.0000 -9.6927 0.0000
# 3 48.4832 47.8986 113.4655 0.0000 -22.1010 0.0000
# 4 0.0000 0.0000 0.0000 13.0957 0.0000 -15.7438
# 5 -31.9978 -9.6927 -22.1010 0.0000 33.2659 0.0000
# 6 0.0000 0.0000 0.0000 -15.7438 0.0000 32.4797
#
#
#
# Elastic Compliance Matrix: (Units=1/GPa)
#
#
# Indices 1 2 3 4 5 6 
#
# 1 0.011250 -0.001806 -0.002343 0.000000 0.008738 0.000000
# 2 -0.001806 0.008753 -0.003176 0.000000 -0.001297 0.000000
# 3 -0.002343 -0.003176 0.012102 0.000000 0.004862 0.000000
# 4 0.000000 0.000000 0.000000 0.183006 0.000000 0.088708
# 5 0.008738 -0.001297 0.004862 0.000000 0.041318 0.000000
# 6 0.000000 0.000000 0.000000 0.088708 0.000000 0.073788
#
#
# Mechanical properties :
#
#
# Convention : Reuss Voigt Hill
#
# Bulk Modulus (GPa) = 57.28754 72.69633 64.99194
# Shear Modulus (GPa) = 14.25786 32.16613 23.21200
#
# Velocity S-wave (km/s) = 2.60343 3.91037 3.32181
# Velocity P-wave (km/s) = 6.02248 7.41257 6.75339
#
# Compressibility (1/GPa) = 0.01745580
#
# Stress axis : x y z
#
# Youngs Moduli (GPa) = 88.89122 114.24664 82.63213
#
# Poissons Ratio (x) = 0.20632 0.19357
# Poissons Ratio (y) = 0.16053 0.26243
# Poissons Ratio (z) = 0.20823 0.36284
#
# Static dielectric constant tensor:
#      x y z
#    x 3.562620 0.000000 -0.081010 
#    y 0.000000 1.782250 0.000000 
#    z -0.081010 0.000000 1.812760 
# 
# From -- ./inp_files/64622.got.cif
#   From: 2010.05.17/outbox.cif.g08.bks.cpg/sg10_33_cif.got.tgz:64622.got - 2010.06.03 11:33:40.
