data_PCOD9153793
_publ_section_title
;
Structure prediction by ZEFSAII (Michael W. Deem and Ramdas Pophale) SiO2 
 PCOD9153793
Probable space group: P 2/M
;
_chemical_formula_sum "Si O2"
_cell_formula_units_Z 26
_cell_length_a 23.928776
_cell_length_b 8.790675
_cell_length_c 9.806959
_cell_angle_alpha 90.000000
_cell_angle_beta 138.672383
_cell_angle_gamma 90.000000
_cell_volume 1362.260814
_symmetry_space_group_name_H-M "P 2/M"
_symmetry_group_IT_number 10
_symmetry_cell_setting 'monoclinic'
loop_
_space_group_symop_operation_xyz
x,y,z
-x,y,-z
-x,-y,-z
x,-y,z
loop_
_atom_site_type_symbol
_atom_site_label
_atom_site_fract_x
_atom_site_fract_y
_atom_site_fract_z
Si Si1 0.601518 0.000000 0.950626
Si Si2 0.594624 0.244298 0.178124
Si Si3 0.768287 0.336729 0.592985
Si Si4 0.074819 0.178789 0.234379
Si Si5 0.203890 0.321923 0.045400
Si Si6 0.994595 0.321906 0.338765
Si Si7 0.718461 0.000000 0.900816
Si Si8 0.411801 0.000000 0.591244
O O1 0.669700 0.000000 0.955874
O O2 0.507891 0.000000 0.713850
O O3 0.605382 0.857923 0.062210
O O4 0.679885 0.337268 0.352709
O O5 0.595845 0.139434 0.316435
O O6 0.500000 0.313611 0.000000
O O7 0.812006 0.500000 0.654222
O O8 0.833325 0.213569 0.656929
O O9 0.754163 0.317421 0.728266
O O10 0.058670 0.247031 0.352388
O O11 0.063160 0.000000 0.222301
O O12 0.000000 0.241379 0.000000
O O13 0.217555 0.500000 0.016916
O O14 0.233078 0.165367 0.022944
O O15 0.103056 0.307803 0.884202
O O16 0.015619 0.500000 0.384128
O O17 0.000000 0.255920 0.500000
O O18 0.654194 0.000000 0.652978
#
# Coordination Sequence:
#
# PCOD9153793 Si02
#       8
#     2   4   4   4   4   4   2   2
#     4   9  21  35  57  94 119 155 200 247 307 358
#     4   9  19  38  60  88 124 155 198 255 299 361
#     4  11  22  37  62  89 118 159 204 253 309 358
#     4  11  24  37  60  88 117 153 203 254 295 357
#     4  10  23  39  61  91 120 157 209 254 299 364
#     4  10  22  42  61  82 120 160 194 246 309 359
#     4  12  21  36  67  88 121 163 202 248 304 371
#     4   9  17  35  61  85 118 156 203 245 295 368
#
# _framework density 19.085919000000001
#
# number of rings (size 3 to 8) (size 9 to 14) (size 15 to 20)
#    0.000    1.846    3.077    1.615    4.308    2.462 
#    0.000    2.308    0.000    2.769    0.000    0.000 
#    0.000    0.000    0.000    0.000    0.000    0.000 
#
# Total GULP energy -144788.295067 kJ/mol
# GULP energy per Si atom -5568.780579 kJ/mol
# Density = 1.904248 g / cm^3
# Si number density = 19.085919 Si / 1000 Ang^3
#
#
#
# Elastic Constant Matrix: (Units=GPa)
#
#
# Indices 1 2 3 4 5 6 
#
# 1 90.0288 41.5587 2.4873 0.0000 -7.3820 0.0000
# 2 41.5587 82.9382 4.1499 0.0000 0.7169 0.0000
# 3 2.4873 4.1499 58.4946 0.0000 6.9390 0.0000
# 4 0.0000 0.0000 0.0000 24.5203 0.0000 -3.4372
# 5 -7.3820 0.7169 6.9390 0.0000 26.4748 0.0000
# 6 0.0000 0.0000 0.0000 -3.4372 0.0000 -8.9734
#
#
#
# Elastic Compliance Matrix: (Units=1/GPa)
#
#
# Indices 1 2 3 4 5 6 
#
# 1 0.014962 -0.007504 -0.000643 0.000000 0.004544 0.000000
# 2 -0.007504 0.015864 -0.000523 0.000000 -0.002385 0.000000
# 3 -0.000643 -0.000523 0.017731 0.000000 -0.004812 0.000000
# 4 0.000000 0.000000 0.000000 0.038704 0.000000 -0.014825
# 5 0.004544 -0.002385 -0.004812 0.000000 0.040365 0.000000
# 6 0.000000 0.000000 0.000000 -0.014825 0.000000 -0.105761
#
#
# Mechanical properties :
#
#
# Convention : Reuss Voigt Hill
#
# Bulk Modulus (GPa) = 32.03487 36.42816 34.23151
# Shear Modulus (GPa) = 100.78417 20.62206 60.70311
#
# Velocity S-wave (km/s) = 7.27462 3.29064 5.64573
# Velocity P-wave (km/s) = 9.34779 5.79358 7.77646
#
# Compressibility (1/GPa) = 0.03121599
#
# Stress axis : x y z
#
# Youngs Moduli (GPa) = 66.83619 63.03498 56.39862
#
# Poissons Ratio (x) = 0.47303 0.03625
# Poissons Ratio (y) = 0.50156 0.02952
# Poissons Ratio (z) = 0.04296 0.03300
#
# Static dielectric constant tensor:
#      x y z
#    x 1.631590 0.000000 0.005270 
#    y 0.000000 1.694750 0.000000 
#    z 0.005270 0.000000 1.700840 
# 
# From -- ./inp_files/34337.got.cif
#   From: 2010.05.17/outbox.cif.g08.bks.cpg/sg10_18_cif.got.tgz:34337.got - 2010.06.03 11:33:40.
