data_PCOD9153431
_publ_section_title
;
Structure prediction by ZEFSAII (Michael W. Deem and Ramdas Pophale) SiO2 
 PCOD9153431
Probable space group: P 2/M
;
_chemical_formula_sum "Si O2"
_cell_formula_units_Z 16
_cell_length_a 19.830040
_cell_length_b 8.076851
_cell_length_c 5.226922
_cell_angle_alpha 90.000000
_cell_angle_beta 58.192822
_cell_angle_gamma 90.000000
_cell_volume 711.446155
_symmetry_space_group_name_H-M "P 2/M"
_symmetry_group_IT_number 10
_symmetry_cell_setting 'monoclinic'
loop_
_space_group_symop_operation_xyz
x,y,z
-x,y,-z
-x,-y,-z
x,-y,z
loop_
_atom_site_type_symbol
_atom_site_label
_atom_site_fract_x
_atom_site_fract_y
_atom_site_fract_z
Si Si1 0.094174 0.178737 0.763886
Si Si2 0.235777 0.803730 0.823689
Si Si3 0.326605 0.690529 0.132401
Si Si4 0.554439 0.000000 0.141352
Si Si5 0.944934 0.500000 0.365714
O O1 0.143652 0.210159 0.922674
O O2 0.104746 0.333510 0.559192
O O3 0.121659 0.000000 0.605179
O O4 0.000000 0.166358 0.000000
O O5 0.266827 0.716700 0.014725
O O6 0.253226 0.000000 0.809639
O O7 0.282354 0.729621 0.486941
O O8 0.355292 0.500000 0.075213
O O9 0.392486 0.833486 0.968005
O O10 0.500000 0.000000 0.500000
O O11 0.500000 0.000000 0.000000
O O12 0.000000 0.500000 0.500000
O O13 0.000000 0.500000 0.000000
#
# Coordination Sequence:
#
# PCOD9153431 Si02
#       5
#     4   4   4   2   2
#     4   9  21  40  63  93 130 180 236 290 338 391
#     4  11  22  44  70  97 142 189 234 287 347 401
#     4  12  26  45  72 107 141 182 227 276 341 415
#     4  12  26  48  78 106 143 176 217 276 340 412
#     4  10  22  38  56  84 122 162 216 282 338 386
#
# _framework density 22.489407
#
# number of rings (size 3 to 8) (size 9 to 14) (size 15 to 20)
#    0.000    1.250    2.500    2.250    3.500    5.500 
#    0.000    7.500    0.000    0.000    0.000    0.000 
#    0.000    0.000    0.000    0.000    0.000    0.000 
#
# Total GULP energy -89505.356745 kJ/mol
# GULP energy per Si atom -5594.084797 kJ/mol
# Density = 2.243822 g / cm^3
# Si number density = 22.489407 Si / 1000 Ang^3
#
#
#
# Elastic Constant Matrix: (Units=GPa)
#
#
# Indices 1 2 3 4 5 6 
#
# 1 150.4825 66.3151 60.7987 0.0000 9.6779 0.0000
# 2 66.3151 211.1304 31.4731 0.0000 5.1937 0.0000
# 3 60.7987 31.4731 132.2154 0.0000 8.8328 0.0000
# 4 0.0000 0.0000 0.0000 7.7425 0.0000 3.5379
# 5 9.6779 5.1937 8.8328 0.0000 44.2335 0.0000
# 6 0.0000 0.0000 0.0000 3.5379 0.0000 13.1538
#
#
#
# Elastic Compliance Matrix: (Units=1/GPa)
#
#
# Indices 1 2 3 4 5 6 
#
# 1 0.009192 -0.002325 -0.003605 0.000000 -0.001018 0.000000
# 2 -0.002325 0.005504 -0.000235 0.000000 -0.000091 0.000000
# 3 -0.003605 -0.000235 0.009348 0.000000 -0.001050 0.000000
# 4 0.000000 0.000000 0.000000 0.147254 0.000000 -0.039606
# 5 -0.001018 -0.000091 -0.001050 0.000000 0.023050 0.000000
# 6 0.000000 0.000000 0.000000 -0.039606 0.000000 0.086676
#
#
# Mechanical properties :
#
#
# Convention : Reuss Voigt Hill
#
# Bulk Modulus (GPa) = 85.37674 90.11134 87.74404
# Shear Modulus (GPa) = 16.82037 35.37539 26.09788
#
# Velocity S-wave (km/s) = 2.73779 3.97038 3.41024
# Velocity P-wave (km/s) = 6.93105 7.82138 7.38963
#
# Compressibility (1/GPa) = 0.01171279
#
# Stress axis : x y z
#
# Youngs Moduli (GPa) = 108.79144 181.69125 106.98042
#
# Poissons Ratio (x) = 0.42236 0.38572
# Poissons Ratio (y) = 0.25290 0.02515
# Poissons Ratio (z) = 0.39224 0.04272
#
# Static dielectric constant tensor:
#      x y z
#    x 1.807700 0.000000 -0.023010 
#    y 0.000000 1.850320 0.000000 
#    z -0.023010 0.000000 1.765980 
# 
# From -- ./inp_files/10499.got.cif
#   From: 2010.05.17/outbox.cif.g08.bks.cpg/sg10_6_cif.got.tgz:10499.got - 2010.06.03 11:33:40.
