data_PCOD9153729
_publ_section_title
;
Structure prediction by ZEFSAII (Michael W. Deem and Ramdas Pophale) SiO2 
 PCOD9153729
Probable space group: P 2/M
;
_chemical_formula_sum "Si O2"
_cell_formula_units_Z 28
_cell_length_a 19.391593
_cell_length_b 8.842249
_cell_length_c 14.350830
_cell_angle_alpha 90.000000
_cell_angle_beta 150.632467
_cell_angle_gamma 90.000000
_cell_volume 1206.736814
_symmetry_space_group_name_H-M "P 2/M"
_symmetry_group_IT_number 10
_symmetry_cell_setting 'monoclinic'
loop_
_space_group_symop_operation_xyz
x,y,z
-x,y,-z
-x,-y,-z
x,-y,z
loop_
_atom_site_type_symbol
_atom_site_label
_atom_site_fract_x
_atom_site_fract_y
_atom_site_fract_z
Si Si1 0.336315 0.680797 0.296646
Si Si2 0.703549 0.662698 0.239636
Si Si3 0.594616 0.325954 0.319119
Si Si4 0.091224 0.828416 0.918479
Si Si5 0.687816 0.176951 0.043980
Si Si6 0.822877 0.180712 0.713905
Si Si7 0.988792 0.766643 0.381507
O O1 0.500000 0.731747 0.500000
O O2 0.338048 0.500000 0.296803
O O3 0.246563 0.741398 0.278614
O O4 0.238765 0.740253 0.096880
O O5 0.666983 0.500000 0.152330
O O6 0.626609 0.671063 0.247036
O O7 0.665127 0.801046 0.127912
O O8 0.871747 0.666894 0.454766
O O9 0.595721 0.500000 0.354688
O O10 0.716274 0.227475 0.507394
O O11 0.447592 0.244210 0.164508
O O12 0.976304 0.768952 0.857553
O O13 0.015947 0.834604 0.728462
O O14 0.125253 0.000000 0.984627
O O15 0.825661 0.280980 0.191958
O O16 0.715431 0.000000 0.053924
O O17 0.828827 0.000000 0.733182
O O18 0.000000 0.840412 0.500000
#
# Coordination Sequence:
#
# PCOD9153729 Si02
#       7
#     4   4   4   4   4   4   4
#     4  11  27  49  73 105 141 180 225 282 348 414
#     4  10  22  41  63  90 127 178 232 284 343 406
#     4  11  23  41  64  93 132 177 226 281 343 410
#     4  11  24  44  72 104 138 182 232 285 345 408
#     4  11  24  38  59  93 132 179 231 285 345 401
#     4  11  24  44  72 104 136 176 226 283 345 411
#     4  10  23  43  67  99 141 184 231 285 337 406
#
# _framework density 23.203073
#
# number of rings (size 3 to 8) (size 9 to 14) (size 15 to 20)
#    0.000    1.286    1.429    3.000    2.000   15.714 
#    0.000    0.000    0.000    0.000    0.000    0.000 
#    0.000    0.000    0.000    0.000    0.000    0.000 
#
# Total GULP energy -156119.922925 kJ/mol
# GULP energy per Si atom -5575.711533 kJ/mol
# Density = 2.315026 g / cm^3
# Si number density = 23.203073 Si / 1000 Ang^3
#
#
#
# Elastic Constant Matrix: (Units=GPa)
#
#
# Indices 1 2 3 4 5 6 
#
# 1 109.2024 18.3642 46.5591 0.0000 13.6440 0.0000
# 2 18.3642 58.4602 37.5028 0.0000 13.6263 0.0000
# 3 46.5591 37.5028 154.1320 0.0000 40.9659 0.0000
# 4 0.0000 0.0000 0.0000 33.1051 0.0000 30.2907
# 5 13.6440 13.6263 40.9659 0.0000 45.9281 0.0000
# 6 0.0000 0.0000 0.0000 30.2907 0.0000 12.2397
#
#
#
# Elastic Compliance Matrix: (Units=1/GPa)
#
#
# Indices 1 2 3 4 5 6 
#
# 1 0.010625 -0.001498 -0.002784 0.000000 -0.000228 0.000000
# 2 -0.001498 0.020639 -0.004011 0.000000 -0.002101 0.000000
# 3 -0.002784 -0.004011 0.010183 0.000000 -0.007066 0.000000
# 4 0.000000 0.000000 0.000000 -0.023890 0.000000 0.059123
# 5 -0.000228 -0.002101 -0.007066 0.000000 0.028766 0.000000
# 6 0.000000 0.000000 0.000000 0.059123 0.000000 -0.064617
#
#
# Mechanical properties :
#
#
# Convention : Reuss Voigt Hill
#
# Bulk Modulus (GPa) = 40.22536 58.51632 49.37084
# Shear Modulus (GPa) = 759.94388 32.87914 396.41151
#
# Velocity S-wave (km/s) = 18.11711 3.76841 13.08493
# Velocity P-wave (km/s) = 21.33104 6.64895 15.79908
#
# Compressibility (1/GPa) = 0.02485994
#
# Stress axis : x y z
#
# Youngs Moduli (GPa) = 94.11869 48.45203 98.20485
#
# Poissons Ratio (x) = 0.07259 0.27342
# Poissons Ratio (y) = 0.14101 0.39389
# Poissons Ratio (z) = 0.26205 0.19433
#
# Static dielectric constant tensor:
#      x y z
#    x 1.965160 0.000000 -0.063760 
#    y 0.000000 1.823760 0.000000 
#    z -0.063760 0.000000 1.921350 
# 
# From -- ./inp_files/70299.got.cif
#   From: 2010.05.17/outbox.cif.g08.bks.cpg/sg10_36_cif.got.tgz:70299.got - 2010.06.03 11:33:40.
