data_PCOD9153194
_publ_section_title
;
Structure prediction by ZEFSAII (Michael W. Deem and Ramdas Pophale) SiO2 
 PCOD9153194
Probable space group: P 2/M
;
_chemical_formula_sum "Si O2"
_cell_formula_units_Z 22
_cell_length_a 5.359416
_cell_length_b 11.239766
_cell_length_c 16.383268
_cell_angle_alpha 90.000000
_cell_angle_beta 94.269056
_cell_angle_gamma 90.000000
_cell_volume 984.166644
_symmetry_space_group_name_H-M "P 2/M"
_symmetry_group_IT_number 10
_symmetry_cell_setting 'monoclinic'
loop_
_space_group_symop_operation_xyz
x,y,z
-x,y,-z
-x,-y,-z
x,-y,z
loop_
_atom_site_type_symbol
_atom_site_label
_atom_site_fract_x
_atom_site_fract_y
_atom_site_fract_z
Si Si1 0.902416 0.139204 0.231968
Si Si2 0.746179 0.000000 0.946705
Si Si3 0.247126 0.629816 0.217364
Si Si4 0.412609 0.636907 0.393665
Si Si5 0.905014 0.783367 0.414516
Si Si6 0.524998 0.227476 0.903369
O O1 0.842557 0.146816 0.328943
O O2 0.693481 0.170882 0.158187
O O3 0.080540 0.253967 0.226878
O O4 0.975827 0.000000 0.221444
O O5 0.730533 0.876630 0.900270
O O6 0.500000 0.000000 0.000000
O O7 0.000000 0.000000 0.000000
O O8 0.120966 0.500000 0.217300
O O9 0.442735 0.633756 0.296053
O O10 0.386598 0.652187 0.136203
O O11 0.402796 0.500000 0.419390
O O12 0.655052 0.708293 0.429439
O O13 0.142762 0.697402 0.401822
O O14 0.000000 0.848545 0.500000
O O15 0.500000 0.244821 0.000000
#
# Coordination Sequence:
#
# PCOD9153194 Si02
#       6
#     4   2   4   4   4   4
#     4  11  25  45  69 100 136 183 235 286 352 420
#     4  10  24  40  66 102 135 169 229 295 342 398
#     4  10  24  43  67  98 141 187 230 290 352 422
#     4  10  21  40  66  98 138 185 235 287 346 416
#     4  11  23  41  65 100 139 180 231 288 350 417
#     4  11  24  40  69 101 134 181 233 294 349 413
#
# _framework density 22.353937999999999
#
# number of rings (size 3 to 8) (size 9 to 14) (size 15 to 20)
#    0.000    1.455    2.727    1.091    6.364    4.364 
#    0.000    0.909    0.000    3.273    0.000    0.000 
#    0.000    0.000    0.000    0.000    0.000    0.000 
#
# Total GULP energy -122505.524006 kJ/mol
# GULP energy per Si atom -5568.432909 kJ/mol
# Density = 2.230306 g / cm^3
# Si number density = 22.353938 Si / 1000 Ang^3
#
#
#
# Elastic Constant Matrix: (Units=GPa)
#
#
# Indices 1 2 3 4 5 6 
#
# 1 90.6393 40.9546 36.5491 0.0000 14.1275 0.0000
# 2 40.9546 134.5139 42.3455 0.0000 3.9004 0.0000
# 3 36.5491 42.3455 188.1066 0.0000 12.4547 0.0000
# 4 0.0000 0.0000 0.0000 7.6089 0.0000 -1.1126
# 5 14.1275 3.9004 12.4547 0.0000 43.3693 0.0000
# 6 0.0000 0.0000 0.0000 -1.1126 0.0000 18.9163
#
#
#
# Elastic Compliance Matrix: (Units=1/GPa)
#
#
# Indices 1 2 3 4 5 6 
#
# 1 0.013908 -0.003609 -0.001643 0.000000 -0.003734 0.000000
# 2 -0.003609 0.008940 -0.001362 0.000000 0.000763 0.000000
# 3 -0.001643 -0.001362 0.006013 0.000000 -0.001069 0.000000
# 4 0.000000 0.000000 0.000000 0.132566 0.000000 0.007797
# 5 -0.003734 0.000763 -0.001069 0.000000 0.024513 0.000000
# 6 0.000000 0.000000 0.000000 0.007797 0.000000 0.053323
#
#
# Mechanical properties :
#
#
# Convention : Reuss Voigt Hill
#
# Bulk Modulus (GPa) = 63.96588 72.55089 68.25839
# Shear Modulus (GPa) = 19.40245 33.53960 26.47103
#
# Velocity S-wave (km/s) = 2.94932 3.87769 3.44492
# Velocity P-wave (km/s) = 6.34627 7.25083 6.81358
#
# Compressibility (1/GPa) = 0.01563333
#
# Stress axis : x y z
#
# Youngs Moduli (GPa) = 71.90183 111.86244 166.31695
#
# Poissons Ratio (x) = 0.40372 0.27319
# Poissons Ratio (y) = 0.25950 0.22647
# Poissons Ratio (z) = 0.11811 0.15232
#
# Static dielectric constant tensor:
#      x y z
#    x 1.860380 0.000000 -0.092930 
#    y 0.000000 1.811370 0.000000 
#    z -0.092930 0.000000 2.006100 
# 
# From -- ./inp_files/73218.got.cif
#   From: 2010.05.17/outbox.cif.g08.bks.cpg/sg10_37_cif.got.tgz:73218.got - 2010.06.03 11:33:40.
