data_PCOD9153900
_publ_section_title
;
Structure prediction by ZEFSAII (Michael W. Deem and Ramdas Pophale) SiO2 
 PCOD9153900
Probable space group: P 2/M
;
_chemical_formula_sum "Si O2"
_cell_formula_units_Z 26
_cell_length_a 9.001413
_cell_length_b 24.751372
_cell_length_c 10.823012
_cell_angle_alpha 90.000000
_cell_angle_beta 32.509307
_cell_angle_gamma 90.000000
_cell_volume 1295.941342
_symmetry_space_group_name_H-M "P 2/M"
_symmetry_group_IT_number 10
_symmetry_cell_setting 'monoclinic'
loop_
_space_group_symop_operation_xyz
x,y,z
-x,y,-z
-x,-y,-z
x,-y,z
loop_
_atom_site_type_symbol
_atom_site_label
_atom_site_fract_x
_atom_site_fract_y
_atom_site_fract_z
Si Si1 0.072893 0.654629 0.680227
Si Si2 0.775033 0.138291 0.373147
Si Si3 0.000000 0.617086 0.000000
Si Si4 0.500000 0.384627 0.000000
Si Si5 0.829291 0.935295 0.748897
Si Si6 0.564259 0.245409 0.601657
Si Si7 0.561572 0.437030 0.694932
Si Si8 0.000000 0.786300 0.000000
O O1 0.233087 0.705927 0.512512
O O2 0.220861 0.600464 0.528312
O O3 0.085557 0.651444 0.819859
O O4 0.759332 0.651683 0.856169
O O5 0.500000 0.114713 0.500000
O O6 0.681258 0.184795 0.537177
O O7 0.985070 0.095743 0.281048
O O8 0.914419 0.174199 0.169684
O O9 0.740407 0.580742 0.141615
O O10 0.573305 0.421349 0.830868
O O11 0.000000 0.924362 0.500000
O O12 0.838529 0.000000 0.758974
O O13 0.500000 0.920249 0.000000
O O14 0.500000 0.249983 0.500000
O O15 0.257997 0.247536 0.870851
O O16 0.610831 0.500000 0.640658
#
# Coordination Sequence:
#
# PCOD9153900 Si02
#       8
#     4   4   2   2   4   4   4   2
#     4  11  23  40  61  85 117 154 195 243 299 363
#     4   9  20  37  63  91 124 167 214 261 312 378
#     4  10  23  39  61  88 115 146 189 247 302 368
#     4  10  25  42  56  80 118 156 191 238 298 362
#     4  10  23  42  64  93 135 180 222 269 327 385
#     4   9  19  36  60  90 118 155 197 252 308 365
#     4  11  23  40  61  85 113 149 193 242 298 364
#     4   8  18  35  62  94 120 152 202 261 310 362
#
# _framework density 20.062636999999999
#
# number of rings (size 3 to 8) (size 9 to 14) (size 15 to 20)
#    0.000    2.462    0.000    2.308    4.308   13.231 
#    1.385    1.923    0.000    0.000    0.000    0.000 
#    0.000    0.000    0.000    0.000    0.000    0.000 
#
# Total GULP energy -145041.038899 kJ/mol
# GULP energy per Si atom -5578.501496 kJ/mol
# Density = 2.001697 g / cm^3
# Si number density = 20.062637 Si / 1000 Ang^3
#
#
#
# Elastic Constant Matrix: (Units=GPa)
#
#
# Indices 1 2 3 4 5 6 
#
# 1 93.8065 46.9357 52.3987 0.0000 -12.5997 0.0000
# 2 46.9357 72.5305 51.6678 0.0000 -20.3429 0.0000
# 3 52.3987 51.6678 127.7890 0.0000 -9.5956 0.0000
# 4 0.0000 0.0000 0.0000 94.5107 0.0000 -77.4870
# 5 -12.5997 -20.3429 -9.5956 0.0000 29.0487 0.0000
# 6 0.0000 0.0000 0.0000 -77.4870 0.0000 89.2157
#
#
#
# Elastic Compliance Matrix: (Units=1/GPa)
#
#
# Indices 1 2 3 4 5 6 
#
# 1 0.016815 -0.008279 -0.003523 0.000000 0.000332 0.000000
# 2 -0.008279 0.027844 -0.006839 0.000000 0.013650 0.000000
# 3 -0.003523 -0.006839 0.011854 0.000000 -0.002401 0.000000
# 4 0.000000 0.000000 0.000000 0.036750 0.000000 0.031919
# 5 0.000332 0.013650 -0.002401 0.000000 0.043335 0.000000
# 6 0.000000 0.000000 0.000000 0.031919 0.000000 0.038932
#
#
# Mechanical properties :
#
#
# Convention : Reuss Voigt Hill
#
# Bulk Modulus (GPa) = 51.99083 66.23673 59.11378
# Shear Modulus (GPa) = 22.80800 52.09660 37.45230
#
# Velocity S-wave (km/s) = 3.37536 5.10131 4.32530
# Velocity P-wave (km/s) = 6.41571 8.23313 7.38057
#
# Compressibility (1/GPa) = 0.01923416
#
# Stress axis : x y z
#
# Youngs Moduli (GPa) = 59.47206 35.91378 84.35626
#
# Poissons Ratio (x) = 0.29731 0.29715
# Poissons Ratio (y) = 0.49234 0.57688
# Poissons Ratio (z) = 0.20949 0.24560
#
# Static dielectric constant tensor:
#      x y z
#    x 1.703830 0.000000 0.006140 
#    y 0.000000 1.694040 0.000000 
#    z 0.006140 0.000000 1.837130 
# 
# From -- ./inp_files/43736.got.cif
#   From: 2010.05.17/outbox.cif.g08.bks.cpg/sg10_22_cif.got.tgz:43736.got - 2010.06.03 11:33:40.
