data_PCOD9153648
_publ_section_title
;
Structure prediction by ZEFSAII (Michael W. Deem and Ramdas Pophale) SiO2 
 PCOD9153648
Probable space group: P 2/M
;
_chemical_formula_sum "Si O2"
_cell_formula_units_Z 28
_cell_length_a 27.546086
_cell_length_b 8.698191
_cell_length_c 9.392136
_cell_angle_alpha 90.000000
_cell_angle_beta 142.161994
_cell_angle_gamma 90.000000
_cell_volume 1380.444555
_symmetry_space_group_name_H-M "P 2/M"
_symmetry_group_IT_number 10
_symmetry_cell_setting 'monoclinic'
loop_
_space_group_symop_operation_xyz
x,y,z
-x,y,-z
-x,-y,-z
x,-y,z
loop_
_atom_site_type_symbol
_atom_site_label
_atom_site_fract_x
_atom_site_fract_y
_atom_site_fract_z
Si Si1 0.335357 0.683797 0.782050
Si Si2 0.199171 0.815119 0.640231
Si Si3 0.622246 0.683116 0.441251
Si Si4 0.239116 0.818337 0.050694
Si Si5 0.478791 0.815994 0.289522
Si Si6 0.076901 0.679656 0.775315
Si Si7 0.981929 0.177040 0.792043
O O1 0.335464 0.500000 0.784838
O O2 0.249379 0.744023 0.629024
O O3 0.361298 0.733049 0.683313
O O4 0.398034 0.746517 0.041596
O O5 0.107745 0.765037 0.436779
O O6 0.198381 0.000000 0.622565
O O7 0.240136 0.777777 0.885851
O O8 0.608458 0.500000 0.408855
O O9 0.698090 0.724681 0.712201
O O10 0.547861 0.764612 0.342143
O O11 0.255695 0.000000 0.102677
O O12 0.151193 0.780447 0.901427
O O13 0.500000 0.765754 0.500000
O O14 0.472057 0.000000 0.275465
O O15 0.097578 0.500000 0.810527
O O16 0.000000 0.710640 0.500000
O O17 0.046356 0.722568 0.860479
O O18 0.985932 0.000000 0.747347
O O19 0.000000 0.174769 0.000000
#
# Coordination Sequence:
#
# PCOD9153648 Si02
#       7
#     4   4   4   4   4   4   4
#     4  11  25  42  63  92 128 165 201 249 305 362
#     4  10  22  40  61  89 123 160 208 258 304 364
#     4  11  25  43  63  94 130 162 202 250 305 365
#     4  11  23  40  64  90 121 162 209 258 307 362
#     4  11  24  43  68  97 126 160 205 250 298 359
#     4  11  23  39  61  90 123 162 206 256 314 369
#     4  10  22  40  62  89 121 162 209 258 312 368
#
# _framework density 20.283321000000001
#
# number of rings (size 3 to 8) (size 9 to 14) (size 15 to 20)
#    0.000    1.286    1.429    3.429    2.000   11.143 
#    0.000    0.000    0.000    0.000    0.000    0.000 
#    0.000    0.000    0.000    0.000    0.000    0.000 
#
# Total GULP energy -156605.734608 kJ/mol
# GULP energy per Si atom -5593.061950 kJ/mol
# Density = 2.023715 g / cm^3
# Si number density = 20.283321 Si / 1000 Ang^3
#
#
#
# Elastic Constant Matrix: (Units=GPa)
#
#
# Indices 1 2 3 4 5 6 
#
# 1 111.2946 8.4847 4.7508 0.0000 -3.4808 0.0000
# 2 8.4847 11.8526 1.7688 0.0000 -7.7501 0.0000
# 3 4.7508 1.7688 46.4060 0.0000 -3.5965 0.0000
# 4 0.0000 0.0000 0.0000 56.4039 0.0000 12.4520
# 5 -3.4808 -7.7501 -3.5965 0.0000 30.2931 0.0000
# 6 0.0000 0.0000 0.0000 12.4520 0.0000 10.3219
#
#
#
# Elastic Compliance Matrix: (Units=1/GPa)
#
#
# Indices 1 2 3 4 5 6 
#
# 1 0.009546 -0.007279 -0.000766 0.000000 -0.000856 0.000000
# 2 -0.007279 0.107031 -0.001289 0.000000 0.026393 0.000000
# 3 -0.000766 -0.001289 0.021845 0.000000 0.002176 0.000000
# 4 0.000000 0.000000 0.000000 0.024165 0.000000 -0.029152
# 5 -0.000856 0.026393 0.002176 0.000000 0.039923 0.000000
# 6 0.000000 0.000000 0.000000 -0.029152 0.000000 0.132049
#
#
# Mechanical properties :
#
#
# Convention : Reuss Voigt Hill
#
# Bulk Modulus (GPa) = 8.35046 22.17353 15.26199
# Shear Modulus (GPa) = 12.71791 29.70703 21.21247
#
# Velocity S-wave (km/s) = 2.50674 3.83117 3.23740
# Velocity P-wave (km/s) = 3.53612 5.52504 4.63844
#
# Compressibility (1/GPa) = 0.11975383
#
# Stress axis : x y z
#
# Youngs Moduli (GPa) = 104.75563 9.34307 45.77685
#
# Poissons Ratio (x) = 0.06801 0.03507
# Poissons Ratio (y) = 0.76254 0.05900
# Poissons Ratio (z) = 0.08026 0.01204
#
# Static dielectric constant tensor:
#      x y z
#    x 1.711930 0.000000 -0.009650 
#    y 0.000000 1.689450 0.000000 
#    z -0.009650 0.000000 1.712160 
# 
# From -- ./inp_files/37358.got.cif
#   From: 2010.05.17/outbox.cif.g08.bks.cpg/sg10_19_cif.got.tgz:37358.got - 2010.06.03 11:33:40.
