data_PCOD9153537
_publ_section_title
;
Structure prediction by ZEFSAII (Michael W. Deem and Ramdas Pophale) SiO2 
 PCOD9153537
Probable space group: P 2/M
;
_chemical_formula_sum "Si O2"
_cell_formula_units_Z 28
_cell_length_a 28.663478
_cell_length_b 7.681051
_cell_length_c 9.398601
_cell_angle_alpha 90.000000
_cell_angle_beta 35.083808
_cell_angle_gamma 90.000000
_cell_volume 1189.350543
_symmetry_space_group_name_H-M "P 2/M"
_symmetry_group_IT_number 10
_symmetry_cell_setting 'monoclinic'
loop_
_space_group_symop_operation_xyz
x,y,z
-x,y,-z
-x,-y,-z
x,-y,z
loop_
_atom_site_type_symbol
_atom_site_label
_atom_site_fract_x
_atom_site_fract_y
_atom_site_fract_z
Si Si1 0.869839 0.298472 0.613066
Si Si2 0.374552 0.000000 0.894619
Si Si3 0.951814 0.799396 0.812182
Si Si4 0.315790 0.293955 0.243760
Si Si5 0.615078 0.696357 0.626851
Si Si6 0.786858 0.200457 0.089994
Si Si7 0.870103 0.292014 0.291926
Si Si8 0.552090 0.000000 0.591475
O O1 0.845399 0.500000 0.666991
O O2 0.807561 0.204820 0.871796
O O3 0.872888 0.226862 0.446064
O O4 0.962464 0.285192 0.436116
O O5 0.465018 0.000000 0.735442
O O6 0.383900 0.000000 0.700620
O O7 0.333649 0.829046 0.065656
O O8 0.869499 0.722686 0.951123
O O9 0.956374 0.000000 0.755787
O O10 0.933471 0.788806 0.025759
O O11 0.322977 0.500000 0.192128
O O12 0.372751 0.255186 0.237509
O O13 0.222777 0.263158 0.524341
O O14 0.583158 0.500000 0.696813
O O15 0.565537 0.833418 0.658150
O O16 0.706039 0.701507 0.334633
O O17 0.777120 0.000000 0.162152
O O18 0.885853 0.500000 0.253915
#
# Coordination Sequence:
#
# PCOD9153537 Si02
#       8
#     4   2   4   4   4   4   4   2
#     4  11  24  38  56  84 123 170 218 272 333 385
#     4  11  27  47  75 101 142 179 210 262 338 396
#     4  11  23  38  58  85 122 168 218 274 328 382
#     4  10  23  43  71 104 135 178 230 275 325 395
#     4  11  23  42  72 103 136 179 226 276 330 391
#     4  11  23  39  61  90 126 168 222 275 326 389
#     4  10  22  39  59  87 122 163 216 271 322 384
#     4  11  27  49  69 109 140 175 214 264 330 406
#
# _framework density 23.542261
#
# number of rings (size 3 to 8) (size 9 to 14) (size 15 to 20)
#    0.000    1.286    2.143    2.571    3.000    8.571 
#    0.000    2.857    0.000    0.000    0.000    0.000 
#    0.000    0.000    0.000    0.000    0.000    0.000 
#
# Total GULP energy -156774.463897 kJ/mol
# GULP energy per Si atom -5599.087996 kJ/mol
# Density = 2.348868 g / cm^3
# Si number density = 23.542261 Si / 1000 Ang^3
#
#
#
# Elastic Constant Matrix: (Units=GPa)
#
#
# Indices 1 2 3 4 5 6 
#
# 1 76.4775 14.8655 3.2409 0.0000 2.5333 0.0000
# 2 14.8655 86.3820 15.5572 0.0000 3.6459 0.0000
# 3 3.2409 15.5572 103.4270 0.0000 5.9017 0.0000
# 4 0.0000 0.0000 0.0000 -553.6062 0.0000 -159.2623
# 5 2.5333 3.6459 5.9017 0.0000 33.4946 0.0000
# 6 0.0000 0.0000 0.0000 -159.2623 0.0000 -25.1670
#
#
#
# Elastic Compliance Matrix: (Units=1/GPa)
#
#
# Indices 1 2 3 4 5 6 
#
# 1 0.013548 -0.002293 -0.000036 0.000000 -0.000769 0.000000
# 2 -0.002293 0.012319 -0.001732 0.000000 -0.000862 0.000000
# 3 -0.000036 -0.001732 0.010020 0.000000 -0.001574 0.000000
# 4 0.000000 0.000000 0.000000 0.002201 0.000000 -0.013931
# 5 -0.000769 -0.000862 -0.001574 0.000000 0.030285 0.000000
# 6 0.000000 0.000000 0.000000 -0.013931 0.000000 0.048427
#
#
# Mechanical properties :
#
#
# Convention : Reuss Voigt Hill
#
# Bulk Modulus (GPa) = 36.01403 37.06818 36.54111
# Shear Modulus (GPa) = 37.26409 -93.54752 -28.14171
#
# Velocity S-wave (km/s) = 3.98283 -6.31049 -3.46116
# Velocity P-wave (km/s) = 6.03999 6.10875 0.64628
#
# Compressibility (1/GPa) = 0.02776695
#
# Stress axis : x y z
#
# Youngs Moduli (GPa) = 73.80963 81.17305 99.79910
#
# Poissons Ratio (x) = 0.18610 0.00357
# Poissons Ratio (y) = 0.16922 0.17285
# Poissons Ratio (z) = 0.00264 0.14059
#
# Static dielectric constant tensor:
#      x y z
#    x 1.960600 0.000000 0.008510 
#    y 0.000000 1.836000 0.000000 
#    z 0.008510 0.000000 1.855780 
# 
# From -- ./inp_files/37219.got.cif
#   From: 2010.05.17/outbox.cif.g08.bks.cpg/sg10_19_cif.got.tgz:37219.got - 2010.06.03 11:33:40.
