data_PCOD9153847
_publ_section_title
;
Structure prediction by ZEFSAII (Michael W. Deem and Ramdas Pophale) SiO2 
 PCOD9153847
Probable space group: P 2/M
;
_chemical_formula_sum "Si O2"
_cell_formula_units_Z 23
_cell_length_a 11.838514
_cell_length_b 11.757562
_cell_length_c 12.837687
_cell_angle_alpha 90.000000
_cell_angle_beta 145.382713
_cell_angle_gamma 90.000000
_cell_volume 1015.126069
_symmetry_space_group_name_H-M "P 2/M"
_symmetry_group_IT_number 10
_symmetry_cell_setting 'monoclinic'
loop_
_space_group_symop_operation_xyz
x,y,z
-x,y,-z
-x,-y,-z
x,-y,z
loop_
_atom_site_type_symbol
_atom_site_label
_atom_site_fract_x
_atom_site_fract_y
_atom_site_fract_z
Si Si1 0.497074 0.815786 0.690058
Si Si2 0.765231 0.368453 0.794484
Si Si3 0.500000 0.000000 0.500000
Si Si4 0.250018 0.127525 0.923276
Si Si5 0.339282 0.500000 0.753870
Si Si6 0.500000 0.301123 0.000000
Si Si7 0.988757 0.500000 0.658078
Si Si8 0.114898 0.270559 0.324572
O O1 0.635137 0.706338 0.772667
O O2 0.269620 0.774875 0.526985
O O3 0.508120 0.901195 0.599765
O O4 0.584086 0.869463 0.860848
O O5 0.703804 0.500000 0.745035
O O6 0.754592 0.308584 0.674429
O O7 0.000000 0.364520 0.000000
O O8 0.318219 0.217673 0.888123
O O9 0.043751 0.171859 0.816143
O O10 0.229011 0.000000 0.866780
O O11 0.461535 0.386950 0.874688
O O12 0.228817 0.500000 0.560724
O O13 0.160231 0.500000 0.702647
O O14 0.999703 0.385193 0.731521
#
# Coordination Sequence:
#
# PCOD9153847 Si02
#       8
#     4   4   1   4   2   2   2   4
#     4  12  26  44  68  98 136 181 228 272 328 396
#     4  11  23  41  66  99 137 174 220 272 335 401
#     4  12  24  44  68  94 134 184 234 266 312 402
#     4  12  27  45  69  96 134 179 225 280 330 388
#     4  10  22  42  74  94 133 168 217 282 344 404
#     4  11  23  48  68 102 129 171 224 280 338 405
#     4  11  22  42  66 102 132 171 215 275 344 408
#     4  12  24  41  67 100 133 174 224 270 333 402
#
# _framework density 22.657283
#
# number of rings (size 3 to 8) (size 9 to 14) (size 15 to 20)
#    0.000    0.522    6.957    1.304    2.435    0.696 
#    3.130    2.174    0.000    3.130    0.000    0.000 
#    0.000    0.000    0.000    0.000    0.000    0.000 
#
# Total GULP energy -128417.879482 kJ/mol
# GULP energy per Si atom -5583.386064 kJ/mol
# Density = 2.260571 g / cm^3
# Si number density = 22.657283 Si / 1000 Ang^3
#
#
#
# Elastic Constant Matrix: (Units=GPa)
#
#
# Indices 1 2 3 4 5 6 
#
# 1 37.9476 24.2179 -16.3786 0.0000 3.4806 0.0000
# 2 24.2179 180.4846 20.6855 0.0000 14.2240 0.0000
# 3 -16.3786 20.6855 69.5682 0.0000 6.1371 0.0000
# 4 0.0000 0.0000 0.0000 13.8971 0.0000 -11.2498
# 5 3.4806 14.2240 6.1371 0.0000 27.2071 0.0000
# 6 0.0000 0.0000 0.0000 -11.2498 0.0000 13.9290
#
#
#
# Elastic Compliance Matrix: (Units=1/GPa)
#
#
# Indices 1 2 3 4 5 6 
#
# 1 0.034576 -0.005497 0.010113 0.000000 -0.003831 0.000000
# 2 -0.005497 0.006806 -0.003128 0.000000 -0.002149 0.000000
# 3 0.010113 -0.003128 0.018014 0.000000 -0.003722 0.000000
# 4 0.000000 0.000000 0.000000 0.207852 0.000000 0.167873
# 5 -0.003831 -0.002149 -0.003722 0.000000 0.039208 0.000000
# 6 0.000000 0.000000 0.000000 0.167873 0.000000 0.207376
#
#
# Mechanical properties :
#
#
# Convention : Reuss Voigt Hill
#
# Bulk Modulus (GPa) = 16.03298 38.33889 27.18594
# Shear Modulus (GPa) = 9.40474 28.30502 18.85488
#
# Velocity S-wave (km/s) = 2.03958 3.53833 2.88788
# Velocity P-wave (km/s) = 3.55502 5.80095 4.81088
#
# Compressibility (1/GPa) = 0.06237144
#
# Stress axis : x y z
#
# Youngs Moduli (GPa) = 28.92174 146.92668 55.51340
#
# Poissons Ratio (x) = 0.80760 -0.56139
# Poissons Ratio (y) = 0.15897 0.17366
# Poissons Ratio (z) = -0.29247 0.45962
#
# Static dielectric constant tensor:
#      x y z
#    x 1.837090 0.000000 -0.008690 
#    y 0.000000 1.813070 0.000000 
#    z -0.008690 0.000000 1.892510 
# 
# From -- ./inp_files/67222.got.cif
#   From: 2010.05.17/outbox.cif.g08.bks.cpg/sg10_34_cif.got.tgz:67222.got - 2010.06.03 11:33:40.
