data_PCOD9153950
_publ_section_title
;
Structure prediction by ZEFSAII (Michael W. Deem and Ramdas Pophale) SiO2 
 PCOD9153950
Probable space group: P 2/M
;
_chemical_formula_sum "Si O2"
_cell_formula_units_Z 28
_cell_length_a 9.791731
_cell_length_b 12.333474
_cell_length_c 14.641238
_cell_angle_alpha 90.000000
_cell_angle_beta 58.305040
_cell_angle_gamma 90.000000
_cell_volume 1504.455828
_symmetry_space_group_name_H-M "P 2/M"
_symmetry_group_IT_number 10
_symmetry_cell_setting 'monoclinic'
loop_
_space_group_symop_operation_xyz
x,y,z
-x,y,-z
-x,-y,-z
x,-y,z
loop_
_atom_site_type_symbol
_atom_site_label
_atom_site_fract_x
_atom_site_fract_y
_atom_site_fract_z
Si Si1 0.673909 0.128700 0.397484
Si Si2 0.310975 0.500000 0.581733
Si Si3 0.109942 0.375727 0.106003
Si Si4 0.241481 0.317013 0.753561
Si Si5 0.589578 0.372812 0.120755
Si Si6 0.002420 0.873943 0.389910
Si Si7 0.812252 0.500000 0.580665
Si Si8 0.239741 0.684250 0.253656
O O1 0.500000 0.157602 0.500000
O O2 0.700208 0.199990 0.298761
O O3 0.826346 0.152403 0.410081
O O4 0.673453 0.000000 0.380603
O O5 0.500000 0.500000 0.500000
O O6 0.256131 0.396768 0.660971
O O7 0.250387 0.500000 0.499917
O O8 0.079085 0.500000 0.088871
O O9 0.156568 0.371622 0.195881
O O10 0.943696 0.313923 0.151015
O O11 0.263192 0.337292 0.994907
O O12 0.348703 0.363455 0.797356
O O13 0.553612 0.500000 0.112538
O O14 0.427813 0.304954 0.165199
O O15 0.000000 0.863933 0.500000
O O16 0.138499 0.792703 0.306451
O O17 0.036075 0.000000 0.355224
O O18 0.766096 0.605118 0.656530
O O19 0.000000 0.500000 0.500000
#
# Coordination Sequence:
#
# PCOD9153950 Si02
#       8
#     4   2   4   4   4   4   2   4
#     4  10  23  42  64  89 119 159 204 245 291 356
#     4  12  24  36  53  86 127 156 190 238 306 363
#     4  11  21  39  62  86 119 158 206 251 299 361
#     4  12  22  39  60  88 120 162 198 246 306 354
#     4  11  23  39  60  89 122 158 206 250 293 360
#     4  10  23  41  63  89 119 160 204 243 292 359
#     4  12  24  34  53  86 123 156 190 238 296 365
#     4  12  22  39  60  87 122 158 198 245 305 351
#
# _framework density 18.611381999999999
#
# number of rings (size 3 to 8) (size 9 to 14) (size 15 to 20)
#    0.000    0.857    4.286    3.429    4.000    2.286 
#    0.000    0.000    0.000    5.143    0.000    0.000 
#    0.000    0.000    0.000    0.000    0.000    0.000 
#
# Total GULP energy -156468.450859 kJ/mol
# GULP energy per Si atom -5588.158959 kJ/mol
# Density = 1.856902 g / cm^3
# Si number density = 18.611382 Si / 1000 Ang^3
#
#
#
# Elastic Constant Matrix: (Units=GPa)
#
#
# Indices 1 2 3 4 5 6 
#
# 1 100.5793 31.2388 31.6744 0.0000 -24.3099 0.0000
# 2 31.2388 65.1516 43.0409 0.0000 -21.8101 0.0000
# 3 31.6744 43.0409 82.4528 0.0000 -32.0241 0.0000
# 4 0.0000 0.0000 0.0000 25.8453 0.0000 -6.1998
# 5 -24.3099 -21.8101 -32.0241 0.0000 51.0102 0.0000
# 6 0.0000 0.0000 0.0000 -6.1998 0.0000 18.5231
#
#
#
# Elastic Compliance Matrix: (Units=1/GPa)
#
#
# Indices 1 2 3 4 5 6 
#
# 1 0.012411 -0.003875 -0.001443 0.000000 0.003352 0.000000
# 2 -0.003875 0.025013 -0.010754 0.000000 0.002096 0.000000
# 3 -0.001443 -0.010754 0.021481 0.000000 0.008200 0.000000
# 4 0.000000 0.000000 0.000000 0.042070 0.000000 0.014081
# 5 0.003352 0.002096 0.008200 0.000000 0.027246 0.000000
# 6 0.000000 0.000000 0.000000 0.014081 0.000000 0.058700
#
#
# Mechanical properties :
#
#
# Convention : Reuss Voigt Hill
#
# Bulk Modulus (GPa) = 37.36892 51.12132 44.24512
# Shear Modulus (GPa) = 21.93135 28.55768 25.24451
#
# Velocity S-wave (km/s) = 3.43648 3.92142 3.68693
# Velocity P-wave (km/s) = 5.98899 6.93042 6.47683
#
# Compressibility (1/GPa) = 0.02676021
#
# Stress axis : x y z
#
# Youngs Moduli (GPa) = 80.57679 39.97882 46.55290
#
# Poissons Ratio (x) = 0.15494 0.06716
# Poissons Ratio (y) = 0.31227 0.50063
# Poissons Ratio (z) = 0.11625 0.42994
#
# Static dielectric constant tensor:
#      x y z
#    x 1.645820 0.000000 -0.008680 
#    y 0.000000 1.661840 0.000000 
#    z -0.008680 0.000000 1.644770 
# 
# From -- ./inp_files/61167.got.cif
#   From: 2010.05.17/outbox.cif.g08.bks.cpg/sg10_31_cif.got.tgz:61167.got - 2010.06.03 11:33:40.
