data_PCOD9153017
_publ_section_title
;
Structure prediction by ZEFSAII (Michael W. Deem and Ramdas Pophale) SiO2 
 PCOD9153017
Probable space group: P 2/M
;
_chemical_formula_sum "Si O2"
_cell_formula_units_Z 30
_cell_length_a 14.307719
_cell_length_b 19.828101
_cell_length_c 13.974776
_cell_angle_alpha 90.000000
_cell_angle_beta 159.732505
_cell_angle_gamma 90.000000
_cell_volume 1373.341893
_symmetry_space_group_name_H-M "P 2/M"
_symmetry_group_IT_number 10
_symmetry_cell_setting 'monoclinic'
loop_
_space_group_symop_operation_xyz
x,y,z
-x,y,-z
-x,-y,-z
x,-y,z
loop_
_atom_site_type_symbol
_atom_site_label
_atom_site_fract_x
_atom_site_fract_y
_atom_site_fract_z
Si Si1 0.547016 0.779337 0.327243
Si Si2 0.272619 0.500000 0.704703
Si Si3 0.057772 0.739363 0.444867
Si Si4 0.706158 0.423840 0.865130
Si Si5 0.148563 0.603680 0.429479
Si Si6 0.422011 0.926322 0.704180
Si Si7 0.023619 0.282355 0.914043
Si Si8 0.884853 0.110298 0.282544
O O1 0.648922 0.760901 0.317184
O O2 0.533926 0.860376 0.318108
O O3 0.756737 0.742834 0.601489
O O4 0.260834 0.751557 0.081855
O O5 0.273773 0.564648 0.638404
O O6 0.000000 0.500000 0.500000
O O7 0.500000 0.500000 0.000000
O O8 0.021817 0.672891 0.347277
O O9 0.000000 0.721809 0.500000
O O10 0.895578 0.808984 0.276080
O O11 0.692102 0.500000 0.807278
O O12 0.875679 0.361297 0.982118
O O13 0.889983 0.431678 0.135910
O O14 0.402243 0.398959 0.598648
O O15 0.108303 0.922765 0.429562
O O16 0.489919 0.000000 0.729867
O O17 0.597281 0.915712 0.970198
O O18 0.000000 0.258424 0.000000
O O19 0.000000 0.098798 0.500000
#
# Coordination Sequence:
#
# PCOD9153017 Si02
#       8
#     4   2   4   4   4   4   4   4
#     4  11  23  45  68  99 138 171 223 282 329 397
#     4  12  24  40  54  86 123 172 233 266 310 388
#     4  10  21  39  63  93 131 175 224 265 326 383
#     4  12  23  43  67  93 130 165 215 273 347 402
#     4  12  23  40  62  88 125 176 215 274 326 387
#     4  11  23  39  64  95 131 179 220 264 335 393
#     4  12  25  45  74 101 127 171 222 280 347 409
#     4  10  22  37  58  92 133 176 228 279 316 377
#
# _framework density 21.844524
#
# number of rings (size 3 to 8) (size 9 to 14) (size 15 to 20)
#    0.000    0.800    4.000    4.000    0.000    1.867 
#    0.000    8.667    0.000    5.600    0.000    0.000 
#    0.000    0.000    0.000    0.000    0.000    0.000 
#
# Total GULP energy -167215.510236 kJ/mol
# GULP energy per Si atom -5573.850341 kJ/mol
# Density = 2.179480 g / cm^3
# Si number density = 21.844524 Si / 1000 Ang^3
#
#
#
# Elastic Constant Matrix: (Units=GPa)
#
#
# Indices 1 2 3 4 5 6 
#
# 1 68.1299 25.8845 21.2171 0.0000 -7.3049 0.0000
# 2 25.8845 159.2780 3.6204 0.0000 -0.0368 0.0000
# 3 21.2171 3.6204 108.9299 0.0000 7.7455 0.0000
# 4 0.0000 0.0000 0.0000 10.1971 0.0000 -0.0092
# 5 -7.3049 -0.0368 7.7455 0.0000 16.7798 0.0000
# 6 0.0000 0.0000 0.0000 -0.0092 0.0000 2.6489
#
#
#
# Elastic Compliance Matrix: (Units=1/GPa)
#
#
# Indices 1 2 3 4 5 6 
#
# 1 0.018090 -0.002844 -0.004124 0.000000 0.009773 0.000000
# 2 -0.002844 0.006730 0.000431 0.000000 -0.001422 0.000000
# 3 -0.004124 0.000431 0.010439 0.000000 -0.006613 0.000000
# 4 0.000000 0.000000 0.000000 0.098068 0.000000 0.000342
# 5 0.009773 -0.001422 -0.006613 0.000000 0.066899 0.000000
# 6 0.000000 0.000000 0.000000 0.000342 0.000000 0.377517
#
#
# Mechanical properties :
#
#
# Convention : Reuss Voigt Hill
#
# Bulk Modulus (GPa) = 45.07114 48.64243 46.85678
# Shear Modulus (GPa) = 8.35823 24.96621 16.66222
#
# Velocity S-wave (km/s) = 1.95820 3.38436 2.76481
# Velocity P-wave (km/s) = 5.07841 6.13088 5.62929
#
# Compressibility (1/GPa) = 0.02218715
#
# Stress axis : x y z
#
# Youngs Moduli (GPa) = 55.27773 148.58036 95.79122
#
# Poissons Ratio (x) = 0.42255 0.39504
# Poissons Ratio (y) = 0.15721 -0.04132
# Poissons Ratio (z) = 0.22797 -0.06409
#
# Static dielectric constant tensor:
#      x y z
#    x 1.795480 0.000000 -0.019970 
#    y 0.000000 1.868500 0.000000 
#    z -0.019970 0.000000 1.777640 
# 
# From -- ./inp_files/67899.got.cif
#   From: 2010.05.17/outbox.cif.g08.bks.cpg/sg10_34_cif.got.tgz:67899.got - 2010.06.03 11:33:40.
