data_PCOD9153402
_publ_section_title
;
Structure prediction by ZEFSAII (Michael W. Deem and Ramdas Pophale) SiO2 
 PCOD9153402
Probable space group: P 2/M
;
_chemical_formula_sum "Si O2"
_cell_formula_units_Z 28
_cell_length_a 15.004116
_cell_length_b 8.744163
_cell_length_c 19.963717
_cell_angle_alpha 90.000000
_cell_angle_beta 153.851902
_cell_angle_gamma 90.000000
_cell_volume 1154.266515
_symmetry_space_group_name_H-M "P 2/M"
_symmetry_group_IT_number 10
_symmetry_cell_setting 'monoclinic'
loop_
_space_group_symop_operation_xyz
x,y,z
-x,y,-z
-x,-y,-z
x,-y,z
loop_
_atom_site_type_symbol
_atom_site_label
_atom_site_fract_x
_atom_site_fract_y
_atom_site_fract_z
Si Si1 0.317603 0.500000 0.324572
Si Si2 0.871592 0.831207 0.982795
Si Si3 0.679696 0.827659 0.382057
Si Si4 0.517164 0.818933 0.608506
Si Si5 0.074435 0.175366 0.262527
Si Si6 0.778624 0.319757 0.322152
Si Si7 0.890906 0.500000 0.999342
Si Si8 0.124918 0.820115 0.744773
O O1 0.500000 0.500000 0.500000
O O2 0.349002 0.666055 0.310144
O O3 0.077775 0.500000 0.179100
O O4 0.009422 0.830468 0.142466
O O5 0.778844 0.661120 0.926971
O O6 0.771104 0.000000 0.919003
O O7 0.000000 0.834464 0.000000
O O8 0.534303 0.822654 0.347714
O O9 0.636508 0.727707 0.287765
O O10 0.897173 0.792878 0.562660
O O11 0.694506 0.000000 0.366237
O O12 0.307021 0.776473 0.428665
O O13 0.574197 0.000000 0.629388
O O14 0.905846 0.242029 0.200002
O O15 0.088459 0.000000 0.296524
O O16 0.786278 0.500000 0.320804
O O17 0.739202 0.253083 0.221876
O O18 0.000000 0.267249 0.500000
O O19 0.000000 0.500000 0.000000
O O20 0.175552 0.000000 0.779323
#
# Coordination Sequence:
#
# PCOD9153402 Si02
#       8
#     2   4   4   4   4   4   2   4
#     4  12  24  34  52  78  96 125 167 203 249 294
#     4   9  17  31  51  70  89 120 159 196 238 289
#     4   8  14  25  39  52  74 116 157 189 232 277
#     4   9  19  33  47  67  95 125 160 202 244 288
#     4   8  14  27  44  63  91 126 161 200 247 288
#     4   9  15  20  29  51  79 110 153 197 227 265
#     4  10  22  38  52  72  99 125 157 197 246 300
#     4   8  13  22  34  50  78 116 156 192 229 278
#
# _framework density 24.257829999999998
#
# number of rings (size 3 to 8) (size 9 to 14) (size 15 to 20)
#    0.000    3.143    0.000    3.000    1.000    2.571 
#    5.143    0.000    0.000    0.000    0.000    0.000 
#    0.000    0.000    0.000   10.286    0.000   78.000 
#
# Total GULP energy -155924.161423 kJ/mol
# GULP energy per Si atom -5568.720051 kJ/mol
# Density = 2.420262 g / cm^3
# Si number density = 24.257830 Si / 1000 Ang^3
#
#
#
# Elastic Constant Matrix: (Units=GPa)
#
#
# Indices 1 2 3 4 5 6 
#
# 1 113.6603 44.8821 26.3506 0.0000 -35.8915 0.0000
# 2 44.8821 123.9401 10.9920 0.0000 -8.2684 0.0000
# 3 26.3506 10.9920 94.2842 0.0000 -29.6932 0.0000
# 4 0.0000 0.0000 0.0000 15.9944 0.0000 3.5011
# 5 -35.8915 -8.2684 -29.6932 0.0000 29.7602 0.0000
# 6 0.0000 0.0000 0.0000 3.5011 0.0000 6.5323
#
#
#
# Elastic Compliance Matrix: (Units=1/GPa)
#
#
# Indices 1 2 3 4 5 6 
#
# 1 0.017027 -0.004947 0.002701 0.000000 0.021855 0.000000
# 2 -0.004947 0.009666 -0.001134 0.000000 -0.004412 0.000000
# 3 0.002701 -0.001134 0.015909 0.000000 0.018816 0.000000
# 4 0.000000 0.000000 0.000000 0.070832 0.000000 -0.037964
# 5 0.021855 -0.004412 0.018816 0.000000 0.077508 0.000000
# 6 0.000000 0.000000 0.000000 -0.037964 0.000000 0.173433
#
#
# Mechanical properties :
#
#
# Convention : Reuss Voigt Hill
#
# Bulk Modulus (GPa) = 27.90009 55.14820 41.52414
# Shear Modulus (GPa) = 13.05199 27.10138 20.07669
#
# Velocity S-wave (km/s) = 2.32211 3.34611 2.87999
# Velocity P-wave (km/s) = 4.32621 6.14102 5.31170
#
# Compressibility (1/GPa) = 0.03584218
#
# Stress axis : x y z
#
# Youngs Moduli (GPa) = 58.72995 103.45303 62.85624
#
# Poissons Ratio (x) = 0.51183 -0.16978
# Poissons Ratio (y) = 0.29057 0.07127
# Poissons Ratio (z) = -0.15863 0.11730
#
# Static dielectric constant tensor:
#      x y z
#    x 2.071520 0.000000 0.049310 
#    y 0.000000 1.936340 0.000000 
#    z 0.049310 0.000000 2.040250 
# 
# From -- ./inp_files/77837.got.cif
#   From: 2010.05.17/outbox.cif.g08.bks.cpg/sg10_39_cif.got.tgz:77837.got - 2010.06.03 11:33:40.
