data_PCOD9153660
_publ_section_title
;
Structure prediction by ZEFSAII (Michael W. Deem and Ramdas Pophale) SiO2 
 PCOD9153660
Probable space group: P 2/M
;
_chemical_formula_sum "Si O2"
_cell_formula_units_Z 18
_cell_length_a 19.138525
_cell_length_b 8.171519
_cell_length_c 5.192335
_cell_angle_alpha 90.000000
_cell_angle_beta 105.913102
_cell_angle_gamma 90.000000
_cell_volume 780.915300
_symmetry_space_group_name_H-M "P 2/M"
_symmetry_group_IT_number 10
_symmetry_cell_setting 'monoclinic'
loop_
_space_group_symop_operation_xyz
x,y,z
-x,y,-z
-x,-y,-z
x,-y,z
loop_
_atom_site_type_symbol
_atom_site_label
_atom_site_fract_x
_atom_site_fract_y
_atom_site_fract_z
Si Si1 0.044172 0.300148 0.293427
Si Si2 0.210971 0.303770 0.515426
Si Si3 0.702011 0.192766 0.897980
Si Si4 0.551209 0.000000 0.306418
Si Si5 0.586129 0.676573 0.135689
O O1 0.044885 0.500000 0.289157
O O2 0.127967 0.249124 0.387089
O O3 0.000000 0.249055 0.500000
O O4 0.000000 0.244115 0.000000
O O5 0.211042 0.500000 0.554990
O O6 0.245044 0.222319 0.802897
O O7 0.257921 0.260824 0.311765
O O8 0.629233 0.285828 0.917616
O O9 0.686474 0.000000 0.858094
O O10 0.500000 0.000000 0.500000
O O11 0.596606 0.166036 0.326885
O O12 0.500000 0.000000 0.000000
O O13 0.609963 0.500000 0.262819
O O14 0.500000 0.667061 0.000000
#
# Coordination Sequence:
#
# PCOD9153660 Si02
#       5
#     4   4   4   2   4
#     4   9  17  32  59  94 127 162 211 272 329 386
#     4  11  23  41  67  98 131 171 224 277 331 402
#     4  12  25  43  65  93 135 179 220 275 341 403
#     4  10  22  40  62  90 126 160 202 264 328 380
#     4  10  22  43  69  97 128 171 225 277 333 401
#
# _framework density 23.049873999999999
#
# number of rings (size 3 to 8) (size 9 to 14) (size 15 to 20)
#    0.000    1.556    1.111    4.000    0.000    7.556 
#    0.000    4.444    0.000   13.333    0.000    0.000 
#    0.000    0.000    0.000    0.000    0.000    0.000 
#
# Total GULP energy -100797.619831 kJ/mol
# GULP energy per Si atom -5599.867768 kJ/mol
# Density = 2.299741 g / cm^3
# Si number density = 23.049874 Si / 1000 Ang^3
#
#
#
# Elastic Constant Matrix: (Units=GPa)
#
#
# Indices 1 2 3 4 5 6 
#
# 1 183.7392 11.6857 53.1859 0.0000 -3.9958 0.0000
# 2 11.6857 152.2467 15.1379 0.0000 -15.3390 0.0000
# 3 53.1859 15.1379 138.7554 0.0000 -10.9904 0.0000
# 4 0.0000 0.0000 0.0000 26.7465 0.0000 -5.1588
# 5 -3.9958 -15.3390 -10.9904 0.0000 44.8860 0.0000
# 6 0.0000 0.0000 0.0000 -5.1588 0.0000 33.2845
#
#
#
# Elastic Compliance Matrix: (Units=1/GPa)
#
#
# Indices 1 2 3 4 5 6 
#
# 1 0.006131 -0.000250 -0.002331 0.000000 -0.000110 0.000000
# 2 -0.000250 0.006857 -0.000478 0.000000 0.002204 0.000000
# 3 -0.002331 -0.000478 0.008284 0.000000 0.001658 0.000000
# 4 0.000000 0.000000 0.000000 0.038540 0.000000 0.005973
# 5 -0.000110 0.002204 0.001658 0.000000 0.023428 0.000000
# 6 0.000000 0.000000 0.000000 0.005973 0.000000 0.030970
#
#
# Mechanical properties :
#
#
# Convention : Reuss Voigt Hill
#
# Bulk Modulus (GPa) = 65.99051 70.52892 68.25972
# Shear Modulus (GPa) = 39.87901 47.29886 43.58893
#
# Velocity S-wave (km/s) = 4.16398 4.53484 4.35336
# Velocity P-wave (km/s) = 7.19791 7.62132 7.41264
#
# Compressibility (1/GPa) = 0.01515369
#
# Stress axis : x y z
#
# Youngs Moduli (GPa) = 163.10904 145.83577 120.71446
#
# Poissons Ratio (x) = 0.03644 0.28144
# Poissons Ratio (y) = 0.04076 0.05767
# Poissons Ratio (z) = 0.38029 0.06967
#
# Static dielectric constant tensor:
#      x y z
#    x 2.102860 0.000000 0.478750 
#    y 0.000000 1.899550 0.000000 
#    z 0.478750 0.000000 2.535750 
# 
# From -- ./inp_files/10589.got.cif
#   From: 2010.05.17/outbox.cif.g08.bks.cpg/sg10_6_cif.got.tgz:10589.got - 2010.06.03 11:33:40.
