data_PCOD9153816
_publ_section_title
;
Structure prediction by ZEFSAII (Michael W. Deem and Ramdas Pophale) SiO2 
 PCOD9153816
Probable space group: P 2/M
;
_chemical_formula_sum "Si O2"
_cell_formula_units_Z 15
_cell_length_a 6.954102
_cell_length_b 23.454214
_cell_length_c 4.973459
_cell_angle_alpha 90.000000
_cell_angle_beta 48.992360
_cell_angle_gamma 90.000000
_cell_volume 612.138926
_symmetry_space_group_name_H-M "P 2/M"
_symmetry_group_IT_number 10
_symmetry_cell_setting 'monoclinic'
loop_
_space_group_symop_operation_xyz
x,y,z
-x,y,-z
-x,-y,-z
x,-y,z
loop_
_atom_site_type_symbol
_atom_site_label
_atom_site_fract_x
_atom_site_fract_y
_atom_site_fract_z
Si Si1 0.669948 0.093816 0.609075
Si Si2 0.762333 0.500000 0.921852
Si Si3 0.000000 0.196364 0.500000
Si Si4 0.758600 0.624585 0.930855
Si Si5 0.000000 0.280625 0.000000
Si Si6 0.000000 0.000000 0.500000
O O1 0.500000 0.100327 0.500000
O O2 0.770640 0.153579 0.634068
O O3 0.903151 0.050555 0.379421
O O4 0.500000 0.065867 0.000000
O O5 0.765183 0.561553 0.058360
O O6 0.000000 0.500000 0.500000
O O7 0.500000 0.500000 0.000000
O O8 0.986550 0.238210 0.763127
O O9 0.000000 0.629587 0.500000
O O10 0.500000 0.630033 0.000000
O O11 0.779727 0.673877 0.132156
#
# Coordination Sequence:
#
# PCOD9153816 Si02
#       6
#     4   2   2   4   2   1
#     4  11  24  44  70 101 138 182 223 280 342 402
#     4   8  16  35  64  94 133 173 223 288 364 440
#     4  11  26  45  64  99 130 183 232 286 334 423
#     4  10  22  42  67 101 136 180 233 296 366 435
#     4  12  24  45  66  97 134 182 238 292 356 412
#     4  10  24  42  72 108 144 168 236 268 344 406
#
# _framework density 24.504241
#
# number of rings (size 3 to 8) (size 9 to 14) (size 15 to 20)
#    0.000    1.600    1.333    2.400    0.000    9.067 
#    4.800    0.000    0.000    9.600    0.000    0.000 
#    0.000    0.000    0.000    0.000    0.000    0.000 
#
# Total GULP energy -83559.552513 kJ/mol
# GULP energy per Si atom -5570.636834 kJ/mol
# Density = 2.444847 g / cm^3
# Si number density = 24.504241 Si / 1000 Ang^3
#
#
#
# Elastic Constant Matrix: (Units=GPa)
#
#
# Indices 1 2 3 4 5 6 
#
# 1 257.5479 95.7755 54.0982 0.0000 14.8961 0.0000
# 2 95.7755 249.1532 28.0417 0.0000 23.8789 0.0000
# 3 54.0982 28.0417 81.9166 0.0000 7.0062 0.0000
# 4 0.0000 0.0000 0.0000 97.5303 0.0000 -108.6912
# 5 14.8961 23.8789 7.0062 0.0000 50.1170 0.0000
# 6 0.0000 0.0000 0.0000 -108.6912 0.0000 119.3867
#
#
#
# Elastic Compliance Matrix: (Units=1/GPa)
#
#
# Indices 1 2 3 4 5 6 
#
# 1 0.005085 -0.001608 -0.002777 0.000000 -0.000357 0.000000
# 2 -0.001608 0.004852 -0.000448 0.000000 -0.001771 0.000000
# 3 -0.002777 -0.000448 0.014277 0.000000 -0.000957 0.000000
# 4 0.000000 0.000000 0.000000 -0.702454 0.000000 -0.639523
# 5 -0.000357 -0.001771 -0.000957 0.000000 0.021037 0.000000
# 6 0.000000 0.000000 0.000000 -0.639523 0.000000 -0.573854
#
#
# Mechanical properties :
#
#
# Convention : Reuss Voigt Hill
#
# Bulk Modulus (GPa) = 68.73686 104.93871 86.83779
# Shear Modulus (GPa) = -4.11001 80.78697 38.33848
#
# Velocity S-wave (km/s) = -1.29650 5.74806 3.95975
# Velocity P-wave (km/s) = 5.08632 9.32584 7.51139
#
# Compressibility (1/GPa) = 0.01454823
#
# Stress axis : x y z
#
# Youngs Moduli (GPa) = 196.67116 206.11051 70.04483
#
# Poissons Ratio (x) = 0.33138 0.19451
# Poissons Ratio (y) = 0.31621 0.03135
# Poissons Ratio (z) = 0.54616 0.09225
#
# Static dielectric constant tensor:
#      x y z
#    x 2.011120 0.000000 -0.106620 
#    y 0.000000 1.964820 0.000000 
#    z -0.106620 0.000000 2.277920 
# 
# From -- ./inp_files/1577.got.cif
#   From: 2010.05.17/outbox.cif.g08.bks.cpg/sg10_1_cif.got.tgz:1577.got - 2010.06.03 11:33:40.
