data_PCOD9153094
_publ_section_title
;
Structure prediction by ZEFSAII (Michael W. Deem and Ramdas Pophale) SiO2 
 PCOD9153094
Probable space group: P 2/M
;
_chemical_formula_sum "Si O2"
_cell_formula_units_Z 20
_cell_length_a 9.597706
_cell_length_b 7.253201
_cell_length_c 21.028417
_cell_angle_alpha 90.000000
_cell_angle_beta 37.002484
_cell_angle_gamma 90.000000
_cell_volume 881.032128
_symmetry_space_group_name_H-M "P 2/M"
_symmetry_group_IT_number 10
_symmetry_cell_setting 'monoclinic'
loop_
_space_group_symop_operation_xyz
x,y,z
-x,y,-z
-x,-y,-z
x,-y,z
loop_
_atom_site_type_symbol
_atom_site_label
_atom_site_fract_x
_atom_site_fract_y
_atom_site_fract_z
Si Si1 0.897259 0.000000 0.433191
Si Si2 0.363293 0.000000 0.337119
Si Si3 0.134915 0.276659 0.012156
Si Si4 0.880282 0.278763 0.330639
Si Si5 0.599678 0.276040 0.895434
Si Si6 0.723503 0.720118 0.251481
O O1 0.170785 0.000000 0.352378
O O2 0.830422 0.174072 0.413839
O O3 0.769863 0.000000 0.546768
O O4 0.532042 0.176016 0.280063
O O5 0.141766 0.500000 0.007038
O O6 0.976367 0.232567 0.130742
O O7 0.000000 0.210066 0.000000
O O8 0.398853 0.216290 0.920524
O O9 0.869806 0.500000 0.342361
O O10 0.142526 0.221806 0.216140
O O11 0.725590 0.230766 0.325406
O O12 0.607273 0.500000 0.894246
O O13 0.500000 0.218129 0.000000
O O14 0.695499 0.500000 0.256386
#
# Coordination Sequence:
#
# PCOD9153094 Si02
#       6
#     2   2   4   4   4   4
#     4  11  27  47  63  87 119 157 206 259 318 369
#     4  11  27  47  63  85 123 158 198 264 320 365
#     4   9  17  29  52  89 128 164 197 234 290 355
#     4  10  21  39  67  96 122 160 207 249 298 362
#     4   9  15  29  54  87 126 161 194 237 288 350
#     4  10  21  40  66  95 124 160 205 250 301 361
#
# _framework density 22.700645999999999
#
# number of rings (size 3 to 8) (size 9 to 14) (size 15 to 20)
#    0.000    2.200    2.000    0.600    2.800    3.200 
#    0.000    6.000    0.000    0.000    0.000    0.000 
#    0.000    0.000    0.000    0.000    0.000    0.000 
#
# Total GULP energy -111799.549906 kJ/mol
# GULP energy per Si atom -5589.977495 kJ/mol
# Density = 2.264898 g / cm^3
# Si number density = 22.700646 Si / 1000 Ang^3
#
#
#
# Elastic Constant Matrix: (Units=GPa)
#
#
# Indices 1 2 3 4 5 6 
#
# 1 99.5801 17.4509 -3.0899 0.0000 2.7152 0.0000
# 2 17.4509 105.9612 2.3940 0.0000 2.2706 0.0000
# 3 -3.0899 2.3940 45.4451 0.0000 -0.7408 0.0000
# 4 0.0000 0.0000 0.0000 10.9428 0.0000 2.8709
# 5 2.7152 2.2706 -0.7408 0.0000 39.9848 0.0000
# 6 0.0000 0.0000 0.0000 2.8709 0.0000 18.7311
#
#
#
# Elastic Compliance Matrix: (Units=1/GPa)
#
#
# Indices 1 2 3 4 5 6 
#
# 1 0.010383 -0.001715 0.000787 0.000000 -0.000593 0.000000
# 2 -0.001715 0.009744 -0.000637 0.000000 -0.000449 0.000000
# 3 0.000787 -0.000637 0.022098 0.000000 0.000392 0.000000
# 4 0.000000 0.000000 0.000000 0.095213 0.000000 -0.014593
# 5 -0.000593 -0.000449 0.000392 0.000000 0.025083 0.000000
# 6 0.000000 0.000000 0.000000 -0.014593 0.000000 0.055624
#
#
# Mechanical properties :
#
#
# Convention : Reuss Voigt Hill
#
# Bulk Modulus (GPa) = 25.57944 31.61070 28.59507
# Shear Modulus (GPa) = 21.33954 29.54718 25.44336
#
# Velocity S-wave (km/s) = 3.06934 3.61168 3.35150
# Velocity P-wave (km/s) = 4.88403 5.59889 5.25363
#
# Compressibility (1/GPa) = 0.03909389
#
# Stress axis : x y z
#
# Youngs Moduli (GPa) = 96.30837 102.62836 45.25296
#
# Poissons Ratio (x) = 0.17602 -0.03560
# Poissons Ratio (y) = 0.16518 0.02884
# Poissons Ratio (z) = -0.07576 0.06540
#
# Static dielectric constant tensor:
#      x y z
#    x 1.832370 0.000000 0.004860 
#    y 0.000000 1.854650 0.000000 
#    z 0.004860 0.000000 1.832120 
# 
# From -- ./inp_files/81893.got.cif
#   From: 2010.05.17/outbox.cif.g08.bks.cpg/sg10_41_cif.got.tgz:81893.got - 2010.06.03 11:33:40.
