data_PCOD9153962
_publ_section_title
;
Structure prediction by ZEFSAII (Michael W. Deem and Ramdas Pophale) SiO2 
 PCOD9153962
Probable space group: P 2/M
;
_chemical_formula_sum "Si O2"
_cell_formula_units_Z 17
_cell_length_a 12.194981
_cell_length_b 12.450650
_cell_length_c 4.964574
_cell_angle_alpha 90.000000
_cell_angle_beta 68.024268
_cell_angle_gamma 90.000000
_cell_volume 699.029134
_symmetry_space_group_name_H-M "P 2/M"
_symmetry_group_IT_number 10
_symmetry_cell_setting 'monoclinic'
loop_
_space_group_symop_operation_xyz
x,y,z
-x,y,-z
-x,-y,-z
x,-y,z
loop_
_atom_site_type_symbol
_atom_site_label
_atom_site_fract_x
_atom_site_fract_y
_atom_site_fract_z
Si Si1 0.620303 0.000000 0.704063
Si Si2 0.919808 0.237751 0.832736
Si Si3 0.626226 0.787973 0.344645
Si Si4 0.500000 0.500000 0.000000
Si Si5 0.301987 0.686834 0.220655
Si Si6 0.874022 0.000000 0.781289
O O1 0.618210 0.100235 0.501414
O O2 0.750676 0.000000 0.726927
O O3 0.500000 0.000000 0.000000
O O4 0.821339 0.321109 0.820482
O O5 0.873796 0.114811 0.940268
O O6 0.000000 0.221043 0.500000
O O7 0.000000 0.276434 0.000000
O O8 0.500000 0.730742 0.500000
O O9 0.714058 0.720016 0.454704
O O10 0.645585 0.785191 0.009205
O O11 0.395114 0.592586 0.106940
O O12 0.000000 0.000000 0.500000
#
# Coordination Sequence:
#
# PCOD9153962 Si02
#       6
#     2   4   4   1   4   2
#     4  12  25  43  71 114 159 205 246 300 378 461
#     4  11  24  46  70 106 147 198 246 298 365 449
#     4  12  24  44  67 109 149 191 232 302 375 455
#     4  12  28  54  76 112 136 198 256 332 400 444
#     4  12  26  46  76 103 147 185 254 317 375 442
#     4  10  23  41  69 104 150 206 240 286 356 463
#
# _framework density 24.319445000000002
#
# number of rings (size 3 to 8) (size 9 to 14) (size 15 to 20)
#    0.000    0.471    4.706    3.529    3.294    3.765 
#    0.000    1.176    0.000    0.000    0.000    0.000 
#    0.000    0.000    0.000    0.000    0.000    0.000 
#
# Total GULP energy -94643.978949 kJ/mol
# GULP energy per Si atom -5567.292879 kJ/mol
# Density = 2.426409 g / cm^3
# Si number density = 24.319445 Si / 1000 Ang^3
#
#
#
# Elastic Constant Matrix: (Units=GPa)
#
#
# Indices 1 2 3 4 5 6 
#
# 1 192.7380 58.3447 10.6335 0.0000 24.6075 0.0000
# 2 58.3447 121.9257 24.1825 0.0000 6.5570 0.0000
# 3 10.6335 24.1825 95.1114 0.0000 12.4834 0.0000
# 4 0.0000 0.0000 0.0000 -14.2611 0.0000 -34.8745
# 5 24.6075 6.5570 12.4834 0.0000 46.3972 0.0000
# 6 0.0000 0.0000 0.0000 -34.8745 0.0000 14.5221
#
#
#
# Elastic Compliance Matrix: (Units=1/GPa)
#
#
# Indices 1 2 3 4 5 6 
#
# 1 0.006478 -0.003022 0.000455 0.000000 -0.003131 0.000000
# 2 -0.003022 0.010066 -0.002327 0.000000 0.000806 0.000000
# 3 0.000455 -0.002327 0.011448 0.000000 -0.002992 0.000000
# 4 0.000000 0.000000 0.000000 -0.010203 0.000000 -0.024502
# 5 -0.003131 0.000806 -0.002992 0.000000 0.023905 0.000000
# 6 0.000000 0.000000 0.000000 -0.024502 0.000000 0.010020
#
#
# Mechanical properties :
#
#
# Convention : Reuss Voigt Hill
#
# Bulk Modulus (GPa) = 54.93494 66.23294 60.58394
# Shear Modulus (GPa) = 73.99927 30.43927 52.21927
#
# Velocity S-wave (km/s) = 5.52214 3.54170 4.63884
# Velocity P-wave (km/s) = 7.95592 6.63464 7.32513
#
# Compressibility (1/GPa) = 0.01820335
#
# Stress axis : x y z
#
# Youngs Moduli (GPa) = 154.37537 99.34550 87.35450
#
# Poissons Ratio (x) = 0.30018 -0.03975
# Poissons Ratio (y) = 0.46646 0.20330
# Poissons Ratio (z) = -0.07024 0.23121
#
# Static dielectric constant tensor:
#      x y z
#    x 2.056350 0.000000 -0.069940 
#    y 0.000000 1.941060 0.000000 
#    z -0.069940 0.000000 1.940380 
# 
# From -- ./inp_files/6260.got.cif
#   From: 2010.05.17/outbox.cif.g08.bks.cpg/sg10_4_cif.got.tgz:6260.got - 2010.06.03 11:33:40.
