data_PCOD9153169
_publ_section_title
;
Structure prediction by ZEFSAII (Michael W. Deem and Ramdas Pophale) SiO2 
 PCOD9153169
Probable space group: P 2/M
;
_chemical_formula_sum "Si O2"
_cell_formula_units_Z 26
_cell_length_a 10.807718
_cell_length_b 21.098062
_cell_length_c 8.488012
_cell_angle_alpha 90.000000
_cell_angle_beta 43.841260
_cell_angle_gamma 90.000000
_cell_volume 1340.615964
_symmetry_space_group_name_H-M "P 2/M"
_symmetry_group_IT_number 10
_symmetry_cell_setting 'monoclinic'
loop_
_space_group_symop_operation_xyz
x,y,z
-x,y,-z
-x,-y,-z
x,-y,z
loop_
_atom_site_type_symbol
_atom_site_label
_atom_site_fract_x
_atom_site_fract_y
_atom_site_fract_z
Si Si1 0.500000 0.341122 0.000000
Si Si2 0.007737 0.901485 0.681145
Si Si3 0.694297 0.000000 0.610427
Si Si4 0.014693 0.761798 0.802446
Si Si5 0.382199 0.309541 0.453218
Si Si6 0.714330 0.000000 0.977230
Si Si7 0.128039 0.427113 0.732206
Si Si8 0.119691 0.353247 0.250794
O O1 0.529981 0.307836 0.801815
O O2 0.688965 0.374356 0.861189
O O3 0.191144 0.939132 0.553874
O O4 0.993081 0.828431 0.737747
O O5 0.000000 0.906916 0.500000
O O6 0.837928 0.939766 0.904560
O O7 0.698726 0.000000 0.799239
O O8 0.483387 0.000000 0.768175
O O9 0.213369 0.736044 0.593751
O O10 0.881605 0.704832 0.872266
O O11 0.000000 0.772477 0.000000
O O12 0.500000 0.294892 0.500000
O O13 0.293466 0.379040 0.567095
O O14 0.184007 0.500000 0.684492
O O15 0.994925 0.410705 0.712010
O O16 0.000000 0.414147 0.000000
O O17 0.000000 0.324901 0.500000
#
# Coordination Sequence:
#
# PCOD9153169 Si02
#       8
#     2   4   2   4   4   2   4   4
#     4  12  22  40  67  92 118 169 208 252 316 374
#     4   9  18  33  58  85 114 150 198 248 297 363
#     4   8  15  33  54  82 118 148 194 245 298 355
#     4  11  22  40  59  85 125 164 202 257 313 367
#     4  11  23  42  62  91 129 164 210 261 312 372
#     4   8  15  33  56  82 113 155 190 244 304 353
#     4  10  21  40  65  89 124 166 202 253 315 373
#     4  11  21  41  62  87 123 157 203 255 307 365
#
# _framework density 19.394069999999999
#
# number of rings (size 3 to 8) (size 9 to 14) (size 15 to 20)
#    0.000    1.846    3.077    5.077    0.000    0.615 
#    5.538    3.077    0.000    0.923    0.000    0.000 
#    0.000    0.000    0.000    0.000    0.000    0.000 
#
# Total GULP energy -144798.432721 kJ/mol
# GULP energy per Si atom -5569.170489 kJ/mol
# Density = 1.934993 g / cm^3
# Si number density = 19.394070 Si / 1000 Ang^3
#
#
#
# Elastic Constant Matrix: (Units=GPa)
#
#
# Indices 1 2 3 4 5 6 
#
# 1 90.4449 8.6617 26.6887 0.0000 -15.9813 0.0000
# 2 8.6617 94.2658 14.6986 0.0000 -10.3659 0.0000
# 3 26.6887 14.6986 81.1474 0.0000 -10.2165 0.0000
# 4 0.0000 0.0000 0.0000 37.0568 0.0000 26.7528
# 5 -15.9813 -10.3659 -10.2165 0.0000 34.7767 0.0000
# 6 0.0000 0.0000 0.0000 26.7528 0.0000 24.7878
#
#
#
# Elastic Compliance Matrix: (Units=1/GPa)
#
#
# Indices 1 2 3 4 5 6 
#
# 1 0.013003 -0.000090 -0.003646 0.000000 0.004877 0.000000
# 2 -0.000090 0.011182 -0.001642 0.000000 0.002809 0.000000
# 3 -0.003646 -0.001642 0.014068 0.000000 0.001968 0.000000
# 4 0.000000 0.000000 0.000000 0.122201 0.000000 -0.131888
# 5 0.004877 0.002809 0.001968 0.000000 0.032412 0.000000
# 6 0.000000 0.000000 0.000000 -0.131888 0.000000 0.182686
#
#
# Mechanical properties :
#
#
# Convention : Reuss Voigt Hill
#
# Bulk Modulus (GPa) = 36.36948 40.66180 38.51564
# Shear Modulus (GPa) = 12.64313 33.71154 23.17733
#
# Velocity S-wave (km/s) = 2.55602 4.17374 3.46073
# Velocity P-wave (km/s) = 5.24448 6.65120 5.98928
#
# Compressibility (1/GPa) = 0.02749558
#
# Stress axis : x y z
#
# Youngs Moduli (GPa) = 76.90654 89.43331 71.08522
#
# Poissons Ratio (x) = 0.00804 0.25919
# Poissons Ratio (y) = 0.00691 0.11673
# Poissons Ratio (z) = 0.28041 0.14686
#
# Static dielectric constant tensor:
#      x y z
#    x 1.673990 0.000000 0.015420 
#    y 0.000000 1.647210 0.000000 
#    z 0.015420 0.000000 1.748710 
# 
# From -- ./inp_files/26026.got.cif
#   From: 2010.05.17/outbox.cif.g08.bks.cpg/sg10_14_cif.got.tgz:26026.got - 2010.06.03 11:33:40.
