data_PCOD9153692
_publ_section_title
;
Structure prediction by ZEFSAII (Michael W. Deem and Ramdas Pophale) SiO2 
 PCOD9153692
Probable space group: P 2/M
;
_chemical_formula_sum "Si O2"
_cell_formula_units_Z 20
_cell_length_a 9.291092
_cell_length_b 11.969908
_cell_length_c 18.129569
_cell_angle_alpha 90.000000
_cell_angle_beta 26.576953
_cell_angle_gamma 90.000000
_cell_volume 902.070399
_symmetry_space_group_name_H-M "P 2/M"
_symmetry_group_IT_number 10
_symmetry_cell_setting 'monoclinic'
loop_
_space_group_symop_operation_xyz
x,y,z
-x,y,-z
-x,-y,-z
x,-y,z
loop_
_atom_site_type_symbol
_atom_site_label
_atom_site_fract_x
_atom_site_fract_y
_atom_site_fract_z
Si Si1 0.288995 0.725901 0.751316
Si Si2 0.961158 0.500000 0.203246
Si Si3 0.715642 0.710210 0.689156
Si Si4 0.132357 0.129897 0.581823
Si Si5 0.838521 0.130771 0.874756
Si Si6 0.689538 0.500000 0.807523
O O1 0.395176 0.713230 0.787094
O O2 0.578756 0.793695 0.579280
O O3 0.223978 0.608365 0.741591
O O4 0.974697 0.799374 0.879526
O O5 0.033119 0.500000 0.257428
O O6 0.326117 0.500000 0.004962
O O7 0.718955 0.610833 0.745599
O O8 0.000000 0.687206 0.500000
O O9 0.816704 0.824194 0.684041
O O10 0.072898 0.139748 0.696415
O O11 0.191778 0.000000 0.537662
O O12 0.802951 0.000000 0.909367
O O13 0.500000 0.174947 0.000000
#
# Coordination Sequence:
#
# PCOD9153692 Si02
#       6
#     4   2   4   4   4   2
#     4  11  23  40  65  96 129 167 221 263 323 384
#     4  11  27  42  67  98 125 177 221 270 325 382
#     4  10  23  41  66  98 132 174 212 268 325 393
#     4  10  22  42  67  96 132 176 217 266 322 384
#     4  10  22  40  64  94 132 172 219 270 321 382
#     4  11  24  46  66  90 137 172 216 271 329 389
#
# _framework density 22.171218
#
# number of rings (size 3 to 8) (size 9 to 14) (size 15 to 20)
#    0.000    1.600    0.000    3.300    5.600   11.600 
#    0.000    6.000    0.000    3.600    0.000    0.000 
#    0.000    0.000    0.000    0.000    0.000    0.000 
#
# Total GULP energy -111936.709298 kJ/mol
# GULP energy per Si atom -5596.835465 kJ/mol
# Density = 2.212076 g / cm^3
# Si number density = 22.171218 Si / 1000 Ang^3
#
#
#
# Elastic Constant Matrix: (Units=GPa)
#
#
# Indices 1 2 3 4 5 6 
#
# 1 196.1336 79.0839 11.9905 0.0000 -31.3305 0.0000
# 2 79.0839 137.0544 20.2008 0.0000 -15.1150 0.0000
# 3 11.9905 20.2008 34.2144 0.0000 -7.5371 0.0000
# 4 0.0000 0.0000 0.0000 38.3292 0.0000 -29.8980
# 5 -31.3305 -15.1150 -7.5371 0.0000 37.4601 0.0000
# 6 0.0000 0.0000 0.0000 -29.8980 0.0000 -4.2658
#
#
#
# Elastic Compliance Matrix: (Units=1/GPa)
#
#
# Indices 1 2 3 4 5 6 
#
# 1 0.007357 -0.003828 0.000730 0.000000 0.004755 0.000000
# 2 -0.003828 0.010192 -0.004683 0.000000 -0.000032 0.000000
# 3 0.000730 -0.004683 0.032914 0.000000 0.005343 0.000000
# 4 0.000000 0.000000 0.000000 0.004034 0.000000 -0.028275
# 5 0.004755 -0.000032 0.005343 0.000000 0.031735 0.000000
# 6 0.000000 0.000000 0.000000 -0.028275 0.000000 -0.036249
#
#
# Mechanical properties :
#
#
# Convention : Reuss Voigt Hill
#
# Bulk Modulus (GPa) = 28.65364 65.55031 47.10198
# Shear Modulus (GPa) = 64.78345 31.37984 48.08164
#
# Velocity S-wave (km/s) = 5.41138 3.76618 4.66193
# Velocity P-wave (km/s) = 7.21082 6.96720 7.09006
#
# Compressibility (1/GPa) = 0.03489958
#
# Stress axis : x y z
#
# Youngs Moduli (GPa) = 135.91991 98.11421 30.38246
#
# Poissons Ratio (x) = 0.37562 -0.02217
# Poissons Ratio (y) = 0.52036 0.14228
# Poissons Ratio (z) = -0.09916 0.45947
#
# Static dielectric constant tensor:
#      x y z
#    x 1.827690 0.000000 -0.024630 
#    y 0.000000 1.760910 0.000000 
#    z -0.024630 0.000000 1.867470 
# 
# From -- ./inp_files/32474.got.cif
#   From: 2010.05.17/outbox.cif.g08.bks.cpg/sg10_17_cif.got.tgz:32474.got - 2010.06.03 11:33:40.
