data_PCOD9153577
_publ_section_title
;
Structure prediction by ZEFSAII (Michael W. Deem and Ramdas Pophale) SiO2 
 PCOD9153577
Probable space group: P 2/M
;
_chemical_formula_sum "Si O2"
_cell_formula_units_Z 16
_cell_length_a 5.081471
_cell_length_b 13.711161
_cell_length_c 11.596645
_cell_angle_alpha 90.000000
_cell_angle_beta 62.875967
_cell_angle_gamma 90.000000
_cell_volume 719.112128
_symmetry_space_group_name_H-M "P 2/M"
_symmetry_group_IT_number 10
_symmetry_cell_setting 'monoclinic'
loop_
_space_group_symop_operation_xyz
x,y,z
-x,y,-z
-x,-y,-z
x,-y,z
loop_
_atom_site_type_symbol
_atom_site_label
_atom_site_fract_x
_atom_site_fract_y
_atom_site_fract_z
Si Si1 0.238142 0.766720 0.757511
Si Si2 0.194288 0.389406 0.122133
Si Si3 0.347965 0.884174 0.156047
Si Si4 0.688215 0.388926 0.626140
O O1 0.431486 0.837949 0.795987
O O2 0.460189 0.697344 0.640913
O O3 0.061037 0.683594 0.861803
O O4 0.968007 0.831399 0.763446
O O5 0.110805 0.500000 0.112099
O O6 0.246684 0.381707 0.249617
O O7 0.500000 0.366427 0.000000
O O8 0.315422 0.000000 0.175908
O O9 0.500000 0.867557 0.000000
O O10 0.574918 0.500000 0.626239
O O11 0.000000 0.378298 0.500000
#
# Coordination Sequence:
#
# PCOD9153577 Si02
#       4
#     4   4   4   4
#     4  12  22  41  67  95 133 172 223 268 339 390
#     4  10  22  39  63 100 139 174 218 272 334 397
#     4  11  25  42  66  99 134 171 221 285 343 399
#     4  10  23  42  65  98 139 183 228 268 318 396
#
# _framework density 22.249658
#
# number of rings (size 3 to 8) (size 9 to 14) (size 15 to 20)
#    0.000    1.250    2.500    3.000    3.500    3.000 
#    0.000    7.500    0.000    6.750    0.000    0.000 
#    0.000    0.000    0.000    0.000    0.000    0.000 
#
# Total GULP energy -89518.072121 kJ/mol
# GULP energy per Si atom -5594.879508 kJ/mol
# Density = 2.219902 g / cm^3
# Si number density = 22.249658 Si / 1000 Ang^3
#
#
#
# Elastic Constant Matrix: (Units=GPa)
#
#
# Indices 1 2 3 4 5 6 
#
# 1 109.1548 51.3577 31.6233 0.0000 -17.4646 0.0000
# 2 51.3577 175.2055 45.7124 0.0000 -40.3686 0.0000
# 3 31.6233 45.7124 142.0158 0.0000 -6.2126 0.0000
# 4 0.0000 0.0000 0.0000 43.0699 0.0000 20.2119
# 5 -17.4646 -40.3686 -6.2126 0.0000 29.5650 0.0000
# 6 0.0000 0.0000 0.0000 20.2119 0.0000 76.8631
#
#
#
# Elastic Compliance Matrix: (Units=1/GPa)
#
#
# Indices 1 2 3 4 5 6 
#
# 1 0.011159 -0.002036 -0.001678 0.000000 0.003459 0.000000
# 2 -0.002036 0.009443 -0.002094 0.000000 0.011251 0.000000
# 3 -0.001678 -0.002094 0.007994 0.000000 -0.002171 0.000000
# 4 0.000000 0.000000 0.000000 0.026487 0.000000 -0.006965
# 5 0.003459 0.011251 -0.002171 0.000000 0.050773 0.000000
# 6 0.000000 0.000000 0.000000 -0.006965 0.000000 0.014842
#
#
# Mechanical properties :
#
#
# Convention : Reuss Voigt Hill
#
# Bulk Modulus (GPa) = 58.89404 75.97365 67.43384
# Shear Modulus (GPa) = 36.23876 49.74511 42.99193
#
# Velocity S-wave (km/s) = 4.04014 4.73352 4.40051
# Velocity P-wave (km/s) = 6.94915 8.00594 7.49619
#
# Compressibility (1/GPa) = 0.01697965
#
# Stress axis : x y z
#
# Youngs Moduli (GPa) = 89.61444 105.89767 125.09088
#
# Poissons Ratio (x) = 0.21563 0.20991
# Poissons Ratio (y) = 0.18248 0.26194
# Poissons Ratio (z) = 0.15038 0.22175
#
# Static dielectric constant tensor:
#      x y z
#    x 1.876620 0.000000 0.021840 
#    y 0.000000 1.819320 0.000000 
#    z 0.021840 0.000000 1.826030 
# 
# From -- ./inp_files/9366.got.cif
#   From: 2010.05.17/outbox.cif.g08.bks.cpg/sg10_5_cif.got.tgz:9366.got - 2010.06.03 11:33:40.
