data_PCOD9153184
_publ_section_title
;
Structure prediction by ZEFSAII (Michael W. Deem and Ramdas Pophale) SiO2 
 PCOD9153184
Probable space group: P 2/M
;
_chemical_formula_sum "Si O2"
_cell_formula_units_Z 30
_cell_length_a 9.965133
_cell_length_b 14.921031
_cell_length_c 11.681706
_cell_angle_alpha 90.000000
_cell_angle_beta 111.688602
_cell_angle_gamma 90.000000
_cell_volume 1613.987845
_symmetry_space_group_name_H-M "P 2/M"
_symmetry_group_IT_number 10
_symmetry_cell_setting 'monoclinic'
loop_
_space_group_symop_operation_xyz
x,y,z
-x,y,-z
-x,-y,-z
x,-y,z
loop_
_atom_site_type_symbol
_atom_site_label
_atom_site_fract_x
_atom_site_fract_y
_atom_site_fract_z
Si Si1 0.837601 0.000000 0.851341
Si Si2 0.379796 0.239488 0.240970
Si Si3 0.193127 0.152469 0.357365
Si Si4 0.547170 0.603218 0.386930
Si Si5 0.144734 0.398796 0.619843
Si Si6 0.126248 0.791429 0.722140
Si Si7 0.642445 0.105749 0.361624
Si Si8 0.151509 0.819903 0.998794
O O1 0.831407 0.077868 0.748240
O O2 0.840916 0.078641 0.951776
O O3 0.268500 0.232879 0.311863
O O4 0.469361 0.329771 0.276637
O O5 0.491781 0.157169 0.293866
O O6 0.288054 0.228900 0.097616
O O7 0.298973 0.119931 0.491017
O O8 0.038437 0.180783 0.358326
O O9 0.500000 0.628404 0.500000
O O10 0.505710 0.500000 0.355639
O O11 0.717623 0.611194 0.420137
O O12 0.152704 0.500000 0.672885
O O13 0.146671 0.314110 0.704610
O O14 0.000000 0.393449 0.500000
O O15 0.238674 0.848289 0.682384
O O16 0.149641 0.813988 0.862372
O O17 0.625895 0.000000 0.334142
O O18 0.000000 0.782399 0.000000
#
# Coordination Sequence:
#
# PCOD9153184 Si02
#       8
#     2   4   4   4   4   4   4   4
#     4  10  21  40  66  91 112 178 225 259 294 380
#     4  11  24  42  63  91 125 169 210 263 312 381
#     4  11  23  40  66  87 129 168 214 256 320 381
#     4  10  21  40  67  97 128 164 208 261 323 389
#     4  10  22  42  67  97 133 168 207 262 331 387
#     4  12  25  41  64  94 129 170 214 264 313 379
#     4  12  26  38  58  99 135 160 203 268 331 375
#     4  11  24  42  65  84 121 174 231 254 297 374
#
# _framework density 18.587501
#
# number of rings (size 3 to 8) (size 9 to 14) (size 15 to 20)
#    0.000    1.067    4.667    2.600    7.467    1.600 
#    0.000    1.333    0.000    2.400    0.000    0.000 
#    0.000    0.000    0.000    0.000    0.000    0.000 
#
# Total GULP energy -167089.246465 kJ/mol
# GULP energy per Si atom -5569.641549 kJ/mol
# Density = 1.854520 g / cm^3
# Si number density = 18.587501 Si / 1000 Ang^3
#
#
#
# Elastic Constant Matrix: (Units=GPa)
#
#
# Indices 1 2 3 4 5 6 
#
# 1 69.3263 3.8368 22.2568 0.0000 14.3798 0.0000
# 2 3.8368 67.8485 35.2155 0.0000 8.9517 0.0000
# 3 22.2568 35.2155 97.0985 0.0000 3.4418 0.0000
# 4 0.0000 0.0000 0.0000 -15.5711 0.0000 -46.6243
# 5 14.3798 8.9517 3.4418 0.0000 33.7383 0.0000
# 6 0.0000 0.0000 0.0000 -46.6243 0.0000 -42.4529
#
#
#
# Elastic Compliance Matrix: (Units=1/GPa)
#
#
# Indices 1 2 3 4 5 6 
#
# 1 0.017326 0.002389 -0.004570 0.000000 -0.007552 0.000000
# 2 0.002389 0.019087 -0.007281 0.000000 -0.005340 0.000000
# 3 -0.004570 -0.007281 0.013900 0.000000 0.002462 0.000000
# 4 0.000000 0.000000 0.000000 0.028063 0.000000 -0.030820
# 5 -0.007552 -0.005340 0.002462 0.000000 0.034024 0.000000
# 6 0.000000 0.000000 0.000000 -0.030820 0.000000 0.010293
#
#
# Mechanical properties :
#
#
# Convention : Reuss Voigt Hill
#
# Bulk Modulus (GPa) = 31.85882 39.65459 35.75670
# Shear Modulus (GPa) = 32.87748 6.67382 19.77565
#
# Velocity S-wave (km/s) = 4.21027 1.89691 3.26532
# Velocity P-wave (km/s) = 6.38845 5.11645 5.78750
#
# Compressibility (1/GPa) = 0.03138848
#
# Stress axis : x y z
#
# Youngs Moduli (GPa) = 57.71663 52.39157 71.94424
#
# Poissons Ratio (x) = -0.12514 0.32879
# Poissons Ratio (y) = -0.13786 0.52380
# Poissons Ratio (z) = 0.26377 0.38145
#
# Static dielectric constant tensor:
#      x y z
#    x 1.672120 0.000000 0.023740 
#    y 0.000000 1.649810 0.000000 
#    z 0.023740 0.000000 1.625340 
# 
# From -- ./inp_files/43015.got.cif
#   From: 2010.05.17/outbox.cif.g08.bks.cpg/sg10_22_cif.got.tgz:43015.got - 2010.06.03 11:33:40.
