data_PCOD9153791
_publ_section_title
;
Structure prediction by ZEFSAII (Michael W. Deem and Ramdas Pophale) SiO2 
 PCOD9153791
Probable space group: P 2/M
;
_chemical_formula_sum "Si O2"
_cell_formula_units_Z 15
_cell_length_a 11.621818
_cell_length_b 11.670129
_cell_length_c 5.184699
_cell_angle_alpha 90.000000
_cell_angle_beta 117.418773
_cell_angle_gamma 90.000000
_cell_volume 624.197683
_symmetry_space_group_name_H-M "P 2/M"
_symmetry_group_IT_number 10
_symmetry_cell_setting 'monoclinic'
loop_
_space_group_symop_operation_xyz
x,y,z
-x,y,-z
-x,-y,-z
x,-y,z
loop_
_atom_site_type_symbol
_atom_site_label
_atom_site_fract_x
_atom_site_fract_y
_atom_site_fract_z
Si Si1 0.092058 0.366381 0.346024
Si Si2 0.410950 0.619975 0.155216
Si Si3 0.269194 0.186291 0.247606
Si Si4 0.500000 0.000000 0.500000
Si Si5 0.086672 0.000000 0.841060
O O1 0.142251 0.500000 0.415788
O O2 0.198701 0.266262 0.392019
O O3 0.000000 0.345075 0.500000
O O4 0.000000 0.362956 0.000000
O O5 0.500000 0.620664 0.500000
O O6 0.337119 0.500000 0.074865
O O7 0.320231 0.724813 0.092272
O O8 0.500000 0.626899 0.000000
O O9 0.388517 0.101892 0.451512
O O10 0.173951 0.109559 0.979663
O O11 0.000000 0.000000 0.500000
O O12 0.000000 0.000000 0.000000
#
# Coordination Sequence:
#
# PCOD9153791 Si02
#       5
#     4   4   4   1   2
#     4  10  23  44  75 113 147 191 249 314 391 456
#     4  10  22  41  70 108 146 188 235 292 377 455
#     4  11  23  47  77 104 159 194 252 322 369 459
#     4  10  24  48  70 116 148 210 266 288 380 452
#     4  11  28  49  71 104 139 201 261 311 375 436
#
# _framework density 24.030847999999999
#
# number of rings (size 3 to 8) (size 9 to 14) (size 15 to 20)
#    0.000    1.600    1.333    1.600    0.000    8.533 
#    0.000   11.333    0.000    2.400    0.000    0.000 
#    0.000    0.000    0.000    0.000    0.000    0.000 
#
# Total GULP energy -83582.283504 kJ/mol
# GULP energy per Si atom -5572.152234 kJ/mol
# Density = 2.397615 g / cm^3
# Si number density = 24.030848 Si / 1000 Ang^3
#
#
#
# Elastic Constant Matrix: (Units=GPa)
#
#
# Indices 1 2 3 4 5 6 
#
# 1 147.6559 132.8438 74.4366 0.0000 -8.6920 0.0000
# 2 132.8438 273.5356 48.9000 0.0000 6.4817 0.0000
# 3 74.4366 48.9000 145.7855 0.0000 -17.1571 0.0000
# 4 0.0000 0.0000 0.0000 13.2221 0.0000 7.4884
# 5 -8.6920 6.4817 -17.1571 0.0000 43.7717 0.0000
# 6 0.0000 0.0000 0.0000 7.4884 0.0000 69.1637
#
#
#
# Elastic Compliance Matrix: (Units=1/GPa)
#
#
# Indices 1 2 3 4 5 6 
#
# 1 0.015682 -0.006671 -0.005542 0.000000 0.001929 0.000000
# 2 -0.006671 0.006782 0.000899 0.000000 -0.001977 0.000000
# 3 -0.005542 0.000899 0.009690 0.000000 0.002564 0.000000
# 4 0.000000 0.000000 0.000000 0.080572 0.000000 -0.008724
# 5 0.001929 -0.001977 0.002564 0.000000 0.024527 0.000000
# 6 0.000000 0.000000 0.000000 -0.008724 0.000000 0.015403
#
#
# Mechanical properties :
#
#
# Convention : Reuss Voigt Hill
#
# Bulk Modulus (GPa) = 104.99640 119.92643 112.46142
# Shear Modulus (GPa) = 28.01777 45.95126 36.98451
#
# Velocity S-wave (km/s) = 3.41824 4.37759 3.92732
# Velocity P-wave (km/s) = 7.70496 8.69279 8.21374
#
# Compressibility (1/GPa) = 0.00952414
#
# Stress axis : x y z
#
# Youngs Moduli (GPa) = 63.76854 147.45502 103.20354
#
# Poissons Ratio (x) = 0.98365 0.57198
# Poissons Ratio (y) = 0.42539 -0.09275
# Poissons Ratio (z) = 0.35342 -0.13251
#
# Static dielectric constant tensor:
#      x y z
#    x 1.930240 0.000000 0.070070 
#    y 0.000000 1.945000 0.000000 
#    z 0.070070 0.000000 1.896460 
# 
# From -- ./inp_files/6387.got.cif
#   From: 2010.05.17/outbox.cif.g08.bks.cpg/sg10_4_cif.got.tgz:6387.got - 2010.06.03 11:33:40.
