data_PCOD9153141
_publ_section_title
;
Structure prediction by ZEFSAII (Michael W. Deem and Ramdas Pophale) SiO2 
 PCOD9153141
Probable space group: P 2/M
;
_chemical_formula_sum "Si O2"
_cell_formula_units_Z 21
_cell_length_a 17.236537
_cell_length_b 7.424470
_cell_length_c 10.285815
_cell_angle_alpha 90.000000
_cell_angle_beta 44.684029
_cell_angle_gamma 90.000000
_cell_volume 925.616118
_symmetry_space_group_name_H-M "P 2/M"
_symmetry_group_IT_number 10
_symmetry_cell_setting 'monoclinic'
loop_
_space_group_symop_operation_xyz
x,y,z
-x,y,-z
-x,-y,-z
x,-y,z
loop_
_atom_site_type_symbol
_atom_site_label
_atom_site_fract_x
_atom_site_fract_y
_atom_site_fract_z
Si Si1 0.121933 0.289945 0.888690
Si Si2 0.477605 0.779527 0.674818
Si Si3 0.301816 0.206794 0.462991
Si Si4 0.230507 0.216690 0.031913
Si Si5 0.146291 0.217804 0.417260
Si Si6 0.000000 0.500000 0.500000
O O1 0.120706 0.500000 0.855819
O O2 0.219761 0.209147 0.684237
O O3 0.156333 0.270917 0.997733
O O4 0.000000 0.216542 0.000000
O O5 0.500000 0.726465 0.500000
O O6 0.580215 0.714095 0.638796
O O7 0.478358 0.000000 0.676709
O O8 0.356128 0.721249 0.860781
O O9 0.233803 0.275767 0.421542
O O10 0.324777 0.000000 0.400823
O O11 0.190681 0.272902 0.221731
O O12 0.230732 0.000000 0.032981
O O13 0.039113 0.339885 0.556361
O O14 0.127394 0.000000 0.446521
#
# Coordination Sequence:
#
# PCOD9153141 Si02
#       6
#     4   4   4   4   4   1
#     4  11  25  38  57  86 124 165 212 261 325 384
#     4   9  16  33  63  92 121 163 207 256 319 376
#     4  10  21  40  63  91 124 161 212 264 314 384
#     4  10  21  40  63  91 124 161 212 264 314 384
#     4  10  25  42  65  98 126 171 220 257 326 385
#     4  12  26  44  72  82 140 176 206 278 310 378
#
# _framework density 22.687591000000001
#
# number of rings (size 3 to 8) (size 9 to 14) (size 15 to 20)
#    0.000    1.905    1.905    0.857    5.333    2.286 
#    0.000    5.714    0.000    1.143    0.000    0.000 
#    0.000    0.000    0.000    0.000    0.000    0.000 
#
# Total GULP energy -117093.439279 kJ/mol
# GULP energy per Si atom -5575.878061 kJ/mol
# Density = 2.263595 g / cm^3
# Si number density = 22.687591 Si / 1000 Ang^3
#
#
#
# Elastic Constant Matrix: (Units=GPa)
#
#
# Indices 1 2 3 4 5 6 
#
# 1 218.5598 17.1026 53.6502 0.0000 -11.4356 0.0000
# 2 17.1026 87.3448 -1.7906 0.0000 -4.8968 0.0000
# 3 53.6502 -1.7906 100.4231 0.0000 -1.6089 0.0000
# 4 0.0000 0.0000 0.0000 -36.5659 0.0000 -2.5547
# 5 -11.4356 -4.8968 -1.6089 0.0000 39.8257 0.0000
# 6 0.0000 0.0000 0.0000 -2.5547 0.0000 -29.5995
#
#
#
# Elastic Compliance Matrix: (Units=1/GPa)
#
#
# Indices 1 2 3 4 5 6 
#
# 1 0.005439 -0.001051 -0.002904 0.000000 0.001315 0.000000
# 2 -0.001051 0.011737 0.000789 0.000000 0.001173 0.000000
# 3 -0.002904 0.000789 0.011519 0.000000 -0.000271 0.000000
# 4 0.000000 0.000000 0.000000 -0.027514 0.000000 0.002375
# 5 0.001315 0.001173 -0.000271 0.000000 0.025620 0.000000
# 6 0.000000 0.000000 0.000000 0.002375 0.000000 -0.033989
#
#
# Mechanical properties :
#
#
# Convention : Reuss Voigt Hill
#
# Bulk Modulus (GPa) = 44.71303 60.47246 52.59275
# Shear Modulus (GPa) = 757.97762 17.22310 387.60036
#
# Velocity S-wave (km/s) = 18.29805 2.75824 13.08485
# Velocity P-wave (km/s) = 21.59111 6.07093 15.85926
#
# Compressibility (1/GPa) = 0.02236484
#
# Stress axis : x y z
#
# Youngs Moduli (GPa) = 183.85124 85.20358 86.81479
#
# Poissons Ratio (x) = 0.08953 0.25207
# Poissons Ratio (y) = 0.19319 -0.06854
# Poissons Ratio (z) = 0.53381 -0.06726
#
# Static dielectric constant tensor:
#      x y z
#    x 1.851290 0.000000 -0.064150 
#    y 0.000000 1.888170 0.000000 
#    z -0.064150 0.000000 1.915440 
# 
# From -- ./inp_files/52572.got.cif
#   From: 2010.05.17/outbox.cif.g08.bks.cpg/sg10_27_cif.got.tgz:52572.got - 2010.06.03 11:33:40.
