data_PCOD9153051
_publ_section_title
;
Structure prediction by ZEFSAII (Michael W. Deem and Ramdas Pophale) SiO2 
 PCOD9153051
Probable space group: P 2/M
;
_chemical_formula_sum "Si O2"
_cell_formula_units_Z 32
_cell_length_a 14.667560
_cell_length_b 8.741737
_cell_length_c 12.635256
_cell_angle_alpha 90.000000
_cell_angle_beta 89.136970
_cell_angle_gamma 90.000000
_cell_volume 1619.908133
_symmetry_space_group_name_H-M "P 2/M"
_symmetry_group_IT_number 10
_symmetry_cell_setting 'monoclinic'
loop_
_space_group_symop_operation_xyz
x,y,z
-x,y,-z
-x,-y,-z
x,-y,z
loop_
_atom_site_type_symbol
_atom_site_label
_atom_site_fract_x
_atom_site_fract_y
_atom_site_fract_z
Si Si1 0.468102 0.184834 0.619845
Si Si2 0.226468 0.677882 0.456426
Si Si3 0.003473 0.317035 0.179749
Si Si4 0.211356 0.317329 0.112794
Si Si5 0.823007 0.818578 0.104805
Si Si6 0.654522 0.179796 0.715478
Si Si7 0.048291 0.174221 0.386277
Si Si8 0.273105 0.318096 0.688205
O O1 0.500000 0.228941 0.500000
O O2 0.549231 0.223424 0.700665
O O3 0.375017 0.263702 0.657588
O O4 0.456543 0.000000 0.619573
O O5 0.251907 0.500000 0.444333
O O6 0.300313 0.783664 0.398885
O O7 0.133366 0.713182 0.397656
O O8 0.217923 0.712552 0.580467
O O9 0.997786 0.500000 0.187030
O O10 0.107324 0.274708 0.147663
O O11 0.986974 0.238011 0.293324
O O12 0.923453 0.257974 0.105888
O O13 0.213793 0.500000 0.102725
O O14 0.285119 0.265748 0.198329
O O15 0.227368 0.239550 0.999456
O O16 0.769240 0.765825 0.210447
O O17 0.832595 0.000000 0.103246
O O18 0.659831 0.000000 0.737089
O O19 0.000000 0.172355 0.500000
O O20 0.077951 0.000000 0.361493
O O21 0.270976 0.500000 0.707617
#
# Coordination Sequence:
#
# PCOD9153051 Si02
#       8
#     4   4   4   4   4   4   4   4
#     4  10  21  39  64  96 130 166 204 253 313 374
#     4  11  22  36  57  87 123 163 203 251 310 368
#     4  11  23  40  63  91 124 163 209 260 311 369
#     4  11  24  43  66  92 126 165 211 262 312 367
#     4  12  26  43  65  91 124 166 213 262 313 371
#     4  11  22  38  64  94 126 161 204 254 305 367
#     4  11  23  36  54  84 122 165 209 255 308 369
#     4  11  24  41  64  93 128 167 209 260 315 375
#
# _framework density 19.754207999999998
#
# number of rings (size 3 to 8) (size 9 to 14) (size 15 to 20)
#    0.000    1.000    2.500    4.500    0.000    8.750 
#    0.000    0.625    0.000    3.750    0.000    0.000 
#    0.000    0.000    0.000    0.000    0.000    0.000 
#
# Total GULP energy -178906.140042 kJ/mol
# GULP energy per Si atom -5590.816876 kJ/mol
# Density = 1.970925 g / cm^3
# Si number density = 19.754208 Si / 1000 Ang^3
#
#
#
# Elastic Constant Matrix: (Units=GPa)
#
#
# Indices 1 2 3 4 5 6 
#
# 1 69.9620 15.8851 24.4372 0.0000 10.5782 0.0000
# 2 15.8851 55.9965 33.6482 0.0000 6.3977 0.0000
# 3 24.4372 33.6482 108.2773 0.0000 12.4306 0.0000
# 4 0.0000 0.0000 0.0000 42.1364 0.0000 3.2648
# 5 10.5782 6.3977 12.4306 0.0000 24.4412 0.0000
# 6 0.0000 0.0000 0.0000 3.2648 0.0000 24.3156
#
#
#
# Elastic Compliance Matrix: (Units=1/GPa)
#
#
# Indices 1 2 3 4 5 6 
#
# 1 0.016502 -0.002711 -0.002276 0.000000 -0.005275 0.000000
# 2 -0.002711 0.022539 -0.006213 0.000000 -0.001567 0.000000
# 3 -0.002276 -0.006213 0.012086 0.000000 -0.003535 0.000000
# 4 0.000000 0.000000 0.000000 0.023982 0.000000 -0.003220
# 5 -0.005275 -0.001567 -0.003535 0.000000 0.045406 0.000000
# 6 0.000000 0.000000 0.000000 -0.003220 0.000000 0.041558
#
#
# Mechanical properties :
#
#
# Convention : Reuss Voigt Hill
#
# Bulk Modulus (GPa) = 34.80995 42.46409 38.63702
# Shear Modulus (GPa) = 25.76687 28.86301 27.31494
#
# Velocity S-wave (km/s) = 3.61553 3.82659 3.72256
# Velocity P-wave (km/s) = 5.92361 6.40832 6.17073
#
# Compressibility (1/GPa) = 0.02872742
#
# Stress axis : x y z
#
# Youngs Moduli (GPa) = 60.60030 44.36665 82.74165
#
# Poissons Ratio (x) = 0.12026 0.18835
# Poissons Ratio (y) = 0.16427 0.51405
# Poissons Ratio (z) = 0.13795 0.27564
#
# Static dielectric constant tensor:
#      x y z
#    x 1.697830 0.000000 -0.003400 
#    y 0.000000 1.654800 0.000000 
#    z -0.003400 0.000000 1.691770 
# 
# From -- ./inp_files/49895.got.cif
#   From: 2010.05.17/outbox.cif.g08.bks.cpg/sg10_25_cif.got.tgz:49895.got - 2010.06.03 11:33:40.
