data_PCOD9153008
_publ_section_title
;
Structure prediction by ZEFSAII (Michael W. Deem and Ramdas Pophale) SiO2 
 PCOD9153008
Probable space group: P 2/M
;
_chemical_formula_sum "Si O2"
_cell_formula_units_Z 28
_cell_length_a 9.714055
_cell_length_b 13.938259
_cell_length_c 24.042312
_cell_angle_alpha 90.000000
_cell_angle_beta 154.122261
_cell_angle_gamma 90.000000
_cell_volume 1420.764366
_symmetry_space_group_name_H-M "P 2/M"
_symmetry_group_IT_number 10
_symmetry_cell_setting 'monoclinic'
loop_
_space_group_symop_operation_xyz
x,y,z
-x,y,-z
-x,-y,-z
x,-y,z
loop_
_atom_site_type_symbol
_atom_site_label
_atom_site_fract_x
_atom_site_fract_y
_atom_site_fract_z
Si Si1 0.698260 0.293761 0.930120
Si Si2 0.928862 0.391675 0.318903
Si Si3 0.172375 0.779210 0.900030
Si Si4 0.136492 0.390019 0.272334
Si Si5 0.457503 0.110508 0.313737
Si Si6 0.786868 0.701233 0.473617
Si Si7 0.623362 0.895869 0.848681
O O1 0.434108 0.375166 0.831067
O O2 0.520338 0.197972 0.843541
O O3 0.816252 0.265289 0.034018
O O4 0.000000 0.313129 0.000000
O O5 0.969545 0.500000 0.355516
O O6 0.139720 0.382479 0.340243
O O7 0.028733 0.317715 0.402565
O O8 0.111904 0.688217 0.838567
O O9 0.888750 0.854479 0.793358
O O10 0.500000 0.824212 0.000000
O O11 0.059329 0.500000 0.230257
O O12 0.463274 0.358001 0.362993
O O13 0.691984 0.188803 0.425353
O O14 0.443284 0.116644 0.241083
O O15 0.525483 0.000000 0.352969
O O16 0.000000 0.666803 0.500000
O O17 0.494929 0.000000 0.819114
O O18 0.000000 0.898639 0.000000
#
# Coordination Sequence:
#
# PCOD9153008 Si02
#       7
#     4   4   4   4   4   4   4
#     4  11  21  37  61  93 129 159 199 255 307 361
#     4  11  24  42  63  87 121 168 211 248 305 372
#     4  11  21  37  61  94 128 164 199 252 308 365
#     4  10  23  42  63  86 120 169 212 249 304 374
#     4  10  21  39  63  92 125 161 201 248 307 369
#     4  11  24  41  64  91 120 155 208 266 308 352
#     4   9  16  31  58  86 116 156 195 233 290 366
#
# _framework density 19.707702000000001
#
# number of rings (size 3 to 8) (size 9 to 14) (size 15 to 20)
#    0.000    1.571    4.286    1.714    2.000    4.000 
#    0.000    0.714    0.000    6.857    0.000    0.000 
#    0.000    0.000    0.000    0.000    0.000    0.000 
#
# Total GULP energy -156222.270059 kJ/mol
# GULP energy per Si atom -5579.366788 kJ/mol
# Density = 1.966285 g / cm^3
# Si number density = 19.707702 Si / 1000 Ang^3
#
#
#
# Elastic Constant Matrix: (Units=GPa)
#
#
# Indices 1 2 3 4 5 6 
#
# 1 83.8085 17.4074 20.0629 0.0000 3.2804 0.0000
# 2 17.4074 95.8713 33.4069 0.0000 -22.0883 0.0000
# 3 20.0629 33.4069 49.9580 0.0000 -4.1893 0.0000
# 4 0.0000 0.0000 0.0000 -135.2763 0.0000 -45.2351
# 5 3.2804 -22.0883 -4.1893 0.0000 31.3527 0.0000
# 6 0.0000 0.0000 0.0000 -45.2351 0.0000 10.8269
#
#
#
# Elastic Compliance Matrix: (Units=1/GPa)
#
#
# Indices 1 2 3 4 5 6 
#
# 1 0.013488 -0.001552 -0.004641 0.000000 -0.003124 0.000000
# 2 -0.001552 0.016430 -0.009486 0.000000 0.010470 0.000000
# 3 -0.004641 -0.009486 0.028018 0.000000 -0.002453 0.000000
# 4 0.000000 0.000000 0.000000 -0.003084 0.000000 -0.012884
# 5 -0.003124 0.010470 -0.002453 0.000000 0.039270 0.000000
# 6 0.000000 0.000000 0.000000 -0.012884 0.000000 0.038531
#
#
# Mechanical properties :
#
#
# Convention : Reuss Voigt Hill
#
# Bulk Modulus (GPa) = 37.62371 41.26582 39.44476
# Shear Modulus (GPa) = 28.92363 -8.03531 10.44416
#
# Velocity S-wave (km/s) = 3.83512 -2.02141 2.30457
# Velocity P-wave (km/s) = 6.22440 3.94161 5.20958
#
# Compressibility (1/GPa) = 0.02657898
#
# Stress axis : x y z
#
# Youngs Moduli (GPa) = 74.14249 60.86455 35.69147
#
# Poissons Ratio (x) = 0.09444 0.16564
# Poissons Ratio (y) = 0.11504 0.33855
# Poissons Ratio (z) = 0.34409 0.57734
#
# Static dielectric constant tensor:
#      x y z
#    x 1.675940 0.000000 0.008100 
#    y 0.000000 1.687180 0.000000 
#    z 0.008100 0.000000 1.720750 
# 
# From -- ./inp_files/29609.got.cif
#   From: 2010.05.17/outbox.cif.g08.bks.cpg/sg10_15_cif.got.tgz:29609.got - 2010.06.03 11:33:40.
