data_PCOD9153245
_publ_section_title
;
Structure prediction by ZEFSAII (Michael W. Deem and Ramdas Pophale) SiO2 
 PCOD9153245
Probable space group: P 2/M
;
_chemical_formula_sum "Si O2"
_cell_formula_units_Z 24
_cell_length_a 17.942954
_cell_length_b 11.902436
_cell_length_c 11.904726
_cell_angle_alpha 90.000000
_cell_angle_beta 148.772512
_cell_angle_gamma 90.000000
_cell_volume 1318.091187
_symmetry_space_group_name_H-M "P 2/M"
_symmetry_group_IT_number 10
_symmetry_cell_setting 'monoclinic'
loop_
_space_group_symop_operation_xyz
x,y,z
-x,y,-z
-x,-y,-z
x,-y,z
loop_
_atom_site_type_symbol
_atom_site_label
_atom_site_fract_x
_atom_site_fract_y
_atom_site_fract_z
Si Si1 0.344245 0.741910 0.987201
Si Si2 0.937682 0.257404 0.227896
Si Si3 0.614933 0.867608 0.411986
Si Si4 0.135547 0.130762 0.090788
Si Si5 0.763281 0.866796 0.362585
Si Si6 0.366618 0.500000 0.912115
Si Si7 0.045086 0.500000 0.426277
O O1 0.192392 0.757218 0.853027
O O2 0.334919 0.808536 0.857567
O O3 0.367391 0.611792 0.988076
O O4 0.473021 0.793001 0.225762
O O5 0.078257 0.185754 0.441278
O O6 0.984682 0.387412 0.292586
O O7 0.886109 0.212911 0.041009
O O8 0.721498 0.846704 0.652968
O O9 0.701846 0.846264 0.408204
O O10 0.576676 0.000000 0.363642
O O11 0.138824 0.000000 0.056130
O O12 0.000000 0.140277 0.000000
O O13 0.767427 0.000000 0.349693
O O14 0.217721 0.500000 0.650501
O O15 0.500000 0.500000 0.000000
O O16 0.000000 0.500000 0.500000
#
# Coordination Sequence:
#
# PCOD9153245 Si02
#       7
#     4   4   4   4   4   2   2
#     4  12  24  38  59  95 128 158 209 266 323 382
#     4  12  23  39  65  90 124 166 213 259 316 378
#     4  10  22  40  61  87 127 168 206 259 317 373
#     4  10  21  41  66  90 123 173 220 258 309 377
#     4  11  21  36  61  91 124 163 207 261 319 384
#     4  12  24  40  65  90 124 171 206 248 319 392
#     4  12  22  46  64  92 131 166 204 263 329 374
#
# _framework density 18.208148000000001
#
# number of rings (size 3 to 8) (size 9 to 14) (size 15 to 20)
#    0.000    0.833    5.000    3.000    0.000    5.333 
#    0.000    2.917    0.000    2.000    0.000    0.000 
#    0.000    0.000    0.000    0.000    0.000    0.000 
#
# Total GULP energy -134215.435903 kJ/mol
# GULP energy per Si atom -5592.309829 kJ/mol
# Density = 1.816671 g / cm^3
# Si number density = 18.208148 Si / 1000 Ang^3
#
#
#
# Elastic Constant Matrix: (Units=GPa)
#
#
# Indices 1 2 3 4 5 6 
#
# 1 53.5882 31.5827 22.6425 0.0000 0.7020 0.0000
# 2 31.5827 107.3467 59.8777 0.0000 -10.6112 0.0000
# 3 22.6425 59.8777 117.8482 0.0000 -2.3778 0.0000
# 4 0.0000 0.0000 0.0000 38.6315 0.0000 0.0280
# 5 0.7020 -10.6112 -2.3778 0.0000 38.7800 0.0000
# 6 0.0000 0.0000 0.0000 0.0280 0.0000 23.4846
#
#
#
# Elastic Compliance Matrix: (Units=1/GPa)
#
#
# Indices 1 2 3 4 5 6 
#
# 1 0.022910 -0.006249 -0.001271 0.000000 -0.002203 0.000000
# 2 -0.006249 0.015102 -0.006395 0.000000 0.003853 0.000000
# 3 -0.001271 -0.006395 0.011959 0.000000 -0.000994 0.000000
# 4 0.000000 0.000000 0.000000 0.025886 0.000000 -0.000031
# 5 -0.002203 0.003853 -0.000994 0.000000 0.026820 0.000000
# 6 0.000000 0.000000 0.000000 -0.000031 0.000000 0.042581
#
#
# Mechanical properties :
#
#
# Convention : Reuss Voigt Hill
#
# Bulk Modulus (GPa) = 45.16567 56.33209 50.74888
# Shear Modulus (GPa) = 27.70587 31.15792 29.43190
#
# Velocity S-wave (km/s) = 3.90503 4.14116 4.02483
# Velocity P-wave (km/s) = 6.72245 7.33966 7.03783
#
# Compressibility (1/GPa) = 0.02214071
#
# Stress axis : x y z
#
# Youngs Moduli (GPa) = 43.64970 66.21603 83.62020
#
# Poissons Ratio (x) = 0.41379 0.10629
# Poissons Ratio (y) = 0.27277 0.53474
# Poissons Ratio (z) = 0.05548 0.42344
#
# Static dielectric constant tensor:
#      x y z
#    x 1.618160 0.000000 0.011050 
#    y 0.000000 1.601910 0.000000 
#    z 0.011050 0.000000 1.618470 
# 
# From -- ./inp_files/46528.got.cif
#   From: 2010.05.17/outbox.cif.g08.bks.cpg/sg10_24_cif.got.tgz:46528.got - 2010.06.03 11:33:40.
