data_PCOD9153075
_publ_section_title
;
Structure prediction by ZEFSAII (Michael W. Deem and Ramdas Pophale) SiO2 
 PCOD9153075
Probable space group: P 2/M
;
_chemical_formula_sum "Si O2"
_cell_formula_units_Z 21
_cell_length_a 14.177719
_cell_length_b 18.240749
_cell_length_c 11.552770
_cell_angle_alpha 90.000000
_cell_angle_beta 160.063305
_cell_angle_gamma 90.000000
_cell_volume 1018.746697
_symmetry_space_group_name_H-M "P 2/M"
_symmetry_group_IT_number 10
_symmetry_cell_setting 'monoclinic'
loop_
_space_group_symop_operation_xyz
x,y,z
-x,y,-z
-x,-y,-z
x,-y,z
loop_
_atom_site_type_symbol
_atom_site_label
_atom_site_fract_x
_atom_site_fract_y
_atom_site_fract_z
Si Si1 0.213368 0.581056 0.097312
Si Si2 0.266195 0.387627 0.886965
Si Si3 0.500000 0.500000 0.000000
Si Si4 0.016105 0.736735 0.888561
Si Si5 0.683572 0.919343 0.097308
Si Si6 0.406748 0.231452 0.130668
O O1 0.500000 0.591171 0.500000
O O2 0.106704 0.500000 0.999930
O O3 0.252088 0.587651 0.003614
O O4 0.015913 0.648698 0.896796
O O5 0.507873 0.434721 0.108235
O O6 0.000000 0.409143 0.500000
O O7 0.294031 0.299647 0.924008
O O8 0.735508 0.760776 0.504705
O O9 0.000000 0.766871 0.000000
O O10 0.277944 0.756698 0.110553
O O11 0.000000 0.923001 0.500000
O O12 0.605759 0.000000 0.958542
O O13 0.500000 0.907499 0.000000
O O14 0.660907 0.849437 0.989569
#
# Coordination Sequence:
#
# PCOD9153075 Si02
#       6
#     4   4   1   4   4   4
#     4  10  22  43  63  88 122 165 226 277 323 378
#     4  11  25  40  59  88 125 165 209 262 322 382
#     4  12  26  36  62  80 134 168 204 264 328 382
#     4  11  23  42  63  90 125 164 212 268 319 371
#     4  10  21  39  65  97 131 162 202 258 318 383
#     4  11  24  40  66  93 123 167 212 255 316 393
#
# _framework density 20.613564
#
# number of rings (size 3 to 8) (size 9 to 14) (size 15 to 20)
#    0.000    1.333    0.952    4.857    6.667    0.381 
#    0.000    0.000    0.000    3.429    0.000    0.000 
#    0.000    0.000    0.000    0.000    0.000    0.000 
#
# Total GULP energy -117029.567830 kJ/mol
# GULP energy per Si atom -5572.836563 kJ/mol
# Density = 2.056665 g / cm^3
# Si number density = 20.613564 Si / 1000 Ang^3
#
#
#
# Elastic Constant Matrix: (Units=GPa)
#
#
# Indices 1 2 3 4 5 6 
#
# 1 112.7755 29.5296 -6.7414 0.0000 -8.1624 0.0000
# 2 29.5296 171.0699 2.6130 0.0000 -15.7446 0.0000
# 3 -6.7414 2.6130 47.5514 0.0000 -12.1349 0.0000
# 4 0.0000 0.0000 0.0000 29.6873 0.0000 9.0346
# 5 -8.1624 -15.7446 -12.1349 0.0000 34.6651 0.0000
# 6 0.0000 0.0000 0.0000 9.0346 0.0000 11.9491
#
#
#
# Elastic Compliance Matrix: (Units=1/GPa)
#
#
# Indices 1 2 3 4 5 6 
#
# 1 0.009537 -0.001467 0.002016 0.000000 0.002285 0.000000
# 2 -0.001467 0.006333 0.000099 0.000000 0.002566 0.000000
# 3 0.002016 0.000099 0.023546 0.000000 0.008762 0.000000
# 4 0.000000 0.000000 0.000000 0.043752 0.000000 -0.033080
# 5 0.002285 0.002566 0.008762 0.000000 0.033618 0.000000
# 6 0.000000 0.000000 0.000000 -0.033080 0.000000 0.108699
#
#
# Mechanical properties :
#
#
# Convention : Reuss Voigt Hill
#
# Bulk Modulus (GPa) = 24.56241 42.46658 33.51449
# Shear Modulus (GPa) = 21.02952 35.66002 28.34477
#
# Velocity S-wave (km/s) = 3.19749 4.16375 3.71220
# Velocity P-wave (km/s) = 5.05702 6.61527 5.88792
#
# Compressibility (1/GPa) = 0.04071262
#
# Stress axis : x y z
#
# Youngs Moduli (GPa) = 104.85331 157.89349 42.46953
#
# Poissons Ratio (x) = 0.23159 -0.08561
# Poissons Ratio (y) = 0.15379 -0.00420
# Poissons Ratio (z) = -0.21137 -0.01560
#
# Static dielectric constant tensor:
#      x y z
#    x 2.021380 0.000000 0.055580 
#    y 0.000000 1.731630 0.000000 
#    z 0.055580 0.000000 1.789230 
# 
# From -- ./inp_files/51915.got.cif
#   From: 2010.05.17/outbox.cif.g08.bks.cpg/sg10_26_cif.got.tgz:51915.got - 2010.06.03 11:33:40.
