data_PCOD9153740
_publ_section_title
;
Structure prediction by ZEFSAII (Michael W. Deem and Ramdas Pophale) SiO2 
 PCOD9153740
Probable space group: P 2/M
;
_chemical_formula_sum "Si O2"
_cell_formula_units_Z 26
_cell_length_a 8.289580
_cell_length_b 9.257980
_cell_length_c 21.047341
_cell_angle_alpha 90.000000
_cell_angle_beta 51.712051
_cell_angle_gamma 90.000000
_cell_volume 1267.838819
_symmetry_space_group_name_H-M "P 2/M"
_symmetry_group_IT_number 10
_symmetry_cell_setting 'monoclinic'
loop_
_space_group_symop_operation_xyz
x,y,z
-x,y,-z
-x,-y,-z
x,-y,z
loop_
_atom_site_type_symbol
_atom_site_label
_atom_site_fract_x
_atom_site_fract_y
_atom_site_fract_z
Si Si1 0.877592 0.668442 0.666437
Si Si2 0.000000 0.235304 0.500000
Si Si3 0.642595 0.164581 0.026895
Si Si4 0.451101 0.836877 0.437828
Si Si5 0.449921 0.326259 0.826543
Si Si6 0.820167 0.326465 0.298933
Si Si7 0.068299 0.172517 0.853609
O O1 0.866101 0.500000 0.684108
O O2 0.660269 0.727989 0.742721
O O3 0.918923 0.684524 0.582234
O O4 0.064486 0.721415 0.664518
O O5 0.789545 0.164345 0.523282
O O6 0.559928 0.277036 0.098143
O O7 0.642480 0.000000 0.053687
O O8 0.500000 0.164639 0.000000
O O9 0.870707 0.197600 0.946179
O O10 0.500000 0.799985 0.500000
O O11 0.586944 0.730175 0.361637
O O12 0.527966 0.000000 0.409258
O O13 0.430476 0.500000 0.824797
O O14 0.262774 0.244798 0.839269
O O15 0.819744 0.500000 0.292088
O O16 0.941028 0.251271 0.212025
O O17 0.089540 0.000000 0.840244
#
# Coordination Sequence:
#
# PCOD9153740 Si02
#       7
#     4   2   4   4   4   4   4
#     4  10  23  40  62  93 128 166 212 266 322 386
#     4  12  22  42  68  94 125 176 217 268 323 388
#     4  10  22  41  64  91 124 165 213 261 317 385
#     4  11  24  43  64  93 129 166 214 267 320 382
#     4  11  23  40  62  93 129 166 211 263 320 382
#     4  11  23  42  65  94 128 167 214 264 323 383
#     4  11  23  40  63  92 126 166 210 261 319 382
#
# _framework density 20.507337
#
# number of rings (size 3 to 8) (size 9 to 14) (size 15 to 20)
#    0.000    1.231    1.538    4.154    0.000    6.154 
#    0.000    4.615    0.000    0.000    0.000    0.000 
#    0.000    0.000    0.000    0.000    0.000    0.000 
#
# Total GULP energy -145139.947816 kJ/mol
# GULP energy per Si atom -5582.305685 kJ/mol
# Density = 2.046066 g / cm^3
# Si number density = 20.507337 Si / 1000 Ang^3
#
#
#
# Elastic Constant Matrix: (Units=GPa)
#
#
# Indices 1 2 3 4 5 6 
#
# 1 97.1016 6.2736 32.7493 0.0000 -13.5287 0.0000
# 2 6.2736 50.4559 38.1153 0.0000 -15.6103 0.0000
# 3 32.7493 38.1153 112.2554 0.0000 -15.4733 0.0000
# 4 0.0000 0.0000 0.0000 37.6347 0.0000 12.1569
# 5 -13.5287 -15.6103 -15.4733 0.0000 40.6624 0.0000
# 6 0.0000 0.0000 0.0000 12.1569 0.0000 20.6705
#
#
#
# Elastic Compliance Matrix: (Units=1/GPa)
#
#
# Indices 1 2 3 4 5 6 
#
# 1 0.011917 0.002494 -0.003847 0.000000 0.003458 0.000000
# 2 0.002494 0.029315 -0.009515 0.000000 0.008463 0.000000
# 3 -0.003847 -0.009515 0.013278 0.000000 0.000120 0.000000
# 4 0.000000 0.000000 0.000000 0.032803 0.000000 -0.019292
# 5 0.003458 0.008463 0.000120 0.000000 0.029038 0.000000
# 6 0.000000 0.000000 0.000000 -0.019292 0.000000 0.059725
#
#
# Mechanical properties :
#
#
# Convention : Reuss Voigt Hill
#
# Bulk Modulus (GPa) = 30.51120 46.00991 38.26056
# Shear Modulus (GPa) = 23.95384 31.97183 27.96283
#
# Velocity S-wave (km/s) = 3.42140 3.95276 3.69664
# Velocity P-wave (km/s) = 5.52435 6.58156 6.07599
#
# Compressibility (1/GPa) = 0.03277485
#
# Stress axis : x y z
#
# Youngs Moduli (GPa) = 83.91683 34.11201 75.31435
#
# Poissons Ratio (x) = -0.08508 0.28971
# Poissons Ratio (y) = -0.20930 0.71660
# Poissons Ratio (z) = 0.32280 0.32457
#
# Static dielectric constant tensor:
#      x y z
#    x 1.775460 0.000000 0.003060 
#    y 0.000000 1.706020 0.000000 
#    z 0.003060 0.000000 1.734120 
# 
# From -- ./inp_files/82188.got.cif
#   From: 2010.05.17/outbox.cif.g08.bks.cpg/sg10_42_cif.got.tgz:82188.got - 2010.06.03 11:33:40.
