data_PCOD9153448
_publ_section_title
;
Structure prediction by ZEFSAII (Michael W. Deem and Ramdas Pophale) SiO2 
 PCOD9153448
Probable space group: P 2/M
;
_chemical_formula_sum "Si O2"
_cell_formula_units_Z 28
_cell_length_a 18.337819
_cell_length_b 7.767045
_cell_length_c 14.716486
_cell_angle_alpha 90.000000
_cell_angle_beta 146.577958
_cell_angle_gamma 90.000000
_cell_volume 1154.524174
_symmetry_space_group_name_H-M "P 2/M"
_symmetry_group_IT_number 10
_symmetry_cell_setting 'monoclinic'
loop_
_space_group_symop_operation_xyz
x,y,z
-x,y,-z
-x,-y,-z
x,-y,z
loop_
_atom_site_type_symbol
_atom_site_label
_atom_site_fract_x
_atom_site_fract_y
_atom_site_fract_z
Si Si1 0.537401 0.290076 0.829967
Si Si2 0.802365 0.208273 0.740014
Si Si3 0.911273 0.207432 0.042430
Si Si4 0.514610 0.700120 0.415733
Si Si5 0.250474 0.193306 0.797902
Si Si6 0.743220 0.304292 0.393916
Si Si7 0.032744 0.298115 0.704395
O O1 0.538081 0.500000 0.830020
O O2 0.558891 0.227686 0.748960
O O3 0.392070 0.227363 0.709482
O O4 0.642431 0.233606 0.013501
O O5 0.672077 0.287988 0.561414
O O6 0.939761 0.256793 0.834552
O O7 0.792941 0.000000 0.726785
O O8 0.816607 0.261105 0.860999
O O9 0.889720 0.278893 0.120134
O O10 0.906634 0.000000 0.042027
O O11 0.500000 0.782983 0.500000
O O12 0.475476 0.500000 0.382404
O O13 0.264196 0.307427 0.723119
O O14 0.111035 0.213774 0.703605
O O15 0.268184 0.000000 0.783360
O O16 0.747986 0.500000 0.434077
O O17 0.885400 0.223253 0.564440
O O18 0.021688 0.500000 0.671103
#
# Coordination Sequence:
#
# PCOD9153448 Si02
#       7
#     4   4   4   4   4   4   4
#     4  10  22  42  65  89 123 163 203 252 308 361
#     4   9  19  36  57  82 118 159 198 241 296 355
#     4   9  19  36  57  85 120 157 196 243 295 353
#     4  10  22  38  58  87 121 155 201 253 294 343
#     4  12  26  41  61  92 126 160 202 253 305 363
#     4  10  22  42  66  90 119 160 206 252 306 367
#     4  11  23  39  63  92 123 159 201 248 304 364
#
# _framework density 24.252414999999999
#
# number of rings (size 3 to 8) (size 9 to 14) (size 15 to 20)
#    0.000    1.857    0.000    4.286    2.000    8.286 
#    0.000    1.429    0.000    0.000    0.000    0.000 
#    0.000    0.000    0.000    0.000    0.000    0.000 
#
# Total GULP energy -156654.869521 kJ/mol
# GULP energy per Si atom -5594.816769 kJ/mol
# Density = 2.419722 g / cm^3
# Si number density = 24.252415 Si / 1000 Ang^3
#
#
#
# Elastic Constant Matrix: (Units=GPa)
#
#
# Indices 1 2 3 4 5 6 
#
# 1 64.7916 5.8129 16.0349 0.0000 -15.4730 0.0000
# 2 5.8129 53.7514 -2.9591 0.0000 1.1460 0.0000
# 3 16.0349 -2.9591 111.0623 0.0000 -12.7969 0.0000
# 4 0.0000 0.0000 0.0000 30.7284 0.0000 -6.0970
# 5 -15.4730 1.1460 -12.7969 0.0000 42.8023 0.0000
# 6 0.0000 0.0000 0.0000 -6.0970 0.0000 17.3660
#
#
#
# Elastic Compliance Matrix: (Units=1/GPa)
#
#
# Indices 1 2 3 4 5 6 
#
# 1 0.017484 -0.002120 -0.001912 0.000000 0.005806 0.000000
# 2 -0.002120 0.018894 0.000687 0.000000 -0.001067 0.000000
# 3 -0.001912 0.000687 0.009545 0.000000 0.002144 0.000000
# 4 0.000000 0.000000 0.000000 0.034980 0.000000 0.012281
# 5 0.005806 -0.001067 0.002144 0.000000 0.026132 0.000000
# 6 0.000000 0.000000 0.000000 0.012281 0.000000 0.061895
#
#
# Mechanical properties :
#
#
# Convention : Reuss Voigt Hill
#
# Bulk Modulus (GPa) = 25.48878 29.70918 27.59898
# Shear Modulus (GPa) = 26.49737 32.22713 29.36225
#
# Velocity S-wave (km/s) = 3.30898 3.64926 3.48328
# Velocity P-wave (km/s) = 5.01316 5.48021 5.25188
#
# Compressibility (1/GPa) = 0.03923295
#
# Stress axis : x y z
#
# Youngs Moduli (GPa) = 57.19566 52.92705 104.76308
#
# Poissons Ratio (x) = 0.11219 0.20029
# Poissons Ratio (y) = 0.12124 -0.07192
# Poissons Ratio (z) = 0.10935 -0.03634
#
# Static dielectric constant tensor:
#      x y z
#    x 1.936880 0.000000 0.013500 
#    y 0.000000 1.894450 0.000000 
#    z 0.013500 0.000000 1.918460 
# 
# From -- ./inp_files/70280.got.cif
#   From: 2010.05.17/outbox.cif.g08.bks.cpg/sg10_36_cif.got.tgz:70280.got - 2010.06.03 11:33:40.
