data_PCOD9153283
_publ_section_title
;
Structure prediction by ZEFSAII (Michael W. Deem and Ramdas Pophale) SiO2 
 PCOD9153283
Probable space group: P 2/M
;
_chemical_formula_sum "Si O2"
_cell_formula_units_Z 26
_cell_length_a 14.864095
_cell_length_b 8.629057
_cell_length_c 13.807707
_cell_angle_alpha 90.000000
_cell_angle_beta 40.530101
_cell_angle_gamma 90.000000
_cell_volume 1150.892579
_symmetry_space_group_name_H-M "P 2/M"
_symmetry_group_IT_number 10
_symmetry_cell_setting 'monoclinic'
loop_
_space_group_symop_operation_xyz
x,y,z
-x,y,-z
-x,-y,-z
x,-y,z
loop_
_atom_site_type_symbol
_atom_site_label
_atom_site_fract_x
_atom_site_fract_y
_atom_site_fract_z
Si Si1 0.201536 0.756259 0.621545
Si Si2 0.509891 0.832925 0.313824
Si Si3 0.704119 0.500000 0.768414
Si Si4 0.812206 0.500000 0.879080
Si Si5 0.114552 0.500000 0.546129
Si Si6 0.235238 0.327563 0.814571
Si Si7 0.571572 0.170137 0.836481
Si Si8 0.114419 0.171148 0.085221
O O1 0.349982 0.831636 0.477353
O O2 0.182206 0.643314 0.546895
O O3 0.220314 0.683058 0.712165
O O4 0.048874 0.831459 0.756129
O O5 0.606201 0.704664 0.283788
O O6 0.514676 0.822211 0.193158
O O7 0.568364 0.000000 0.296383
O O8 0.696890 0.500000 0.890458
O O9 0.850889 0.500000 0.593917
O O10 0.643700 0.336825 0.782397
O O11 0.818142 0.329880 0.925255
O O12 0.956139 0.500000 0.703893
O O13 0.191194 0.500000 0.880546
O O14 0.143934 0.203305 0.947810
O O15 0.647382 0.000000 0.765278
O O16 0.500000 0.161051 0.000000
O O17 0.169875 0.000000 0.068199
#
# Coordination Sequence:
#
# PCOD9153283 Si02
#       8
#     4   4   2   2   2   4   4   4
#     4  11  23  43  71  97 133 184 230 277 337 404
#     4  11  25  43  65  97 138 176 228 288 336 403
#     4  12  22  42  73  94 125 177 220 276 341 412
#     4  10  25  42  67 102 132 171 225 280 338 406
#     4  10  21  42  65  97 135 170 218 284 337 402
#     4  12  26  40  67 102 139 182 230 280 336 399
#     4  10  24  42  64  95 130 172 223 278 336 403
#     4  11  25  46  71 100 139 182 227 281 338 403
#
# _framework density 22.591161
#
# number of rings (size 3 to 8) (size 9 to 14) (size 15 to 20)
#    0.000    1.077    3.077    2.308    4.308    5.538 
#    0.000    0.000    0.000    2.769    0.000    0.000 
#    0.000    0.000    0.000    0.000    0.000    0.000 
#
# Total GULP energy -144854.728380 kJ/mol
# GULP energy per Si atom -5571.335707 kJ/mol
# Density = 2.253974 g / cm^3
# Si number density = 22.591161 Si / 1000 Ang^3
#
#
#
# Elastic Constant Matrix: (Units=GPa)
#
#
# Indices 1 2 3 4 5 6 
#
# 1 76.0356 47.9459 5.2706 0.0000 15.6766 0.0000
# 2 47.9459 173.5594 29.9353 0.0000 2.0995 0.0000
# 3 5.2706 29.9353 102.7087 0.0000 1.3342 0.0000
# 4 0.0000 0.0000 0.0000 9.7062 0.0000 -30.0749
# 5 15.6766 2.0995 1.3342 0.0000 37.6714 0.0000
# 6 0.0000 0.0000 0.0000 -30.0749 0.0000 65.1578
#
#
#
# Elastic Compliance Matrix: (Units=1/GPa)
#
#
# Indices 1 2 3 4 5 6 
#
# 1 0.017662 -0.004899 0.000614 0.000000 -0.007099 0.000000
# 2 -0.004899 0.007428 -0.001936 0.000000 0.001693 0.000000
# 3 0.000614 -0.001936 0.010276 0.000000 -0.000511 0.000000
# 4 0.000000 0.000000 0.000000 -0.239496 0.000000 -0.110544
# 5 -0.007099 0.001693 -0.000511 0.000000 0.029423 0.000000
# 6 0.000000 0.000000 0.000000 -0.110544 0.000000 -0.035677
#
#
# Mechanical properties :
#
#
# Convention : Reuss Voigt Hill
#
# Bulk Modulus (GPa) = 43.62252 57.62304 50.62278
# Shear Modulus (GPa) = -26.27424 40.45056 7.08816
#
# Velocity S-wave (km/s) = -3.41402 4.23608 1.77324
# Velocity P-wave (km/s) = 1.95211 7.03478 5.16231
#
# Compressibility (1/GPa) = 0.02292394
#
# Stress axis : x y z
#
# Youngs Moduli (GPa) = 56.61885 134.61702 97.31801
#
# Poissons Ratio (x) = 0.65950 -0.05973
# Poissons Ratio (y) = 0.27738 0.18838
# Poissons Ratio (z) = -0.03475 0.26058
#
# Static dielectric constant tensor:
#      x y z
#    x 1.839190 0.000000 -0.038450 
#    y 0.000000 1.878960 0.000000 
#    z -0.038450 0.000000 1.843360 
# 
# From -- ./inp_files/66812.got.cif
#   From: 2010.05.17/outbox.cif.g08.bks.cpg/sg10_34_cif.got.tgz:66812.got - 2010.06.03 11:33:40.
