data_PCOD9153796
_publ_section_title
;
Structure prediction by ZEFSAII (Michael W. Deem and Ramdas Pophale) SiO2 
 PCOD9153796
Probable space group: P 2/M
;
_chemical_formula_sum "Si O2"
_cell_formula_units_Z 20
_cell_length_a 8.627390
_cell_length_b 13.457133
_cell_length_c 16.033967
_cell_angle_alpha 90.000000
_cell_angle_beta 27.488987
_cell_angle_gamma 90.000000
_cell_volume 859.247278
_symmetry_space_group_name_H-M "P 2/M"
_symmetry_group_IT_number 10
_symmetry_cell_setting 'monoclinic'
loop_
_space_group_symop_operation_xyz
x,y,z
-x,y,-z
-x,-y,-z
x,-y,z
loop_
_atom_site_type_symbol
_atom_site_label
_atom_site_fract_x
_atom_site_fract_y
_atom_site_fract_z
Si Si1 0.589276 0.803181 0.192760
Si Si2 0.686599 0.189827 0.324090
Si Si3 0.334313 0.611542 0.218192
Si Si4 0.250985 0.000000 0.299806
Si Si5 0.990986 0.608390 0.213513
Si Si6 0.100232 0.000000 0.711339
O O1 0.478371 0.827954 0.340520
O O2 0.414129 0.702900 0.241490
O O3 0.471082 0.899748 0.199548
O O4 0.000000 0.794525 0.000000
O O5 0.500000 0.193282 0.500000
O O6 0.816930 0.300644 0.252818
O O7 0.952178 0.100566 0.210872
O O8 0.285959 0.500000 0.278275
O O9 0.047096 0.629928 0.285312
O O10 0.659226 0.603898 0.003196
O O11 0.000000 0.000000 0.500000
O O12 0.075604 0.000000 0.293344
O O13 0.830062 0.500000 0.282108
O O14 0.500000 0.000000 0.500000
#
# Coordination Sequence:
#
# PCOD9153796 Si02
#       6
#     4   4   4   2   4   2
#     4  12  24  41  65 100 130 166 217 266 309 379
#     4  11  22  39  61  87 125 165 207 258 320 380
#     4   9  19  37  62  90 124 167 211 261 314 368
#     4  12  25  44  68  93 131 170 207 266 332 376
#     4   9  18  36  60  88 124 165 211 258 312 372
#     4  10  22  42  63  85 116 167 209 247 312 387
#
# _framework density 23.276187
#
# number of rings (size 3 to 8) (size 9 to 14) (size 15 to 20)
#    0.000    1.600    2.000    5.700    0.000    1.600 
#    0.000    1.000    0.000    3.000    0.000    0.000 
#    0.000    0.000    0.000    0.000    0.000    0.000 
#
# Total GULP energy -111597.815269 kJ/mol
# GULP energy per Si atom -5579.890763 kJ/mol
# Density = 2.322321 g / cm^3
# Si number density = 23.276187 Si / 1000 Ang^3
#
#
#
# Elastic Constant Matrix: (Units=GPa)
#
#
# Indices 1 2 3 4 5 6 
#
# 1 167.5083 94.9489 5.5007 0.0000 9.9144 0.0000
# 2 94.9489 191.8432 4.4733 0.0000 -14.4369 0.0000
# 3 5.5007 4.4733 37.7860 0.0000 13.3907 0.0000
# 4 0.0000 0.0000 0.0000 8.8250 0.0000 -13.0236
# 5 9.9144 -14.4369 13.3907 0.0000 31.3554 0.0000
# 6 0.0000 0.0000 0.0000 -13.0236 0.0000 67.0137
#
#
#
# Elastic Compliance Matrix: (Units=1/GPa)
#
#
# Indices 1 2 3 4 5 6 
#
# 1 0.009069 -0.004947 0.001283 0.000000 -0.005693 0.000000
# 2 -0.004947 0.008203 -0.002526 0.000000 0.006420 0.000000
# 3 0.001283 -0.002526 0.031972 0.000000 -0.015223 0.000000
# 4 0.000000 0.000000 0.000000 0.158882 0.000000 0.030878
# 5 -0.005693 0.006420 -0.015223 0.000000 0.043149 0.000000
# 6 0.000000 0.000000 0.000000 0.030878 0.000000 0.020923
#
#
# Mechanical properties :
#
#
# Convention : Reuss Voigt Hill
#
# Bulk Modulus (GPa) = 27.12700 67.44259 47.28480
# Shear Modulus (GPa) = 16.84266 40.91980 28.88123
#
# Velocity S-wave (km/s) = 2.69290 4.19741 3.52633
# Velocity P-wave (km/s) = 4.62046 7.24768 6.07773
#
# Compressibility (1/GPa) = 0.03686364
#
# Stress axis : x y z
#
# Youngs Moduli (GPa) = 110.27100 121.90918 31.27765
#
# Poissons Ratio (x) = 0.60304 -0.04013
# Poissons Ratio (y) = 0.54547 0.07901
# Poissons Ratio (z) = -0.14147 0.30794
#
# Static dielectric constant tensor:
#      x y z
#    x 1.845600 0.000000 -0.013070 
#    y 0.000000 2.039290 0.000000 
#    z -0.013070 0.000000 2.079640 
# 
# From -- ./inp_files/74957.got.cif
#   From: 2010.05.17/outbox.cif.g08.bks.cpg/sg10_38_cif.got.tgz:74957.got - 2010.06.03 11:33:40.
