data_PCOD9153510
_publ_section_title
;
Structure prediction by ZEFSAII (Michael W. Deem and Ramdas Pophale) SiO2 
 PCOD9153510
Probable space group: P 2/M
;
_chemical_formula_sum "Si O2"
_cell_formula_units_Z 28
_cell_length_a 30.302645
_cell_length_b 12.062331
_cell_length_c 24.468923
_cell_angle_alpha 90.000000
_cell_angle_beta 9.534672
_cell_angle_gamma 90.000000
_cell_volume 1481.506075
_symmetry_space_group_name_H-M "P 2/M"
_symmetry_group_IT_number 10
_symmetry_cell_setting 'monoclinic'
loop_
_space_group_symop_operation_xyz
x,y,z
-x,y,-z
-x,-y,-z
x,-y,z
loop_
_atom_site_type_symbol
_atom_site_label
_atom_site_fract_x
_atom_site_fract_y
_atom_site_fract_z
Si Si1 0.601179 0.632645 0.704817
Si Si2 0.852404 0.241963 0.237498
Si Si3 0.108336 0.238852 0.039269
Si Si4 0.066762 0.631855 0.283172
Si Si5 0.354525 0.369728 0.827540
Si Si6 0.187397 0.000000 0.717546
Si Si7 0.738439 0.367836 0.781155
Si Si8 0.762731 0.000000 0.140694
O O1 0.675839 0.500000 0.613640
O O2 0.830622 0.713020 0.402491
O O3 0.339123 0.641559 0.986256
O O4 0.506728 0.666647 0.881306
O O5 0.640375 0.338746 0.502490
O O6 0.063864 0.244486 0.028486
O O7 0.692904 0.123495 0.430926
O O8 0.000000 0.252052 0.000000
O O9 0.322141 0.315415 0.808017
O O10 0.199889 0.112748 0.938556
O O11 0.017407 0.500000 0.337397
O O12 0.826178 0.677112 0.614652
O O13 0.137238 0.674265 0.136837
O O14 0.323756 0.500000 0.860787
O O15 0.000000 0.000000 0.000000
O O16 0.004219 0.000000 0.888136
O O17 0.702111 0.500000 0.818897
O O18 0.000000 0.353478 0.500000
O O19 0.500000 0.000000 0.500000
#
# Coordination Sequence:
#
# PCOD9153510 Si02
#       8
#     4   4   4   4   4   2   4   2
#     4   9  15  29  53  80 114 145 170 215 273 328
#     4  10  22  39  58  78 104 137 183 233 282 325
#     4  11  23  37  58  82 108 141 182 230 279 323
#     4   8  14  28  48  76 113 147 181 214 253 315
#     4  11  23  35  54  82 115 151 179 215 271 336
#     4   8  18  36  62  84  93 122 175 231 285 317
#     4   7  11  21  45  77 106 143 181 210 252 312
#     4  10  24  40  60  80 101 133 186 244 282 311
#
# _framework density 18.899687
#
# number of rings (size 3 to 8) (size 9 to 14) (size 15 to 20)
#    0.000    2.714    1.429    2.143    6.000    0.857 
#    0.000    1.429    0.000    3.429    0.000    7.500 
#    0.000    0.000    0.000    0.000    0.000    0.000 
#
# Total GULP energy -155871.085973 kJ/mol
# GULP energy per Si atom -5566.824499 kJ/mol
# Density = 1.885667 g / cm^3
# Si number density = 18.899687 Si / 1000 Ang^3
#
#
#
# Elastic Constant Matrix: (Units=GPa)
#
#
# Indices 1 2 3 4 5 6 
#
# 1 95.3475 27.8266 7.9752 0.0000 9.9879 0.0000
# 2 27.8266 75.5074 26.4059 0.0000 11.6518 0.0000
# 3 7.9752 26.4059 56.4196 0.0000 16.7601 0.0000
# 4 0.0000 0.0000 0.0000 26.0128 0.0000 1.8316
# 5 9.9879 11.6518 16.7601 0.0000 29.6172 0.0000
# 6 0.0000 0.0000 0.0000 1.8316 0.0000 15.7868
#
#
#
# Elastic Compliance Matrix: (Units=1/GPa)
#
#
# Indices 1 2 3 4 5 6 
#
# 1 0.011980 -0.004389 0.001260 0.000000 -0.003026 0.000000
# 2 -0.004389 0.017592 -0.007209 0.000000 -0.001362 0.000000
# 3 0.001260 -0.007209 0.024287 0.000000 -0.011332 0.000000
# 4 0.000000 0.000000 0.000000 0.038759 0.000000 -0.004497
# 5 -0.003026 -0.001362 -0.011332 0.000000 0.041733 0.000000
# 6 0.000000 0.000000 0.000000 -0.004497 0.000000 0.063866
#
#
# Mechanical properties :
#
#
# Convention : Reuss Voigt Hill
#
# Bulk Modulus (GPa) = 30.13546 39.07666 34.60606
# Shear Modulus (GPa) = 21.74343 25.28780 23.51561
#
# Velocity S-wave (km/s) = 3.39553 3.66184 3.53120
# Velocity P-wave (km/s) = 5.59932 6.21285 5.91404
#
# Compressibility (1/GPa) = 0.03318350
#
# Stress axis : x y z
#
# Youngs Moduli (GPa) = 83.46957 56.84346 41.17493
#
# Poissons Ratio (x) = 0.24946 -0.05186
# Poissons Ratio (y) = 0.36631 0.29682
# Poissons Ratio (z) = -0.10513 0.40977
#
# Static dielectric constant tensor:
#      x y z
#    x 1.725720 0.000000 -0.019740 
#    y 0.000000 1.673220 0.000000 
#    z -0.019740 0.000000 1.713240 
# 
# From -- ./inp_files/91448.got.cif
#   From: 2010.05.17/outbox.cif.g08.bks.cpg/sg10_46_cif.got.tgz:91448.got - 2010.06.03 11:33:40.
