data_PCOD9153086
_publ_section_title
;
Structure prediction by ZEFSAII (Michael W. Deem and Ramdas Pophale) SiO2 
 PCOD9153086
Probable space group: P 2/M
;
_chemical_formula_sum "Si O2"
_cell_formula_units_Z 28
_cell_length_a 28.864090
_cell_length_b 8.871666
_cell_length_c 5.506080
_cell_angle_alpha 90.000000
_cell_angle_beta 69.331322
_cell_angle_gamma 90.000000
_cell_volume 1319.207211
_symmetry_space_group_name_H-M "P 2/M"
_symmetry_group_IT_number 10
_symmetry_cell_setting 'monoclinic'
loop_
_space_group_symop_operation_xyz
x,y,z
-x,y,-z
-x,-y,-z
x,-y,z
loop_
_atom_site_type_symbol
_atom_site_label
_atom_site_fract_x
_atom_site_fract_y
_atom_site_fract_z
Si Si1 0.296826 0.673671 0.652309
Si Si2 0.816762 0.683371 0.080449
Si Si3 0.533627 0.331428 0.727162
Si Si4 0.369617 0.662541 0.133146
Si Si5 0.605815 0.165658 0.324751
Si Si6 0.969768 0.679311 0.306035
Si Si7 0.137828 0.819405 0.503333
O O1 0.299487 0.500000 0.729038
O O2 0.241482 0.725327 0.798297
O O3 0.341298 0.766226 0.688272
O O4 0.314456 0.671066 0.338874
O O5 0.821397 0.500000 0.072865
O O6 0.841112 0.748596 0.283188
O O7 0.838711 0.748473 0.787423
O O8 0.513897 0.500000 0.722208
O O9 0.552221 0.245038 0.457211
O O10 0.500000 0.261206 0.000000
O O11 0.589057 0.347383 0.735663
O O12 0.375565 0.500000 0.987433
O O13 0.384572 0.814517 0.976071
O O14 0.601200 0.000000 0.432693
O O15 0.957263 0.500000 0.329814
O O16 0.920045 0.776169 0.397118
O O17 0.000000 0.708247 0.500000
O O18 0.000000 0.707662 0.000000
O O19 0.145059 0.000000 0.490872
#
# Coordination Sequence:
#
# PCOD9153086 Si02
#       7
#     4   4   4   4   4   4   4
#     4   9  21  40  62  83 107 151 206 252 295 354
#     4  11  24  44  69  95 129 178 230 276 325 392
#     4   9  19  37  58  78 102 140 190 239 284 341
#     4   9  18  35  57  80 106 140 190 242 287 350
#     4  11  22  34  53  82 115 147 180 232 300 367
#     4  10  21  39  66  96 128 173 227 276 322 383
#     4  12  26  43  65 101 143 177 216 275 343 398
#
# _framework density 21.224869000000002
#
# number of rings (size 3 to 8) (size 9 to 14) (size 15 to 20)
#    0.000    1.857    0.000    4.714    2.000    6.000 
#    0.000    2.857    0.000    0.000    0.000    0.000 
#    0.000    0.000    0.000    0.000    0.000    0.000 
#
# Total GULP energy -155887.019239 kJ/mol
# GULP energy per Si atom -5567.393544 kJ/mol
# Density = 2.117656 g / cm^3
# Si number density = 21.224869 Si / 1000 Ang^3
#
#
#
# Elastic Constant Matrix: (Units=GPa)
#
#
# Indices 1 2 3 4 5 6 
#
# 1 91.6585 28.1918 50.6028 0.0000 -12.5183 0.0000
# 2 28.1918 64.2714 37.3021 0.0000 -10.9857 0.0000
# 3 50.6028 37.3021 135.9702 0.0000 -13.2292 0.0000
# 4 0.0000 0.0000 0.0000 30.0651 0.0000 9.9098
# 5 -12.5183 -10.9857 -13.2292 0.0000 40.1970 0.0000
# 6 0.0000 0.0000 0.0000 9.9098 0.0000 4.3788
#
#
#
# Elastic Compliance Matrix: (Units=1/GPa)
#
#
# Indices 1 2 3 4 5 6 
#
# 1 0.014664 -0.003586 -0.004261 0.000000 0.002184 0.000000
# 2 -0.003586 0.019871 -0.003820 0.000000 0.003057 0.000000
# 3 -0.004261 -0.003820 0.010080 0.000000 0.000947 0.000000
# 4 0.000000 0.000000 0.000000 0.130924 0.000000 -0.296296
# 5 0.002184 0.003057 0.000947 0.000000 0.026705 0.000000
# 6 0.000000 0.000000 0.000000 -0.296296 0.000000 0.898924
#
#
# Mechanical properties :
#
#
# Convention : Reuss Voigt Hill
#
# Bulk Modulus (GPa) = 46.98668 58.23263 52.60966
# Shear Modulus (GPa) = 4.41855 26.64842 15.53348
#
# Velocity S-wave (km/s) = 1.44440 3.54719 2.70821
# Velocity P-wave (km/s) = 4.99673 6.65374 5.88386
#
# Compressibility (1/GPa) = 0.02128263
#
# Stress axis : x y z
#
# Youngs Moduli (GPa) = 68.19575 50.32415 99.20318
#
# Poissons Ratio (x) = 0.18044 0.42271
# Poissons Ratio (y) = 0.24452 0.37892
# Poissons Ratio (z) = 0.29059 0.19222
#
# Static dielectric constant tensor:
#      x y z
#    x 1.759260 0.000000 0.084050 
#    y 0.000000 1.653990 0.000000 
#    z 0.084050 0.000000 1.935430 
# 
# From -- ./inp_files/13551.got.cif
#   From: 2010.05.17/outbox.cif.g08.bks.cpg/sg10_7_cif.got.tgz:13551.got - 2010.06.03 11:33:40.
