data_PCOD9153915
_publ_section_title
;
Structure prediction by ZEFSAII (Michael W. Deem and Ramdas Pophale) SiO2 
 PCOD9153915
Probable space group: P 2/M
;
_chemical_formula_sum "Si O2"
_cell_formula_units_Z 18
_cell_length_a 9.478580
_cell_length_b 16.498413
_cell_length_c 5.117002
_cell_angle_alpha 90.000000
_cell_angle_beta 86.438660
_cell_angle_gamma 90.000000
_cell_volume 798.659289
_symmetry_space_group_name_H-M "P 2/M"
_symmetry_group_IT_number 10
_symmetry_cell_setting 'monoclinic'
loop_
_space_group_symop_operation_xyz
x,y,z
-x,y,-z
-x,-y,-z
x,-y,z
loop_
_atom_site_type_symbol
_atom_site_label
_atom_site_fract_x
_atom_site_fract_y
_atom_site_fract_z
Si Si1 0.853576 0.692880 0.919171
Si Si2 0.500000 0.678552 0.500000
Si Si3 0.095283 0.094386 0.726897
Si Si4 0.362558 0.810625 0.898278
Si Si5 0.214647 0.595354 0.549547
O O1 0.736597 0.761857 0.886008
O O2 0.807660 0.634800 0.163837
O O3 0.875275 0.639098 0.663534
O O4 0.000000 0.730757 0.000000
O O5 0.434454 0.739711 0.719494
O O6 0.372821 0.619197 0.437289
O O7 0.245532 0.138448 0.754614
O O8 0.000000 0.128480 0.500000
O O9 0.125770 0.000000 0.660217
O O10 0.000000 0.094527 0.000000
O O11 0.500000 0.855638 0.000000
O O12 0.192077 0.500000 0.560576
#
# Coordination Sequence:
#
# PCOD9153915 Si02
#       5
#     4   2   4   4   4
#     4  11  24  40  61  91 123 163 212 265 322 376
#     4  10  23  40  59  94 126 166 212 262 317 384
#     4  10  24  45  70 100 134 171 210 255 317 382
#     4  11  23  41  67  94 132 169 216 265 313 377
#     4  11  23  40  62  86 123 165 211 267 322 377
#
# _framework density 22.537773000000001
#
# number of rings (size 3 to 8) (size 9 to 14) (size 15 to 20)
#    0.000    1.333    2.222    2.333    3.111    6.667 
#    0.000    3.889    0.000    0.000    0.000    0.000 
#    0.000    0.000    0.000    0.000    0.000    0.000 
#
# Total GULP energy -100561.986257 kJ/mol
# GULP energy per Si atom -5586.777014 kJ/mol
# Density = 2.248648 g / cm^3
# Si number density = 22.537773 Si / 1000 Ang^3
#
#
#
# Elastic Constant Matrix: (Units=GPa)
#
#
# Indices 1 2 3 4 5 6 
#
# 1 180.3908 43.1427 47.7325 0.0000 32.0552 0.0000
# 2 43.1427 84.3912 22.0872 0.0000 14.4885 0.0000
# 3 47.7325 22.0872 111.9939 0.0000 15.1429 0.0000
# 4 0.0000 0.0000 0.0000 30.7208 0.0000 24.9422
# 5 32.0552 14.4885 15.1429 0.0000 44.4538 0.0000
# 6 0.0000 0.0000 0.0000 24.9422 0.0000 52.7850
#
#
#
# Elastic Compliance Matrix: (Units=1/GPa)
#
#
# Indices 1 2 3 4 5 6 
#
# 1 0.007393 -0.002575 -0.002134 0.000000 -0.003765 0.000000
# 2 -0.002575 0.013898 -0.001344 0.000000 -0.002215 0.000000
# 3 -0.002134 -0.001344 0.010311 0.000000 -0.001536 0.000000
# 4 0.000000 0.000000 0.000000 0.052812 0.000000 -0.024955
# 5 -0.003765 -0.002215 -0.001536 0.000000 0.026455 0.000000
# 6 0.000000 0.000000 0.000000 -0.024955 0.000000 0.030737
#
#
# Mechanical properties :
#
#
# Convention : Reuss Voigt Hill
#
# Bulk Modulus (GPa) = 51.29082 66.96676 59.12879
# Shear Modulus (GPa) = 31.20889 43.17948 37.19418
#
# Velocity S-wave (km/s) = 3.72524 4.38182 4.06680
# Velocity P-wave (km/s) = 6.42731 7.44164 6.95300
#
# Compressibility (1/GPa) = 0.01949667
#
# Stress axis : x y z
#
# Youngs Moduli (GPa) = 135.26345 71.95356 96.98059
#
# Poissons Ratio (x) = 0.18525 0.20697
# Poissons Ratio (y) = 0.34824 0.13035
# Poissons Ratio (z) = 0.28867 0.09671
#
# Static dielectric constant tensor:
#      x y z
#    x 1.922120 0.000000 0.043790 
#    y 0.000000 1.812930 0.000000 
#    z 0.043790 0.000000 1.878870 
# 
# From -- ./inp_files/3746.got.cif
#   From: 2010.05.17/outbox.cif.g08.bks.cpg/sg10_2_cif.got.tgz:3746.got - 2010.06.03 11:33:40.
