data_PCOD9153503
_publ_section_title
;
Structure prediction by ZEFSAII (Michael W. Deem and Ramdas Pophale) SiO2 
 PCOD9153503
Probable space group: P 2/M
;
_chemical_formula_sum "Si O2"
_cell_formula_units_Z 32
_cell_length_a 12.334082
_cell_length_b 8.625463
_cell_length_c 31.851283
_cell_angle_alpha 90.000000
_cell_angle_beta 150.185202
_cell_angle_gamma 90.000000
_cell_volume 1684.789352
_symmetry_space_group_name_H-M "P 2/M"
_symmetry_group_IT_number 10
_symmetry_cell_setting 'monoclinic'
loop_
_space_group_symop_operation_xyz
x,y,z
-x,y,-z
-x,-y,-z
x,-y,z
loop_
_atom_site_type_symbol
_atom_site_label
_atom_site_fract_x
_atom_site_fract_y
_atom_site_fract_z
Si Si1 0.151512 0.686231 0.613602
Si Si2 0.557739 0.311507 0.972059
Si Si3 0.053032 0.686157 0.131270
Si Si4 0.325961 0.314000 0.581340
Si Si5 0.208633 0.187162 0.097066
Si Si6 0.863138 0.685404 0.220989
Si Si7 0.693837 0.815540 0.246530
Si Si8 0.788548 0.816695 0.726227
O O1 0.170526 0.500000 0.625446
O O2 0.286075 0.727699 0.616841
O O3 0.234106 0.770772 0.682518
O O4 0.898650 0.721043 0.518270
O O5 0.559596 0.500000 0.972471
O O6 0.364165 0.260463 0.876729
O O7 0.500000 0.262508 0.000000
O O8 0.800700 0.261356 0.041853
O O9 0.061764 0.500000 0.132929
O O10 0.186084 0.753128 0.136954
O O11 0.136511 0.740427 0.204609
O O12 0.357554 0.500000 0.590325
O O13 0.538013 0.230537 0.635337
O O14 0.441517 0.237091 0.156681
O O15 0.205788 0.000000 0.096666
O O16 0.000000 0.241466 0.000000
O O17 0.874678 0.500000 0.221694
O O18 0.847125 0.736414 0.263644
O O19 0.059022 0.755467 0.259882
O O20 0.702194 0.000000 0.243794
O O21 0.810821 0.000000 0.737290
#
# Coordination Sequence:
#
# PCOD9153503 Si02
#       8
#     4   4   4   4   4   4   4   4
#     4   9  19  38  64  91 116 147 188 233 283 339
#     4   9  17  33  55  80 108 141 189 242 286 325
#     4  11  21  35  58  84 112 148 195 244 286 335
#     4   9  19  38  64  91 117 145 185 236 284 336
#     4  10  22  39  56  80 119 158 191 234 287 341
#     4  11  22  39  61  81 110 152 197 243 286 335
#     4  11  23  38  57  83 118 156 193 233 283 342
#     4  12  24  37  55  85 120 150 185 231 289 347
#
# _framework density 18.993473000000002
#
# number of rings (size 3 to 8) (size 9 to 14) (size 15 to 20)
#    0.000    1.750    1.250    4.500    0.000    4.250 
#    0.000    4.375    0.000    3.750    0.000    0.000 
#    0.000    0.000    0.000    0.000    0.000    0.000 
#
# Total GULP energy -178822.477086 kJ/mol
# GULP energy per Si atom -5588.202409 kJ/mol
# Density = 1.895024 g / cm^3
# Si number density = 18.993473 Si / 1000 Ang^3
#
#
#
# Elastic Constant Matrix: (Units=GPa)
#
#
# Indices 1 2 3 4 5 6 
#
# 1 114.2257 23.2104 35.0749 0.0000 14.3895 0.0000
# 2 23.2104 28.2523 20.4367 0.0000 7.3016 0.0000
# 3 35.0749 20.4367 61.9036 0.0000 7.3263 0.0000
# 4 0.0000 0.0000 0.0000 20.5239 0.0000 -4.0844
# 5 14.3895 7.3016 7.3263 0.0000 31.5631 0.0000
# 6 0.0000 0.0000 0.0000 -4.0844 0.0000 21.4445
#
#
#
# Elastic Compliance Matrix: (Units=1/GPa)
#
#
# Indices 1 2 3 4 5 6 
#
# 1 0.011613 -0.005604 -0.004377 0.000000 -0.002982 0.000000
# 2 -0.005604 0.050946 -0.012906 0.000000 -0.006235 0.000000
# 3 -0.004377 -0.012906 0.022936 0.000000 -0.000343 0.000000
# 4 0.000000 0.000000 0.000000 0.050643 0.000000 0.009646
# 5 -0.002982 -0.006235 -0.000343 0.000000 0.034564 0.000000
# 6 0.000000 0.000000 0.000000 0.009646 0.000000 0.048469
#
#
# Mechanical properties :
#
#
# Convention : Reuss Voigt Hill
#
# Bulk Modulus (GPa) = 25.17566 40.20285 32.68925
# Shear Modulus (GPa) = 17.97360 23.08360 20.52860
#
# Velocity S-wave (km/s) = 3.07954 3.48996 3.29116
# Velocity P-wave (km/s) = 5.09200 6.11983 5.62942
#
# Compressibility (1/GPa) = 0.03972091
#
# Stress axis : x y z
#
# Youngs Moduli (GPa) = 86.11075 19.62848 43.60022
#
# Poissons Ratio (x) = 0.10999 0.19084
# Poissons Ratio (y) = 0.48253 0.56272
# Poissons Ratio (z) = 0.37691 0.25333
#
# Static dielectric constant tensor:
#      x y z
#    x 1.634650 0.000000 0.011130 
#    y 0.000000 1.637390 0.000000 
#    z 0.011130 0.000000 1.664490 
# 
# From -- ./inp_files/95100.got.cif
#   From: 2010.05.17/outbox.cif.g08.bks.cpg/sg10_48_cif.got.tgz:95100.got - 2010.06.03 11:33:40.
