data_PCOD9153998
_publ_section_title
;
Structure prediction by ZEFSAII (Michael W. Deem and Ramdas Pophale) SiO2 
 PCOD9153998
Probable space group: P 2/M
;
_chemical_formula_sum "Si O2"
_cell_formula_units_Z 22
_cell_length_a 11.266688
_cell_length_b 12.361905
_cell_length_c 8.052941
_cell_angle_alpha 90.000000
_cell_angle_beta 80.588446
_cell_angle_gamma 90.000000
_cell_volume 1106.497752
_symmetry_space_group_name_H-M "P 2/M"
_symmetry_group_IT_number 10
_symmetry_cell_setting 'monoclinic'
loop_
_space_group_symop_operation_xyz
x,y,z
-x,y,-z
-x,-y,-z
x,-y,z
loop_
_atom_site_type_symbol
_atom_site_label
_atom_site_fract_x
_atom_site_fract_y
_atom_site_fract_z
Si Si1 0.671066 0.738496 0.791748
Si Si2 0.657261 0.500000 0.289596
Si Si3 0.746813 0.728515 0.150711
Si Si4 0.000000 0.183602 0.000000
Si Si5 0.452784 0.877242 0.697684
Si Si6 0.098931 0.122964 0.335992
Si Si7 0.384013 0.500000 0.307766
O O1 0.550216 0.801076 0.766575
O O2 0.787034 0.797740 0.686697
O O3 0.667796 0.612500 0.745517
O O4 0.686996 0.742839 0.984592
O O5 0.723094 0.609538 0.224353
O O6 0.525921 0.500000 0.235853
O O7 0.634677 0.500000 0.490735
O O8 0.676657 0.818616 0.273349
O O9 0.886880 0.749297 0.092951
O O10 0.046468 0.125333 0.158426
O O11 0.500000 0.883507 0.500000
O O12 0.446064 0.000000 0.767650
O O13 0.000000 0.150722 0.500000
O O14 0.139002 0.000000 0.361130
#
# Coordination Sequence:
#
# PCOD9153998 Si02
#       7
#     4   2   4   2   4   4   2
#     4  11  23  41  64  97 128 163 215 267 323 384
#     4  11  23  40  66  93 126 169 209 263 323 389
#     4  11  24  42  66  93 129 169 214 265 323 381
#     4  10  25  43  66  96 134 173 219 268 316 396
#     4  11  24  39  62  95 130 166 211 268 324 382
#     4  10  23  42  68  95 131 177 218 265 319 387
#     4  11  23  39  67  97 126 163 210 263 327 389
#
# _framework density 19.882553999999999
#
# number of rings (size 3 to 8) (size 9 to 14) (size 15 to 20)
#    0.000    1.273    1.818    3.000    5.091    6.182 
#    0.000    1.364    0.000    0.000    0.000    0.000 
#    0.000    0.000    0.000    0.000    0.000    0.000 
#
# Total GULP energy -122905.784229 kJ/mol
# GULP energy per Si atom -5586.626556 kJ/mol
# Density = 1.983730 g / cm^3
# Si number density = 19.882554 Si / 1000 Ang^3
#
#
#
# Elastic Constant Matrix: (Units=GPa)
#
#
# Indices 1 2 3 4 5 6 
#
# 1 101.7262 62.0232 25.1701 0.0000 -31.8706 0.0000
# 2 62.0232 162.6609 34.6656 0.0000 -37.5218 0.0000
# 3 25.1701 34.6656 68.4632 0.0000 -31.3868 0.0000
# 4 0.0000 0.0000 0.0000 28.2128 0.0000 -4.7286
# 5 -31.8706 -37.5218 -31.3868 0.0000 39.2312 0.0000
# 6 0.0000 0.0000 0.0000 -4.7286 0.0000 23.5084
#
#
#
# Elastic Compliance Matrix: (Units=1/GPa)
#
#
# Indices 1 2 3 4 5 6 
#
# 1 0.014720 -0.003681 0.000506 0.000000 0.008842 0.000000
# 2 -0.003681 0.008840 -0.000975 0.000000 0.004684 0.000000
# 3 0.000506 -0.000975 0.023175 0.000000 0.018019 0.000000
# 4 0.000000 0.000000 0.000000 0.036682 0.000000 0.007378
# 5 0.008842 0.004684 0.018019 0.000000 0.051569 0.000000
# 6 0.000000 0.000000 0.000000 0.007378 0.000000 0.044022
#
#
# Mechanical properties :
#
#
# Convention : Reuss Voigt Hill
#
# Bulk Modulus (GPa) = 26.01870 64.06313 45.04091
# Shear Modulus (GPa) = 24.98515 32.25658 28.62087
#
# Velocity S-wave (km/s) = 3.54875 4.03222 3.79819
# Velocity P-wave (km/s) = 5.46865 7.34637 6.47593
#
# Compressibility (1/GPa) = 0.03843389
#
# Stress axis : x y z
#
# Youngs Moduli (GPa) = 67.93674 113.12773 43.14971
#
# Poissons Ratio (x) = 0.41640 -0.02183
# Poissons Ratio (y) = 0.25006 0.04208
# Poissons Ratio (z) = -0.03436 0.11033
#
# Static dielectric constant tensor:
#      x y z
#    x 1.699020 0.000000 0.010880 
#    y 0.000000 1.759390 0.000000 
#    z 0.010880 0.000000 1.713570 
# 
# From -- ./inp_files/23962.got.cif
#   From: 2010.05.17/outbox.cif.g08.bks.cpg/sg10_12_cif.got.tgz:23962.got - 2010.06.03 11:33:40.
