data_PCOD9153995
_publ_section_title
;
Structure prediction by ZEFSAII (Michael W. Deem and Ramdas Pophale) SiO2 
 PCOD9153995
Probable space group: P 2/M
;
_chemical_formula_sum "Si O2"
_cell_formula_units_Z 16
_cell_length_a 4.860760
_cell_length_b 8.960316
_cell_length_c 18.509769
_cell_angle_alpha 90.000000
_cell_angle_beta 116.447091
_cell_angle_gamma 90.000000
_cell_volume 721.804206
_symmetry_space_group_name_H-M "P 2/M"
_symmetry_group_IT_number 10
_symmetry_cell_setting 'monoclinic'
loop_
_space_group_symop_operation_xyz
x,y,z
-x,y,-z
-x,-y,-z
x,-y,z
loop_
_atom_site_type_symbol
_atom_site_label
_atom_site_fract_x
_atom_site_fract_y
_atom_site_fract_z
Si Si1 0.819772 0.759811 0.675557
Si Si2 0.847975 0.500000 0.562282
Si Si3 0.520668 0.829605 0.778417
Si Si4 0.639370 0.000000 0.438692
Si Si5 0.640132 0.671274 0.942520
O O1 0.885670 0.639716 0.620648
O O2 0.705457 0.723026 0.743562
O O3 0.523153 0.858547 0.617621
O O4 0.154191 0.834060 0.721363
O O5 0.500000 0.500000 0.500000
O O6 0.000000 0.500000 0.500000
O O7 0.568120 0.767179 0.863913
O O8 0.639049 0.000000 0.784394
O O9 0.500000 0.000000 0.500000
O O10 0.000000 0.000000 0.500000
O O11 0.525606 0.500000 0.918538
O O12 0.500000 0.733272 0.000000
O O13 0.000000 0.664896 0.000000
#
# Coordination Sequence:
#
# PCOD9153995 Si02
#       5
#     4   2   4   2   4
#     4  12  26  45  70 105 137 182 238 289 352 424
#     4  12  28  50  70 100 140 182 236 302 356 420
#     4  12  24  44  70 103 144 183 232 291 347 422
#     4  12  24  44  70 100 138 184 234 292 352 420
#     4  10  23  42  67 103 140 184 233 280 345 420
#
# _framework density 22.166672999999999
#
# number of rings (size 3 to 8) (size 9 to 14) (size 15 to 20)
#    0.000    0.500    2.500    5.250    3.500    3.000 
#    0.000    0.000    0.000    0.000    0.000    0.000 
#    0.000    0.000    0.000    0.000    0.000    0.000 
#
# Total GULP energy -89265.788833 kJ/mol
# GULP energy per Si atom -5579.111802 kJ/mol
# Density = 2.211622 g / cm^3
# Si number density = 22.166673 Si / 1000 Ang^3
#
#
#
# Elastic Constant Matrix: (Units=GPa)
#
#
# Indices 1 2 3 4 5 6 
#
# 1 168.2867 28.2508 59.5200 0.0000 -32.9371 0.0000
# 2 28.2508 88.7357 74.1262 0.0000 -6.9031 0.0000
# 3 59.5200 74.1262 159.2926 0.0000 -38.6604 0.0000
# 4 0.0000 0.0000 0.0000 175.9661 0.0000 25.4742
# 5 -32.9371 -6.9031 -38.6604 0.0000 59.0385 0.0000
# 6 0.0000 0.0000 0.0000 25.4742 0.0000 28.7827
#
#
#
# Elastic Compliance Matrix: (Units=1/GPa)
#
#
# Indices 1 2 3 4 5 6 
#
# 1 0.007208 -0.000652 -0.001703 0.000000 0.002830 0.000000
# 2 -0.000652 0.019377 -0.009882 0.000000 -0.004569 0.000000
# 3 -0.001703 -0.009882 0.013081 0.000000 0.006460 0.000000
# 4 0.000000 0.000000 0.000000 0.006518 0.000000 -0.005769
# 5 0.002830 -0.004569 0.006460 0.000000 0.022213 0.000000
# 6 0.000000 0.000000 0.000000 -0.005769 0.000000 0.039849
#
#
# Mechanical properties :
#
#
# Convention : Reuss Voigt Hill
#
# Bulk Modulus (GPa) = 65.82986 82.23432 74.03209
# Shear Modulus (GPa) = 36.28893 69.71867 53.00380
#
# Velocity S-wave (km/s) = 4.05049 5.61429 4.89524
# Velocity P-wave (km/s) = 7.18592 8.89976 8.08836
#
# Compressibility (1/GPa) = 0.01519067
#
# Stress axis : x y z
#
# Youngs Moduli (GPa) = 138.73720 51.60818 76.44884
#
# Poissons Ratio (x) = 0.03365 0.13020
# Poissons Ratio (y) = 0.09045 0.75549
# Poissons Ratio (z) = 0.23628 0.51001
#
# Static dielectric constant tensor:
#      x y z
#    x 1.777920 0.000000 -0.031000 
#    y 0.000000 1.848510 0.000000 
#    z -0.031000 0.000000 1.759390 
# 
# From -- ./inp_files/72959.got.cif
#   From: 2010.05.17/outbox.cif.g08.bks.cpg/sg10_37_cif.got.tgz:72959.got - 2010.06.03 11:33:40.
