data_PCOD9153134
_publ_section_title
;
Structure prediction by ZEFSAII (Michael W. Deem and Ramdas Pophale) SiO2 
 PCOD9153134
Probable space group: P 2/M
;
_chemical_formula_sum "Si O2"
_cell_formula_units_Z 24
_cell_length_a 12.218077
_cell_length_b 8.668821
_cell_length_c 12.208656
_cell_angle_alpha 90.000000
_cell_angle_beta 90.493943
_cell_angle_gamma 90.000000
_cell_volume 1293.047894
_symmetry_space_group_name_H-M "P 2/M"
_symmetry_group_IT_number 10
_symmetry_cell_setting 'monoclinic'
loop_
_space_group_symop_operation_xyz
x,y,z
-x,y,-z
-x,-y,-z
x,-y,z
loop_
_atom_site_type_symbol
_atom_site_label
_atom_site_fract_x
_atom_site_fract_y
_atom_site_fract_z
Si Si1 0.673313 0.314352 0.466444
Si Si2 0.405664 0.184501 0.085829
Si Si3 0.831843 0.315979 0.969137
Si Si4 0.972982 0.185622 0.166397
Si Si5 0.910054 0.813908 0.411488
Si Si6 0.536170 0.686446 0.676876
O O1 0.679975 0.500000 0.465234
O O2 0.790409 0.245123 0.441451
O O3 0.581463 0.270553 0.375865
O O4 0.625486 0.270068 0.585111
O O5 0.291085 0.262082 0.053029
O O6 0.440447 0.237305 0.207162
O O7 0.392348 0.000000 0.083005
O O8 0.500000 0.227510 0.000000
O O9 0.838493 0.500000 0.974477
O O10 0.912566 0.254884 0.874643
O O11 0.881284 0.244903 0.081003
O O12 0.944024 0.233126 0.289278
O O13 0.978718 0.000000 0.160299
O O14 0.000000 0.760369 0.500000
O O15 0.908364 0.000000 0.413457
O O16 0.538748 0.500000 0.688089
#
# Coordination Sequence:
#
# PCOD9153134 Si02
#       6
#     4   4   4   4   4   4
#     4   9  20  39  62  88 120 155 193 242 295 349
#     4  11  25  41  60  88 121 156 198 244 296 352
#     4  11  23  40  63  89 118 154 201 246 297 355
#     4  10  21  40  63  87 122 159 197 244 295 349
#     4  10  23  39  58  88 122 156 197 242 288 344
#     4   9  20  40  62  88 120 154 194 242 297 349
#
# _framework density 18.560797999999998
#
# number of rings (size 3 to 8) (size 9 to 14) (size 15 to 20)
#    0.000    2.000    0.000    4.500    4.667    4.333 
#    0.000    1.667    0.000    0.000    0.000    0.000 
#    0.000    0.000    0.000    0.000    0.000    0.000 
#
# Total GULP energy -134092.112358 kJ/mol
# GULP energy per Si atom -5587.171348 kJ/mol
# Density = 1.851855 g / cm^3
# Si number density = 18.560798 Si / 1000 Ang^3
#
#
#
# Elastic Constant Matrix: (Units=GPa)
#
#
# Indices 1 2 3 4 5 6 
#
# 1 173.8890 45.5927 112.6596 0.0000 -7.1307 0.0000
# 2 45.5927 52.3397 46.6316 0.0000 -2.7267 0.0000
# 3 112.6596 46.6316 162.5761 0.0000 -11.8343 0.0000
# 4 0.0000 0.0000 0.0000 23.2370 0.0000 1.4141
# 5 -7.1307 -2.7267 -11.8343 0.0000 11.5031 0.0000
# 6 0.0000 0.0000 0.0000 1.4141 0.0000 33.9879
#
#
#
# Elastic Compliance Matrix: (Units=1/GPa)
#
#
# Indices 1 2 3 4 5 6 
#
# 1 0.010962 -0.003721 -0.006592 0.000000 -0.000869 0.000000
# 2 -0.003721 0.026955 -0.005249 0.000000 -0.001317 0.000000
# 3 -0.006592 -0.005249 0.012795 0.000000 0.007832 0.000000
# 4 0.000000 0.000000 0.000000 0.043144 0.000000 -0.001795
# 5 -0.000869 -0.001317 0.007832 0.000000 0.094140 0.000000
# 6 0.000000 0.000000 0.000000 -0.001795 0.000000 0.029497
#
#
# Mechanical properties :
#
#
# Convention : Reuss Voigt Hill
#
# Bulk Modulus (GPa) = 51.05228 88.73027 69.89127
# Shear Modulus (GPa) = 19.59667 26.00699 22.80183
#
# Velocity S-wave (km/s) = 3.25285 3.74729 3.50879
# Velocity P-wave (km/s) = 6.45548 8.16284 7.35884
#
# Compressibility (1/GPa) = 0.01958777
#
# Stress axis : x y z
#
# Youngs Moduli (GPa) = 91.22781 37.09890 78.15723
#
# Poissons Ratio (x) = 0.13803 0.51521
# Poissons Ratio (y) = 0.33943 0.41025
# Poissons Ratio (z) = 0.60138 0.19473
#
# Static dielectric constant tensor:
#      x y z
#    x 1.608220 0.000000 -0.001270 
#    y 0.000000 1.628660 0.000000 
#    z -0.001270 0.000000 1.623560 
# 
# From -- ./inp_files/45173.got.cif
#   From: 2010.05.17/outbox.cif.g08.bks.cpg/sg10_23_cif.got.tgz:45173.got - 2010.06.03 11:33:40.
