data_PCOD9153318
_publ_section_title
;
Structure prediction by ZEFSAII (Michael W. Deem and Ramdas Pophale) SiO2 
 PCOD9153318
Probable space group: P 2/M
;
_chemical_formula_sum "Si O2"
_cell_formula_units_Z 11
_cell_length_a 7.065697
_cell_length_b 15.762545
_cell_length_c 5.327586
_cell_angle_alpha 90.000000
_cell_angle_beta 47.803267
_cell_angle_gamma 90.000000
_cell_volume 439.580015
_symmetry_space_group_name_H-M "P 2/M"
_symmetry_group_IT_number 10
_symmetry_cell_setting 'monoclinic'
loop_
_space_group_symop_operation_xyz
x,y,z
-x,y,-z
-x,-y,-z
x,-y,z
loop_
_atom_site_type_symbol
_atom_site_label
_atom_site_fract_x
_atom_site_fract_y
_atom_site_fract_z
Si Si1 0.834505 0.316890 0.392505
Si Si2 0.271328 0.500000 0.400559
Si Si3 0.277071 0.862559 0.385344
Si Si4 0.500000 0.000000 0.500000
O O1 0.721537 0.410893 0.460691
O O2 0.662080 0.234827 0.596116
O O3 0.000000 0.322228 0.500000
O O4 0.000000 0.297638 0.000000
O O5 0.000000 0.500000 0.500000
O O6 0.500000 0.500000 0.000000
O O7 0.000000 0.865254 0.500000
O O8 0.295739 0.925221 0.600391
O O9 0.500000 0.894341 0.000000
#
# Coordination Sequence:
#
# PCOD9153318 Si02
#       4
#     4   2   4   1
#     4  10  23  45  74 107 152 194 246 301 370 443
#     4  10  21  44  72 110 148 194 242 296 364 441
#     4  11  27  48  72 110 147 195 251 313 378 449
#     4  12  28  46  84  98 154 188 264 304 400 428
#
# _framework density 25.023886000000001
#
# number of rings (size 3 to 8) (size 9 to 14) (size 15 to 20)
#    0.000    1.455    0.000    2.727   10.182    1.455 
#    0.000    7.273    0.000    0.000    0.000    0.000 
#    0.000    0.000    0.000    0.000    0.000    0.000 
#
# Total GULP energy -61295.075690 kJ/mol
# GULP energy per Si atom -5572.279608 kJ/mol
# Density = 2.496693 g / cm^3
# Si number density = 25.023886 Si / 1000 Ang^3
#
#
#
# Elastic Constant Matrix: (Units=GPa)
#
#
# Indices 1 2 3 4 5 6 
#
# 1 172.2194 24.0595 9.8106 0.0000 -12.4084 0.0000
# 2 24.0595 231.5932 -28.9370 0.0000 -7.1485 0.0000
# 3 9.8106 -28.9370 112.7012 0.0000 -9.0027 0.0000
# 4 0.0000 0.0000 0.0000 -24.8493 0.0000 -45.3604
# 5 -12.4084 -7.1485 -9.0027 0.0000 38.2788 0.0000
# 6 0.0000 0.0000 0.0000 -45.3604 0.0000 19.9531
#
#
#
# Elastic Compliance Matrix: (Units=1/GPa)
#
#
# Indices 1 2 3 4 5 6 
#
# 1 0.006052 -0.000645 -0.000556 0.000000 0.001710 0.000000
# 2 -0.000645 0.004578 0.001308 0.000000 0.000953 0.000000
# 3 -0.000556 0.001308 0.009440 0.000000 0.002284 0.000000
# 4 0.000000 0.000000 0.000000 -0.007814 0.000000 -0.017765
# 5 0.001710 0.000953 0.002284 0.000000 0.027394 0.000000
# 6 0.000000 0.000000 0.000000 -0.017765 0.000000 0.009732
#
#
# Mechanical properties :
#
#
# Convention : Reuss Voigt Hill
#
# Bulk Modulus (GPa) = 49.30472 58.48667 53.89570
# Shear Modulus (GPa) = 89.40072 40.78191 65.09131
#
# Velocity S-wave (km/s) = 5.98362 4.04136 5.10570
# Velocity P-wave (km/s) = 8.21487 6.72308 7.50613
#
# Compressibility (1/GPa) = 0.02028203
#
# Stress axis : x y z
#
# Youngs Moduli (GPa) = 165.24549 218.44665 105.93635
#
# Poissons Ratio (x) = 0.14097 0.05889
# Poissons Ratio (y) = 0.10664 -0.13853
# Poissons Ratio (z) = 0.09185 -0.28566
#
# Static dielectric constant tensor:
#      x y z
#    x 1.950690 0.000000 0.048530 
#    y 0.000000 2.009530 0.000000 
#    z 0.048530 0.000000 2.051040 
# 
# From -- ./inp_files/3319.got.cif
#   From: 2010.05.17/outbox.cif.g08.bks.cpg/sg10_2_cif.got.tgz:3319.got - 2010.06.03 11:33:40.
