data_PCOD9153587
_publ_section_title
;
Structure prediction by ZEFSAII (Michael W. Deem and Ramdas Pophale) SiO2 
 PCOD9153587
Probable space group: P 2/M
;
_chemical_formula_sum "Si O2"
_cell_formula_units_Z 32
_cell_length_a 9.029937
_cell_length_b 21.690174
_cell_length_c 15.337035
_cell_angle_alpha 90.000000
_cell_angle_beta 152.024738
_cell_angle_gamma 90.000000
_cell_volume 1409.112332
_symmetry_space_group_name_H-M "P 2/M"
_symmetry_group_IT_number 10
_symmetry_cell_setting 'monoclinic'
loop_
_space_group_symop_operation_xyz
x,y,z
-x,y,-z
-x,-y,-z
x,-y,z
loop_
_atom_site_type_symbol
_atom_site_label
_atom_site_fract_x
_atom_site_fract_y
_atom_site_fract_z
Si Si1 0.145086 0.219960 0.822787
Si Si2 0.262733 0.345390 0.797646
Si Si3 0.823274 0.280040 0.822787
Si Si4 0.742476 0.105126 0.559151
Si Si5 0.369794 0.845390 0.202354
Si Si6 0.736839 0.065859 0.286693
Si Si7 0.623240 0.565859 0.286693
Si Si8 0.565023 0.394874 0.440849
O O1 0.161405 0.274293 0.758289
O O2 0.059146 0.250000 0.872764
O O3 0.876308 0.169938 0.665519
O O4 0.500000 0.193793 0.000000
O O5 0.426564 0.372967 0.796616
O O6 0.937366 0.381945 0.635287
O O7 0.500000 0.357553 0.000000
O O8 0.613463 0.225707 0.758290
O O9 0.620247 0.330062 0.665519
O O10 0.000000 0.306207 0.000000
O O11 0.500000 0.075586 0.500000
O O12 0.531507 0.118055 0.364714
O O13 0.057431 0.070581 0.693494
O O14 0.536718 0.872967 0.203384
O O15 0.000000 0.857553 0.000000
O O16 0.000000 0.064363 0.500000
O O17 0.561530 0.000000 0.198839
O O18 0.534988 0.500000 0.198839
O O19 0.476948 0.570581 0.306506
O O20 0.000000 0.564363 0.500000
O O21 0.500000 0.424414 0.500000
#
# Coordination Sequence:
#
# PCOD9153587 Si02
#       8
#     4   4   4   4   4   4   4   4
#     4  11  24  39  64  96 130 163 206 264 327 399
#     4  10  22  39  64  92 126 169 213 260 320 380
#     4  11  24  39  64  96 130 163 206 264 327 399
#     4  11  22  38  65  92 131 167 205 265 324 385
#     4  10  22  39  64  92 126 169 213 260 320 380
#     4   9  21  41  62  90 125 168 223 267 311 380
#     4   9  21  41  62  90 125 168 223 267 311 380
#     4  11  22  38  65  92 131 167 205 265 324 385
#
# _framework density 22.709332
#
# number of rings (size 3 to 8) (size 9 to 14) (size 15 to 20)
#    0.000    1.750    2.500    0.750    7.000    1.000 
#    0.000    3.750    0.000    2.250    0.000    0.000 
#    0.000    0.000    0.000    0.000    0.000    0.000 
#
# Total GULP energy -178464.749908 kJ/mol
# GULP energy per Si atom -5577.023435 kJ/mol
# Density = 2.265764 g / cm^3
# Si number density = 22.709332 Si / 1000 Ang^3
#
#
#
# Elastic Constant Matrix: (Units=GPa)
#
#
# Indices 1 2 3 4 5 6 
#
# 1 137.1825 49.3113 8.7576 0.0000 -2.6759 0.0000
# 2 49.3113 87.8077 9.4611 0.0000 -1.3860 0.0000
# 3 8.7576 9.4611 63.2568 0.0000 0.1050 0.0000
# 4 0.0000 0.0000 0.0000 -492.8214 0.0000 -15.7014
# 5 -2.6759 -1.3860 0.1050 0.0000 25.8385 0.0000
# 6 0.0000 0.0000 0.0000 -15.7014 0.0000 -41.2110
#
#
#
# Elastic Compliance Matrix: (Units=1/GPa)
#
#
# Indices 1 2 3 4 5 6 
#
# 1 0.009161 -0.005079 -0.000510 0.000000 0.000678 0.000000
# 2 -0.005079 0.014401 -0.001451 0.000000 0.000252 0.000000
# 3 -0.000510 -0.001451 0.016097 0.000000 -0.000196 0.000000
# 4 0.000000 0.000000 0.000000 -0.002054 0.000000 0.000783
# 5 0.000678 0.000252 -0.000196 0.000000 0.038787 0.000000
# 6 0.000000 0.000000 0.000000 0.000783 0.000000 -0.024564
#
#
# Mechanical properties :
#
#
# Convention : Reuss Voigt Hill
#
# Bulk Modulus (GPa) = 39.09496 47.03410 43.06453
# Shear Modulus (GPa) = 67.17369 -86.92430 -9.87531
#
# Velocity S-wave (km/s) = 5.44463 -6.19355 -2.08758
# Velocity P-wave (km/s) = 7.53512 5.51274 3.63233
#
# Compressibility (1/GPa) = 0.02557874
#
# Stress axis : x y z
#
# Youngs Moduli (GPa) = 109.15795 69.43883 62.12522
#
# Poissons Ratio (x) = 0.35268 0.03167
# Poissons Ratio (y) = 0.55442 0.09015
# Poissons Ratio (z) = 0.05565 0.10077
#
# Static dielectric constant tensor:
#      x y z
#    x 1.935570 0.000000 -0.004650 
#    y 0.000000 1.882430 0.000000 
#    z -0.004650 0.000000 1.801760 
# 
# From -- ./inp_files/62728.got.cif
#   From: 2010.05.17/outbox.cif.g08.bks.cpg/sg10_32_cif.got.tgz:62728.got - 2010.06.03 11:33:40.
