data_PCOD9153363
_publ_section_title
;
Structure prediction by ZEFSAII (Michael W. Deem and Ramdas Pophale) SiO2 
 PCOD9153363
Probable space group: P 2/M
;
_chemical_formula_sum "Si O2"
_cell_formula_units_Z 20
_cell_length_a 9.069614
_cell_length_b 22.581462
_cell_length_c 5.411658
_cell_angle_alpha 90.000000
_cell_angle_beta 72.859798
_cell_angle_gamma 90.000000
_cell_volume 1059.110301
_symmetry_space_group_name_H-M "P 2/M"
_symmetry_group_IT_number 10
_symmetry_cell_setting 'monoclinic'
loop_
_space_group_symop_operation_xyz
x,y,z
-x,y,-z
-x,-y,-z
x,-y,z
loop_
_atom_site_type_symbol
_atom_site_label
_atom_site_fract_x
_atom_site_fract_y
_atom_site_fract_z
Si Si1 0.000000 0.280773 0.500000
Si Si2 0.896645 0.500000 0.302558
Si Si3 0.896591 0.064993 0.800052
Si Si4 0.401617 0.717520 0.798604
Si Si5 0.162063 0.808654 0.063232
Si Si6 0.839987 0.627836 0.227422
O O1 0.114537 0.237430 0.298114
O O2 0.113151 0.324490 0.590294
O O3 0.804787 0.562023 0.341169
O O4 0.000000 0.500000 0.500000
O O5 0.000000 0.500000 0.000000
O O6 0.798269 0.125209 0.867997
O O7 0.000000 0.070787 0.500000
O O8 0.819209 0.000000 0.823471
O O9 0.000000 0.063288 0.000000
O O10 0.500000 0.714054 0.500000
O O11 0.293688 0.659106 0.860985
O O12 0.500000 0.721290 0.000000
O O13 0.292517 0.775610 0.844082
O O14 0.000000 0.813561 0.000000
O O15 0.000000 0.623331 0.000000
#
# Coordination Sequence:
#
# PCOD9153363 Si02
#       6
#     2   2   4   4   4   4
#     4  12  16  33  65  88 116 142 202 242 298 332
#     4  10  22  36  62  92 112 146 197 252 287 344
#     4   9  18  31  52  85 118 145 186 245 296 339
#     4  12  26  39  57  88 126 158 194 246 302 352
#     4  11  21  35  61  88 115 154 202 244 294 348
#     4  11  22  39  62  88 116 154 198 247 294 352
#
# _framework density 18.883776000000001
#
# number of rings (size 3 to 8) (size 9 to 14) (size 15 to 20)
#    0.000    1.200    6.000    1.200    0.000    0.000 
#    0.000    1.000    0.000    1.200    0.000    0.000 
#    0.000    0.000    0.000    0.000    0.000    0.000 
#
# Total GULP energy -111448.771814 kJ/mol
# GULP energy per Si atom -5572.438591 kJ/mol
# Density = 1.884080 g / cm^3
# Si number density = 18.883776 Si / 1000 Ang^3
#
#
#
# Elastic Constant Matrix: (Units=GPa)
#
#
# Indices 1 2 3 4 5 6 
#
# 1 68.0894 32.9235 18.6700 0.0000 3.7100 0.0000
# 2 32.9235 209.9027 28.4048 0.0000 -3.2189 0.0000
# 3 18.6700 28.4048 86.7680 0.0000 2.1780 0.0000
# 4 0.0000 0.0000 0.0000 42.4442 0.0000 31.1670
# 5 3.7100 -3.2189 2.1780 0.0000 29.8156 0.0000
# 6 0.0000 0.0000 0.0000 31.1670 0.0000 -18.0400
#
#
#
# Elastic Compliance Matrix: (Units=1/GPa)
#
#
# Indices 1 2 3 4 5 6 
#
# 1 0.016664 -0.002269 -0.002790 0.000000 -0.002115 0.000000
# 2 -0.002269 0.005307 -0.001273 0.000000 0.000948 0.000000
# 3 -0.002790 -0.001273 0.012560 0.000000 -0.000708 0.000000
# 4 0.000000 0.000000 0.000000 0.010385 0.000000 0.017942
# 5 -0.002115 0.000948 -0.000708 0.000000 0.033957 0.000000
# 6 0.000000 0.000000 0.000000 0.017942 0.000000 -0.024434
#
#
# Mechanical properties :
#
#
# Convention : Reuss Voigt Hill
#
# Bulk Modulus (GPa) = 45.72988 58.30628 52.01808
# Shear Modulus (GPa) = 67.21364 29.82810 48.52087
#
# Velocity S-wave (km/s) = 5.97249 3.97868 5.07447
# Velocity P-wave (km/s) = 8.47525 7.21457 7.87019
#
# Compressibility (1/GPa) = 0.02186754
#
# Stress axis : x y z
#
# Youngs Moduli (GPa) = 60.01060 188.43954 79.61954
#
# Poissons Ratio (x) = 0.42750 0.22212
# Poissons Ratio (y) = 0.13614 0.10135
# Poissons Ratio (z) = 0.16742 0.23986
#
# Static dielectric constant tensor:
#      x y z
#    x 1.834030 0.000000 0.055840 
#    y 0.000000 1.731710 0.000000 
#    z 0.055840 0.000000 1.691850 
# 
# From -- ./inp_files/4705.got.cif
#   From: 2010.05.17/outbox.cif.g08.bks.cpg/sg10_3_cif.got.tgz:4705.got - 2010.06.03 11:33:40.
