data_PCOD9153296
_publ_section_title
;
Structure prediction by ZEFSAII (Michael W. Deem and Ramdas Pophale) SiO2 
 PCOD9153296
Probable space group: P 2/M
;
_chemical_formula_sum "Si O2"
_cell_formula_units_Z 30
_cell_length_a 18.738663
_cell_length_b 15.273806
_cell_length_c 12.336593
_cell_angle_alpha 90.000000
_cell_angle_beta 153.714719
_cell_angle_gamma 90.000000
_cell_volume 1563.611322
_symmetry_space_group_name_H-M "P 2/M"
_symmetry_group_IT_number 10
_symmetry_cell_setting 'monoclinic'
loop_
_space_group_symop_operation_xyz
x,y,z
-x,y,-z
-x,-y,-z
x,-y,z
loop_
_atom_site_type_symbol
_atom_site_label
_atom_site_fract_x
_atom_site_fract_y
_atom_site_fract_z
Si Si1 0.964931 0.765737 0.620663
Si Si2 0.819061 0.000000 0.964307
Si Si3 0.556929 0.277404 0.461661
Si Si4 0.448460 0.603734 0.752369
Si Si5 0.326662 0.899035 0.816093
Si Si6 0.283787 0.851550 0.001081
Si Si7 0.760117 0.396136 0.316434
Si Si8 0.893269 0.182048 0.959847
O O1 0.814014 0.832812 0.410144
O O2 0.907286 0.669929 0.508411
O O3 0.114502 0.801412 0.754715
O O4 0.029475 0.769120 0.831567
O O5 0.882979 0.079135 0.972588
O O6 0.752567 0.075351 0.959347
O O7 0.500000 0.315757 0.500000
O O8 0.585463 0.345592 0.403916
O O9 0.715861 0.220416 0.698495
O O10 0.416555 0.213556 0.228268
O O11 0.446560 0.500000 0.730913
O O12 0.323532 0.620893 0.680241
O O13 0.624251 0.625870 0.041702
O O14 0.339087 0.890842 0.962469
O O15 0.283835 0.000000 0.729051
O O16 0.500000 0.878093 0.000000
O O17 0.796057 0.500000 0.358156
O O18 0.000000 0.197468 0.000000
#
# Coordination Sequence:
#
# PCOD9153296 Si02
#       8
#     4   2   4   4   4   4   4   4
#     4  11  23  39  66  94 127 169 209 257 326 376
#     4  10  21  43  60  84 125 169 216 250 313 365
#     4  12  23  42  64  90 132 166 216 259 309 386
#     4   9  20  38  67  97 125 164 207 259 328 378
#     4  11  26  42  63  97 126 162 214 268 325 377
#     4  11  24  42  64  90 127 173 207 261 321 376
#     4   9  19  40  67  99 129 158 209 268 322 386
#     4  11  25  41  63  93 122 169 220 264 309 367
#
# _framework density 19.186354000000001
#
# number of rings (size 3 to 8) (size 9 to 14) (size 15 to 20)
#    0.000    1.467    3.333    3.000    9.333    1.867 
#    0.000    1.333    0.000    5.600    0.000    0.000 
#    0.000    0.000    0.000    0.000    0.000    0.000 
#
# Total GULP energy -167105.924805 kJ/mol
# GULP energy per Si atom -5570.197493 kJ/mol
# Density = 1.914268 g / cm^3
# Si number density = 19.186354 Si / 1000 Ang^3
#
#
#
# Elastic Constant Matrix: (Units=GPa)
#
#
# Indices 1 2 3 4 5 6 
#
# 1 81.4241 14.6532 19.9215 0.0000 8.4048 0.0000
# 2 14.6532 62.9039 32.7184 0.0000 1.8102 0.0000
# 3 19.9215 32.7184 81.6671 0.0000 4.3904 0.0000
# 4 0.0000 0.0000 0.0000 2.1047 0.0000 -6.2562
# 5 8.4048 1.8102 4.3904 0.0000 28.3038 0.0000
# 6 0.0000 0.0000 0.0000 -6.2562 0.0000 29.2784
#
#
#
# Elastic Compliance Matrix: (Units=1/GPa)
#
#
# Indices 1 2 3 4 5 6 
#
# 1 0.013558 -0.001813 -0.002391 0.000000 -0.003539 0.000000
# 2 -0.001813 0.020324 -0.007724 0.000000 0.000437 0.000000
# 3 -0.002391 -0.007724 0.015991 0.000000 -0.001277 0.000000
# 4 0.000000 0.000000 0.000000 1.302385 0.000000 0.278294
# 5 -0.003539 0.000437 -0.001277 0.000000 0.036552 0.000000
# 6 0.000000 0.000000 0.000000 0.278294 0.000000 0.093621
#
#
# Mechanical properties :
#
#
# Convention : Reuss Voigt Hill
#
# Bulk Modulus (GPa) = 38.43424 40.06461 39.24942
# Shear Modulus (GPa) = 3.30042 22.51751 12.90897
#
# Velocity S-wave (km/s) = 1.31298 3.42953 2.59669
# Velocity P-wave (km/s) = 4.73013 6.05057 5.43063
#
# Compressibility (1/GPa) = 0.02601847
#
# Stress axis : x y z
#
# Youngs Moduli (GPa) = 73.75787 49.20189 62.53509
#
# Poissons Ratio (x) = 0.08920 0.14950
# Poissons Ratio (y) = 0.13372 0.48301
# Poissons Ratio (z) = 0.17633 0.38003
#
# Static dielectric constant tensor:
#      x y z
#    x 1.681660 0.000000 -0.021810 
#    y 0.000000 1.653060 0.000000 
#    z -0.021810 0.000000 1.606220 
# 
# From -- ./inp_files/53920.got.cif
#   From: 2010.05.17/outbox.cif.g08.bks.cpg/sg10_27_cif.got.tgz:53920.got - 2010.06.03 11:33:40.
