data_PCOD9153596
_publ_section_title
;
Structure prediction by ZEFSAII (Michael W. Deem and Ramdas Pophale) SiO2 
 PCOD9153596
Probable space group: P 2/M
;
_chemical_formula_sum "Si O2"
_cell_formula_units_Z 14
_cell_length_a 10.699421
_cell_length_b 11.632830
_cell_length_c 10.221718
_cell_angle_alpha 90.000000
_cell_angle_beta 31.140863
_cell_angle_gamma 90.000000
_cell_volume 657.931901
_symmetry_space_group_name_H-M "P 2/M"
_symmetry_group_IT_number 10
_symmetry_cell_setting 'monoclinic'
loop_
_space_group_symop_operation_xyz
x,y,z
-x,y,-z
-x,-y,-z
x,-y,z
loop_
_atom_site_type_symbol
_atom_site_label
_atom_site_fract_x
_atom_site_fract_y
_atom_site_fract_z
Si Si1 0.500000 0.705496 0.000000
Si Si2 0.767017 0.759885 0.309092
Si Si3 0.164183 0.500000 0.725928
Si Si4 0.834002 0.500000 0.773694
Si Si5 0.802893 0.134859 0.558943
O O1 0.314177 0.616764 0.102665
O O2 0.410650 0.786876 0.195146
O O3 0.500000 0.805766 0.500000
O O4 0.713396 0.624713 0.387299
O O5 0.852574 0.820149 0.367902
O O6 0.000000 0.767768 0.000000
O O7 0.990855 0.500000 0.759266
O O8 0.000000 0.500000 0.000000
O O9 0.000000 0.500000 0.500000
O O10 0.000000 0.149147 0.500000
O O11 0.745897 0.000000 0.603950
#
# Coordination Sequence:
#
# PCOD9153596 Si02
#       5
#     2   4   2   2   4
#     4  11  23  40  74 100 139 177 234 292 358 425
#     4  11  26  46  72 104 148 188 236 296 361 430
#     4  10  22  39  66 100 137 180 224 285 354 427
#     4  11  23  41  66 104 139 178 223 289 359 427
#     4  11  26  46  71 100 138 188 245 298 351 419
#
# _framework density 21.278797000000001
#
# number of rings (size 3 to 8) (size 9 to 14) (size 15 to 20)
#    0.000    1.143    0.000    5.143   12.000    2.286 
#    0.000    0.000    0.000    0.000    0.000    0.000 
#    0.000    0.000    0.000    0.000    0.000    0.000 
#
# Total GULP energy -78091.456318 kJ/mol
# GULP energy per Si atom -5577.961166 kJ/mol
# Density = 2.123037 g / cm^3
# Si number density = 21.278797 Si / 1000 Ang^3
#
#
#
# Elastic Constant Matrix: (Units=GPa)
#
#
# Indices 1 2 3 4 5 6 
#
# 1 185.3600 60.6600 74.2761 0.0000 14.6563 0.0000
# 2 60.6600 163.5309 69.7070 0.0000 12.1037 0.0000
# 3 74.2761 69.7070 113.5144 0.0000 16.9466 0.0000
# 4 0.0000 0.0000 0.0000 -0.7744 0.0000 31.5623
# 5 14.6563 12.1037 16.9466 0.0000 39.8231 0.0000
# 6 0.0000 0.0000 0.0000 31.5623 0.0000 15.8504
#
#
#
# Elastic Compliance Matrix: (Units=1/GPa)
#
#
# Indices 1 2 3 4 5 6 
#
# 1 0.007430 -0.000917 -0.004199 0.000000 -0.000669 0.000000
# 2 -0.000917 0.008402 -0.004515 0.000000 -0.000295 0.000000
# 3 -0.004199 -0.004515 0.014837 0.000000 -0.003396 0.000000
# 4 0.000000 0.000000 0.000000 -0.015718 0.000000 0.031298
# 5 -0.000669 -0.000295 -0.003396 0.000000 0.026892 0.000000
# 6 0.000000 0.000000 0.000000 0.031298 0.000000 0.000768
#
#
# Mechanical properties :
#
#
# Convention : Reuss Voigt Hill
#
# Bulk Modulus (GPa) = 87.67044 96.85461 92.26253
# Shear Modulus (GPa) = 76.13087 28.16395 52.14741
#
# Velocity S-wave (km/s) = 5.98794 3.64204 4.95580
# Velocity P-wave (km/s) = 9.43915 7.95623 8.72924
#
# Compressibility (1/GPa) = 0.01140635
#
# Stress axis : x y z
#
# Youngs Moduli (GPa) = 134.58078 119.02354 67.39955
#
# Poissons Ratio (x) = 0.10912 0.28302
# Poissons Ratio (y) = 0.12338 0.30434
# Poissons Ratio (z) = 0.56512 0.53744
#
# Static dielectric constant tensor:
#      x y z
#    x 1.843830 0.000000 -0.002910 
#    y 0.000000 1.746570 0.000000 
#    z -0.002910 0.000000 1.874980 
# 
# From -- ./inp_files/14075.got.cif
#   From: 2010.05.17/outbox.cif.g08.bks.cpg/sg10_8_cif.got.tgz:14075.got - 2010.06.03 11:33:40.
