data_PCOD9153835
_publ_section_title
;
Structure prediction by ZEFSAII (Michael W. Deem and Ramdas Pophale) SiO2 
 PCOD9153835
Probable space group: P 2/M
;
_chemical_formula_sum "Si O2"
_cell_formula_units_Z 28
_cell_length_a 10.100789
_cell_length_b 15.979155
_cell_length_c 22.341149
_cell_angle_alpha 90.000000
_cell_angle_beta 154.548729
_cell_angle_gamma 90.000000
_cell_volume 1549.614734
_symmetry_space_group_name_H-M "P 2/M"
_symmetry_group_IT_number 10
_symmetry_cell_setting 'monoclinic'
loop_
_space_group_symop_operation_xyz
x,y,z
-x,y,-z
-x,-y,-z
x,-y,z
loop_
_atom_site_type_symbol
_atom_site_label
_atom_site_fract_x
_atom_site_fract_y
_atom_site_fract_z
Si Si1 0.738302 0.276014 0.943422
Si Si2 0.274131 0.903306 0.565584
Si Si3 0.598508 0.000000 0.144814
Si Si4 0.834551 0.720017 0.667153
Si Si5 0.030275 0.000000 0.824746
Si Si6 0.851011 0.182460 0.793791
Si Si7 0.387218 0.400826 0.886102
Si Si8 0.171435 0.831886 0.711213
O O1 0.610932 0.354583 0.929893
O O2 0.427762 0.232352 0.791361
O O3 0.000000 0.292918 0.000000
O O4 0.890637 0.212711 0.054592
O O5 0.538484 0.843858 0.699610
O O6 0.000000 0.909592 0.500000
O O7 0.126567 0.856129 0.448970
O O8 0.369194 0.000000 0.591072
O O9 0.840800 0.000000 0.189542
O O10 0.652970 0.918247 0.205718
O O11 0.278644 0.000000 0.979890
O O12 0.500000 0.714222 0.500000
O O13 0.808794 0.747095 0.725874
O O14 0.043923 0.637984 0.742972
O O15 0.038965 0.791260 0.717707
O O16 0.899935 0.906143 0.779763
O O17 0.388054 0.500000 0.876969
O O18 0.500000 0.382859 0.000000
#
# Coordination Sequence:
#
# PCOD9153835 Si02
#       8
#     4   4   2   4   2   4   4   4
#     4  11  24  40  61  87 118 155 193 240 291 349
#     4  11  23  35  49  72 113 165 206 244 285 328
#     4  11  20  31  50  77 113 151 197 252 296 329
#     4  11  22  36  61  90 116 149 185 236 296 348
#     4  11  22  31  52  81 115 155 195 250 300 327
#     4  12  21  37  55  85 116 154 202 246 285 339
#     4  10  22  42  69  95 116 143 183 236 297 362
#     4  11  21  35  54  80 113 150 207 244 283 338
#
# _framework density 18.069009000000001
#
# number of rings (size 3 to 8) (size 9 to 14) (size 15 to 20)
#    0.000    1.000    7.143    0.857    0.000    0.571 
#    0.000    2.857    0.000    0.000    0.000    1.000 
#    0.000    0.000    0.000    0.000    0.000    0.000 
#
# Total GULP energy -155995.776403 kJ/mol
# GULP energy per Si atom -5571.277729 kJ/mol
# Density = 1.802788 g / cm^3
# Si number density = 18.069009 Si / 1000 Ang^3
#
#
#
# Elastic Constant Matrix: (Units=GPa)
#
#
# Indices 1 2 3 4 5 6 
#
# 1 74.7362 39.5311 -1.6681 0.0000 14.7713 0.0000
# 2 39.5311 98.0735 22.9251 0.0000 12.4626 0.0000
# 3 -1.6681 22.9251 60.9445 0.0000 11.4205 0.0000
# 4 0.0000 0.0000 0.0000 -59.2988 0.0000 -102.9398
# 5 14.7713 12.4626 11.4205 0.0000 25.9819 0.0000
# 6 0.0000 0.0000 0.0000 -102.9398 0.0000 -108.7482
#
#
#
# Elastic Compliance Matrix: (Units=1/GPa)
#
#
# Indices 1 2 3 4 5 6 
#
# 1 0.019601 -0.007915 0.005330 0.000000 -0.009690 0.000000
# 2 -0.007915 0.014737 -0.005753 0.000000 -0.000040 0.000000
# 3 0.005330 -0.005753 0.020454 0.000000 -0.009261 0.000000
# 4 0.000000 0.000000 0.000000 0.026217 0.000000 -0.024817
# 5 -0.009690 -0.000040 -0.009261 0.000000 0.048087 0.000000
# 6 0.000000 0.000000 0.000000 -0.024817 0.000000 0.014296
#
#
# Mechanical properties :
#
#
# Convention : Reuss Voigt Hill
#
# Bulk Modulus (GPa) = 26.23617 39.48115 32.85866
# Shear Modulus (GPa) = 28.93963 -16.88195 6.02884
#
# Velocity S-wave (km/s) = 4.00636 -3.05996 1.82861
# Velocity P-wave (km/s) = 5.99606 3.06810 4.76267
#
# Compressibility (1/GPa) = 0.03811532
#
# Stress axis : x y z
#
# Youngs Moduli (GPa) = 51.01716 67.85781 48.89101
#
# Poissons Ratio (x) = 0.53712 -0.26058
# Poissons Ratio (y) = 0.40382 0.28125
# Poissons Ratio (z) = -0.27191 0.39036
#
# Static dielectric constant tensor:
#      x y z
#    x 1.674070 0.000000 -0.004050 
#    y 0.000000 1.606720 0.000000 
#    z -0.004050 0.000000 1.678000 
# 
# From -- ./inp_files/29635.got.cif
#   From: 2010.05.17/outbox.cif.g08.bks.cpg/sg10_15_cif.got.tgz:29635.got - 2010.06.03 11:33:40.
