data_PCOD9153785
_publ_section_title
;
Structure prediction by ZEFSAII (Michael W. Deem and Ramdas Pophale) SiO2 
 PCOD9153785
Probable space group: P 2/M
;
_chemical_formula_sum "Si O2"
_cell_formula_units_Z 17
_cell_length_a 7.844265
_cell_length_b 17.266922
_cell_length_c 5.335233
_cell_angle_alpha 90.000000
_cell_angle_beta 93.569387
_cell_angle_gamma 90.000000
_cell_volume 721.235813
_symmetry_space_group_name_H-M "P 2/M"
_symmetry_group_IT_number 10
_symmetry_cell_setting 'monoclinic'
loop_
_space_group_symop_operation_xyz
x,y,z
-x,y,-z
-x,-y,-z
x,-y,z
loop_
_atom_site_type_symbol
_atom_site_label
_atom_site_fract_x
_atom_site_fract_y
_atom_site_fract_z
Si Si1 0.677261 0.331436 0.669568
Si Si2 0.500000 0.785493 0.000000
Si Si3 0.000000 0.000000 0.500000
Si Si4 0.705330 0.082624 0.230206
Si Si5 0.000000 0.150759 0.000000
Si Si6 0.000000 0.747561 0.500000
Si Si7 0.384782 0.500000 0.236906
O O1 0.500000 0.332707 0.500000
O O2 0.829960 0.303077 0.510947
O O3 0.712556 0.418197 0.769322
O O4 0.640261 0.269883 0.887429
O O5 0.417414 0.844048 0.787850
O O6 0.849265 0.933651 0.451021
O O7 0.611948 0.000000 0.211607
O O8 0.833023 0.096095 0.005052
O O9 0.007165 0.203896 0.756523
O O10 0.500000 0.500000 0.500000
O O11 0.500000 0.500000 0.000000
#
# Coordination Sequence:
#
# PCOD9153785 Si02
#       7
#     4   2   1   4   2   2   2
#     4  11  25  45  74 110 154 199 253 315 386 458
#     4  12  21  45  74 106 146 194 264 323 375 458
#     4   8  22  40  68 100 146 190 254 314 390 458
#     4  10  22  41  68 103 144 195 254 312 384 461
#     4  12  23  46  70  99 146 196 246 313 384 446
#     4  12  27  43  75 110 151 194 260 311 375 457
#     4  10  22  43  76 111 157 205 246 307 389 464
#
# _framework density 23.570654000000001
#
# number of rings (size 3 to 8) (size 9 to 14) (size 15 to 20)
#    0.706    0.471    3.529    2.824    0.000    0.471 
#    0.000    0.000    0.000    8.471    0.000    0.000 
#    0.000    0.941    0.000    0.000    0.000    0.000 
#
# Total GULP energy -94684.526168 kJ/mol
# GULP energy per Si atom -5569.678010 kJ/mol
# Density = 2.351701 g / cm^3
# Si number density = 23.570654 Si / 1000 Ang^3
#
#
#
# Elastic Constant Matrix: (Units=GPa)
#
#
# Indices 1 2 3 4 5 6 
#
# 1 83.9704 37.2469 15.8797 0.0000 -4.1703 0.0000
# 2 37.2469 208.5571 49.8026 0.0000 -11.3501 0.0000
# 3 15.8797 49.8026 120.2865 0.0000 -13.9673 0.0000
# 4 0.0000 0.0000 0.0000 -29.5941 0.0000 -19.0127
# 5 -4.1703 -11.3501 -13.9673 0.0000 44.0954 0.0000
# 6 0.0000 0.0000 0.0000 -19.0127 0.0000 22.6131
#
#
#
# Elastic Compliance Matrix: (Units=1/GPa)
#
#
# Indices 1 2 3 4 5 6 
#
# 1 0.013017 -0.002112 -0.000794 0.000000 0.000436 0.000000
# 2 -0.002112 0.005684 -0.002002 0.000000 0.000629 0.000000
# 3 -0.000794 -0.002002 0.009529 0.000000 0.002428 0.000000
# 4 0.000000 0.000000 0.000000 -0.021940 0.000000 -0.018446
# 5 0.000436 0.000629 0.002428 0.000000 0.023650 0.000000
# 6 0.000000 0.000000 0.000000 -0.018446 0.000000 0.028713
#
#
# Mechanical properties :
#
#
# Convention : Reuss Voigt Hill
#
# Bulk Modulus (GPa) = 54.29785 68.74140 61.51962
# Shear Modulus (GPa) = 67.01843 28.08189 47.55016
#
# Velocity S-wave (km/s) = 5.33804 3.45540 4.49636
# Velocity P-wave (km/s) = 7.81532 6.71915 7.28787
#
# Compressibility (1/GPa) = 0.01841693
#
# Stress axis : x y z
#
# Youngs Moduli (GPa) = 76.82073 175.92666 104.94369
#
# Poissons Ratio (x) = 0.37148 0.08328
# Poissons Ratio (y) = 0.16221 0.21006
# Poissons Ratio (z) = 0.06096 0.35214
#
# Static dielectric constant tensor:
#      x y z
#    x 1.870340 0.000000 0.052480 
#    y 0.000000 1.954120 0.000000 
#    z 0.052480 0.000000 1.949440 
# 
# From -- ./inp_files/3742.got.cif
#   From: 2010.05.17/outbox.cif.g08.bks.cpg/sg10_2_cif.got.tgz:3742.got - 2010.06.03 11:33:40.
