data_PCOD9153553
_publ_section_title
;
Structure prediction by ZEFSAII (Michael W. Deem and Ramdas Pophale) SiO2 
 PCOD9153553
Probable space group: P 2/M
;
_chemical_formula_sum "Si O2"
_cell_formula_units_Z 30
_cell_length_a 28.697144
_cell_length_b 10.862942
_cell_length_c 31.538386
_cell_angle_alpha 90.000000
_cell_angle_beta 8.828973
_cell_angle_gamma 90.000000
_cell_volume 1509.013287
_symmetry_space_group_name_H-M "P 2/M"
_symmetry_group_IT_number 10
_symmetry_cell_setting 'monoclinic'
loop_
_space_group_symop_operation_xyz
x,y,z
-x,y,-z
-x,-y,-z
x,-y,z
loop_
_atom_site_type_symbol
_atom_site_label
_atom_site_fract_x
_atom_site_fract_y
_atom_site_fract_z
Si Si1 0.636513 0.000000 0.328503
Si Si2 0.793004 0.205933 0.307030
Si Si3 0.191046 0.849670 0.158910
Si Si4 0.347818 0.850150 0.181094
Si Si5 0.963413 0.639111 0.080845
Si Si6 0.617299 0.361152 0.539234
Si Si7 0.492136 0.853272 0.211125
Si Si8 0.568348 0.136719 0.239710
O O1 0.500000 0.000000 0.500000
O O2 0.491204 0.115740 0.434071
O O3 0.000000 0.000000 0.000000
O O4 0.769042 0.271349 0.283833
O O5 0.816447 0.312288 0.321192
O O6 0.107655 0.133850 0.028367
O O7 0.439302 0.815341 0.970901
O O8 0.304734 0.806279 0.010407
O O9 0.175783 0.000000 0.171721
O O10 0.855048 0.806237 0.474169
O O11 0.000000 0.809267 0.500000
O O12 0.341231 0.000000 0.186157
O O13 0.500000 0.810464 0.000000
O O14 0.844489 0.500000 0.186266
O O15 0.000000 0.681298 0.000000
O O16 0.284345 0.634606 0.816862
O O17 0.693156 0.500000 0.485125
O O18 0.611461 0.251589 0.578755
O O19 0.621086 0.839589 0.142470
O O20 0.469430 0.000000 0.223995
O O21 0.421039 0.000000 0.376290
#
# Coordination Sequence:
#
# PCOD9153553 Si02
#       8
#     2   4   4   4   4   4   4   4
#     4  12  32  46  64  92 124 156 188 234 296 351
#     4  11  24  40  63  85 117 149 191 235 288 355
#     4   9  16  27  41  65 100 136 185 241 286 333
#     4   9  15  22  35  56  88 136 187 233 278 328
#     4   9  20  39  63  89 114 146 186 230 281 341
#     4  10  23  39  61  87 117 149 189 237 288 353
#     4   9  18  30  48  73 101 137 181 238 292 333
#     4  10  22  39  61  86 112 149 192 246 293 349
#
# _framework density 19.880541000000001
#
# number of rings (size 3 to 8) (size 9 to 14) (size 15 to 20)
#    0.000    2.267    0.667    1.200    8.400    3.733 
#    0.000    2.000    0.000    1.200    0.000    0.000 
#    0.000    0.000    0.000    0.000    0.000   13.333 
#
# Total GULP energy -167462.173105 kJ/mol
# GULP energy per Si atom -5582.072437 kJ/mol
# Density = 1.983529 g / cm^3
# Si number density = 19.880541 Si / 1000 Ang^3
#
#
#
# Elastic Constant Matrix: (Units=GPa)
#
#
# Indices 1 2 3 4 5 6 
#
# 1 98.4047 30.0815 21.0736 0.0000 16.1909 0.0000
# 2 30.0815 92.2194 12.9765 0.0000 10.8312 0.0000
# 3 21.0736 12.9765 76.1041 0.0000 5.2559 0.0000
# 4 0.0000 0.0000 0.0000 25.5692 0.0000 21.3770
# 5 16.1909 10.8312 5.2559 0.0000 29.4525 0.0000
# 6 0.0000 0.0000 0.0000 21.3770 0.0000 20.0477
#
#
#
# Elastic Compliance Matrix: (Units=1/GPa)
#
#
# Indices 1 2 3 4 5 6 
#
# 1 0.012533 -0.003105 -0.002576 0.000000 -0.005288 0.000000
# 2 -0.003105 0.012315 -0.001058 0.000000 -0.002633 0.000000
# 3 -0.002576 -0.001058 0.014082 0.000000 -0.000708 0.000000
# 4 0.000000 0.000000 0.000000 0.360381 0.000000 -0.384276
# 5 -0.005288 -0.002633 -0.000708 0.000000 0.037955 0.000000
# 6 0.000000 0.000000 0.000000 -0.384276 0.000000 0.459636
#
#
# Mechanical properties :
#
#
# Convention : Reuss Voigt Hill
#
# Bulk Modulus (GPa) = 39.28866 43.88792 41.58829
# Shear Modulus (GPa) = 5.44151 28.52034 16.98093
#
# Velocity S-wave (km/s) = 1.65621 3.79170 2.92575
# Velocity P-wave (km/s) = 4.84383 6.42597 5.69016
#
# Compressibility (1/GPa) = 0.02545264
#
# Stress axis : x y z
#
# Youngs Moduli (GPa) = 79.79007 81.20454 71.01020
#
# Poissons Ratio (x) = 0.25211 0.18291
# Poissons Ratio (y) = 0.24772 0.07514
# Poissons Ratio (z) = 0.20553 0.08593
#
# Static dielectric constant tensor:
#      x y z
#    x 1.704850 0.000000 0.021120 
#    y 0.000000 1.706560 0.000000 
#    z 0.021120 0.000000 1.767820 
# 
# From -- ./inp_files/95914.got.cif
#   From: 2010.05.17/outbox.cif.g08.bks.cpg/sg10_48_cif.got.tgz:95914.got - 2010.06.03 11:33:40.
