data_PCOD9153939
_publ_section_title
;
Structure prediction by ZEFSAII (Michael W. Deem and Ramdas Pophale) SiO2 
 PCOD9153939
Probable space group: P 2/M
;
_chemical_formula_sum "Si O2"
_cell_formula_units_Z 28
_cell_length_a 12.071639
_cell_length_b 8.656952
_cell_length_c 15.563607
_cell_angle_alpha 90.000000
_cell_angle_beta 116.499475
_cell_angle_gamma 90.000000
_cell_volume 1455.575283
_symmetry_space_group_name_H-M "P 2/M"
_symmetry_group_IT_number 10
_symmetry_cell_setting 'monoclinic'
loop_
_space_group_symop_operation_xyz
x,y,z
-x,y,-z
-x,-y,-z
x,-y,z
loop_
_atom_site_type_symbol
_atom_site_label
_atom_site_fract_x
_atom_site_fract_y
_atom_site_fract_z
Si Si1 0.785792 0.314310 0.682684
Si Si2 0.676000 0.684821 0.458158
Si Si3 0.559523 0.182762 0.702618
Si Si4 0.689949 0.817243 0.068866
Si Si5 0.877338 0.183230 0.399523
Si Si6 0.502964 0.682820 0.868937
Si Si7 0.071483 0.315090 0.771363
O O1 0.774249 0.500000 0.688069
O O2 0.740721 0.274732 0.570672
O O3 0.694262 0.232943 0.717040
O O4 0.929542 0.272873 0.742029
O O5 0.664247 0.500000 0.449492
O O6 0.541998 0.760391 0.401287
O O7 0.762891 0.744407 0.411332
O O8 0.525171 0.264961 0.779860
O O9 0.551880 0.000000 0.710758
O O10 0.612315 0.769993 0.127017
O O11 0.829587 0.763931 0.132116
O O12 0.680743 0.000000 0.052386
O O13 0.621020 0.729877 0.967660
O O14 0.898458 0.261432 0.315079
O O15 0.000000 0.205861 0.500000
O O16 0.857744 0.000000 0.381304
O O17 0.481649 0.500000 0.866773
O O18 0.083733 0.500000 0.780655
#
# Coordination Sequence:
#
# PCOD9153939 Si02
#       7
#     4   4   4   4   4   4   4
#     4  10  23  41  60  83 116 159 204 247 288 346
#     4  11  22  39  61  85 116 158 204 247 293 350
#     4  12  25  40  60  87 119 155 197 248 301 350
#     4  11  22  39  64  95 126 152 187 241 301 353
#     4  11  22  35  55  85 121 154 192 243 297 346
#     4  11  22  41  66  91 119 154 197 242 291 351
#     4  11  22  39  61  87 120 160 202 240 291 354
#
# _framework density 19.236381000000002
#
# number of rings (size 3 to 8) (size 9 to 14) (size 15 to 20)
#    0.000    1.000    1.429    7.286    0.000    4.571 
#    0.000    0.714    0.000    4.286    0.000    0.000 
#    0.000    0.000    0.000    0.000    0.000    0.000 
#
# Total GULP energy -156700.252439 kJ/mol
# GULP energy per Si atom -5596.437587 kJ/mol
# Density = 1.919260 g / cm^3
# Si number density = 19.236381 Si / 1000 Ang^3
#
#
#
# Elastic Constant Matrix: (Units=GPa)
#
#
# Indices 1 2 3 4 5 6 
#
# 1 57.9227 8.9117 29.0312 0.0000 15.4027 0.0000
# 2 8.9117 49.3069 8.2700 0.0000 5.0060 0.0000
# 3 29.0312 8.2700 49.7241 0.0000 17.8174 0.0000
# 4 0.0000 0.0000 0.0000 30.7349 0.0000 -14.2959
# 5 15.4027 5.0060 17.8174 0.0000 25.0768 0.0000
# 6 0.0000 0.0000 0.0000 -14.2959 0.0000 91.5927
#
#
#
# Elastic Compliance Matrix: (Units=1/GPa)
#
#
# Indices 1 2 3 4 5 6 
#
# 1 0.025398 -0.001883 -0.012155 0.000000 -0.006588 0.000000
# 2 -0.001883 0.021100 -0.001764 0.000000 -0.001802 0.000000
# 3 -0.012155 -0.001764 0.033136 0.000000 -0.015726 0.000000
# 4 0.000000 0.000000 0.000000 0.035083 0.000000 0.005476
# 5 -0.006588 -0.001802 -0.015726 0.000000 0.055457 0.000000
# 6 0.000000 0.000000 0.000000 0.005476 0.000000 0.011773
#
#
# Mechanical properties :
#
#
# Convention : Reuss Voigt Hill
#
# Bulk Modulus (GPa) = 20.82018 27.70882 24.26450
# Shear Modulus (GPa) = 21.78076 36.86361 29.32218
#
# Velocity S-wave (km/s) = 3.36857 4.38236 3.90848
# Velocity P-wave (km/s) = 5.09672 6.32791 5.74539
#
# Compressibility (1/GPa) = 0.04803032
#
# Stress axis : x y z
#
# Youngs Moduli (GPa) = 39.37327 47.39260 30.17895
#
# Poissons Ratio (x) = 0.08924 0.36681
# Poissons Ratio (y) = 0.07414 0.05324
# Poissons Ratio (z) = 0.47857 0.08361
#
# Static dielectric constant tensor:
#      x y z
#    x 1.651610 0.000000 0.017670 
#    y 0.000000 1.640980 0.000000 
#    z 0.017670 0.000000 1.667070 
# 
# From -- ./inp_files/63400.got.cif
#   From: 2010.05.17/outbox.cif.g08.bks.cpg/sg10_32_cif.got.tgz:63400.got - 2010.06.03 11:33:40.
