data_PCOD9153736
_publ_section_title
;
Structure prediction by ZEFSAII (Michael W. Deem and Ramdas Pophale) SiO2 
 PCOD9153736
Probable space group: P 2/M
;
_chemical_formula_sum "Si O2"
_cell_formula_units_Z 28
_cell_length_a 14.032209
_cell_length_b 15.556661
_cell_length_c 9.423211
_cell_angle_alpha 90.000000
_cell_angle_beta 138.977370
_cell_angle_gamma 90.000000
_cell_volume 1350.148418
_symmetry_space_group_name_H-M "P 2/M"
_symmetry_group_IT_number 10
_symmetry_cell_setting 'monoclinic'
loop_
_space_group_symop_operation_xyz
x,y,z
-x,y,-z
-x,-y,-z
x,-y,z
loop_
_atom_site_type_symbol
_atom_site_label
_atom_site_fract_x
_atom_site_fract_y
_atom_site_fract_z
Si Si1 0.940411 0.263525 0.273621
Si Si2 0.307133 0.604429 0.938720
Si Si3 0.526016 0.900750 0.187630
Si Si4 0.865178 0.668177 0.757281
Si Si5 0.376012 0.401478 0.694570
Si Si6 0.654821 0.184775 0.599197
Si Si7 0.779809 0.093667 0.993443
O O1 0.874176 0.172587 0.153515
O O2 0.000000 0.259411 0.500000
O O3 0.063316 0.286930 0.298848
O O4 0.819409 0.339255 0.135528
O O5 0.282534 0.500000 0.927088
O O6 0.466547 0.633979 0.173333
O O7 0.318057 0.627988 0.782905
O O8 0.624292 0.844428 0.403454
O O9 0.580489 0.000000 0.238425
O O10 0.500000 0.866351 0.000000
O O11 0.368897 0.904580 0.084317
O O12 0.746083 0.604702 0.560442
O O13 0.768886 0.737761 0.732665
O O14 0.000000 0.634093 0.000000
O O15 0.411157 0.500000 0.761588
O O16 0.500000 0.204703 0.500000
O O17 0.727962 0.109681 0.773946
O O18 0.849102 0.000000 0.086849
#
# Coordination Sequence:
#
# PCOD9153736 Si02
#       7
#     4   4   4   4   4   4   4
#     4  12  25  41  63  99 132 175 214 265 336 388
#     4   9  20  41  69 100 131 168 217 265 318 395
#     4   9  19  35  61  94 118 151 213 278 326 371
#     4  12  25  41  61  95 136 166 216 264 323 399
#     4   9  20  40  67  98 129 169 216 265 322 384
#     4  10  22  41  64  86 120 173 218 266 325 386
#     4  10  22  42  63  87 128 177 223 266 323 391
#
# _framework density 20.738458999999999
#
# number of rings (size 3 to 8) (size 9 to 14) (size 15 to 20)
#    0.000    1.857    2.857    1.286    6.000    3.143 
#    0.000    2.143    0.000    2.143    0.000    0.000 
#    0.000    0.000    0.000    0.000    0.000    0.000 
#
# Total GULP energy -156240.053080 kJ/mol
# GULP energy per Si atom -5580.001896 kJ/mol
# Density = 2.069126 g / cm^3
# Si number density = 20.738459 Si / 1000 Ang^3
#
#
#
# Elastic Constant Matrix: (Units=GPa)
#
#
# Indices 1 2 3 4 5 6 
#
# 1 55.1855 29.5988 23.8101 0.0000 0.9571 0.0000
# 2 29.5988 82.3754 32.7925 0.0000 13.1142 0.0000
# 3 23.8101 32.7925 147.1119 0.0000 -2.9970 0.0000
# 4 0.0000 0.0000 0.0000 57.3108 0.0000 13.5093
# 5 0.9571 13.1142 -2.9970 0.0000 35.0476 0.0000
# 6 0.0000 0.0000 0.0000 13.5093 0.0000 20.7116
#
#
#
# Elastic Compliance Matrix: (Units=1/GPa)
#
#
# Indices 1 2 3 4 5 6 
#
# 1 0.023153 -0.007888 -0.001945 0.000000 0.002153 0.000000
# 2 -0.007888 0.017047 -0.002654 0.000000 -0.006390 0.000000
# 3 -0.001945 -0.002654 0.007739 0.000000 0.001708 0.000000
# 4 0.000000 0.000000 0.000000 0.020619 0.000000 -0.013449
# 5 0.002153 -0.006390 0.001708 0.000000 0.031011 0.000000
# 6 0.000000 0.000000 0.000000 -0.013449 0.000000 0.057054
#
#
# Mechanical properties :
#
#
# Convention : Reuss Voigt Hill
#
# Bulk Modulus (GPa) = 43.54206 50.78619 47.16413
# Shear Modulus (GPa) = 26.41982 35.84544 31.13263
#
# Velocity S-wave (km/s) = 3.57312 4.16198 3.87874
# Velocity P-wave (km/s) = 6.16963 6.90204 6.54608
#
# Compressibility (1/GPa) = 0.02296630
#
# Stress axis : x y z
#
# Youngs Moduli (GPa) = 43.19056 58.66000 129.22091
#
# Poissons Ratio (x) = 0.46269 0.25137
# Poissons Ratio (y) = 0.34067 0.34290
# Poissons Ratio (z) = 0.08402 0.15566
#
# Static dielectric constant tensor:
#      x y z
#    x 1.742470 0.000000 -0.014580 
#    y 0.000000 1.763280 0.000000 
#    z -0.014580 0.000000 1.774260 
# 
# From -- ./inp_files/30153.got.cif
#   From: 2010.05.17/outbox.cif.g08.bks.cpg/sg10_16_cif.got.tgz:30153.got - 2010.06.03 11:33:40.
