data_PCOD9153207
_publ_section_title
;
Structure prediction by ZEFSAII (Michael W. Deem and Ramdas Pophale) SiO2 
 PCOD9153207
Probable space group: P 2/M
;
_chemical_formula_sum "Si O2"
_cell_formula_units_Z 21
_cell_length_a 8.641525
_cell_length_b 13.821861
_cell_length_c 6.833206
_cell_angle_alpha 90.000000
_cell_angle_beta 84.626207
_cell_angle_gamma 90.000000
_cell_volume 812.584349
_symmetry_space_group_name_H-M "P 2/M"
_symmetry_group_IT_number 10
_symmetry_cell_setting 'monoclinic'
loop_
_space_group_symop_operation_xyz
x,y,z
-x,y,-z
-x,-y,-z
x,-y,z
loop_
_atom_site_type_symbol
_atom_site_label
_atom_site_fract_x
_atom_site_fract_y
_atom_site_fract_z
Si Si1 0.665253 0.889853 0.046941
Si Si2 0.668647 0.237384 0.411436
Si Si3 0.663276 0.391375 0.093012
Si Si4 0.117151 0.689313 0.257943
Si Si5 0.000000 0.500000 0.500000
Si Si6 0.970088 0.108431 0.736623
O O1 0.718064 0.841426 0.243272
O O2 0.628748 0.000000 0.100098
O O3 0.500000 0.843414 0.000000
O O4 0.796865 0.891010 0.861929
O O5 0.500000 0.202088 0.500000
O O6 0.644037 0.336913 0.297602
O O7 0.775093 0.266011 0.581775
O O8 0.719421 0.500000 0.120970
O O9 0.500000 0.395412 0.000000
O O10 0.779822 0.333790 0.941587
O O11 0.999117 0.776469 0.227467
O O12 0.047794 0.587753 0.338616
O O13 0.000000 0.103207 0.500000
O O14 0.030519 0.000000 0.793739
#
# Coordination Sequence:
#
# PCOD9153207 Si02
#       6
#     4   4   4   4   1   4
#     4  10  21  40  68 103 145 182 222 281 348 411
#     4  12  24  38  69 106 133 171 230 278 342 415
#     4  11  23  41  65  95 134 171 220 282 346 400
#     4  12  24  44  69  95 138 179 224 285 337 417
#     4  12  28  48  64  96 132 182 232 280 346 408
#     4  10  21  41  69  96 129 182 230 272 339 409
#
# _framework density 25.843472999999999
#
# number of rings (size 3 to 8) (size 9 to 14) (size 15 to 20)
#    0.000    0.952    5.714    1.714    1.333    1.524 
#    0.000    4.762    0.000    3.429    0.000    0.000 
#    0.000    0.000    0.000    0.000    0.000    0.000 
#
# Total GULP energy -117140.814763 kJ/mol
# GULP energy per Si atom -5578.134036 kJ/mol
# Density = 2.578465 g / cm^3
# Si number density = 25.843473 Si / 1000 Ang^3
#
#
#
# Elastic Constant Matrix: (Units=GPa)
#
#
# Indices 1 2 3 4 5 6 
#
# 1 93.4907 38.5314 39.5449 0.0000 -1.8633 0.0000
# 2 38.5314 235.7463 39.2495 0.0000 -0.7858 0.0000
# 3 39.5449 39.2495 146.9222 0.0000 -15.8496 0.0000
# 4 0.0000 0.0000 0.0000 27.7057 0.0000 38.1735
# 5 -1.8633 -0.7858 -15.8496 0.0000 49.9624 0.0000
# 6 0.0000 0.0000 0.0000 38.1735 0.0000 -127.9847
#
#
#
# Elastic Compliance Matrix: (Units=1/GPa)
#
#
# Indices 1 2 3 4 5 6 
#
# 1 0.012611 -0.001558 -0.003034 0.000000 -0.000517 0.000000
# 2 -0.001558 0.004637 -0.000847 0.000000 -0.000254 0.000000
# 3 -0.003034 -0.000847 0.008113 0.000000 0.002447 0.000000
# 4 0.000000 0.000000 0.000000 0.025581 0.000000 0.007630
# 5 -0.000517 -0.000254 0.002447 0.000000 0.020768 0.000000
# 6 0.000000 0.000000 0.000000 0.007630 0.000000 -0.005538
#
#
# Mechanical properties :
#
#
# Convention : Reuss Voigt Hill
#
# Bulk Modulus (GPa) = 69.04177 78.97898 74.01038
# Shear Modulus (GPa) = 61.06676 13.85889 37.46283
#
# Velocity S-wave (km/s) = 4.86629 2.31825 3.81150
# Velocity P-wave (km/s) = 7.63857 6.14756 6.93326
#
# Compressibility (1/GPa) = 0.01448399
#
# Stress axis : x y z
#
# Youngs Moduli (GPa) = 79.29379 215.67556 123.25697
#
# Poissons Ratio (x) = 0.33599 0.37396
# Poissons Ratio (y) = 0.12353 0.10436
# Poissons Ratio (z) = 0.24058 0.18262
#
# Static dielectric constant tensor:
#      x y z
#    x 2.232530 0.000000 0.071830 
#    y 0.000000 1.996270 0.000000 
#    z 0.071830 0.000000 2.072660 
# 
# From -- ./inp_files/6727.got.cif
#   From: 2010.05.17/outbox.cif.g08.bks.cpg/sg10_4_cif.got.tgz:6727.got - 2010.06.03 11:33:40.
