data_PCOD9153726
_publ_section_title
;
Structure prediction by ZEFSAII (Michael W. Deem and Ramdas Pophale) SiO2 
 PCOD9153726
Probable space group: P 2/M
;
_chemical_formula_sum "Si O2"
_cell_formula_units_Z 14
_cell_length_a 4.808734
_cell_length_b 11.415528
_cell_length_c 12.948914
_cell_angle_alpha 90.000000
_cell_angle_beta 107.394000
_cell_angle_gamma 90.000000
_cell_volume 678.316093
_symmetry_space_group_name_H-M "P 2/M"
_symmetry_group_IT_number 10
_symmetry_cell_setting 'monoclinic'
loop_
_space_group_symop_operation_xyz
x,y,z
-x,y,-z
-x,-y,-z
x,-y,z
loop_
_atom_site_type_symbol
_atom_site_label
_atom_site_fract_x
_atom_site_fract_y
_atom_site_fract_z
Si Si1 0.708307 0.192529 0.743639
Si Si2 0.301736 0.631338 0.578105
Si Si3 0.811963 0.000000 0.583531
Si Si4 0.295999 0.866214 0.882070
O O1 0.499821 0.294410 0.677488
O O2 0.817250 0.111540 0.660417
O O3 0.498627 0.130944 0.803249
O O4 0.015765 0.216253 0.834263
O O5 0.500000 0.620410 0.500000
O O6 0.233167 0.500000 0.610983
O O7 0.000000 0.684621 0.500000
O O8 0.500000 0.000000 0.500000
O O9 0.000000 0.000000 0.500000
O O10 0.189362 0.000000 0.889998
O O11 0.500000 0.831335 0.000000
#
# Coordination Sequence:
#
# PCOD9153726 Si02
#       4
#     4   4   2   4
#     4  12  22  39  61  88 122 161 200 251 305 357
#     4  10  22  41  63  88 119 162 208 244 292 364
#     4  12  24  36  53  86 129 160 190 240 305 366
#     4  11  22  39  61  87 120 160 209 253 298 365
#
# _framework density 20.639344999999999
#
# number of rings (size 3 to 8) (size 9 to 14) (size 15 to 20)
#    0.000    0.857    2.857    5.143    0.000    4.571 
#    0.000    0.000    0.000    5.143    0.000    0.000 
#    0.000    0.000    0.000    0.000    0.000    0.000 
#
# Total GULP energy -78113.610158 kJ/mol
# GULP energy per Si atom -5579.543583 kJ/mol
# Density = 2.059237 g / cm^3
# Si number density = 20.639345 Si / 1000 Ang^3
#
#
#
# Elastic Constant Matrix: (Units=GPa)
#
#
# Indices 1 2 3 4 5 6 
#
# 1 152.8680 24.1741 51.7750 0.0000 30.3473 0.0000
# 2 24.1741 71.7102 57.1410 0.0000 20.0856 0.0000
# 3 51.7750 57.1410 124.7191 0.0000 41.8671 0.0000
# 4 0.0000 0.0000 0.0000 44.5297 0.0000 5.2089
# 5 30.3473 20.0856 41.8671 0.0000 57.5853 0.0000
# 6 0.0000 0.0000 0.0000 5.2089 0.0000 23.0379
#
#
#
# Elastic Compliance Matrix: (Units=1/GPa)
#
#
# Indices 1 2 3 4 5 6 
#
# 1 0.007842 -0.000032 -0.002457 0.000000 -0.002335 0.000000
# 2 -0.000032 0.021972 -0.009904 0.000000 -0.000447 0.000000
# 3 -0.002457 -0.009904 0.015850 0.000000 -0.006774 0.000000
# 4 0.000000 0.000000 0.000000 0.023067 0.000000 -0.005215
# 5 -0.002335 -0.000447 -0.006774 0.000000 0.023677 0.000000
# 6 0.000000 0.000000 0.000000 -0.005215 0.000000 0.044586
#
#
# Mechanical properties :
#
#
# Convention : Reuss Voigt Hill
#
# Bulk Modulus (GPa) = 47.89432 68.38640 58.14036
# Shear Modulus (GPa) = 29.63149 39.44438 34.53794
#
# Velocity S-wave (km/s) = 3.79315 4.37639 4.09516
# Velocity P-wave (km/s) = 6.51457 7.66439 7.11276
#
# Compressibility (1/GPa) = 0.02087930
#
# Stress axis : x y z
#
# Youngs Moduli (GPa) = 127.51128 45.51153 63.09345
#
# Poissons Ratio (x) = 0.00144 0.15503
# Poissons Ratio (y) = 0.00404 0.62486
# Poissons Ratio (z) = 0.31332 0.45073
#
# Static dielectric constant tensor:
#      x y z
#    x 1.748250 0.000000 0.036010 
#    y 0.000000 1.773990 0.000000 
#    z 0.036010 0.000000 1.754310 
# 
# From -- ./inp_files/38544.got.cif
#   From: 2010.05.17/outbox.cif.g08.bks.cpg/sg10_20_cif.got.tgz:38544.got - 2010.06.03 11:33:40.
