data_PCOD9153428
_publ_section_title
;
Structure prediction by ZEFSAII (Michael W. Deem and Ramdas Pophale) SiO2 
 PCOD9153428
Probable space group: P 2/M
;
_chemical_formula_sum "Si O2"
_cell_formula_units_Z 22
_cell_length_a 13.407471
_cell_length_b 10.244527
_cell_length_c 7.296529
_cell_angle_alpha 90.000000
_cell_angle_beta 98.546992
_cell_angle_gamma 90.000000
_cell_volume 991.071450
_symmetry_space_group_name_H-M "P 2/M"
_symmetry_group_IT_number 10
_symmetry_cell_setting 'monoclinic'
loop_
_space_group_symop_operation_xyz
x,y,z
-x,y,-z
-x,-y,-z
x,-y,z
loop_
_atom_site_type_symbol
_atom_site_label
_atom_site_fract_x
_atom_site_fract_y
_atom_site_fract_z
Si Si1 0.307875 0.856639 0.825070
Si Si2 0.500000 0.277356 0.000000
Si Si3 0.146561 0.644170 0.687080
Si Si4 0.760967 0.148137 0.773190
Si Si5 0.927212 0.646502 0.753238
Si Si6 0.402540 0.355595 0.343376
O O1 0.422514 0.808969 0.860911
O O2 0.231869 0.751463 0.724361
O O3 0.297518 0.000000 0.739662
O O4 0.278549 0.863996 0.030912
O O5 0.438097 0.352831 0.139909
O O6 0.186630 0.500000 0.744650
O O7 0.105913 0.641377 0.469022
O O8 0.047514 0.669012 0.784640
O O9 0.862323 0.233986 0.809911
O O10 0.677079 0.239009 0.651509
O O11 0.774265 0.000000 0.705666
O O12 0.906498 0.500000 0.822691
O O13 0.500000 0.341279 0.500000
O O14 0.357710 0.500000 0.369405
#
# Coordination Sequence:
#
# PCOD9153428 Si02
#       6
#     4   2   4   4   4   4
#     4  10  22  39  58  82 116 155 193 236 291 348
#     4  10  22  40  60  86 122 158 196 248 296 348
#     4   9  20  37  59  85 113 149 193 237 293 346
#     4  10  22  38  56  83 117 152 190 236 289 349
#     4   9  19  38  59  83 116 150 188 241 289 345
#     4  10  22  39  60  87 116 154 201 247 295 350
#
# _framework density 22.198198000000001
#
# number of rings (size 3 to 8) (size 9 to 14) (size 15 to 20)
#    0.000    2.364    0.000    2.182    2.545    7.636 
#    0.000    5.455    0.000    0.000    0.000    0.000 
#    0.000    0.000    0.000    0.000    0.000    0.000 
#
# Total GULP energy -122897.954241 kJ/mol
# GULP energy per Si atom -5586.270647 kJ/mol
# Density = 2.214767 g / cm^3
# Si number density = 22.198198 Si / 1000 Ang^3
#
#
#
# Elastic Constant Matrix: (Units=GPa)
#
#
# Indices 1 2 3 4 5 6 
#
# 1 95.3015 92.3494 9.8448 0.0000 18.1656 0.0000
# 2 92.3494 219.2622 27.2969 0.0000 27.3325 0.0000
# 3 9.8448 27.2969 51.3180 0.0000 17.5054 0.0000
# 4 0.0000 0.0000 0.0000 19.6712 0.0000 -0.5248
# 5 18.1656 27.3325 17.5054 0.0000 38.8861 0.0000
# 6 0.0000 0.0000 0.0000 -0.5248 0.0000 0.4958
#
#
#
# Elastic Compliance Matrix: (Units=1/GPa)
#
#
# Indices 1 2 3 4 5 6 
#
# 1 0.018274 -0.007409 0.001856 0.000000 -0.004165 0.000000
# 2 -0.007409 0.008135 -0.002523 0.000000 -0.001121 0.000000
# 3 0.001856 -0.002523 0.023821 0.000000 -0.009817 0.000000
# 4 0.000000 0.000000 0.000000 0.052313 0.000000 0.055374
# 5 -0.004165 -0.001121 -0.009817 0.000000 0.032869 0.000000
# 6 0.000000 0.000000 0.000000 0.055374 0.000000 2.075662
#
#
# Mechanical properties :
#
#
# Convention : Reuss Voigt Hill
#
# Bulk Modulus (GPa) = 29.34459 69.42933 49.38696
# Shear Modulus (GPa) = 2.23355 27.56999 14.90177
#
# Velocity S-wave (km/s) = 1.00418 3.52801 2.59377
# Velocity P-wave (km/s) = 3.82002 6.92393 5.59166
#
# Compressibility (1/GPa) = 0.03407783
#
# Stress axis : x y z
#
# Youngs Moduli (GPa) = 54.72141 122.92447 41.97923
#
# Poissons Ratio (x) = 0.91071 -0.07790
# Poissons Ratio (y) = 0.40542 0.10593
# Poissons Ratio (z) = -0.10155 0.31020
#
# Static dielectric constant tensor:
#      x y z
#    x 1.811290 0.000000 -0.023280 
#    y 0.000000 1.813440 0.000000 
#    z -0.023280 0.000000 1.855710 
# 
# From -- ./inp_files/27313.got.cif
#   From: 2010.05.17/outbox.cif.g08.bks.cpg/sg10_14_cif.got.tgz:27313.got - 2010.06.03 11:33:40.
