data_PCOD9153285
_publ_section_title
;
Structure prediction by ZEFSAII (Michael W. Deem and Ramdas Pophale) SiO2 
 PCOD9153285
Probable space group: P 2/M
;
_chemical_formula_sum "Si O2"
_cell_formula_units_Z 28
_cell_length_a 29.746969
_cell_length_b 9.081013
_cell_length_c 9.935088
_cell_angle_alpha 90.000000
_cell_angle_beta 147.485005
_cell_angle_gamma 90.000000
_cell_volume 1442.592333
_symmetry_space_group_name_H-M "P 2/M"
_symmetry_group_IT_number 10
_symmetry_cell_setting 'monoclinic'
loop_
_space_group_symop_operation_xyz
x,y,z
-x,y,-z
-x,-y,-z
x,-y,z
loop_
_atom_site_type_symbol
_atom_site_label
_atom_site_fract_x
_atom_site_fract_y
_atom_site_fract_z
Si Si1 0.318018 0.327671 0.539362
Si Si2 0.551089 0.326214 0.365570
Si Si3 0.130345 0.326802 0.966363
Si Si4 0.626635 0.174378 0.058117
Si Si5 0.859502 0.825117 0.284198
Si Si6 0.990480 0.824363 0.131909
Si Si7 0.311925 0.324741 0.058291
O O1 0.324306 0.500000 0.595445
O O2 0.393615 0.297307 0.627329
O O3 0.229651 0.308897 0.241916
O O4 0.325092 0.226111 0.686753
O O5 0.527890 0.500000 0.306401
O O6 0.468528 0.229645 0.164935
O O7 0.611600 0.300223 0.645325
O O8 0.112753 0.500000 0.907106
O O9 0.107402 0.241756 0.772083
O O10 0.081357 0.261423 0.969728
O O11 0.664991 0.254323 0.025588
O O12 0.630288 0.000000 0.050520
O O13 0.924712 0.798811 0.569571
O O14 0.848356 0.000000 0.241334
O O15 0.771908 0.748355 0.096756
O O16 0.972872 0.000000 0.091158
O O17 0.000000 0.780874 0.000000
O O18 0.299995 0.500000 0.016915
#
# Coordination Sequence:
#
# PCOD9153285 Si02
#       7
#     4   4   4   4   4   4   4
#     4  10  22  42  64  90 123 165 212 258 311 372
#     4  10  21  42  66  88 120 165 213 258 313 372
#     4  11  23  42  67  96 125 164 215 259 305 368
#     4  12  26  39  58  93 130 165 208 260 318 370
#     4  11  23  41  66  95 128 167 208 255 313 371
#     4  10  24  44  65  94 132 168 202 250 315 376
#     4  11  23  42  66  92 124 166 213 260 311 369
#
# _framework density 19.409500999999999
#
# number of rings (size 3 to 8) (size 9 to 14) (size 15 to 20)
#    0.000    1.286    1.429    3.857    2.000    9.429 
#    0.000    0.000    0.000    0.000    0.000    0.000 
#    0.000    0.000    0.000    0.000    0.000    0.000 
#
# Total GULP energy -156648.698783 kJ/mol
# GULP energy per Si atom -5594.596385 kJ/mol
# Density = 1.936532 g / cm^3
# Si number density = 19.409501 Si / 1000 Ang^3
#
#
#
# Elastic Constant Matrix: (Units=GPa)
#
#
# Indices 1 2 3 4 5 6 
#
# 1 117.5173 58.6900 47.3687 0.0000 -23.3469 0.0000
# 2 58.6900 77.5842 51.1922 0.0000 -7.5883 0.0000
# 3 47.3687 51.1922 64.7853 0.0000 -9.7343 0.0000
# 4 0.0000 0.0000 0.0000 43.6075 0.0000 -2.4269
# 5 -23.3469 -7.5883 -9.7343 0.0000 33.6326 0.0000
# 6 0.0000 0.0000 0.0000 -2.4269 0.0000 38.8518
#
#
#
# Elastic Compliance Matrix: (Units=1/GPa)
#
#
# Indices 1 2 3 4 5 6 
#
# 1 0.016009 -0.009189 -0.003227 0.000000 0.008106 0.000000
# 2 -0.009189 0.032204 -0.019441 0.000000 -0.004739 0.000000
# 3 -0.003227 -0.019441 0.033624 0.000000 0.003105 0.000000
# 4 0.000000 0.000000 0.000000 0.023012 0.000000 0.001437
# 5 0.008106 -0.004739 0.003105 0.000000 0.035190 0.000000
# 6 0.000000 0.000000 0.000000 0.001437 0.000000 0.025829
#
#
# Mechanical properties :
#
#
# Convention : Reuss Voigt Hill
#
# Bulk Modulus (GPa) = 55.17451 63.82096 59.49773
# Shear Modulus (GPa) = 21.22045 30.06079 25.64062
#
# Velocity S-wave (km/s) = 3.31010 3.93971 3.63855
# Velocity P-wave (km/s) = 6.56485 7.32446 6.95503
#
# Compressibility (1/GPa) = 0.01812431
#
# Stress axis : x y z
#
# Youngs Moduli (GPa) = 62.46311 31.05174 29.74110
#
# Poissons Ratio (x) = 0.28532 0.09597
# Poissons Ratio (y) = 0.57395 0.57820
# Poissons Ratio (z) = 0.20156 0.60368
#
# Static dielectric constant tensor:
#      x y z
#    x 1.653490 0.000000 -0.003640 
#    y 0.000000 1.644120 0.000000 
#    z -0.003640 0.000000 1.669380 
# 
# From -- ./inp_files/34182.got.cif
#   From: 2010.05.17/outbox.cif.g08.bks.cpg/sg10_18_cif.got.tgz:34182.got - 2010.06.03 11:33:40.
