data_PCOD9153952
_publ_section_title
;
Structure prediction by ZEFSAII (Michael W. Deem and Ramdas Pophale) SiO2 
 PCOD9153952
Probable space group: P 2/M
;
_chemical_formula_sum "Si O2"
_cell_formula_units_Z 12
_cell_length_a 5.098777
_cell_length_b 16.942808
_cell_length_c 5.845173
_cell_angle_alpha 90.000000
_cell_angle_beta 91.842051
_cell_angle_gamma 90.000000
_cell_volume 504.689526
_symmetry_space_group_name_H-M "P 2/M"
_symmetry_group_IT_number 10
_symmetry_cell_setting 'monoclinic'
loop_
_space_group_symop_operation_xyz
x,y,z
-x,y,-z
-x,-y,-z
x,-y,z
loop_
_atom_site_type_symbol
_atom_site_label
_atom_site_fract_x
_atom_site_fract_y
_atom_site_fract_z
Si Si1 0.755485 0.328830 0.165836
Si Si2 0.000000 0.796398 0.500000
Si Si3 0.263062 0.089646 0.158415
Si Si4 0.754842 0.500000 0.166207
O O1 0.749490 0.415161 0.288069
O O2 0.816730 0.259666 0.342086
O O3 0.500000 0.318737 0.000000
O O4 0.000000 0.329368 0.000000
O O5 0.808743 0.851521 0.642274
O O6 0.319917 0.000000 0.240469
O O7 0.500000 0.114607 0.000000
O O8 0.000000 0.087056 0.000000
O O9 0.500000 0.500000 0.000000
O O10 0.000000 0.500000 0.000000
#
# Coordination Sequence:
#
# PCOD9153952 Si02
#       4
#     4   2   4   2
#     4  10  23  41  63  97 136 176 224 276 330 395
#     4  12  25  41  72 104 136 176 224 283 347 394
#     4  10  24  46  69  96 133 177 224 273 333 410
#     4   8  16  37  62  85 129 180 219 267 324 389
#
# _framework density 23.776993999999998
#
# number of rings (size 3 to 8) (size 9 to 14) (size 15 to 20)
#    0.000    2.000    0.000    1.500    0.000   11.333 
#    0.000    5.000    0.000   15.000    0.000    3.500 
#    0.000    0.000    0.000    0.000    0.000    0.000 
#
# Total GULP energy -67205.836789 kJ/mol
# GULP energy per Si atom -5600.486399 kJ/mol
# Density = 2.372288 g / cm^3
# Si number density = 23.776994 Si / 1000 Ang^3
#
#
#
# Elastic Constant Matrix: (Units=GPa)
#
#
# Indices 1 2 3 4 5 6 
#
# 1 199.9300 58.8966 59.4349 0.0000 -6.9605 0.0000
# 2 58.8966 242.2204 117.0663 0.0000 -28.9210 0.0000
# 3 59.4349 117.0663 100.1049 0.0000 -8.0729 0.0000
# 4 0.0000 0.0000 0.0000 307.1522 0.0000 91.6940
# 5 -6.9605 -28.9210 -8.0729 0.0000 37.1632 0.0000
# 6 0.0000 0.0000 0.0000 91.6940 0.0000 18.0979
#
#
#
# Elastic Compliance Matrix: (Units=1/GPa)
#
#
# Indices 1 2 3 4 5 6 
#
# 1 0.006133 0.000760 -0.004468 0.000000 0.000770 0.000000
# 2 0.000760 0.010629 -0.012420 0.000000 0.005716 0.000000
# 3 -0.004468 -0.012420 0.026789 0.000000 -0.004683 0.000000
# 4 0.000000 0.000000 0.000000 -0.006352 0.000000 0.032185
# 5 0.000770 0.005716 -0.004683 0.000000 0.030483 0.000000
# 6 0.000000 0.000000 0.000000 0.032185 0.000000 -0.107811
#
#
# Mechanical properties :
#
#
# Convention : Reuss Voigt Hill
#
# Bulk Modulus (GPa) = 88.53648 112.56119 100.54884
# Shear Modulus (GPa) = -1216.96912 92.93981 -562.01466
#
# Velocity S-wave (km/s) = -22.64812 6.25883 -15.39098
# Velocity P-wave (km/s) = 25.42832 9.98368 16.53671
#
# Compressibility (1/GPa) = 0.01129478
#
# Stress axis : x y z
#
# Youngs Moduli (GPa) = 163.05509 94.08413 37.32855
#
# Poissons Ratio (x) = -0.07151 0.16679
# Poissons Ratio (y) = -0.12394 0.46362
# Poissons Ratio (z) = 0.72855 1.16853
#
# Static dielectric constant tensor:
#      x y z
#    x 1.841060 0.000000 0.003420 
#    y 0.000000 1.987870 0.000000 
#    z 0.003420 0.000000 1.856380 
# 
# From -- ./inp_files/637.got.cif
#   From: 2010.05.17/outbox.cif.g08.bks.cpg/sg10_1_cif.got.tgz:637.got - 2010.06.03 11:33:40.
