data_PCOD9153387
_publ_section_title
;
Structure prediction by ZEFSAII (Michael W. Deem and Ramdas Pophale) SiO2 
 PCOD9153387
Probable space group: P 2/M
;
_chemical_formula_sum "Si O2"
_cell_formula_units_Z 28
_cell_length_a 22.386608
_cell_length_b 14.013810
_cell_length_c 10.176046
_cell_angle_alpha 90.000000
_cell_angle_beta 153.525168
_cell_angle_gamma 90.000000
_cell_volume 1423.207364
_symmetry_space_group_name_H-M "P 2/M"
_symmetry_group_IT_number 10
_symmetry_cell_setting 'monoclinic'
loop_
_space_group_symop_operation_xyz
x,y,z
-x,y,-z
-x,-y,-z
x,-y,z
loop_
_atom_site_type_symbol
_atom_site_label
_atom_site_fract_x
_atom_site_fract_y
_atom_site_fract_z
Si Si1 0.367028 0.885287 0.508004
Si Si2 0.342257 0.202837 0.904328
Si Si3 0.109366 0.384915 0.111484
Si Si4 0.123357 0.386055 0.840874
Si Si5 0.646277 0.608431 0.225242
Si Si6 0.844194 0.114335 0.679936
Si Si7 0.345151 0.763142 0.204463
O O1 0.249016 0.861114 0.378196
O O2 0.336138 0.837370 0.306811
O O3 0.377269 0.000000 0.518445
O O4 0.511673 0.843347 0.837152
O O5 0.347462 0.314802 0.877667
O O6 0.228827 0.158129 0.589777
O O7 0.312801 0.190710 0.999983
O O8 0.098567 0.500000 0.084746
O O9 0.251833 0.363568 0.457752
O O10 0.091158 0.353150 0.926456
O O11 0.000000 0.351044 0.000000
O O12 0.150295 0.500000 0.895515
O O13 0.000000 0.369337 0.500000
O O14 0.249899 0.325822 0.043528
O O15 0.680099 0.500000 0.249117
O O16 0.500000 0.608464 0.000000
O O17 0.840025 0.000000 0.659562
O O18 0.000000 0.141236 0.000000
O O19 0.500000 0.732108 0.500000
#
# Coordination Sequence:
#
# PCOD9153387 Si02
#       7
#     4   4   4   4   4   4   4
#     4  10  22  44  68  90 123 159 198 253 312 372
#     4  11  23  38  63  93 121 166 206 249 301 365
#     4   9  20  38  60  85 114 160 213 252 299 355
#     4  10  23  42  63  88 126 169 208 252 301 362
#     4  10  22  37  58  90 126 161 204 256 303 350
#     4  10  22  40  65  96 123 153 199 255 312 364
#     4  10  25  41  60  93 124 160 208 251 305 365
#
# _framework density 19.673871999999999
#
# number of rings (size 3 to 8) (size 9 to 14) (size 15 to 20)
#    0.000    2.000    0.000    1.714    8.000    6.857 
#    0.000    0.000    0.000    3.000    0.000    0.000 
#    0.000    0.000    0.000    0.000    0.000    0.000 
#
# Total GULP energy -156460.110219 kJ/mol
# GULP energy per Si atom -5587.861079 kJ/mol
# Density = 1.962909 g / cm^3
# Si number density = 19.673872 Si / 1000 Ang^3
#
#
#
# Elastic Constant Matrix: (Units=GPa)
#
#
# Indices 1 2 3 4 5 6 
#
# 1 143.7713 42.7412 110.4880 0.0000 -1.9449 0.0000
# 2 42.7412 106.1612 62.4184 0.0000 -0.3582 0.0000
# 3 110.4880 62.4184 173.5864 0.0000 -4.4513 0.0000
# 4 0.0000 0.0000 0.0000 -14.1855 0.0000 -1.6814
# 5 -1.9449 -0.3582 -4.4513 0.0000 26.6025 0.0000
# 6 0.0000 0.0000 0.0000 -1.6814 0.0000 25.8681
#
#
#
# Elastic Compliance Matrix: (Units=1/GPa)
#
#
# Indices 1 2 3 4 5 6 
#
# 1 0.013641 -0.000484 -0.008519 0.000000 -0.000435 0.000000
# 2 -0.000484 0.011971 -0.004010 0.000000 -0.000545 0.000000
# 3 -0.008519 -0.004010 0.012662 0.000000 0.001442 0.000000
# 4 0.000000 0.000000 0.000000 -0.069956 0.000000 -0.004547
# 5 -0.000435 -0.000545 0.001442 0.000000 0.037793 0.000000
# 6 0.000000 0.000000 0.000000 -0.004547 0.000000 0.038362
#
#
# Mechanical properties :
#
#
# Convention : Reuss Voigt Hill
#
# Bulk Modulus (GPa) = 81.65865 94.97933 88.31899
# Shear Modulus (GPa) = 67.04029 21.51513 44.27771
#
# Velocity S-wave (km/s) = 5.84378 3.31053 4.74918
# Velocity P-wave (km/s) = 9.33431 7.93691 8.66383
#
# Compressibility (1/GPa) = 0.01224610
#
# Stress axis : x y z
#
# Youngs Moduli (GPa) = 73.31037 83.53834 78.97466
#
# Poissons Ratio (x) = 0.04046 0.67281
# Poissons Ratio (y) = 0.03550 0.31670
# Poissons Ratio (z) = 0.62455 0.33500
#
# Static dielectric constant tensor:
#      x y z
#    x 1.676180 0.000000 -0.002930 
#    y 0.000000 1.698630 0.000000 
#    z -0.002930 0.000000 1.666240 
# 
# From -- ./inp_files/35298.got.cif
#   From: 2010.05.17/outbox.cif.g08.bks.cpg/sg10_18_cif.got.tgz:35298.got - 2010.06.03 11:33:40.
