data_PCOD9153951
_publ_section_title
;
Structure prediction by ZEFSAII (Michael W. Deem and Ramdas Pophale) SiO2 
 PCOD9153951
Probable space group: P 2/M
;
_chemical_formula_sum "Si O2"
_cell_formula_units_Z 25
_cell_length_a 8.636137
_cell_length_b 23.690881
_cell_length_c 8.325047
_cell_angle_alpha 90.000000
_cell_angle_beta 51.451680
_cell_angle_gamma 90.000000
_cell_volume 1332.110374
_symmetry_space_group_name_H-M "P 2/M"
_symmetry_group_IT_number 10
_symmetry_cell_setting 'monoclinic'
loop_
_space_group_symop_operation_xyz
x,y,z
-x,y,-z
-x,-y,-z
x,-y,z
loop_
_atom_site_type_symbol
_atom_site_label
_atom_site_fract_x
_atom_site_fract_y
_atom_site_fract_z
Si Si1 0.619851 0.718925 0.589082
Si Si2 0.595922 0.590896 0.618163
Si Si3 0.385211 0.184225 0.921044
Si Si4 0.790413 0.897091 0.224497
Si Si5 0.302376 0.500000 0.911560
Si Si6 0.961881 0.197865 0.339872
Si Si7 0.500000 0.000000 0.500000
Si Si8 0.110148 0.500000 0.675660
O O1 0.500000 0.718753 0.500000
O O2 0.626141 0.655268 0.649120
O O3 0.510669 0.763282 0.774942
O O4 0.834252 0.745306 0.417145
O O5 0.500000 0.591968 0.500000
O O6 0.443053 0.554770 0.823545
O O7 0.796302 0.554694 0.470370
O O8 0.346760 0.137442 0.811629
O O9 0.500000 0.159774 0.000000
O O10 0.169222 0.204558 0.115851
O O11 0.844370 0.852556 0.329354
O O12 0.670649 0.950590 0.362128
O O13 0.000000 0.910835 0.000000
O O14 0.201758 0.500000 0.798144
O O15 0.124893 0.500000 0.152753
O O16 0.000000 0.183253 0.500000
#
# Coordination Sequence:
#
# PCOD9153951 Si02
#       8
#     4   4   4   4   2   4   1   2
#     4  11  20  34  55  87 119 153 195 244 300 353
#     4   8  16  26  42  71 109 142 186 238 286 354
#     4  11  22  38  62  86 120 158 196 237 294 354
#     4  10  23  41  63  92 121 153 197 238 281 348
#     4   8  13  25  42  65 101 147 185 232 297 349
#     4  11  22  38  62  86 120 158 196 237 294 354
#     4  12  22  40  72  86 120 158 190 238 300 318
#     4   8  13  25  42  65 101 147 185 232 297 349
#
# _framework density 18.767213999999999
#
# number of rings (size 3 to 8) (size 9 to 14) (size 15 to 20)
#    0.000    2.080    3.200    2.160    0.000    1.280 
#    0.000    4.000    0.000    0.000    0.000    4.480 
#    0.000    0.000    0.000    0.000    0.000    0.640 
#
# Total GULP energy -139290.821823 kJ/mol
# GULP energy per Si atom -5571.632873 kJ/mol
# Density = 1.872450 g / cm^3
# Si number density = 18.767214 Si / 1000 Ang^3
#
#
#
# Elastic Constant Matrix: (Units=GPa)
#
#
# Indices 1 2 3 4 5 6 
#
# 1 81.4063 41.7602 20.6810 0.0000 -2.4506 0.0000
# 2 41.7602 125.1630 29.2110 0.0000 -23.4662 0.0000
# 3 20.6810 29.2110 51.5173 0.0000 -30.3750 0.0000
# 4 0.0000 0.0000 0.0000 -36.0855 0.0000 21.0162
# 5 -2.4506 -23.4662 -30.3750 0.0000 38.5042 0.0000
# 6 0.0000 0.0000 0.0000 21.0162 0.0000 -16.4928
#
#
#
# Elastic Compliance Matrix: (Units=1/GPa)
#
#
# Indices 1 2 3 4 5 6 
#
# 1 0.017153 -0.005303 -0.009612 0.000000 -0.009723 0.000000
# 2 -0.005303 0.011011 -0.000667 0.000000 0.005846 0.000000
# 3 -0.009612 -0.000667 0.043090 0.000000 0.032974 0.000000
# 4 0.000000 0.000000 0.000000 -0.107466 0.000000 -0.136940
# 5 -0.009723 0.005846 0.032974 0.000000 0.054928 0.000000
# 6 0.000000 0.000000 0.000000 -0.136940 0.000000 -0.235130
#
#
# Mechanical properties :
#
#
# Convention : Reuss Voigt Hill
#
# Bulk Modulus (GPa) = 24.94399 49.04344 36.99371
# Shear Modulus (GPa) = -29.08880 8.28082 -10.40399
#
# Velocity S-wave (km/s) = -3.94125 2.10285 -2.35706
# Velocity P-wave (km/s) = 2.71867 5.66438 3.51383
#
# Compressibility (1/GPa) = 0.04008981
#
# Stress axis : x y z
#
# Youngs Moduli (GPa) = 58.29718 90.82068 23.20750
#
# Poissons Ratio (x) = 0.48160 0.22307
# Poissons Ratio (y) = 0.30914 0.01549
# Poissons Ratio (z) = 0.56034 0.06061
#
# Static dielectric constant tensor:
#      x y z
#    x 1.669270 0.000000 0.006010 
#    y 0.000000 1.605720 0.000000 
#    z 0.006010 0.000000 1.675500 
# 
# From -- ./inp_files/20182.got.cif
#   From: 2010.05.17/outbox.cif.g08.bks.cpg/sg10_11_cif.got.tgz:20182.got - 2010.06.03 11:33:40.
