data_PCOD9153116
_publ_section_title
;
Structure prediction by ZEFSAII (Michael W. Deem and Ramdas Pophale) SiO2 
 PCOD9153116
Probable space group: P 2/M
;
_chemical_formula_sum "Si O2"
_cell_formula_units_Z 32
_cell_length_a 11.320007
_cell_length_b 15.414411
_cell_length_c 8.370237
_cell_angle_alpha 90.000000
_cell_angle_beta 82.807709
_cell_angle_gamma 90.000000
_cell_volume 1449.040914
_symmetry_space_group_name_H-M "P 2/M"
_symmetry_group_IT_number 10
_symmetry_cell_setting 'monoclinic'
loop_
_space_group_symop_operation_xyz
x,y,z
-x,y,-z
-x,-y,-z
x,-y,z
loop_
_atom_site_type_symbol
_atom_site_label
_atom_site_fract_x
_atom_site_fract_y
_atom_site_fract_z
Si Si1 0.887700 0.102624 0.897091
Si Si2 0.389762 0.805100 0.641183
Si Si3 0.938504 0.268218 0.684821
Si Si4 0.118009 0.399940 0.797780
Si Si5 0.259302 0.670049 0.482996
Si Si6 0.576356 0.404566 0.773354
Si Si7 0.652892 0.660304 0.085907
Si Si8 0.622959 0.899601 0.063145
O O1 0.916421 0.173160 0.757103
O O2 0.881888 0.000000 0.851804
O O3 0.756696 0.130541 0.987722
O O4 0.000000 0.109235 0.000000
O O5 0.500000 0.804515 0.500000
O O6 0.281676 0.764172 0.558457
O O7 0.384552 0.742294 0.799410
O O8 0.383305 0.892786 0.742517
O O9 0.818378 0.318082 0.660755
O O10 0.000000 0.262351 0.500000
O O11 0.014574 0.329749 0.788572
O O12 0.082185 0.500000 0.826968
O O13 0.193693 0.390578 0.620273
O O14 0.211285 0.366110 0.912891
O O15 0.382856 0.630643 0.403258
O O16 0.628711 0.500000 0.791330
O O17 0.435323 0.409296 0.818933
O O18 0.618077 0.340372 0.907392
O O19 0.624898 0.000000 0.015439
O O20 0.500000 0.865126 0.000000
#
# Coordination Sequence:
#
# PCOD9153116 Si02
#       8
#     4   4   4   4   4   4   4   4
#     4  10  24  45  70  99 130 171 219 271 334 398
#     4  11  23  39  64  95 133 168 211 265 331 398
#     4  10  24  41  65  93 130 172 223 269 327 395
#     4  10  21  40  61  86 127 174 222 275 328 385
#     4  10  23  38  57  94 123 171 217 265 329 391
#     4  11  21  36  58  88 125 166 219 276 330 385
#     4  10  22  36  58  89 123 168 220 272 326 389
#     4  10  25  46  72 103 134 171 215 269 334 402
#
# _framework density 22.083573000000001
#
# number of rings (size 3 to 8) (size 9 to 14) (size 15 to 20)
#    0.000    1.750    1.250    1.875   10.500    3.250 
#    0.000    2.500    0.000    1.875    0.000    0.000 
#    0.000    0.000    0.000    0.000    0.000    0.000 
#
# Total GULP energy -178327.696930 kJ/mol
# GULP energy per Si atom -5572.740529 kJ/mol
# Density = 2.203331 g / cm^3
# Si number density = 22.083573 Si / 1000 Ang^3
#
#
#
# Elastic Constant Matrix: (Units=GPa)
#
#
# Indices 1 2 3 4 5 6 
#
# 1 129.5570 30.3409 45.9501 0.0000 5.4936 0.0000
# 2 30.3409 59.8165 20.7299 0.0000 -4.0026 0.0000
# 3 45.9501 20.7299 62.1869 0.0000 -8.3505 0.0000
# 4 0.0000 0.0000 0.0000 113.9720 0.0000 -145.5412
# 5 5.4936 -4.0026 -8.3505 0.0000 44.9157 0.0000
# 6 0.0000 0.0000 0.0000 -145.5412 0.0000 242.6309
#
#
#
# Elastic Compliance Matrix: (Units=1/GPa)
#
#
# Indices 1 2 3 4 5 6 
#
# 1 0.011358 -0.003297 -0.007712 0.000000 -0.003117 0.000000
# 2 -0.003297 0.019871 -0.003995 0.000000 0.001431 0.000000
# 3 -0.007712 -0.003995 0.023783 0.000000 0.005009 0.000000
# 4 0.000000 0.000000 0.000000 0.037496 0.000000 0.022492
# 5 -0.003117 0.001431 0.005009 0.000000 0.023704 0.000000
# 6 0.000000 0.000000 0.000000 0.022492 0.000000 0.017613
#
#
# Mechanical properties :
#
#
# Convention : Reuss Voigt Hill
#
# Bulk Modulus (GPa) = 39.99495 49.51135 44.75315
# Shear Modulus (GPa) = 29.04135 90.60635 59.82385
#
# Velocity S-wave (km/s) = 3.63032 6.41233 5.21043
# Velocity P-wave (km/s) = 5.97681 8.79162 7.51714
#
# Compressibility (1/GPa) = 0.02500316
#
# Stress axis : x y z
#
# Youngs Moduli (GPa) = 88.04248 50.32561 42.04604
#
# Poissons Ratio (x) = 0.16593 0.32426
# Poissons Ratio (y) = 0.29029 0.16799
# Poissons Ratio (z) = 0.67899 0.20107
#
# Static dielectric constant tensor:
#      x y z
#    x 1.891710 0.000000 -0.005870 
#    y 0.000000 1.956670 0.000000 
#    z -0.005870 0.000000 1.789600 
# 
# From -- ./inp_files/25316.got.cif
#   From: 2010.05.17/outbox.cif.g08.bks.cpg/sg10_13_cif.got.tgz:25316.got - 2010.06.03 11:33:40.
