data_PCOD9153529
_publ_section_title
;
Structure prediction by ZEFSAII (Michael W. Deem and Ramdas Pophale) SiO2 
 PCOD9153529
Probable space group: P 2/M
;
_chemical_formula_sum "Si O2"
_cell_formula_units_Z 32
_cell_length_a 15.960446
_cell_length_b 13.701733
_cell_length_c 8.897462
_cell_angle_alpha 90.000000
_cell_angle_beta 121.445139
_cell_angle_gamma 90.000000
_cell_volume 1659.995860
_symmetry_space_group_name_H-M "P 2/M"
_symmetry_group_IT_number 10
_symmetry_cell_setting 'monoclinic'
loop_
_space_group_symop_operation_xyz
x,y,z
-x,y,-z
-x,-y,-z
x,-y,z
loop_
_atom_site_type_symbol
_atom_site_label
_atom_site_fract_x
_atom_site_fract_y
_atom_site_fract_z
Si Si1 0.108990 0.385104 0.669370
Si Si2 0.621392 0.109085 0.764195
Si Si3 0.702421 0.302854 0.796786
Si Si4 0.596306 0.609207 0.943514
Si Si5 0.394554 0.111094 0.614695
Si Si6 0.403015 0.389851 0.564433
Si Si7 0.102733 0.614648 0.022481
Si Si8 0.296185 0.289356 0.700917
O O1 0.137226 0.500000 0.669638
O O2 0.189996 0.311654 0.673939
O O3 0.000000 0.371139 0.500000
O O4 0.100695 0.371074 0.841069
O O5 0.690471 0.199404 0.865905
O O6 0.512387 0.129827 0.726943
O O7 0.623643 0.108944 0.583085
O O8 0.649244 0.000000 0.839275
O O9 0.683167 0.384486 0.903838
O O10 0.617911 0.319066 0.593710
O O11 0.808334 0.321816 0.829306
O O12 0.591536 0.500000 0.002420
O O13 0.499190 0.628416 0.754699
O O14 0.623314 0.686126 0.095491
O O15 0.329868 0.189861 0.646407
O O16 0.377497 0.000000 0.653656
O O17 0.407126 0.500000 0.511469
O O18 0.313098 0.372820 0.591935
O O19 0.119989 0.500000 0.070297
O O20 0.000000 0.641740 0.000000
#
# Coordination Sequence:
#
# PCOD9153529 Si02
#       8
#     4   4   4   4   4   4   4   4
#     4  10  22  39  59  84 117 158 199 240 291 350
#     4   9  19  37  60  86 116 152 199 251 298 345
#     4  12  21  36  60  85 114 158 202 240 291 348
#     4  11  23  37  52  80 126 163 190 232 287 351
#     4   9  19  37  61  87 116 153 200 252 298 346
#     4  11  23  33  51  84 119 158 199 233 276 354
#     4  10  22  39  59  85 118 154 197 248 291 339
#     4  12  21  37  59  84 116 161 199 238 297 354
#
# _framework density 19.277156000000002
#
# number of rings (size 3 to 8) (size 9 to 14) (size 15 to 20)
#    0.000    1.500    2.500    4.500    3.500    2.000 
#    0.000    0.625    0.000    4.500    0.000    0.000 
#    0.000    0.000    0.000    0.000    0.000    0.000 
#
# Total GULP energy -178491.719557 kJ/mol
# GULP energy per Si atom -5577.866236 kJ/mol
# Density = 1.923328 g / cm^3
# Si number density = 19.277156 Si / 1000 Ang^3
#
#
#
# Elastic Constant Matrix: (Units=GPa)
#
#
# Indices 1 2 3 4 5 6 
#
# 1 143.2603 60.6429 23.6694 0.0000 4.5176 0.0000
# 2 60.6429 132.0510 23.4900 0.0000 7.6770 0.0000
# 3 23.6694 23.4900 56.0300 0.0000 7.9510 0.0000
# 4 0.0000 0.0000 0.0000 15.4386 0.0000 -3.1807
# 5 4.5176 7.6770 7.9510 0.0000 27.5368 0.0000
# 6 0.0000 0.0000 0.0000 -3.1807 0.0000 32.3733
#
#
#
# Elastic Compliance Matrix: (Units=1/GPa)
#
#
# Indices 1 2 3 4 5 6 
#
# 1 0.008913 -0.003707 -0.002242 0.000000 0.000219 0.000000
# 2 -0.003707 0.009773 -0.002326 0.000000 -0.001445 0.000000
# 3 -0.002242 -0.002326 0.020464 0.000000 -0.004892 0.000000
# 4 0.000000 0.000000 0.000000 0.066111 0.000000 0.006495
# 5 0.000219 -0.001445 -0.004892 0.000000 0.038095 0.000000
# 6 0.000000 0.000000 0.000000 0.006495 0.000000 0.031528
#
#
# Mechanical properties :
#
#
# Convention : Reuss Voigt Hill
#
# Bulk Modulus (GPa) = 44.24864 60.77177 52.51020
# Shear Modulus (GPa) = 25.12972 29.97234 27.55103
#
# Velocity S-wave (km/s) = 3.61446 3.94739 3.78459
# Velocity P-wave (km/s) = 6.35790 7.23668 6.81147
#
# Compressibility (1/GPa) = 0.02259956
#
# Stress axis : x y z
#
# Youngs Moduli (GPa) = 112.19460 102.32198 48.86568
#
# Poissons Ratio (x) = 0.37932 0.10956
# Poissons Ratio (y) = 0.41592 0.11367
# Poissons Ratio (z) = 0.25155 0.23802
#
# Static dielectric constant tensor:
#      x y z
#    x 1.715630 0.000000 -0.012230 
#    y 0.000000 1.694690 0.000000 
#    z -0.012230 0.000000 1.736450 
# 
# From -- ./inp_files/29544.got.cif
#   From: 2010.05.17/outbox.cif.g08.bks.cpg/sg10_15_cif.got.tgz:29544.got - 2010.06.03 11:33:40.
