data_PCOD9153421
_publ_section_title
;
Structure prediction by ZEFSAII (Michael W. Deem and Ramdas Pophale) SiO2 
 PCOD9153421
Probable space group: P 2/M
;
_chemical_formula_sum "Si O2"
_cell_formula_units_Z 24
_cell_length_a 22.757021
_cell_length_b 7.329874
_cell_length_c 9.399146
_cell_angle_alpha 90.000000
_cell_angle_beta 51.718001
_cell_angle_gamma 90.000000
_cell_volume 1230.704975
_symmetry_space_group_name_H-M "P 2/M"
_symmetry_group_IT_number 10
_symmetry_cell_setting 'monoclinic'
loop_
_space_group_symop_operation_xyz
x,y,z
-x,y,-z
-x,-y,-z
x,-y,z
loop_
_atom_site_type_symbol
_atom_site_label
_atom_site_fract_x
_atom_site_fract_y
_atom_site_fract_z
Si Si1 0.705083 0.783387 0.609796
Si Si2 0.853207 0.777723 0.556532
Si Si3 0.421927 0.500000 0.197402
Si Si4 0.705083 0.216613 0.274956
Si Si5 0.421927 0.500000 0.536816
Si Si6 1.000000 0.222744 0.836010
Si Si7 0.853207 0.222277 0.883847
O O1 0.776168 0.724170 0.595888
O O2 0.630455 0.673359 0.758893
O O3 0.721256 0.749935 0.418116
O O4 0.694459 0.000000 0.644132
O O5 0.925527 0.719173 0.358759
O O6 0.856885 0.719169 0.714673
O O7 0.854026 0.000000 0.554869
O O8 0.435068 0.500000 0.347398
O O9 0.500000 0.500000 0.000000
O O10 0.630454 0.326641 0.349744
O O11 0.694459 0.000000 0.272491
O O12 0.776168 0.275830 0.075608
O O13 0.500000 0.500000 0.500000
O O14 0.925527 0.280827 0.864661
O O15 1.000000 0.000000 0.836173
O O16 0.000000 0.280471 0.000000
O O17 0.854026 0.000000 0.883052
#
# Coordination Sequence:
#
# PCOD9153421 Si02
#       7
#     4   4   2   4   2   4   4
#     4   9  18  34  54  75 102 136 171 207 251 304
#     4   9  16  26  43  70 102 135 173 215 255 296
#     4  10  22  38  56  79 104 131 166 208 255 308
#     4   9  18  34  54  75 102 136 171 207 251 304
#     4  10  22  38  56  79 104 131 166 208 255 308
#     4   9  15  23  39  66 101 140 178 213 251 298
#     4   9  16  26  43  70 102 135 173 215 255 296
#
# _framework density 19.501018999999999
#
# number of rings (size 3 to 8) (size 9 to 14) (size 15 to 20)
#    0.000    2.833    0.000    1.500    0.000    8.000 
#    0.000    0.000    0.000    1.000    0.000    7.000 
#    0.000    0.000    0.000    0.000    0.000    0.000 
#
# Total GULP energy -134046.976048 kJ/mol
# GULP energy per Si atom -5585.290669 kJ/mol
# Density = 1.945663 g / cm^3
# Si number density = 19.501019 Si / 1000 Ang^3
#
#
#
# Elastic Constant Matrix: (Units=GPa)
#
#
# Indices 1 2 3 4 5 6 
#
# 1 218.1865 45.7266 119.1869 0.0000 -16.6857 0.0000
# 2 45.7266 78.6969 44.3022 0.0000 -4.0420 0.0000
# 3 119.1869 44.3022 204.1301 0.0000 -23.1957 0.0000
# 4 0.0000 0.0000 0.0000 20.1026 0.0000 -21.8406
# 5 -16.6857 -4.0420 -23.1957 0.0000 28.0903 0.0000
# 6 0.0000 0.0000 0.0000 -21.8406 0.0000 27.8007
#
#
#
# Elastic Compliance Matrix: (Units=1/GPa)
#
#
# Indices 1 2 3 4 5 6 
#
# 1 0.007021 -0.002032 -0.003551 0.000000 0.000946 0.000000
# 2 -0.002032 0.015072 -0.002180 0.000000 -0.000838 0.000000
# 3 -0.003551 -0.002180 0.007912 0.000000 0.004111 0.000000
# 4 0.000000 0.000000 0.000000 0.339645 0.000000 0.266830
# 5 0.000946 -0.000838 0.004111 0.000000 0.039435 0.000000
# 6 0.000000 0.000000 0.000000 0.266830 0.000000 0.245596
#
#
# Mechanical properties :
#
#
# Convention : Reuss Voigt Hill
#
# Bulk Modulus (GPa) = 69.06259 102.16053 85.61156
# Shear Modulus (GPa) = 7.40704 34.65190 21.02947
#
# Velocity S-wave (km/s) = 1.95103 4.21994 3.28743
# Velocity P-wave (km/s) = 6.36923 8.73183 7.64238
#
# Compressibility (1/GPa) = 0.01447962
#
# Stress axis : x y z
#
# Youngs Moduli (GPa) = 142.42502 66.34929 126.38395
#
# Poissons Ratio (x) = 0.13482 0.44879
# Poissons Ratio (y) = 0.28941 0.27549
# Poissons Ratio (z) = 0.50576 0.14463
#
# Static dielectric constant tensor:
#      x y z
#    x 1.632940 0.000000 0.016410 
#    y 0.000000 1.739800 0.000000 
#    z 0.016410 0.000000 1.638720 
# 
# From -- ./inp_files/33844.got.cif
#   From: 2010.05.17/outbox.cif.g08.bks.cpg/sg10_17_cif.got.tgz:33844.got - 2010.06.03 11:33:40.
