data_PCOD9153882
_publ_section_title
;
Structure prediction by ZEFSAII (Michael W. Deem and Ramdas Pophale) SiO2 
 PCOD9153882
Probable space group: P 2/M
;
_chemical_formula_sum "Si O2"
_cell_formula_units_Z 28
_cell_length_a 7.132333
_cell_length_b 13.112339
_cell_length_c 13.735925
_cell_angle_alpha 90.000000
_cell_angle_beta 109.864376
_cell_angle_gamma 90.000000
_cell_volume 1208.170692
_symmetry_space_group_name_H-M "P 2/M"
_symmetry_group_IT_number 10
_symmetry_cell_setting 'monoclinic'
loop_
_space_group_symop_operation_xyz
x,y,z
-x,y,-z
-x,-y,-z
x,-y,z
loop_
_atom_site_type_symbol
_atom_site_label
_atom_site_fract_x
_atom_site_fract_y
_atom_site_fract_z
Si Si1 0.073595 0.614860 0.791591
Si Si2 0.174853 0.112303 0.282800
Si Si3 0.398947 0.614914 0.620330
Si Si4 0.770427 0.835303 0.133516
Si Si5 0.318396 0.832655 0.090761
Si Si6 0.334142 0.613485 0.152127
Si Si7 0.206968 0.311554 0.411662
O O1 0.156886 0.500000 0.812824
O O2 0.195519 0.713040 0.848603
O O3 0.869895 0.614997 0.820420
O O4 0.993088 0.639556 0.668259
O O5 0.244563 0.140041 0.185224
O O6 0.232348 0.200472 0.368035
O O7 0.936286 0.115955 0.230864
O O8 0.246082 0.000000 0.321580
O O9 0.322871 0.500000 0.600130
O O10 0.475552 0.633286 0.743454
O O11 0.611540 0.623019 0.601774
O O12 0.249058 0.686362 0.533949
O O13 0.547733 0.864412 0.122473
O O14 0.796984 0.868452 0.025581
O O15 0.316823 0.709726 0.080636
O O16 0.350027 0.500000 0.112500
#
# Coordination Sequence:
#
# PCOD9153882 Si02
#       7
#     4   4   4   4   4   4   4
#     4   9  16  30  50  78 112 148 178 213 264 324
#     4  11  23  40  59  80 107 140 184 239 287 327
#     4   9  14  25  52  88 117 145 179 216 258 322
#     4  10  23  36  58  81 107 146 185 229 279 338
#     4  11  21  39  56  81 111 142 186 231 280 326
#     4   9  17  30  54  85 117 152 187 217 264 327
#     4   9  15  28  51  81 110 141 180 220 267 324
#
# _framework density 23.175535
#
# number of rings (size 3 to 8) (size 9 to 14) (size 15 to 20)
#    0.000    2.286    4.286    3.000    0.000    2.857 
#    0.000    5.714    0.000    3.429    0.000   10.000 
#    0.000    0.000    0.000    0.000    0.000    0.000 
#
# Total GULP energy -156381.903007 kJ/mol
# GULP energy per Si atom -5585.067965 kJ/mol
# Density = 2.312279 g / cm^3
# Si number density = 23.175535 Si / 1000 Ang^3
#
#
#
# Elastic Constant Matrix: (Units=GPa)
#
#
# Indices 1 2 3 4 5 6 
#
# 1 63.9529 2.0453 11.6153 0.0000 -0.3885 0.0000
# 2 2.0453 125.6541 25.1054 0.0000 -7.3940 0.0000
# 3 11.6153 25.1054 74.3659 0.0000 3.8304 0.0000
# 4 0.0000 0.0000 0.0000 -11.9965 0.0000 4.1673
# 5 -0.3885 -7.3940 3.8304 0.0000 21.0913 0.0000
# 6 0.0000 0.0000 0.0000 4.1673 0.0000 -3.8684
#
#
#
# Elastic Compliance Matrix: (Units=1/GPa)
#
#
# Indices 1 2 3 4 5 6 
#
# 1 0.016117 0.000324 -0.002673 0.000000 0.000896 0.000000
# 2 0.000324 0.008812 -0.003215 0.000000 0.003679 0.000000
# 3 -0.002673 -0.003215 0.015152 0.000000 -0.003928 0.000000
# 4 0.000000 0.000000 0.000000 -0.133204 0.000000 -0.143496
# 5 0.000896 0.003679 -0.003928 0.000000 0.049433 0.000000
# 6 0.000000 0.000000 0.000000 -0.143496 0.000000 -0.413088
#
#
# Mechanical properties :
#
#
# Convention : Reuss Voigt Hill
#
# Bulk Modulus (GPa) = 34.53754 37.94499 36.24127
# Shear Modulus (GPa) = -11.46789 16.05908 2.29559
#
# Velocity S-wave (km/s) = -2.22688 2.63522 0.99633
# Velocity P-wave (km/s) = 2.88495 5.06632 4.12253
#
# Compressibility (1/GPa) = 0.02895400
#
# Stress axis : x y z
#
# Youngs Moduli (GPa) = 62.04610 113.48269 65.99697
#
# Poissons Ratio (x) = -0.03682 0.17641
# Poissons Ratio (y) = -0.02013 0.21218
# Poissons Ratio (z) = 0.16585 0.36485
#
# Static dielectric constant tensor:
#      x y z
#    x 1.924340 0.000000 -0.022790 
#    y 0.000000 1.885530 0.000000 
#    z -0.022790 0.000000 1.885880 
# 
# From -- ./inp_files/61612.got.cif
#   From: 2010.05.17/outbox.cif.g08.bks.cpg/sg10_31_cif.got.tgz:61612.got - 2010.06.03 11:33:40.
