data_PCOD9153861
_publ_section_title
;
Structure prediction by ZEFSAII (Michael W. Deem and Ramdas Pophale) SiO2 
 PCOD9153861
Probable space group: P 2/M
;
_chemical_formula_sum "Si O2"
_cell_formula_units_Z 14
_cell_length_a 6.596999
_cell_length_b 17.779793
_cell_length_c 7.026583
_cell_angle_alpha 90.000000
_cell_angle_beta 43.033354
_cell_angle_gamma 90.000000
_cell_volume 562.434026
_symmetry_space_group_name_H-M "P 2/M"
_symmetry_group_IT_number 10
_symmetry_cell_setting 'monoclinic'
loop_
_space_group_symop_operation_xyz
x,y,z
-x,y,-z
-x,-y,-z
x,-y,z
loop_
_atom_site_type_symbol
_atom_site_label
_atom_site_fract_x
_atom_site_fract_y
_atom_site_fract_z
Si Si1 0.156778 0.918500 0.690538
Si Si2 0.168021 0.771152 0.209151
Si Si3 0.321137 0.639713 0.812874
Si Si4 0.672506 0.500000 0.613073
O O1 0.500000 0.911444 0.500000
O O2 0.041504 0.842305 0.679071
O O3 0.105270 0.000000 0.630267
O O4 0.000000 0.921536 0.000000
O O5 0.000000 0.730816 0.500000
O O6 0.226218 0.710824 0.004162
O O7 0.500000 0.803402 0.000000
O O8 0.500000 0.664506 0.500000
O O9 0.531905 0.579054 0.766985
O O10 0.000000 0.601365 0.000000
O O11 0.500000 0.500000 0.500000
O O12 0.000000 0.500000 0.500000
#
# Coordination Sequence:
#
# PCOD9153861 Si02
#       4
#     4   4   4   2
#     4  10  22  43  69  96 134 190 249 305 374 462
#     4  12  26  42  67 109 151 190 242 314 392 467
#     4  11  25  49  77 108 150 203 258 318 391 474
#     4  10  25  52  83 118 158 210 273 336 404 484
#
# _framework density 24.891807
#
# number of rings (size 3 to 8) (size 9 to 14) (size 15 to 20)
#    0.000    1.143    0.000    4.714    0.000    9.143 
#    0.000    7.143    0.000    0.000    0.000    0.000 
#    0.000    0.000    0.000    0.000    0.000    0.000 
#
# Total GULP energy -78036.651468 kJ/mol
# GULP energy per Si atom -5574.046533 kJ/mol
# Density = 2.483515 g / cm^3
# Si number density = 24.891807 Si / 1000 Ang^3
#
#
#
# Elastic Constant Matrix: (Units=GPa)
#
#
# Indices 1 2 3 4 5 6 
#
# 1 112.8556 76.7812 83.3564 0.0000 0.6384 0.0000
# 2 76.7812 185.0237 67.6922 0.0000 -5.7878 0.0000
# 3 83.3564 67.6922 241.2972 0.0000 0.0570 0.0000
# 4 0.0000 0.0000 0.0000 67.3978 0.0000 -6.2169
# 5 0.6384 -5.7878 0.0570 0.0000 52.4889 0.0000
# 6 0.0000 0.0000 0.0000 -6.2169 0.0000 23.1965
#
#
#
# Elastic Compliance Matrix: (Units=1/GPa)
#
#
# Indices 1 2 3 4 5 6 
#
# 1 0.014977 -0.004842 -0.003815 0.000000 -0.000712 0.000000
# 2 -0.004842 0.007611 -0.000463 0.000000 0.000899 0.000000
# 3 -0.003815 -0.000463 0.005592 0.000000 -0.000011 0.000000
# 4 0.000000 0.000000 0.000000 0.015213 0.000000 0.004077
# 5 -0.000712 0.000899 -0.000011 0.000000 0.019159 0.000000
# 6 0.000000 0.000000 0.000000 0.004077 0.000000 0.044203
#
#
# Mechanical properties :
#
#
# Convention : Reuss Voigt Hill
#
# Bulk Modulus (GPa) = 100.59655 110.53733 105.56694
# Shear Modulus (GPa) = 38.96838 49.37311 44.17075
#
# Velocity S-wave (km/s) = 3.96095 4.45849 4.21706
# Velocity P-wave (km/s) = 7.83709 8.42661 8.13719
#
# Compressibility (1/GPa) = 0.00994070
#
# Stress axis : x y z
#
# Youngs Moduli (GPa) = 66.76934 131.38315 178.82102
#
# Poissons Ratio (x) = 0.63609 0.68228
# Poissons Ratio (y) = 0.32326 0.08279
# Poissons Ratio (z) = 0.25475 0.06082
#
# Static dielectric constant tensor:
#      x y z
#    x 2.395010 0.000000 0.054000 
#    y 0.000000 2.046360 0.000000 
#    z 0.054000 0.000000 1.953470 
# 
# From -- ./inp_files/14611.got.cif
#   From: 2010.05.17/outbox.cif.g08.bks.cpg/sg10_8_cif.got.tgz:14611.got - 2010.06.03 11:33:40.
