data_PCOD9153110
_publ_section_title
;
Structure prediction by ZEFSAII (Michael W. Deem and Ramdas Pophale) SiO2 
 PCOD9153110
Probable space group: P 2/M
;
_chemical_formula_sum "Si O2"
_cell_formula_units_Z 28
_cell_length_a 8.152257
_cell_length_b 21.382832
_cell_length_c 14.695221
_cell_angle_alpha 90.000000
_cell_angle_beta 150.648534
_cell_angle_gamma 90.000000
_cell_volume 1255.631000
_symmetry_space_group_name_H-M "P 2/M"
_symmetry_group_IT_number 10
_symmetry_cell_setting 'monoclinic'
loop_
_space_group_symop_operation_xyz
x,y,z
-x,y,-z
-x,-y,-z
x,-y,z
loop_
_atom_site_type_symbol
_atom_site_label
_atom_site_fract_x
_atom_site_fract_y
_atom_site_fract_z
Si Si1 0.656451 0.367901 0.394159
Si Si2 0.905505 0.832762 0.701709
Si Si3 0.256230 0.500000 0.037029
Si Si4 0.994552 0.312544 0.267175
Si Si5 0.917802 0.930131 0.854949
Si Si6 0.419846 0.500000 0.357490
Si Si7 0.113115 0.931523 0.451416
Si Si8 0.638036 0.360351 0.928301
O O1 0.558182 0.438429 0.374389
O O2 0.383990 0.341668 0.189104
O O3 0.000000 0.367190 0.500000
O O4 0.720599 0.331900 0.520942
O O5 0.500000 0.833243 0.500000
O O6 0.033559 0.872955 0.849026
O O7 0.017524 0.873384 0.669103
O O8 0.001554 0.760923 0.749950
O O9 0.979301 0.500000 0.826748
O O10 0.438849 0.434710 0.115944
O O11 0.000000 0.500000 0.000000
O O12 0.663207 0.328023 0.164687
O O13 0.949245 0.348238 0.147861
O O14 0.516540 0.931413 0.646954
O O15 0.043709 0.000000 0.891153
O O16 0.000000 0.920276 0.000000
O O17 0.500000 0.500000 0.500000
O O18 0.000000 0.927137 0.500000
O O19 0.007913 0.000000 0.363994
#
# Coordination Sequence:
#
# PCOD9153110 Si02
#       8
#     4   4   2   4   4   2   4   4
#     4  10  21  40  63  84 117 159 200 246 314 375
#     4  10  21  40  60  88 124 164 212 255 305 369
#     4  12  22  39  63  91 117 146 204 256 319 370
#     4  10  23  40  60  88 122 164 206 248 301 381
#     4   9  18  37  63  93 125 162 210 266 319 362
#     4  12  23  36  62  97 121 146 193 267 314 373
#     4   9  18  35  62  93 126 165 210 261 315 369
#     4  10  22  43  62  87 121 159 200 256 314 372
#
# _framework density 22.299547
#
# number of rings (size 3 to 8) (size 9 to 14) (size 15 to 20)
#    0.000    2.000    1.429    1.500    0.000    8.000 
#   10.286    0.000    0.000    3.429    0.000    0.000 
#    0.000    0.000    0.000    0.000    0.000    0.000 
#
# Total GULP energy -156218.180579 kJ/mol
# GULP energy per Si atom -5579.220735 kJ/mol
# Density = 2.224879 g / cm^3
# Si number density = 22.299547 Si / 1000 Ang^3
#
#
#
# Elastic Constant Matrix: (Units=GPa)
#
#
# Indices 1 2 3 4 5 6 
#
# 1 91.8066 56.8546 35.3589 0.0000 -37.1613 0.0000
# 2 56.8546 193.5913 41.4749 0.0000 -33.2963 0.0000
# 3 35.3589 41.4749 116.8918 0.0000 -46.1499 0.0000
# 4 0.0000 0.0000 0.0000 27.5905 0.0000 -9.6947
# 5 -37.1613 -33.2963 -46.1499 0.0000 49.9758 0.0000
# 6 0.0000 0.0000 0.0000 -9.6947 0.0000 55.4618
#
#
#
# Elastic Compliance Matrix: (Units=1/GPa)
#
#
# Indices 1 2 3 4 5 6 
#
# 1 0.017197 -0.003234 0.000226 0.000000 0.010841 0.000000
# 2 -0.003234 0.006496 -0.000893 0.000000 0.001098 0.000000
# 3 0.000226 -0.000893 0.013589 0.000000 0.012122 0.000000
# 4 0.000000 0.000000 0.000000 0.038616 0.000000 0.006750
# 5 0.010841 0.001098 0.012122 0.000000 0.039997 0.000000
# 6 0.000000 0.000000 0.000000 0.006750 0.000000 0.019210
#
#
# Mechanical properties :
#
#
# Convention : Reuss Voigt Hill
#
# Bulk Modulus (GPa) = 33.92245 74.40739 54.16492
# Shear Modulus (GPa) = 32.73687 44.51239 38.62463
#
# Velocity S-wave (km/s) = 3.83567 4.47263 4.16634
# Velocity P-wave (km/s) = 5.90438 7.75321 6.89108
#
# Compressibility (1/GPa) = 0.02947900
#
# Stress axis : x y z
#
# Youngs Moduli (GPa) = 58.15129 153.95250 73.58744
#
# Poissons Ratio (x) = 0.49791 -0.01661
# Poissons Ratio (y) = 0.18807 0.06570
# Poissons Ratio (z) = -0.01313 0.13744
#
# Static dielectric constant tensor:
#      x y z
#    x 1.829660 0.000000 0.003250 
#    y 0.000000 1.826480 0.000000 
#    z 0.003250 0.000000 2.101980 
# 
# From -- ./inp_files/62639.got.cif
#   From: 2010.05.17/outbox.cif.g08.bks.cpg/sg10_32_cif.got.tgz:62639.got - 2010.06.03 11:33:40.
