data_PCOD9153274
_publ_section_title
;
Structure prediction by ZEFSAII (Michael W. Deem and Ramdas Pophale) SiO2 
 PCOD9153274
Probable space group: P 2/M
;
_chemical_formula_sum "Si O2"
_cell_formula_units_Z 24
_cell_length_a 12.798544
_cell_length_b 14.683478
_cell_length_c 7.792199
_cell_angle_alpha 90.000000
_cell_angle_beta 46.359798
_cell_angle_gamma 90.000000
_cell_volume 1059.743577
_symmetry_space_group_name_H-M "P 2/M"
_symmetry_group_IT_number 10
_symmetry_cell_setting 'monoclinic'
loop_
_space_group_symop_operation_xyz
x,y,z
-x,y,-z
-x,-y,-z
x,-y,z
loop_
_atom_site_type_symbol
_atom_site_label
_atom_site_fract_x
_atom_site_fract_y
_atom_site_fract_z
Si Si1 0.564261 0.703456 0.610271
Si Si2 0.935458 0.289308 0.881083
Si Si3 0.189442 0.399434 0.508750
Si Si4 0.052496 0.100229 0.737401
Si Si5 0.692724 0.396960 0.007091
Si Si6 0.595606 0.897810 0.713788
O O1 0.500000 0.679518 0.500000
O O2 0.724901 0.674109 0.475973
O O3 0.545924 0.810276 0.664223
O O4 0.468188 0.638823 0.837976
O O5 0.773759 0.321512 0.031529
O O6 0.024322 0.370869 0.695817
O O7 0.972218 0.190418 0.760707
O O8 0.000000 0.286770 0.000000
O O9 0.211304 0.500000 0.556915
O O10 0.239057 0.397052 0.257752
O O11 0.225906 0.108730 0.498414
O O12 0.009225 0.000000 0.718890
O O13 0.000000 0.098161 0.000000
O O14 0.696841 0.500000 0.073021
O O15 0.564884 0.000000 0.681534
O O16 0.500000 0.891659 0.000000
#
# Coordination Sequence:
#
# PCOD9153274 Si02
#       6
#     4   4   4   4   4   4
#     4  12  25  40  64  96 128 169 218 276 337 395
#     4  11  22  38  64  95 128 170 216 275 331 391
#     4  11  23  42  64  87 123 171 220 270 332 399
#     4   9  19  37  66  98 133 175 217 268 329 394
#     4  11  25  42  62  91 129 174 222 272 332 397
#     4  10  21  41  69  99 133 175 221 270 328 395
#
# _framework density 22.646989000000001
#
# number of rings (size 3 to 8) (size 9 to 14) (size 15 to 20)
#    0.000    1.333    1.667    4.000    2.333    7.000 
#    0.000    0.833    0.000    3.000    0.000    0.000 
#    0.000    0.000    0.000    0.000    0.000    0.000 
#
# Total GULP energy -133765.216439 kJ/mol
# GULP energy per Si atom -5573.550685 kJ/mol
# Density = 2.259544 g / cm^3
# Si number density = 22.646989 Si / 1000 Ang^3
#
#
#
# Elastic Constant Matrix: (Units=GPa)
#
#
# Indices 1 2 3 4 5 6 
#
# 1 67.4907 22.6744 14.4815 0.0000 -1.5222 0.0000
# 2 22.6744 148.3189 10.0141 0.0000 3.9269 0.0000
# 3 14.4815 10.0141 107.9172 0.0000 -20.9919 0.0000
# 4 0.0000 0.0000 0.0000 16.6617 0.0000 -18.0484
# 5 -1.5222 3.9269 -20.9919 0.0000 27.6835 0.0000
# 6 0.0000 0.0000 0.0000 -18.0484 0.0000 37.9244
#
#
#
# Elastic Compliance Matrix: (Units=1/GPa)
#
#
# Indices 1 2 3 4 5 6 
#
# 1 0.016012 -0.002305 -0.001994 0.000000 -0.000305 0.000000
# 2 -0.002305 0.007185 -0.000681 0.000000 -0.001662 0.000000
# 3 -0.001994 -0.000681 0.011255 0.000000 0.008521 0.000000
# 4 0.000000 0.000000 0.000000 0.123879 0.000000 0.058954
# 5 -0.000305 -0.001662 0.008521 0.000000 0.042803 0.000000
# 6 0.000000 0.000000 0.000000 0.058954 0.000000 0.054425
#
#
# Mechanical properties :
#
#
# Convention : Reuss Voigt Hill
#
# Bulk Modulus (GPa) = 40.83009 46.45185 43.64097
# Shear Modulus (GPa) = 18.26942 34.89106 26.58024
#
# Velocity S-wave (km/s) = 2.84334 3.92937 3.42961
# Velocity P-wave (km/s) = 5.37098 6.41423 5.91565
#
# Compressibility (1/GPa) = 0.02449174
#
# Stress axis : x y z
#
# Youngs Moduli (GPa) = 62.45194 139.18669 88.85252
#
# Poissons Ratio (x) = 0.32085 0.17718
# Poissons Ratio (y) = 0.14396 0.06048
# Poissons Ratio (z) = 0.12453 0.09474
#
# Static dielectric constant tensor:
#      x y z
#    x 1.812870 0.000000 0.017420 
#    y 0.000000 1.827570 0.000000 
#    z 0.017420 0.000000 1.923120 
# 
# From -- ./inp_files/29278.got.cif
#   From: 2010.05.17/outbox.cif.g08.bks.cpg/sg10_15_cif.got.tgz:29278.got - 2010.06.03 11:33:40.
