data_PCOD9153573
_publ_section_title
;
Structure prediction by ZEFSAII (Michael W. Deem and Ramdas Pophale) SiO2 
 PCOD9153573
Probable space group: P 2/M
;
_chemical_formula_sum "Si O2"
_cell_formula_units_Z 28
_cell_length_a 23.062164
_cell_length_b 13.664170
_cell_length_c 10.293251
_cell_angle_alpha 90.000000
_cell_angle_beta 26.660713
_cell_angle_gamma 90.000000
_cell_volume 1455.452585
_symmetry_space_group_name_H-M "P 2/M"
_symmetry_group_IT_number 10
_symmetry_cell_setting 'monoclinic'
loop_
_space_group_symop_operation_xyz
x,y,z
-x,y,-z
-x,-y,-z
x,-y,z
loop_
_atom_site_type_symbol
_atom_site_label
_atom_site_fract_x
_atom_site_fract_y
_atom_site_fract_z
Si Si1 0.752568 0.248995 0.231072
Si Si2 0.987157 0.196278 0.178746
Si Si3 0.481028 0.114517 0.387372
Si Si4 0.155294 0.614034 0.184047
Si Si5 0.161222 0.388343 0.467880
Si Si6 0.652396 0.695650 0.697569
Si Si7 0.717036 0.888150 0.721115
O O1 0.629500 0.181439 0.451420
O O2 0.717908 0.314608 0.426135
O O3 0.784779 0.314689 0.041952
O O4 0.878539 0.184962 0.016319
O O5 0.947519 0.310009 0.276414
O O6 0.862892 0.135500 0.474434
O O7 0.000000 0.175442 0.000000
O O8 0.500000 0.139412 0.500000
O O9 0.444512 0.000000 0.452152
O O10 0.614165 0.126150 0.041974
O O11 0.179478 0.500000 0.103415
O O12 0.202818 0.632158 0.236106
O O13 0.000000 0.627850 0.500000
O O14 0.114992 0.500000 0.565134
O O15 0.276954 0.369998 0.336373
O O16 0.681281 0.807733 0.684601
O O17 0.500000 0.679057 0.000000
O O18 0.708349 0.000000 0.692233
#
# Coordination Sequence:
#
# PCOD9153573 Si02
#       7
#     4   4   4   4   4   4   4
#     4  12  23  37  66  96 128 162 204 270 309 361
#     4  11  22  39  59  99 129 157 211 254 315 372
#     4  10  24  43  64  92 125 170 215 251 311 380
#     4  10  22  39  62  93 123 162 209 250 309 378
#     4  10  22  41  64  86 125 169 204 250 308 373
#     4  11  23  41  61  95 125 163 212 253 314 370
#     4  10  22  41  64  86 125 169 205 252 307 371
#
# _framework density 19.238002999999999
#
# number of rings (size 3 to 8) (size 9 to 14) (size 15 to 20)
#    0.000    1.429    5.714    0.000    4.000    2.857 
#    0.000    0.000    0.000    5.143    0.000    0.000 
#    0.000    0.000    0.000    0.000    0.000    0.000 
#
# Total GULP energy -156399.297151 kJ/mol
# GULP energy per Si atom -5585.689184 kJ/mol
# Density = 1.919422 g / cm^3
# Si number density = 19.238003 Si / 1000 Ang^3
#
#
#
# Elastic Constant Matrix: (Units=GPa)
#
#
# Indices 1 2 3 4 5 6 
#
# 1 108.3769 19.4789 49.4101 0.0000 5.2425 0.0000
# 2 19.4789 47.1567 22.2511 0.0000 7.4854 0.0000
# 3 49.4101 22.2511 103.7068 0.0000 -5.4267 0.0000
# 4 0.0000 0.0000 0.0000 7.6191 0.0000 1.8265
# 5 5.2425 7.4854 -5.4267 0.0000 28.9383 0.0000
# 6 0.0000 0.0000 0.0000 1.8265 0.0000 14.0362
#
#
#
# Elastic Compliance Matrix: (Units=1/GPa)
#
#
# Indices 1 2 3 4 5 6 
#
# 1 0.012250 -0.002007 -0.005549 0.000000 -0.002741 0.000000
# 2 -0.002007 0.025472 -0.004883 0.000000 -0.007141 0.000000
# 3 -0.005549 -0.004883 0.013586 0.000000 0.004816 0.000000
# 4 0.000000 0.000000 0.000000 0.135475 0.000000 -0.017629
# 5 -0.002741 -0.007141 0.004816 0.000000 0.037803 0.000000
# 6 0.000000 0.000000 0.000000 -0.017629 0.000000 0.073538
#
#
# Mechanical properties :
#
#
# Convention : Reuss Voigt Hill
#
# Bulk Modulus (GPa) = 37.83447 49.05785 43.44616
# Shear Modulus (GPa) = 15.06870 21.32541 18.19705
#
# Velocity S-wave (km/s) = 2.80175 3.33303 3.07887
# Velocity P-wave (km/s) = 5.49323 6.35358 5.93901
#
# Compressibility (1/GPa) = 0.02643092
#
# Stress axis : x y z
#
# Youngs Moduli (GPa) = 81.63029 39.25832 73.60387
#
# Poissons Ratio (x) = 0.07878 0.40846
# Poissons Ratio (y) = 0.16380 0.35940
# Poissons Ratio (z) = 0.45300 0.19170
#
# Static dielectric constant tensor:
#      x y z
#    x 1.684510 0.000000 -0.003050 
#    y 0.000000 1.658480 0.000000 
#    z -0.003050 0.000000 1.665350 
# 
# From -- ./inp_files/35225.got.cif
#   From: 2010.05.17/outbox.cif.g08.bks.cpg/sg10_18_cif.got.tgz:35225.got - 2010.06.03 11:33:40.
