data_PCOD9153603
_publ_section_title
;
Structure prediction by ZEFSAII (Michael W. Deem and Ramdas Pophale) SiO2 
 PCOD9153603
Probable space group: P 2/M
;
_chemical_formula_sum "Si O2"
_cell_formula_units_Z 24
_cell_length_a 19.256238
_cell_length_b 11.513351
_cell_length_c 12.327597
_cell_angle_alpha 90.000000
_cell_angle_beta 149.238944
_cell_angle_gamma 90.000000
_cell_volume 1397.855784
_symmetry_space_group_name_H-M "P 2/M"
_symmetry_group_IT_number 10
_symmetry_cell_setting 'monoclinic'
loop_
_space_group_symop_operation_xyz
x,y,z
-x,y,-z
-x,-y,-z
x,-y,z
loop_
_atom_site_type_symbol
_atom_site_label
_atom_site_fract_x
_atom_site_fract_y
_atom_site_fract_z
Si Si1 0.778262 0.638719 0.167383
Si Si2 0.954688 0.750676 0.063349
Si Si3 0.459590 0.252749 0.276747
Si Si4 0.877753 0.000000 0.925164
Si Si5 0.049020 0.638481 0.391326
Si Si6 0.557225 0.000000 0.453563
Si Si7 0.676087 0.634336 0.697160
O O1 0.754619 0.500000 0.128652
O O2 0.901818 0.664033 0.249085
O O3 0.838527 0.665418 0.366827
O O4 0.641362 0.704577 0.951865
O O5 0.060242 0.709038 0.295311
O O6 0.898962 0.879250 0.016480
O O7 0.833889 0.658066 0.902549
O O8 0.000000 0.754944 0.000000
O O9 0.500653 0.118591 0.326087
O O10 0.377894 0.284710 0.277758
O O11 0.597127 0.326256 0.482757
O O12 0.722189 0.000000 0.673751
O O13 0.000000 0.000000 0.000000
O O14 0.053303 0.500000 0.377433
O O15 0.500000 0.000000 0.500000
O O16 0.649717 0.500000 0.686661
#
# Coordination Sequence:
#
# PCOD9153603 Si02
#       7
#     4   4   4   2   4   2   4
#     4   9  17  32  52  75 110 148 175 216 272 337
#     4  11  21  35  55  78 106 143 183 228 267 321
#     4  11  19  31  51  76 107 140 177 216 277 319
#     4  10  22  40  55  75 109 155 186 218 280 335
#     4   9  18  32  51  77 109 144 181 217 271 328
#     4  12  20  34  53  81 115 145 177 237 282 319
#     4  11  20  30  48  78 110 136 171 220 276 330
#
# _framework density 17.169153000000001
#
# number of rings (size 3 to 8) (size 9 to 14) (size 15 to 20)
#    0.000    1.667    5.000    3.500    0.000    1.333 
#    0.000    0.833    0.000    3.000    0.000    5.833 
#    0.000    0.000    0.000    0.000    0.000    0.000 
#
# Total GULP energy -133723.481769 kJ/mol
# GULP energy per Si atom -5571.811740 kJ/mol
# Density = 1.713008 g / cm^3
# Si number density = 17.169153 Si / 1000 Ang^3
#
#
#
# Elastic Constant Matrix: (Units=GPa)
#
#
# Indices 1 2 3 4 5 6 
#
# 1 32.8470 21.6100 24.5085 0.0000 -8.4783 0.0000
# 2 21.6100 100.5602 55.6086 0.0000 -8.3275 0.0000
# 3 24.5085 55.6086 138.8096 0.0000 -15.8613 0.0000
# 4 0.0000 0.0000 0.0000 23.5653 0.0000 0.1654
# 5 -8.4783 -8.3275 -15.8613 0.0000 26.2983 0.0000
# 6 0.0000 0.0000 0.0000 0.1654 0.0000 -2.5097
#
#
#
# Elastic Compliance Matrix: (Units=1/GPa)
#
#
# Indices 1 2 3 4 5 6 
#
# 1 0.039125 -0.005676 -0.003650 0.000000 0.008615 0.000000
# 2 -0.005676 0.013624 -0.004481 0.000000 -0.000218 0.000000
# 3 -0.003650 -0.004481 0.010039 0.000000 0.003459 0.000000
# 4 0.000000 0.000000 0.000000 0.042416 0.000000 0.002795
# 5 0.008615 -0.000218 0.003459 0.000000 0.042820 0.000000
# 6 0.000000 0.000000 0.000000 0.002795 0.000000 -0.398264
#
#
# Mechanical properties :
#
#
# Convention : Reuss Voigt Hill
#
# Bulk Modulus (GPa) = 28.42940 52.85236 40.64088
# Shear Modulus (GPa) = -23.70764 20.83676 -1.43544
#
# Velocity S-wave (km/s) = -3.71998 3.48748 -0.91535
# Velocity P-wave (km/s) = 1.36258 6.86053 4.75448
#
# Compressibility (1/GPa) = 0.03517486
#
# Stress axis : x y z
#
# Youngs Moduli (GPa) = 25.55885 73.40146 99.61412
#
# Poissons Ratio (x) = 0.41665 0.36356
# Poissons Ratio (y) = 0.14508 0.44632
# Poissons Ratio (z) = 0.09328 0.32888
#
# Static dielectric constant tensor:
#      x y z
#    x 1.616620 0.000000 0.003360 
#    y 0.000000 1.592580 0.000000 
#    z 0.003360 0.000000 1.609840 
# 
# From -- ./inp_files/55755.got.cif
#   From: 2010.05.17/outbox.cif.g08.bks.cpg/sg10_28_cif.got.tgz:55755.got - 2010.06.03 11:33:40.
