data_PCOD9153453
_publ_section_title
;
Structure prediction by ZEFSAII (Michael W. Deem and Ramdas Pophale) SiO2 
 PCOD9153453
Probable space group: P 2/M
;
_chemical_formula_sum "Si O2"
_cell_formula_units_Z 24
_cell_length_a 11.921384
_cell_length_b 17.169870
_cell_length_c 18.538493
_cell_angle_alpha 90.000000
_cell_angle_beta 20.639187
_cell_angle_gamma 90.000000
_cell_volume 1337.533845
_symmetry_space_group_name_H-M "P 2/M"
_symmetry_group_IT_number 10
_symmetry_cell_setting 'monoclinic'
loop_
_space_group_symop_operation_xyz
x,y,z
-x,y,-z
-x,-y,-z
x,-y,z
loop_
_atom_site_type_symbol
_atom_site_label
_atom_site_fract_x
_atom_site_fract_y
_atom_site_fract_z
Si Si1 0.373915 0.738198 0.785545
Si Si2 0.848357 0.912588 0.755472
Si Si3 0.383854 0.588016 0.278548
Si Si4 0.686443 0.194344 0.726842
Si Si5 0.347821 0.672268 0.017227
Si Si6 0.749223 0.223812 0.414177
O O1 0.504421 0.655773 0.735472
O O2 0.442862 0.803030 0.806579
O O3 0.553886 0.755202 0.603394
O O4 0.000000 0.733600 0.000000
O O5 0.795482 0.880831 0.705787
O O6 0.050074 0.851847 0.681664
O O7 0.982983 0.000000 0.674349
O O8 0.500000 0.914976 0.000000
O O9 0.456317 0.500000 0.258322
O O10 0.000000 0.592498 0.500000
O O11 0.579842 0.608824 0.087612
O O12 0.000000 0.227218 0.500000
O O13 0.551472 0.253182 0.867413
O O14 0.995492 0.707520 0.242104
O O15 0.500000 0.644870 0.000000
O O16 0.500000 0.208881 0.500000
#
# Coordination Sequence:
#
# PCOD9153453 Si02
#       6
#     4   4   4   4   4   4
#     4  11  23  38  62  88 114 156 198 242 295 344
#     4  11  23  39  61  88 118 156 192 241 303 346
#     4  10  22  38  59  88 122 155 190 240 295 344
#     4  11  18  36  60  85 113 148 196 245 280 342
#     4  11  18  34  60  86 114 152 199 239 282 343
#     4  12  22  38  61  86 118 155 201 243 285 348
#
# _framework density 17.943470000000001
#
# number of rings (size 3 to 8) (size 9 to 14) (size 15 to 20)
#    0.000    1.000    5.000    5.000    0.000    1.333 
#    0.000    0.833    0.000    3.000    0.000    0.000 
#    0.000    0.000    0.000    0.000    0.000    0.000 
#
# Total GULP energy -133811.644932 kJ/mol
# GULP energy per Si atom -5575.485205 kJ/mol
# Density = 1.790263 g / cm^3
# Si number density = 17.943470 Si / 1000 Ang^3
#
#
#
# Elastic Constant Matrix: (Units=GPa)
#
#
# Indices 1 2 3 4 5 6 
#
# 1 130.6280 52.3373 27.7501 0.0000 -5.9436 0.0000
# 2 52.3373 82.0019 31.0909 0.0000 -5.5484 0.0000
# 3 27.7501 31.0909 79.4560 0.0000 -8.3952 0.0000
# 4 0.0000 0.0000 0.0000 -4.5561 0.0000 -9.7193
# 5 -5.9436 -5.5484 -8.3952 0.0000 38.5511 0.0000
# 6 0.0000 0.0000 0.0000 -9.7193 0.0000 8.3012
#
#
#
# Elastic Compliance Matrix: (Units=1/GPa)
#
#
# Indices 1 2 3 4 5 6 
#
# 1 0.010392 -0.006157 -0.001171 0.000000 0.000461 0.000000
# 2 -0.006157 0.017996 -0.004829 0.000000 0.000589 0.000000
# 3 -0.001171 -0.004829 0.015140 0.000000 0.002421 0.000000
# 4 0.000000 0.000000 0.000000 -0.062752 0.000000 -0.073472
# 5 0.000461 0.000589 0.002421 0.000000 0.026623 0.000000
# 6 0.000000 0.000000 0.000000 -0.073472 0.000000 0.034441
#
#
# Mechanical properties :
#
#
# Convention : Reuss Voigt Hill
#
# Bulk Modulus (GPa) = 52.04980 57.16027 54.60503
# Shear Modulus (GPa) = 68.90966 20.51977 44.71471
#
# Velocity S-wave (km/s) = 6.20380 3.38535 4.99739
# Velocity P-wave (km/s) = 8.96587 6.87064 7.98726
#
# Compressibility (1/GPa) = 0.01921237
#
# Stress axis : x y z
#
# Youngs Moduli (GPa) = 96.22620 55.56941 66.04992
#
# Poissons Ratio (x) = 0.34217 0.07737
# Poissons Ratio (y) = 0.59251 0.31895
# Poissons Ratio (z) = 0.11272 0.26834
#
# Static dielectric constant tensor:
#      x y z
#    x 1.659210 0.000000 -0.011330 
#    y 0.000000 1.619410 0.000000 
#    z -0.011330 0.000000 1.625670 
# 
# From -- ./inp_files/19294.got.cif
#   From: 2010.05.17/outbox.cif.g08.bks.cpg/sg10_10_cif.got.tgz:19294.got - 2010.06.03 11:33:40.
