data_PCOD9153275
_publ_section_title
;
Structure prediction by ZEFSAII (Michael W. Deem and Ramdas Pophale) SiO2 
 PCOD9153275
Probable space group: P 2/M
;
_chemical_formula_sum "Si O2"
_cell_formula_units_Z 30
_cell_length_a 15.463854
_cell_length_b 15.423101
_cell_length_c 5.647531
_cell_angle_alpha 90.000000
_cell_angle_beta 80.620801
_cell_angle_gamma 90.000000
_cell_volume 1328.932725
_symmetry_space_group_name_H-M "P 2/M"
_symmetry_group_IT_number 10
_symmetry_cell_setting 'monoclinic'
loop_
_space_group_symop_operation_xyz
x,y,z
-x,y,-z
-x,-y,-z
x,-y,z
loop_
_atom_site_type_symbol
_atom_site_label
_atom_site_fract_x
_atom_site_fract_y
_atom_site_fract_z
Si Si1 0.904771 0.268141 0.069402
Si Si2 0.754626 0.600179 0.215105
Si Si3 0.294899 0.000000 0.885312
Si Si4 0.553009 0.856014 0.231038
Si Si5 0.208310 0.152804 0.207743
Si Si6 0.081854 0.905703 0.642022
Si Si7 0.584868 0.594156 0.625357
Si Si8 0.647254 0.282133 0.942310
O O1 0.835407 0.333785 0.219350
O O2 0.923164 0.181053 0.207798
O O3 0.859813 0.225546 0.856383
O O4 0.000000 0.310993 0.000000
O O5 0.781907 0.500000 0.174601
O O6 0.676667 0.601834 0.442614
O O7 0.709346 0.640458 0.002063
O O8 0.228368 0.078186 0.008098
O O9 0.369831 0.074059 0.794055
O O10 0.500000 0.861579 0.500000
O O11 0.500000 0.868061 0.000000
O O12 0.601825 0.764113 0.182776
O O13 0.170856 0.104678 0.452206
O O14 0.296751 0.206989 0.210172
O O15 0.000000 0.905609 0.500000
O O16 0.080382 0.000000 0.763237
O O17 0.500000 0.593503 0.500000
O O18 0.586126 0.500000 0.749751
O O19 0.579692 0.674836 0.798734
#
# Coordination Sequence:
#
# PCOD9153275 Si02
#       8
#     4   4   2   4   4   4   4   4
#     4  11  23  40  65  93 129 175 223 289 347 416
#     4  10  23  42  65  95 129 172 228 286 355 422
#     4  10  22  46  64  92 134 180 232 288 347 412
#     4  11  26  45  69  98 135 186 240 295 351 425
#     4  10  21  42  59  93 128 171 225 271 341 411
#     4  11  22  36  62  92 128 169 215 271 337 408
#     4  10  22  40  67  98 132 173 223 284 351 423
#     4  10  23  39  65  92 132 173 220 283 344 411
#
# _framework density 22.574506
#
# number of rings (size 3 to 8) (size 9 to 14) (size 15 to 20)
#    0.000    1.600    2.000    1.600    4.667    0.533 
#    9.600    2.000    0.000    1.600    0.000    0.000 
#    0.000    0.000    0.000    0.000    0.000    0.000 
#
# Total GULP energy -167087.321796 kJ/mol
# GULP energy per Si atom -5569.577393 kJ/mol
# Density = 2.252313 g / cm^3
# Si number density = 22.574506 Si / 1000 Ang^3
#
#
#
# Elastic Constant Matrix: (Units=GPa)
#
#
# Indices 1 2 3 4 5 6 
#
# 1 91.8272 42.4581 29.2464 0.0000 -24.9081 0.0000
# 2 42.4581 150.2947 24.3266 0.0000 -7.1778 0.0000
# 3 29.2464 24.3266 63.7411 0.0000 -19.0838 0.0000
# 4 0.0000 0.0000 0.0000 -28.5109 0.0000 -0.8728
# 5 -24.9081 -7.1778 -19.0838 0.0000 33.8951 0.0000
# 6 0.0000 0.0000 0.0000 -0.8728 0.0000 45.7332
#
#
#
# Elastic Compliance Matrix: (Units=1/GPa)
#
#
# Indices 1 2 3 4 5 6 
#
# 1 0.016083 -0.003576 -0.003251 0.000000 0.009231 0.000000
# 2 -0.003576 0.007887 -0.001992 0.000000 -0.002079 0.000000
# 3 -0.003251 -0.001992 0.020565 0.000000 0.008768 0.000000
# 4 0.000000 0.000000 0.000000 -0.035054 0.000000 -0.000669
# 5 0.009231 -0.002079 0.008768 0.000000 0.040783 0.000000
# 6 0.000000 0.000000 0.000000 -0.000669 0.000000 0.021853
#
#
# Mechanical properties :
#
#
# Convention : Reuss Voigt Hill
#
# Bulk Modulus (GPa) = 37.17786 55.32503 46.25145
# Shear Modulus (GPa) = 50.64816 24.21228 37.43022
#
# Velocity S-wave (km/s) = 4.74180 3.27853 4.07636
# Velocity P-wave (km/s) = 6.81794 6.23640 6.53364
#
# Compressibility (1/GPa) = 0.02689773
#
# Stress axis : x y z
#
# Youngs Moduli (GPa) = 62.17793 126.79135 48.62585
#
# Poissons Ratio (x) = 0.45345 0.15807
# Poissons Ratio (y) = 0.22237 0.09684
# Poissons Ratio (z) = 0.20212 0.25252
#
# Static dielectric constant tensor:
#      x y z
#    x 1.919670 0.000000 0.025930 
#    y 0.000000 1.805820 0.000000 
#    z 0.025930 0.000000 1.887320 
# 
# From -- ./inp_files/11412.got.cif
#   From: 2010.05.17/outbox.cif.g08.bks.cpg/sg10_6_cif.got.tgz:11412.got - 2010.06.03 11:33:40.
