data_PCOD9153876
_publ_section_title
;
Structure prediction by ZEFSAII (Michael W. Deem and Ramdas Pophale) SiO2 
 PCOD9153876
Probable space group: P 2/M
;
_chemical_formula_sum "Si O2"
_cell_formula_units_Z 24
_cell_length_a 13.913336
_cell_length_b 14.580526
_cell_length_c 10.460318
_cell_angle_alpha 90.000000
_cell_angle_beta 30.793695
_cell_angle_gamma 90.000000
_cell_volume 1086.364314
_symmetry_space_group_name_H-M "P 2/M"
_symmetry_group_IT_number 10
_symmetry_cell_setting 'monoclinic'
loop_
_space_group_symop_operation_xyz
x,y,z
-x,y,-z
-x,-y,-z
x,-y,z
loop_
_atom_site_type_symbol
_atom_site_label
_atom_site_fract_x
_atom_site_fract_y
_atom_site_fract_z
Si Si1 0.284206 0.296329 0.241688
Si Si2 0.273117 0.000000 0.104788
Si Si3 0.612967 0.697114 0.503937
Si Si4 0.224818 0.500000 0.211384
Si Si5 0.898878 0.198329 0.310601
Si Si6 0.282802 0.806510 0.000457
Si Si7 0.848078 0.000000 0.476159
Si Si8 0.484786 0.500000 0.359851
O O1 0.284266 0.404124 0.208322
O O2 0.180248 0.265423 0.487965
O O3 0.196078 0.239331 0.225547
O O4 0.500000 0.265766 0.000000
O O5 0.351492 0.092405 0.956402
O O6 0.278726 0.000000 0.251694
O O7 0.057131 0.000000 0.300118
O O8 0.500000 0.694710 0.500000
O O9 0.802551 0.755864 0.297226
O O10 0.628938 0.593043 0.535298
O O11 0.460442 0.746832 0.764567
O O12 0.000000 0.500000 0.500000
O O13 0.327797 0.500000 0.949313
O O14 0.122689 0.194999 0.075292
O O15 0.831364 0.094073 0.415892
O O16 0.500000 0.500000 0.500000
#
# Coordination Sequence:
#
# PCOD9153876 Si02
#       8
#     4   2   4   2   4   4   2   2
#     4  12  22  37  59  95 133 167 202 267 337 393
#     4   9  18  33  59  92 127 167 198 258 316 397
#     4  11  25  45  65  87 121 172 224 265 318 387
#     4  12  23  37  64 102 133 168 221 281 338 396
#     4  11  22  39  63  94 129 167 207 267 327 390
#     4  11  21  39  63  91 128 160 214 257 324 384
#     4   9  18  33  59  94 129 161 206 252 324 393
#     4  10  22  45  68  88 131 182 221 266 323 399
#
# _framework density 22.092037000000001
#
# number of rings (size 3 to 8) (size 9 to 14) (size 15 to 20)
#    0.000    1.167    5.000    1.750    0.000    2.000 
#    0.000    5.000    0.000    6.000    0.000    0.000 
#    0.000    0.000    0.000    0.000    0.000    0.000 
#
# Total GULP energy -133879.303893 kJ/mol
# GULP energy per Si atom -5578.304329 kJ/mol
# Density = 2.204175 g / cm^3
# Si number density = 22.092037 Si / 1000 Ang^3
#
#
#
# Elastic Constant Matrix: (Units=GPa)
#
#
# Indices 1 2 3 4 5 6 
#
# 1 85.2731 52.4352 22.3401 0.0000 -6.7371 0.0000
# 2 52.4352 192.7323 10.7094 0.0000 1.3447 0.0000
# 3 22.3401 10.7094 62.4503 0.0000 -4.4394 0.0000
# 4 0.0000 0.0000 0.0000 -140.2857 0.0000 140.8499
# 5 -6.7371 1.3447 -4.4394 0.0000 40.9332 0.0000
# 6 0.0000 0.0000 0.0000 140.8499 0.0000 -118.5487
#
#
#
# Elastic Compliance Matrix: (Units=1/GPa)
#
#
# Indices 1 2 3 4 5 6 
#
# 1 0.015598 -0.003996 -0.004739 0.000000 0.002185 0.000000
# 2 -0.003996 0.006265 0.000296 0.000000 -0.000831 0.000000
# 3 -0.004739 0.000296 0.017738 0.000000 0.001134 0.000000
# 4 0.000000 0.000000 0.000000 0.036954 0.000000 0.043906
# 5 0.002185 -0.000831 0.001134 0.000000 0.024940 0.000000
# 6 0.000000 0.000000 0.000000 0.043906 0.000000 0.043730
#
#
# Mechanical properties :
#
#
# Convention : Reuss Voigt Hill
#
# Bulk Modulus (GPa) = 44.00840 56.82504 50.41672
# Shear Modulus (GPa) = 29.46775 -26.58217 1.44279
#
# Velocity S-wave (km/s) = 3.65617 -3.47255 0.80901
# Velocity P-wave (km/s) = 6.14713 3.11443 4.87272
#
# Compressibility (1/GPa) = 0.02272293
#
# Stress axis : x y z
#
# Youngs Moduli (GPa) = 64.11010 159.61828 56.37604
#
# Poissons Ratio (x) = 0.63777 0.26719
# Poissons Ratio (y) = 0.25616 -0.01668
# Poissons Ratio (z) = 0.30384 -0.04723
#
# Static dielectric constant tensor:
#      x y z
#    x 2.008860 0.000000 0.039980 
#    y 0.000000 1.809200 0.000000 
#    z 0.039980 0.000000 1.855350 
# 
# From -- ./inp_files/51579.got.cif
#   From: 2010.05.17/outbox.cif.g08.bks.cpg/sg10_26_cif.got.tgz:51579.got - 2010.06.03 11:33:40.
