data_PCOD9153425
_publ_section_title
;
Structure prediction by ZEFSAII (Michael W. Deem and Ramdas Pophale) SiO2 
 PCOD9153425
Probable space group: P 2/M
;
_chemical_formula_sum "Si O2"
_cell_formula_units_Z 30
_cell_length_a 34.433583
_cell_length_b 7.962276
_cell_length_c 5.200453
_cell_angle_alpha 90.000000
_cell_angle_beta 112.635854
_cell_angle_gamma 90.000000
_cell_volume 1315.976079
_symmetry_space_group_name_H-M "P 2/M"
_symmetry_group_IT_number 10
_symmetry_cell_setting 'monoclinic'
loop_
_space_group_symop_operation_xyz
x,y,z
-x,y,-z
-x,-y,-z
x,-y,z
loop_
_atom_site_type_symbol
_atom_site_label
_atom_site_fract_x
_atom_site_fract_y
_atom_site_fract_z
Si Si1 0.029392 0.500000 0.332376
Si Si2 0.122862 0.202792 0.984518
Si Si3 0.592724 0.197312 0.339725
Si Si4 0.949774 0.183857 0.837492
Si Si5 0.733036 0.794828 0.017268
Si Si6 0.455348 0.696908 0.283541
Si Si7 0.827544 0.205672 0.385348
Si Si8 0.684310 0.794767 0.391839
O O1 0.055671 0.331289 0.377649
O O2 0.000000 0.500000 0.500000
O O3 0.000000 0.500000 0.000000
O O4 0.075779 0.234078 0.972963
O O5 0.153298 0.259514 0.294304
O O6 0.125220 0.000000 0.976767
O O7 0.142198 0.263277 0.767959
O O8 0.576563 0.281541 0.559537
O O9 0.637937 0.261534 0.356197
O O10 0.597002 0.000000 0.409969
O O11 0.561099 0.220155 0.019708
O O12 0.934164 0.000000 0.712495
O O13 0.000000 0.167965 0.000000
O O14 0.717221 0.743802 0.696325
O O15 0.733458 0.000000 0.018458
O O16 0.779970 0.739967 0.208899
O O17 0.700364 0.740317 0.154063
O O18 0.500000 0.764653 0.500000
O O19 0.460723 0.500000 0.238630
O O20 0.827034 0.000000 0.388256
O O21 0.683219 0.000000 0.383266
#
# Coordination Sequence:
#
# PCOD9153425 Si02
#       8
#     2   4   4   4   4   4   4   4
#     4  10  22  38  56  80 108 138 182 228 266 332
#     4   9  17  28  43  67  99 133 175 219 260 315
#     4  11  22  37  59  87 118 150 192 245 293 346
#     4   9  19  36  57  80 111 149 184 230 288 335
#     4   9  15  25  42  66 103 143 172 208 273 333
#     4  11  24  41  59  81 115 156 197 242 291 347
#     4   9  16  26  42  67 101 138 173 216 262 318
#     4   9  17  28  45  73 108 141 172 220 279 332
#
# _framework density 22.796769000000001
#
# number of rings (size 3 to 8) (size 9 to 14) (size 15 to 20)
#    0.000    2.400    0.000    2.800    0.000   10.400 
#    0.000    4.000    0.000    0.000    0.000    0.000 
#   40.000    0.000    0.000    0.000    0.000    0.000 
#
# Total GULP energy -167615.810050 kJ/mol
# GULP energy per Si atom -5587.193668 kJ/mol
# Density = 2.274488 g / cm^3
# Si number density = 22.796769 Si / 1000 Ang^3
#
#
#
# Elastic Constant Matrix: (Units=GPa)
#
#
# Indices 1 2 3 4 5 6 
#
# 1 63.7876 4.9748 -16.0424 0.0000 -1.2784 0.0000
# 2 4.9748 49.3704 -4.1922 0.0000 -9.6340 0.0000
# 3 -16.0424 -4.1922 67.5502 0.0000 -8.4438 0.0000
# 4 0.0000 0.0000 0.0000 9.3295 0.0000 -4.5040
# 5 -1.2784 -9.6340 -8.4438 0.0000 46.7884 0.0000
# 6 0.0000 0.0000 0.0000 -4.5040 0.0000 -73.6932
#
#
#
# Elastic Compliance Matrix: (Units=1/GPa)
#
#
# Indices 1 2 3 4 5 6 
#
# 1 0.016802 -0.001165 0.004036 0.000000 0.000948 0.000000
# 2 -0.001165 0.021424 0.001637 0.000000 0.004675 0.000000
# 3 0.004036 0.001637 0.016287 0.000000 0.003387 0.000000
# 4 0.000000 0.000000 0.000000 0.104115 0.000000 -0.006363
# 5 0.000948 0.004675 0.003387 0.000000 0.022972 0.000000
# 6 0.000000 0.000000 0.000000 -0.006363 0.000000 -0.013181
#
#
# Mechanical properties :
#
#
# Convention : Reuss Voigt Hill
#
# Bulk Modulus (GPa) = 15.74071 16.68762 16.21416
# Shear Modulus (GPa) = 27.68858 9.54947 18.61903
#
# Velocity S-wave (km/s) = 3.48887 2.04892 2.86097
# Velocity P-wave (km/s) = 4.81138 3.59631 4.24752
#
# Compressibility (1/GPa) = 0.06352952
#
# Stress axis : x y z
#
# Youngs Moduli (GPa) = 59.51655 46.67719 61.39734
#
# Poissons Ratio (x) = 0.05440 -0.24782
# Poissons Ratio (y) = 0.06936 -0.10052
# Poissons Ratio (z) = -0.24023 -0.07642
#
# Static dielectric constant tensor:
#      x y z
#    x 1.811840 0.000000 -0.027580 
#    y 0.000000 1.870040 0.000000 
#    z -0.027580 0.000000 1.700170 
# 
# From -- ./inp_files/13666.got.cif
#   From: 2010.05.17/outbox.cif.g08.bks.cpg/sg10_7_cif.got.tgz:13666.got - 2010.06.03 11:33:40.
