data_PCOD9153867
_publ_section_title
;
Structure prediction by ZEFSAII (Michael W. Deem and Ramdas Pophale) SiO2 
 PCOD9153867
Probable space group: P 2/M
;
_chemical_formula_sum "Si O2"
_cell_formula_units_Z 32
_cell_length_a 12.174810
_cell_length_b 8.817909
_cell_length_c 14.795233
_cell_angle_alpha 90.000000
_cell_angle_beta 94.265655
_cell_angle_gamma 90.000000
_cell_volume 1583.962535
_symmetry_space_group_name_H-M "P 2/M"
_symmetry_group_IT_number 10
_symmetry_cell_setting 'monoclinic'
loop_
_space_group_symop_operation_xyz
x,y,z
-x,y,-z
-x,-y,-z
x,-y,z
loop_
_atom_site_type_symbol
_atom_site_label
_atom_site_fract_x
_atom_site_fract_y
_atom_site_fract_z
Si Si1 0.083424 0.820101 0.421127
Si Si2 0.238263 0.178709 0.159404
Si Si3 0.313532 0.676065 0.491986
Si Si4 0.598365 0.675114 0.697310
Si Si5 0.225953 0.679827 0.816417
Si Si6 0.627824 0.682204 0.998811
Si Si7 0.626990 0.823336 0.318601
Si Si8 0.024604 0.319506 0.224566
O O1 0.193814 0.727967 0.450665
O O2 0.035973 0.759745 0.323270
O O3 0.000000 0.799394 0.500000
O O4 0.107056 0.000000 0.414650
O O5 0.309484 0.221306 0.252078
O O6 0.120768 0.258281 0.165989
O O7 0.223711 0.000000 0.150941
O O8 0.309245 0.241791 0.080564
O O9 0.311892 0.500000 0.521226
O O10 0.392731 0.687718 0.410219
O O11 0.349023 0.779659 0.576888
O O12 0.618940 0.500000 0.723330
O O13 0.478243 0.727271 0.720261
O O14 0.238261 0.500000 0.797581
O O15 0.302418 0.715687 0.906745
O O16 0.269399 0.774868 0.734684
O O17 0.096802 0.708905 0.822589
O O18 0.628276 0.500000 0.985553
O O19 0.500000 0.730093 0.000000
O O20 0.602986 0.000000 0.308106
O O21 0.038495 0.500000 0.237805
#
# Coordination Sequence:
#
# PCOD9153867 Si02
#       8
#     4   4   4   4   4   4   4   4
#     4  11  23  38  59  89 126 167 214 270 327 380
#     4  12  25  41  66  97 131 168 210 268 330 388
#     4  11  23  39  61  88 121 167 218 264 313 379
#     4  11  23  41  64  90 124 167 217 265 314 381
#     4  10  23  43  67  94 126 168 217 265 314 379
#     4  10  22  43  71  99 128 166 212 264 321 386
#     4  12  25  39  61  93 131 169 208 265 327 381
#     4  11  23  41  64  91 126 170 219 266 316 381
#
# _framework density 20.202497000000001
#
# number of rings (size 3 to 8) (size 9 to 14) (size 15 to 20)
#    0.000    1.000    1.250    5.625    0.000    9.250 
#    0.000    2.500    0.000    0.000    0.000    0.000 
#    0.000    0.000    0.000    0.000    0.000    0.000 
#
# Total GULP energy -179060.797998 kJ/mol
# GULP energy per Si atom -5595.649937 kJ/mol
# Density = 2.015652 g / cm^3
# Si number density = 20.202497 Si / 1000 Ang^3
#
#
#
# Elastic Constant Matrix: (Units=GPa)
#
#
# Indices 1 2 3 4 5 6 
#
# 1 124.7032 31.2023 26.5422 0.0000 -10.9506 0.0000
# 2 31.2023 49.2964 27.6909 0.0000 -16.5014 0.0000
# 3 26.5422 27.6909 55.2265 0.0000 -13.5207 0.0000
# 4 0.0000 0.0000 0.0000 -70.1558 0.0000 109.2286
# 5 -10.9506 -16.5014 -13.5207 0.0000 33.8924 0.0000
# 6 0.0000 0.0000 0.0000 109.2286 0.0000 -133.8382
#
#
#
# Elastic Compliance Matrix: (Units=1/GPa)
#
#
# Indices 1 2 3 4 5 6 
#
# 1 0.009718 -0.004955 -0.002226 0.000000 -0.000160 0.000000
# 2 -0.004955 0.033465 -0.011971 0.000000 0.009917 0.000000
# 3 -0.002226 -0.011971 0.026128 0.000000 0.003876 0.000000
# 4 0.000000 0.000000 0.000000 0.052664 0.000000 0.042980
# 5 -0.000160 0.009917 0.003876 0.000000 0.035828 0.000000
# 6 0.000000 0.000000 0.000000 0.042980 0.000000 0.027606
#
#
# Mechanical properties :
#
#
# Convention : Reuss Voigt Hill
#
# Bulk Modulus (GPa) = 32.24775 44.45523 38.35149
# Shear Modulus (GPa) = 21.36318 -24.43426 -1.53554
#
# Velocity S-wave (km/s) = 3.25538 -3.48151 -0.87277
# Velocity P-wave (km/s) = 5.48880 2.42721 4.24372
#
# Compressibility (1/GPa) = 0.03100991
#
# Stress axis : x y z
#
# Youngs Moduli (GPa) = 102.89736 29.88167 38.27330
#
# Poissons Ratio (x) = 0.14806 0.08518
# Poissons Ratio (y) = 0.50983 0.45815
# Poissons Ratio (z) = 0.22901 0.35770
#
# Static dielectric constant tensor:
#      x y z
#    x 1.713100 0.000000 -0.004970 
#    y 0.000000 1.672910 0.000000 
#    z -0.004970 0.000000 1.706850 
# 
# From -- ./inp_files/63795.got.cif
#   From: 2010.05.17/outbox.cif.g08.bks.cpg/sg10_32_cif.got.tgz:63795.got - 2010.06.03 11:33:40.
