data_PCOD9153167
_publ_section_title
;
Structure prediction by ZEFSAII (Michael W. Deem and Ramdas Pophale) SiO2 
 PCOD9153167
Probable space group: P 2/M
;
_chemical_formula_sum "Si O2"
_cell_formula_units_Z 28
_cell_length_a 10.851639
_cell_length_b 16.349648
_cell_length_c 8.164264
_cell_angle_alpha 90.000000
_cell_angle_beta 111.287873
_cell_angle_gamma 90.000000
_cell_volume 1349.673180
_symmetry_space_group_name_H-M "P 2/M"
_symmetry_group_IT_number 10
_symmetry_cell_setting 'monoclinic'
loop_
_space_group_symop_operation_xyz
x,y,z
-x,y,-z
-x,-y,-z
x,-y,z
loop_
_atom_site_type_symbol
_atom_site_label
_atom_site_fract_x
_atom_site_fract_y
_atom_site_fract_z
Si Si1 0.644479 0.909017 0.154384
Si Si2 0.668983 0.741252 0.340372
Si Si3 0.493944 0.589262 0.296676
Si Si4 0.160680 0.908778 0.060486
Si Si5 0.832955 0.747283 0.735711
Si Si6 0.926543 0.670559 0.304648
Si Si7 0.811122 0.588735 0.942208
O O1 0.639349 0.833830 0.276926
O O2 0.663316 0.000000 0.236650
O O3 0.500000 0.908559 0.000000
O O4 0.763378 0.898637 0.077565
O O5 0.560763 0.671370 0.263556
O O6 0.717225 0.734986 0.550052
O O7 0.793597 0.714449 0.293733
O O8 0.500000 0.592518 0.500000
O O9 0.556543 0.500000 0.284483
O O10 0.347849 0.587991 0.148783
O O11 0.196448 0.830104 0.184072
O O12 0.202799 0.000000 0.138201
O O13 0.000000 0.908988 0.000000
O O14 0.845525 0.668660 0.856229
O O15 0.973942 0.741181 0.712422
O O16 0.000000 0.634483 0.500000
O O17 0.880408 0.604569 0.149339
O O18 0.852106 0.500000 0.894881
#
# Coordination Sequence:
#
# PCOD9153167 Si02
#       7
#     4   4   4   4   4   4   4
#     4  10  23  40  60  93 132 166 208 263 320 379
#     4  11  23  38  64  88 125 168 201 255 328 364
#     4  10  22  41  62  90 123 159 215 263 300 370
#     4  10  21  40  65  89 119 166 216 259 308 373
#     4  11  22  39  63  92 124 158 213 260 305 373
#     4  10  24  41  58  93 128 160 206 263 309 376
#     4  11  23  40  64  88 120 167 208 255 315 370
#
# _framework density 20.745764000000001
#
# number of rings (size 3 to 8) (size 9 to 14) (size 15 to 20)
#    0.000    1.571    1.429    3.000    4.000    2.571 
#    0.000    4.286    0.000    8.143    0.000    0.000 
#    0.000    0.000    0.000    0.000    0.000    0.000 
#
# Total GULP energy -156098.600572 kJ/mol
# GULP energy per Si atom -5574.950020 kJ/mol
# Density = 2.069855 g / cm^3
# Si number density = 20.745764 Si / 1000 Ang^3
#
#
#
# Elastic Constant Matrix: (Units=GPa)
#
#
# Indices 1 2 3 4 5 6 
#
# 1 59.5309 51.4046 27.2062 0.0000 14.3522 0.0000
# 2 51.4046 161.2849 53.2131 0.0000 -4.8147 0.0000
# 3 27.2062 53.2131 80.0640 0.0000 7.6353 0.0000
# 4 0.0000 0.0000 0.0000 90.0563 0.0000 -33.5907
# 5 14.3522 -4.8147 7.6353 0.0000 24.0287 0.0000
# 6 0.0000 0.0000 0.0000 -33.5907 0.0000 33.5111
#
#
#
# Elastic Compliance Matrix: (Units=1/GPa)
#
#
# Indices 1 2 3 4 5 6 
#
# 1 0.030966 -0.009747 -0.002160 0.000000 -0.019762 0.000000
# 2 -0.009747 0.011283 -0.005113 0.000000 0.009707 0.000000
# 3 -0.002160 -0.005113 0.017116 0.000000 -0.005173 0.000000
# 4 0.000000 0.000000 0.000000 0.017735 0.000000 0.017777
# 5 -0.019762 0.009707 -0.005173 0.000000 0.057010 0.000000
# 6 0.000000 0.000000 0.000000 0.017777 0.000000 0.047660
#
#
# Mechanical properties :
#
#
# Convention : Reuss Voigt Hill
#
# Bulk Modulus (GPa) = 39.48557 62.72528 51.10542
# Shear Modulus (GPa) = 22.29650 40.78962 31.54306
#
# Velocity S-wave (km/s) = 3.28189 4.43896 3.90353
# Velocity P-wave (km/s) = 5.78234 7.52152 6.70853
#
# Compressibility (1/GPa) = 0.02532571
#
# Stress axis : x y z
#
# Youngs Moduli (GPa) = 32.29374 88.62537 58.42651
#
# Poissons Ratio (x) = 0.86381 0.12618
# Poissons Ratio (y) = 0.31476 0.29874
# Poissons Ratio (z) = 0.06974 0.45315
#
# Static dielectric constant tensor:
#      x y z
#    x 1.818540 0.000000 -0.038270 
#    y 0.000000 1.765660 0.000000 
#    z -0.038270 0.000000 1.764080 
# 
# From -- ./inp_files/25396.got.cif
#   From: 2010.05.17/outbox.cif.g08.bks.cpg/sg10_13_cif.got.tgz:25396.got - 2010.06.03 11:33:40.
