data_PCOD9153092
_publ_section_title
;
Structure prediction by ZEFSAII (Michael W. Deem and Ramdas Pophale) SiO2 
 PCOD9153092
Probable space group: P 2/M
;
_chemical_formula_sum "Si O2"
_cell_formula_units_Z 28
_cell_length_a 5.177191
_cell_length_b 19.905450
_cell_length_c 12.811706
_cell_angle_alpha 90.000000
_cell_angle_beta 102.543235
_cell_angle_gamma 90.000000
_cell_volume 1288.789183
_symmetry_space_group_name_H-M "P 2/M"
_symmetry_group_IT_number 10
_symmetry_cell_setting 'monoclinic'
loop_
_space_group_symop_operation_xyz
x,y,z
-x,y,-z
-x,-y,-z
x,-y,z
loop_
_atom_site_type_symbol
_atom_site_label
_atom_site_fract_x
_atom_site_fract_y
_atom_site_fract_z
Si Si1 0.895752 0.574284 0.610595
Si Si2 0.795854 0.921253 0.570763
Si Si3 0.721941 0.422310 0.928566
Si Si4 0.583112 0.709618 0.613534
Si Si5 0.672927 0.786491 0.118592
Si Si6 0.216349 0.824237 0.235439
Si Si7 0.688709 0.651425 0.232270
O O1 0.781545 0.500000 0.620504
O O2 0.702923 0.637244 0.599352
O O3 0.000000 0.573380 0.500000
O O4 0.115113 0.591567 0.718976
O O5 0.500000 0.916452 0.500000
O O6 0.802328 0.882473 0.680787
O O7 0.000000 0.895379 0.500000
O O8 0.858956 0.000000 0.593320
O O9 0.759528 0.500000 0.900405
O O10 0.595331 0.379889 0.824199
O O11 0.500000 0.420836 0.000000
O O12 0.000000 0.398046 0.000000
O O13 0.500000 0.744660 0.500000
O O14 0.777622 0.755684 0.696141
O O15 0.333072 0.694025 0.663522
O O16 0.485261 0.818866 0.191957
O O17 0.734009 0.707893 0.149088
O O18 0.955406 0.822632 0.141774
O O19 0.500000 0.789729 0.000000
#
# Coordination Sequence:
#
# PCOD9153092 Si02
#       7
#     4   4   4   4   4   4   4
#     4  11  23  38  56  80 116 158 201 256 319 395
#     4  10  21  39  67 106 146 181 215 255 310 379
#     4  10  23  40  58  80 105 138 188 250 313 375
#     4  11  23  38  57  85 118 154 202 252 309 386
#     4  11  24  41  65  92 125 166 224 277 326 373
#     4  11  23  41  67  97 129 175 209 268 321 377
#     4  11  23  39  59  81 110 154 202 259 323 380
#
# _framework density 21.725818
#
# number of rings (size 3 to 8) (size 9 to 14) (size 15 to 20)
#    0.000    1.286    2.857    2.571    2.000    5.429 
#    0.000    0.000    0.000    2.571    0.000    0.000 
#    0.000    0.000    0.000    0.000    0.000    0.000 
#
# Total GULP energy -156485.095141 kJ/mol
# GULP energy per Si atom -5588.753398 kJ/mol
# Density = 2.167637 g / cm^3
# Si number density = 21.725818 Si / 1000 Ang^3
#
#
#
# Elastic Constant Matrix: (Units=GPa)
#
#
# Indices 1 2 3 4 5 6 
#
# 1 75.4072 1.7096 2.4060 0.0000 7.1149 0.0000
# 2 1.7096 68.3624 11.0479 0.0000 -7.9212 0.0000
# 3 2.4060 11.0479 80.2056 0.0000 9.7181 0.0000
# 4 0.0000 0.0000 0.0000 3.8553 0.0000 -2.2019
# 5 7.1149 -7.9212 9.7181 0.0000 42.0040 0.0000
# 6 0.0000 0.0000 0.0000 -2.2019 0.0000 13.0771
#
#
#
# Elastic Compliance Matrix: (Units=1/GPa)
#
#
# Indices 1 2 3 4 5 6 
#
# 1 0.013502 -0.000610 -0.000031 0.000000 -0.002395 0.000000
# 2 -0.000610 0.015474 -0.002551 0.000000 0.003612 0.000000
# 3 -0.000031 -0.002551 0.013249 0.000000 -0.003541 0.000000
# 4 0.000000 0.000000 0.000000 0.286985 0.000000 0.048322
# 5 -0.002395 0.003612 -0.003541 0.000000 0.025713 0.000000
# 6 0.000000 0.000000 0.000000 0.048322 0.000000 0.084606
#
#
# Mechanical properties :
#
#
# Convention : Reuss Voigt Hill
#
# Bulk Modulus (GPa) = 27.90037 28.25582 28.07809
# Shear Modulus (GPa) = 10.92037 25.70805 18.31421
#
# Velocity S-wave (km/s) = 2.24441 3.44364 2.90654
# Velocity P-wave (km/s) = 4.42565 5.37079 4.92096
#
# Compressibility (1/GPa) = 0.03584182
#
# Stress axis : x y z
#
# Youngs Moduli (GPa) = 74.06239 64.62506 75.47568
#
# Poissons Ratio (x) = 0.03943 0.00232
# Poissons Ratio (y) = 0.04519 0.19252
# Poissons Ratio (z) = 0.00228 0.16484
#
# Static dielectric constant tensor:
#      x y z
#    x 1.844040 0.000000 -0.028160 
#    y 0.000000 1.772440 0.000000 
#    z -0.028160 0.000000 1.846790 
# 
# From -- ./inp_files/39760.got.cif
#   From: 2010.05.17/outbox.cif.g08.bks.cpg/sg10_20_cif.got.tgz:39760.got - 2010.06.03 11:33:40.
