data_PCOD9153400
_publ_section_title
;
Structure prediction by ZEFSAII (Michael W. Deem and Ramdas Pophale) SiO2 
 PCOD9153400
Probable space group: P 2/M
;
_chemical_formula_sum "Si O2"
_cell_formula_units_Z 32
_cell_length_a 19.939514
_cell_length_b 14.147954
_cell_length_c 23.715051
_cell_angle_alpha 90.000000
_cell_angle_beta 162.036621
_cell_angle_gamma 90.000000
_cell_volume 2063.285822
_symmetry_space_group_name_H-M "P 2/M"
_symmetry_group_IT_number 10
_symmetry_cell_setting 'monoclinic'
loop_
_space_group_symop_operation_xyz
x,y,z
-x,y,-z
-x,-y,-z
x,-y,z
loop_
_atom_site_type_symbol
_atom_site_label
_atom_site_fract_x
_atom_site_fract_y
_atom_site_fract_z
Si Si1 0.929827 0.703050 0.104485
Si Si2 0.347678 0.891674 0.292521
Si Si3 0.810196 0.385074 0.389763
Si Si4 0.682192 0.386561 0.010243
Si Si5 0.333280 0.387042 0.484438
Si Si6 0.899900 0.386244 0.587597
Si Si7 0.786494 0.701882 0.864754
Si Si8 0.834503 0.108771 0.726985
O O1 0.160296 0.651904 0.301204
O O2 0.992556 0.813705 0.153806
O O3 0.770166 0.668817 0.026131
O O4 0.829689 0.677405 0.964115
O O5 0.261967 0.813466 0.181442
O O6 0.231601 0.875898 0.260307
O O7 0.606032 0.880477 0.510542
O O8 0.305957 0.000000 0.242020
O O9 0.824482 0.500000 0.402355
O O10 0.566113 0.362509 0.175207
O O11 0.841540 0.350733 0.479037
O O12 0.000000 0.351590 0.500000
O O13 0.694956 0.500000 0.008531
O O14 0.851792 0.366944 0.195956
O O15 0.327689 0.500000 0.478719
O O16 0.247886 0.353885 0.478081
O O17 0.575760 0.349872 0.671433
O O18 0.875008 0.500000 0.566031
O O19 0.000000 0.678556 0.000000
O O20 0.905207 0.000000 0.777379
#
# Coordination Sequence:
#
# PCOD9153400 Si02
#       8
#     4   4   4   4   4   4   4   4
#     4  11  20  33  53  70  92 122 162 200 242 284
#     4   9  18  34  52  71  94 118 146 192 254 311
#     4   9  16  26  43  68  96 121 150 190 226 262
#     4   9  18  31  46  65  90 127 165 188 219 272
#     4  10  22  38  50  62  91 131 168 203 235 272
#     4   8  15  29  46  61  82 119 156 186 225 269
#     4  12  23  32  50  71  90 117 162 207 244 294
#     4   9  17  32  55  72  91 120 149 191 250 305
#
# _framework density 15.509242
#
# number of rings (size 3 to 8) (size 9 to 14) (size 15 to 20)
#    0.000    2.375    2.500    2.625    0.000    4.000 
#    0.000    3.125    0.000    0.000    0.000    0.000 
#    0.000    0.500    0.000    5.750    0.000    5.250 
#
# Total GULP energy -178408.919440 kJ/mol
# GULP energy per Si atom -5575.278732 kJ/mol
# Density = 1.547394 g / cm^3
# Si number density = 15.509242 Si / 1000 Ang^3
#
#
#
# Elastic Constant Matrix: (Units=GPa)
#
#
# Indices 1 2 3 4 5 6 
#
# 1 11.5997 6.3445 13.7248 0.0000 2.4501 0.0000
# 2 6.3445 42.1747 15.9785 0.0000 6.7388 0.0000
# 3 13.7248 15.9785 72.1201 0.0000 11.2470 0.0000
# 4 0.0000 0.0000 0.0000 17.3794 0.0000 -1.8489
# 5 2.4501 6.7388 11.2470 0.0000 24.8208 0.0000
# 6 0.0000 0.0000 0.0000 -1.8489 0.0000 4.6122
#
#
#
# Elastic Compliance Matrix: (Units=1/GPa)
#
#
# Indices 1 2 3 4 5 6 
#
# 1 0.114875 -0.009853 -0.019721 0.000000 0.000272 0.000000
# 2 -0.009853 0.027263 -0.003403 0.000000 -0.004887 0.000000
# 3 -0.019721 -0.003403 0.019288 0.000000 -0.005869 0.000000
# 4 0.000000 0.000000 0.000000 0.060103 0.000000 0.024093
# 5 0.000272 -0.004887 -0.005869 0.000000 0.044249 0.000000
# 6 0.000000 0.000000 0.000000 0.024093 0.000000 0.226474
#
#
# Mechanical properties :
#
#
# Convention : Reuss Voigt Hill
#
# Bulk Modulus (GPa) = 10.47420 21.99890 16.23655
# Shear Modulus (GPa) = 8.47415 15.35224 11.91320
#
# Velocity S-wave (km/s) = 2.34004 3.14964 2.77453
# Velocity P-wave (km/s) = 3.75090 5.23853 4.55584
#
# Compressibility (1/GPa) = 0.09547270
#
# Stress axis : x y z
#
# Youngs Moduli (GPa) = 8.70511 36.67925 51.84575
#
# Poissons Ratio (x) = 0.36141 1.02243
# Poissons Ratio (y) = 0.08577 0.17643
# Poissons Ratio (z) = 0.17167 0.12482
#
# Static dielectric constant tensor:
#      x y z
#    x 1.507160 0.000000 -0.008350 
#    y 0.000000 1.508260 0.000000 
#    z -0.008350 0.000000 1.548280 
# 
# From -- ./inp_files/85956.got.cif
#   From: 2010.05.17/outbox.cif.g08.bks.cpg/sg10_43_cif.got.tgz:85956.got - 2010.06.03 11:33:40.
