data_PCOD9153007
_publ_section_title
;
Structure prediction by ZEFSAII (Michael W. Deem and Ramdas Pophale) SiO2 
 PCOD9153007
Probable space group: P 2/M
;
_chemical_formula_sum "Si O2"
_cell_formula_units_Z 20
_cell_length_a 8.618007
_cell_length_b 22.030031
_cell_length_c 8.570394
_cell_angle_alpha 90.000000
_cell_angle_beta 32.828182
_cell_angle_gamma 90.000000
_cell_volume 882.103295
_symmetry_space_group_name_H-M "P 2/M"
_symmetry_group_IT_number 10
_symmetry_cell_setting 'monoclinic'
loop_
_space_group_symop_operation_xyz
x,y,z
-x,y,-z
-x,-y,-z
x,-y,z
loop_
_atom_site_type_symbol
_atom_site_label
_atom_site_fract_x
_atom_site_fract_y
_atom_site_fract_z
Si Si1 0.973226 0.133699 0.842049
Si Si2 0.310259 0.433429 0.310577
Si Si3 0.326867 0.745694 0.989111
Si Si4 0.557793 0.930731 0.767372
Si Si5 0.727485 0.684269 0.444619
O O1 0.812451 0.188425 0.888767
O O2 0.234026 0.111309 0.513070
O O3 0.754990 0.077652 0.041025
O O4 0.000000 0.155780 0.000000
O O5 0.392445 0.500000 0.308581
O O6 0.305413 0.376937 0.428506
O O7 0.000000 0.438575 0.500000
O O8 0.500000 0.420863 0.000000
O O9 0.066040 0.700926 0.154444
O O10 0.500000 0.729121 0.000000
O O11 0.581049 0.742078 0.650214
O O12 0.662618 0.000000 0.672648
O O13 0.500000 0.916272 0.000000
O O14 0.500000 0.673984 0.500000
#
# Coordination Sequence:
#
# PCOD9153007 Si02
#       5
#     4   4   4   4   4
#     4  12  25  43  68  99 134 172 222 282 341 398
#     4  10  21  39  63  91 127 172 220 267 321 391
#     4  12  26  45  68  95 132 177 223 270 331 405
#     4  11  25  45  68  96 133 177 224 274 333 405
#     4  12  24  41  66  98 134 170 217 277 338 393
#
# _framework density 22.673082999999998
#
# number of rings (size 3 to 8) (size 9 to 14) (size 15 to 20)
#    0.000    0.600    0.000    9.000    0.000    6.000 
#    0.000    1.000    0.000    6.000    0.000    0.000 
#    0.000    0.000    0.000    0.000    0.000    0.000 
#
# Total GULP energy -111555.503341 kJ/mol
# GULP energy per Si atom -5577.775167 kJ/mol
# Density = 2.262148 g / cm^3
# Si number density = 22.673083 Si / 1000 Ang^3
#
#
#
# Elastic Constant Matrix: (Units=GPa)
#
#
# Indices 1 2 3 4 5 6 
#
# 1 116.2234 25.2144 26.0755 0.0000 -18.5104 0.0000
# 2 25.2144 118.9260 20.4653 0.0000 3.4352 0.0000
# 3 26.0755 20.4653 128.7399 0.0000 -10.0513 0.0000
# 4 0.0000 0.0000 0.0000 24.4281 0.0000 -22.8524
# 5 -18.5104 3.4352 -10.0513 0.0000 25.6299 0.0000
# 6 0.0000 0.0000 0.0000 -22.8524 0.0000 -48.1197
#
#
#
# Elastic Compliance Matrix: (Units=1/GPa)
#
#
# Indices 1 2 3 4 5 6 
#
# 1 0.010546 -0.002245 -0.001198 0.000000 0.007448 0.000000
# 2 -0.002245 0.009200 -0.001269 0.000000 -0.003352 0.000000
# 3 -0.001198 -0.001269 0.008415 0.000000 0.002605 0.000000
# 4 0.000000 0.000000 0.000000 0.028344 0.000000 -0.013461
# 5 0.007448 -0.003352 0.002605 0.000000 0.045867 0.000000
# 6 0.000000 0.000000 0.000000 -0.013461 0.000000 -0.014389
#
#
# Mechanical properties :
#
#
# Convention : Reuss Voigt Hill
#
# Bulk Modulus (GPa) = 53.37032 56.37774 54.87403
# Shear Modulus (GPa) = 48.23780 19.86327 34.05053
#
# Velocity S-wave (km/s) = 4.61753 2.96306 3.87952
# Velocity P-wave (km/s) = 7.21241 6.05193 6.65750
#
# Compressibility (1/GPa) = 0.01873701
#
# Stress axis : x y z
#
# Youngs Moduli (GPa) = 94.82241 108.69740 118.82963
#
# Poissons Ratio (x) = 0.24402 0.14232
# Poissons Ratio (y) = 0.21287 0.15085
# Poissons Ratio (z) = 0.11357 0.13799
#
# Static dielectric constant tensor:
#      x y z
#    x 2.016570 0.000000 0.031690 
#    y 0.000000 1.868530 0.000000 
#    z 0.031690 0.000000 1.835440 
# 
# From -- ./inp_files/20594.got.cif
#   From: 2010.05.17/outbox.cif.g08.bks.cpg/sg10_11_cif.got.tgz:20594.got - 2010.06.03 11:33:40.
