data_PCOD9153895
_publ_section_title
;
Structure prediction by ZEFSAII (Michael W. Deem and Ramdas Pophale) SiO2 
 PCOD9153895
Probable space group: P 2/M
;
_chemical_formula_sum "Si O2"
_cell_formula_units_Z 28
_cell_length_a 9.356689
_cell_length_b 13.102758
_cell_length_c 12.282722
_cell_angle_alpha 90.000000
_cell_angle_beta 106.565249
_cell_angle_gamma 90.000000
_cell_volume 1443.343477
_symmetry_space_group_name_H-M "P 2/M"
_symmetry_group_IT_number 10
_symmetry_cell_setting 'monoclinic'
loop_
_space_group_symop_operation_xyz
x,y,z
-x,y,-z
-x,-y,-z
x,-y,z
loop_
_atom_site_type_symbol
_atom_site_label
_atom_site_fract_x
_atom_site_fract_y
_atom_site_fract_z
Si Si1 0.725230 0.622843 0.234317
Si Si2 0.566661 0.113294 0.894315
Si Si3 0.621696 0.688688 0.609608
Si Si4 0.175104 0.254889 0.531013
Si Si5 0.431151 0.114534 0.639160
Si Si6 0.620742 0.333018 0.853845
Si Si7 0.118001 0.385032 0.942522
O O1 0.733560 0.500000 0.242755
O O2 0.765550 0.673165 0.358222
O O3 0.555338 0.651041 0.165404
O O4 0.838229 0.660548 0.164694
O O5 0.441381 0.115881 0.772582
O O6 0.659545 0.213834 0.885652
O O7 0.637541 0.000000 0.901953
O O8 0.500000 0.123842 0.000000
O O9 0.500000 0.640590 0.500000
O O10 0.770750 0.699933 0.572463
O O11 0.547544 0.799620 0.622823
O O12 0.644217 0.639477 0.732154
O O13 0.269881 0.151385 0.566047
O O14 0.000000 0.242732 0.500000
O O15 0.467985 0.000000 0.613008
O O16 0.727305 0.391333 0.958183
O O17 0.060987 0.500000 0.907859
O O18 0.000000 0.335362 0.000000
#
# Coordination Sequence:
#
# PCOD9153895 Si02
#       7
#     4   4   4   4   4   4   4
#     4  11  22  39  59  82 109 146 193 234 283 336
#     4   9  16  28  52  86 115 140 179 223 272 333
#     4   9  18  36  54  82 112 145 188 226 271 337
#     4  11  23  37  55  80 118 148 188 236 282 336
#     4   9  18  35  59  83 113 150 188 232 279 331
#     4  11  19  35  62  85 110 146 189 233 279 325
#     4  10  23  39  57  85 114 144 186 233 285 341
#
# _framework density 19.399404000000001
#
# number of rings (size 3 to 8) (size 9 to 14) (size 15 to 20)
#    0.000    2.000    4.286    1.714    2.000    4.286 
#    0.000    2.143    0.000    0.429    0.000    0.000 
#    0.000    0.000    0.000    0.000    0.000    0.000 
#
# Total GULP energy -155995.175661 kJ/mol
# GULP energy per Si atom -5571.256274 kJ/mol
# Density = 1.935525 g / cm^3
# Si number density = 19.399404 Si / 1000 Ang^3
#
#
#
# Elastic Constant Matrix: (Units=GPa)
#
#
# Indices 1 2 3 4 5 6 
#
# 1 106.3173 -7.1829 21.0014 0.0000 -18.1194 0.0000
# 2 -7.1829 52.3520 3.9861 0.0000 2.7991 0.0000
# 3 21.0014 3.9861 82.3857 0.0000 -31.6851 0.0000
# 4 0.0000 0.0000 0.0000 15.6455 0.0000 4.7497
# 5 -18.1194 2.7991 -31.6851 0.0000 36.9108 0.0000
# 6 0.0000 0.0000 0.0000 4.7497 0.0000 6.9020
#
#
#
# Elastic Compliance Matrix: (Units=1/GPa)
#
#
# Indices 1 2 3 4 5 6 
#
# 1 0.010408 0.001304 -0.001178 0.000000 0.003999 0.000000
# 2 0.001304 0.019619 -0.002400 0.000000 -0.002908 0.000000
# 3 -0.001178 -0.002400 0.018515 0.000000 0.015497 0.000000
# 4 0.000000 0.000000 0.000000 0.080796 0.000000 -0.055601
# 5 0.003999 -0.002908 0.015497 0.000000 0.042579 0.000000
# 6 0.000000 0.000000 0.000000 -0.055601 0.000000 0.183148
#
#
# Mechanical properties :
#
#
# Convention : Reuss Voigt Hill
#
# Bulk Modulus (GPa) = 22.73103 30.74046 26.73574
# Shear Modulus (GPa) = 13.35910 26.77501 20.06705
#
# Velocity S-wave (km/s) = 2.62703 3.71913 3.21972
# Velocity P-wave (km/s) = 4.57652 5.85859 5.25679
#
# Compressibility (1/GPa) = 0.04399273
#
# Stress axis : x y z
#
# Youngs Moduli (GPa) = 96.07808 50.97208 54.01169
#
# Poissons Ratio (x) = -0.06646 0.06364
# Poissons Ratio (y) = -0.12528 0.12962
# Poissons Ratio (z) = 0.11321 0.12233
#
# Static dielectric constant tensor:
#      x y z
#    x 1.673230 0.000000 -0.031830 
#    y 0.000000 1.730120 0.000000 
#    z -0.031830 0.000000 1.707990 
# 
# From -- ./inp_files/42766.got.cif
#   From: 2010.05.17/outbox.cif.g08.bks.cpg/sg10_22_cif.got.tgz:42766.got - 2010.06.03 11:33:40.
