data_PCOD9153228
_publ_section_title
;
Structure prediction by ZEFSAII (Michael W. Deem and Ramdas Pophale) SiO2 
 PCOD9153228
Probable space group: P 2/M
;
_chemical_formula_sum "Si O2"
_cell_formula_units_Z 24
_cell_length_a 9.826613
_cell_length_b 18.993718
_cell_length_c 9.534786
_cell_angle_alpha 90.000000
_cell_angle_beta 133.529876
_cell_angle_gamma 90.000000
_cell_volume 1290.244405
_symmetry_space_group_name_H-M "P 2/M"
_symmetry_group_IT_number 10
_symmetry_cell_setting 'monoclinic'
loop_
_space_group_symop_operation_xyz
x,y,z
-x,y,-z
-x,-y,-z
x,-y,z
loop_
_atom_site_type_symbol
_atom_site_label
_atom_site_fract_x
_atom_site_fract_y
_atom_site_fract_z
Si Si1 0.615008 0.684340 0.939212
Si Si2 0.603222 0.417248 0.425558
Si Si3 0.278216 0.078940 0.344362
Si Si4 0.819563 0.805840 0.952574
Si Si5 0.027720 0.661921 0.356131
Si Si6 0.941437 0.825110 0.616031
O O1 0.501372 0.626340 0.771043
O O2 0.654307 0.750870 0.864970
O O3 0.500000 0.702024 0.000000
O O4 0.825447 0.661340 0.136677
O O5 0.500000 0.405923 0.500000
O O6 0.600880 0.500000 0.390890
O O7 0.815312 0.389426 0.591408
O O8 0.500000 0.073483 0.500000
O O9 0.225009 0.127926 0.175628
O O10 0.212391 0.122052 0.433940
O O11 0.196945 0.000000 0.281637
O O12 0.000000 0.771209 0.000000
O O13 0.887544 0.831328 0.152931
O O14 0.107797 0.742104 0.409124
O O15 0.000000 0.644702 0.500000
O O16 0.000000 0.840088 0.500000
#
# Coordination Sequence:
#
# PCOD9153228 Si02
#       6
#     4   4   4   4   4   4
#     4  11  23  40  65  94 120 159 209 254 303 364
#     4  11  27  43  61  92 124 165 203 247 317 366
#     4  10  22  37  56  87 120 158 198 241 299 359
#     4   9  21  37  60  89 115 157 199 248 300 355
#     4  10  21  41  63  92 123 158 207 257 302 362
#     4   9  20  36  59  87 114 153 201 244 299 350
#
# _framework density 18.601126000000001
#
# number of rings (size 3 to 8) (size 9 to 14) (size 15 to 20)
#    0.000    2.000    1.667    0.000    9.333    4.667 
#    0.000    1.667    0.000    2.500    0.000    0.000 
#    0.000    0.000    0.000    0.000    0.000    0.000 
#
# Total GULP energy -133882.924415 kJ/mol
# GULP energy per Si atom -5578.455184 kJ/mol
# Density = 1.855879 g / cm^3
# Si number density = 18.601126 Si / 1000 Ang^3
#
#
#
# Elastic Constant Matrix: (Units=GPa)
#
#
# Indices 1 2 3 4 5 6 
#
# 1 119.6776 82.5200 38.8191 0.0000 -7.9767 0.0000
# 2 82.5200 84.3942 20.3948 0.0000 -3.0233 0.0000
# 3 38.8191 20.3948 57.3008 0.0000 -8.4154 0.0000
# 4 0.0000 0.0000 0.0000 20.9669 0.0000 5.6545
# 5 -7.9767 -3.0233 -8.4154 0.0000 37.2504 0.0000
# 6 0.0000 0.0000 0.0000 5.6545 0.0000 9.8851
#
#
#
# Elastic Compliance Matrix: (Units=1/GPa)
#
#
# Indices 1 2 3 4 5 6 
#
# 1 0.031206 -0.027794 -0.010962 0.000000 0.001950 0.000000
# 2 -0.027794 0.037719 0.005150 0.000000 -0.001727 0.000000
# 3 -0.010962 0.005150 0.023543 0.000000 0.003389 0.000000
# 4 0.000000 0.000000 0.000000 0.056394 0.000000 -0.032259
# 5 0.001950 -0.001727 0.003389 0.000000 0.027889 0.000000
# 6 0.000000 0.000000 0.000000 -0.032259 0.000000 0.119615
#
#
# Mechanical properties :
#
#
# Convention : Reuss Voigt Hill
#
# Bulk Modulus (GPa) = 39.59267 60.53781 50.06524
# Shear Modulus (GPa) = 13.44105 21.59639 17.51872
#
# Velocity S-wave (km/s) = 2.69103 3.41108 3.07222
# Velocity P-wave (km/s) = 5.56658 6.93757 6.28954
#
# Compressibility (1/GPa) = 0.02525720
#
# Stress axis : x y z
#
# Youngs Moduli (GPa) = 32.04523 26.51154 42.47627
#
# Poissons Ratio (x) = 0.73686 0.46562
# Poissons Ratio (y) = 0.89067 -0.21877
# Poissons Ratio (z) = 0.35127 -0.13655
#
# Static dielectric constant tensor:
#      x y z
#    x 1.649730 0.000000 0.015990 
#    y 0.000000 1.661340 0.000000 
#    z 0.015990 0.000000 1.654830 
# 
# From -- ./inp_files/20255.got.cif
#   From: 2010.05.17/outbox.cif.g08.bks.cpg/sg10_11_cif.got.tgz:20255.got - 2010.06.03 11:33:40.
