data_PCOD9153364
_publ_section_title
;
Structure prediction by ZEFSAII (Michael W. Deem and Ramdas Pophale) SiO2 
 PCOD9153364
Probable space group: P 2/M
;
_chemical_formula_sum "Si O2"
_cell_formula_units_Z 24
_cell_length_a 18.089829
_cell_length_b 11.056091
_cell_length_c 11.925226
_cell_angle_alpha 90.000000
_cell_angle_beta 148.990728
_cell_angle_gamma 90.000000
_cell_volume 1228.737084
_symmetry_space_group_name_H-M "P 2/M"
_symmetry_group_IT_number 10
_symmetry_cell_setting 'monoclinic'
loop_
_space_group_symop_operation_xyz
x,y,z
-x,y,-z
-x,-y,-z
x,-y,z
loop_
_atom_site_type_symbol
_atom_site_label
_atom_site_fract_x
_atom_site_fract_y
_atom_site_fract_z
Si Si1 0.164759 0.500000 0.341550
Si Si2 0.730017 0.000000 0.836171
Si Si3 0.819117 0.500000 0.887540
Si Si4 0.558091 0.000000 0.389730
Si Si5 0.577732 0.822394 0.211567
Si Si6 0.841675 0.295860 0.489152
Si Si7 0.340351 0.640470 0.962870
Si Si8 0.177439 0.261744 0.961494
O O1 0.234644 0.500000 0.310254
O O2 0.195975 0.385061 0.457876
O O3 0.992076 0.500000 0.105723
O O4 0.682855 0.000000 0.644815
O O5 0.587702 0.000000 0.728574
O O6 0.805749 0.871869 0.963677
O O7 0.783977 0.374512 0.905626
O O8 0.563809 0.889391 0.310862
O O9 0.743931 0.818090 0.392708
O O10 0.500000 0.873750 0.000000
O O11 0.490219 0.696755 0.116168
O O12 0.775569 0.347122 0.288389
O O13 0.011581 0.278241 0.708252
O O14 0.354072 0.500000 0.011372
O O15 0.278617 0.718021 0.985728
#
# Coordination Sequence:
#
# PCOD9153364 Si02
#       8
#     2   2   2   2   4   4   4   4
#     4   9  18  35  55  88 132 161 193 246 325 372
#     4  11  26  43  67  88 130 166 214 259 314 372
#     4   9  20  35  62  86 127 167 200 250 312 377
#     4  11  23  47  66  83 120 176 213 248 320 380
#     4  10  23  40  64  91 122 164 208 261 310 375
#     4  10  22  36  63  95 127 160 204 263 321 364
#     4  11  21  38  64  96 128 164 211 258 310 377
#     4  11  22  42  62  96 125 168 210 263 311 370
#
# _framework density 19.532250000000001
#
# number of rings (size 3 to 8) (size 9 to 14) (size 15 to 20)
#    0.000    1.667    3.333    0.750    3.500    2.333 
#    0.000    3.333    0.000    3.000    0.000    0.000 
#    0.000    0.000    0.000    0.000    0.000    0.000 
#
# Total GULP energy -133755.696649 kJ/mol
# GULP energy per Si atom -5573.154027 kJ/mol
# Density = 1.948779 g / cm^3
# Si number density = 19.532250 Si / 1000 Ang^3
#
#
#
# Elastic Constant Matrix: (Units=GPa)
#
#
# Indices 1 2 3 4 5 6 
#
# 1 94.4927 22.1738 25.1553 0.0000 -17.1946 0.0000
# 2 22.1738 111.0851 32.5531 0.0000 -11.1482 0.0000
# 3 25.1553 32.5531 53.0285 0.0000 -9.5522 0.0000
# 4 0.0000 0.0000 0.0000 56.8736 0.0000 14.9125
# 5 -17.1946 -11.1482 -9.5522 0.0000 42.3948 0.0000
# 6 0.0000 0.0000 0.0000 14.9125 0.0000 23.2799
#
#
#
# Elastic Compliance Matrix: (Units=1/GPa)
#
#
# Indices 1 2 3 4 5 6 
#
# 1 0.012766 -0.000718 -0.004916 0.000000 0.003881 0.000000
# 2 -0.000718 0.011101 -0.006254 0.000000 0.001219 0.000000
# 3 -0.004916 -0.006254 0.025405 0.000000 0.002086 0.000000
# 4 0.000000 0.000000 0.000000 0.021132 0.000000 -0.013537
# 5 0.003881 0.001219 0.002086 0.000000 0.025952 0.000000
# 6 0.000000 0.000000 0.000000 -0.013537 0.000000 0.051627
#
#
# Mechanical properties :
#
#
# Convention : Reuss Voigt Hill
#
# Bulk Modulus (GPa) = 39.22342 46.48563 42.85452
# Shear Modulus (GPa) = 27.73801 36.42460 32.08130
#
# Velocity S-wave (km/s) = 3.77253 4.32307 4.05715
# Velocity P-wave (km/s) = 6.25307 6.98353 6.62837
#
# Compressibility (1/GPa) = 0.02549497
#
# Stress axis : x y z
#
# Youngs Moduli (GPa) = 78.33101 90.08580 39.36261
#
# Poissons Ratio (x) = 0.06470 0.19351
# Poissons Ratio (y) = 0.05626 0.24618
# Poissons Ratio (z) = 0.38507 0.56341
#
# Static dielectric constant tensor:
#      x y z
#    x 1.661150 0.000000 -0.012850 
#    y 0.000000 1.759300 0.000000 
#    z -0.012850 0.000000 1.673980 
# 
# From -- ./inp_files/53762.got.cif
#   From: 2010.05.17/outbox.cif.g08.bks.cpg/sg10_27_cif.got.tgz:53762.got - 2010.06.03 11:33:40.
