data_PCOD9153157
_publ_section_title
;
Structure prediction by ZEFSAII (Michael W. Deem and Ramdas Pophale) SiO2 
 PCOD9153157
Probable space group: P 2/M
;
_chemical_formula_sum "Si O2"
_cell_formula_units_Z 19
_cell_length_a 5.264610
_cell_length_b 7.854265
_cell_length_c 19.291830
_cell_angle_alpha 90.000000
_cell_angle_beta 81.155921
_cell_angle_gamma 90.000000
_cell_volume 788.225804
_symmetry_space_group_name_H-M "P 2/M"
_symmetry_group_IT_number 10
_symmetry_cell_setting 'monoclinic'
loop_
_space_group_symop_operation_xyz
x,y,z
-x,y,-z
-x,-y,-z
x,-y,z
loop_
_atom_site_type_symbol
_atom_site_label
_atom_site_fract_x
_atom_site_fract_y
_atom_site_fract_z
Si Si1 0.500000 0.000000 0.000000
Si Si2 0.214684 0.500000 0.548519
Si Si3 0.287275 0.204833 0.297795
Si Si4 0.235123 0.307512 0.936105
Si Si5 0.427410 0.186174 0.583693
Si Si6 0.155023 0.206503 0.786131
O O1 0.575175 0.152567 0.053219
O O2 0.500000 0.500000 0.500000
O O3 0.215849 0.330937 0.593718
O O4 0.000000 0.500000 0.500000
O O5 0.338281 0.241876 0.377155
O O6 0.059145 0.269403 0.259075
O O7 0.560895 0.252026 0.252490
O O8 0.262794 0.000000 0.296869
O O9 0.342435 0.500000 0.936448
O O10 0.124477 0.279512 0.864009
O O11 0.000000 0.290941 0.000000
O O12 0.500000 0.168134 0.500000
O O13 0.335031 0.000000 0.611554
O O14 0.140490 0.000000 0.791367
#
# Coordination Sequence:
#
# PCOD9153157 Si02
#       6
#     1   2   4   4   4   4
#     4  12  24  44  76 100 136 184 222 278 350 406
#     4  10  22  38  58  90 122 158 207 267 322 386
#     4   9  20  37  62  93 127 173 223 271 332 401
#     4  11  26  44  68 104 136 176 231 284 335 412
#     4   9  19  39  65  93 128 172 220 275 334 394
#     4  10  21  40  64  91 134 176 218 272 335 399
#
# _framework density 24.104766999999999
#
# number of rings (size 3 to 8) (size 9 to 14) (size 15 to 20)
#    0.000    2.105    1.053    0.632    2.947    3.789 
#    3.789    6.316    0.000    0.000    0.000    0.000 
#    0.000    0.000    0.000    0.000    0.000    0.000 
#
# Total GULP energy -105911.485670 kJ/mol
# GULP energy per Si atom -5574.288719 kJ/mol
# Density = 2.404990 g / cm^3
# Si number density = 24.104767 Si / 1000 Ang^3
#
#
#
# Elastic Constant Matrix: (Units=GPa)
#
#
# Indices 1 2 3 4 5 6 
#
# 1 128.2518 35.4156 79.1443 0.0000 40.5774 0.0000
# 2 35.4156 166.3333 28.2313 0.0000 28.5112 0.0000
# 3 79.1443 28.2313 222.1597 0.0000 36.8670 0.0000
# 4 0.0000 0.0000 0.0000 103.3867 0.0000 82.9961
# 5 40.5774 28.5112 36.8670 0.0000 51.2822 0.0000
# 6 0.0000 0.0000 0.0000 82.9961 0.0000 58.3081
#
#
#
# Elastic Compliance Matrix: (Units=1/GPa)
#
#
# Indices 1 2 3 4 5 6 
#
# 1 0.012108 -0.000877 -0.003058 0.000000 -0.006894 0.000000
# 2 -0.000877 0.006722 -0.000042 0.000000 -0.003013 0.000000
# 3 -0.003058 -0.000042 0.005894 0.000000 -0.001794 0.000000
# 4 0.000000 0.000000 0.000000 -0.067795 0.000000 0.096500
# 5 -0.006894 -0.003013 -0.001794 0.000000 0.027920 0.000000
# 6 0.000000 0.000000 0.000000 0.096500 0.000000 -0.120208
#
#
# Mechanical properties :
#
#
# Convention : Reuss Voigt Hill
#
# Bulk Modulus (GPa) = 59.62910 89.14746 74.38828
# Shear Modulus (GPa) = -41.04557 67.52564 13.24004
#
# Velocity S-wave (km/s) = -4.13097 5.29851 2.34619
# Velocity P-wave (km/s) = 1.42755 8.63110 6.18602
#
# Compressibility (1/GPa) = 0.01677033
#
# Stress axis : x y z
#
# Youngs Moduli (GPa) = 82.59261 148.75648 169.67400
#
# Poissons Ratio (x) = 0.13049 0.51882
# Poissons Ratio (y) = 0.07245 0.00707
# Poissons Ratio (z) = 0.25255 0.00620
#
# Static dielectric constant tensor:
#      x y z
#    x 1.998650 0.000000 -0.084330 
#    y 0.000000 3.242740 0.000000 
#    z -0.084330 0.000000 1.984640 
# 
# From -- ./inp_files/72935.got.cif
#   From: 2010.05.17/outbox.cif.g08.bks.cpg/sg10_37_cif.got.tgz:72935.got - 2010.06.03 11:33:40.
