data_PCOD9153687
_publ_section_title
;
Structure prediction by ZEFSAII (Michael W. Deem and Ramdas Pophale) SiO2 
 PCOD9153687
Probable space group: P 2/M
;
_chemical_formula_sum "Si O2"
_cell_formula_units_Z 28
_cell_length_a 30.258763
_cell_length_b 7.913070
_cell_length_c 9.730661
_cell_angle_alpha 90.000000
_cell_angle_beta 37.422457
_cell_angle_gamma 90.000000
_cell_volume 1415.854359
_symmetry_space_group_name_H-M "P 2/M"
_symmetry_group_IT_number 10
_symmetry_cell_setting 'monoclinic'
loop_
_space_group_symop_operation_xyz
x,y,z
-x,y,-z
-x,-y,-z
x,-y,z
loop_
_atom_site_type_symbol
_atom_site_label
_atom_site_fract_x
_atom_site_fract_y
_atom_site_fract_z
Si Si1 0.074332 0.000000 0.732186
Si Si2 0.815838 0.696960 0.538849
Si Si3 0.336737 0.305267 0.226339
Si Si4 0.926327 0.000000 0.596315
Si Si5 0.428470 0.806860 0.749662
Si Si6 0.573475 0.805966 0.750042
Si Si7 0.181449 0.305051 0.137690
Si Si8 0.341521 0.305732 0.718382
O O1 0.122107 0.166948 0.647250
O O2 0.060777 0.000000 0.600643
O O3 0.000000 0.000000 0.000000
O O4 0.833412 0.500000 0.462351
O O5 0.740632 0.742955 0.648502
O O6 0.805295 0.703900 0.730041
O O7 0.331798 0.500000 0.281793
O O8 0.364400 0.201770 0.287729
O O9 0.397076 0.286768 0.958338
O O10 0.878921 0.166868 0.746719
O O11 0.000000 0.000000 0.500000
O O12 0.500000 0.733187 0.500000
O O13 0.367801 0.803383 0.781309
O O14 0.444807 0.000000 0.750121
O O15 0.602699 0.714083 0.543684
O O16 0.558524 0.000000 0.748075
O O17 0.500000 0.735025 0.000000
O O18 0.161609 0.500000 0.154050
O O19 0.259342 0.263212 0.878116
O O20 0.339770 0.500000 0.770514
#
# Coordination Sequence:
#
# PCOD9153687 Si02
#       8
#     2   4   4   2   4   4   4   4
#     4  10  22  40  64  92 121 156 190 228 291 356
#     4   9  19  37  62  91 120 154 196 242 292 350
#     4  11  22  38  60  85 114 155 205 249 298 355
#     4  10  22  40  64  92 121 156 190 228 291 356
#     4  11  23  35  55  87 119 152 197 252 300 348
#     4  11  25  41  55  79 119 164 203 250 310 360
#     4   9  19  37  62  91 120 154 196 242 292 350
#     4  11  22  38  60  85 114 155 205 249 298 355
#
# _framework density 19.776043999999999
#
# number of rings (size 3 to 8) (size 9 to 14) (size 15 to 20)
#    0.000    1.714    1.429    2.571    4.000    6.286 
#    2.571    0.000    0.000    0.000    0.000    0.000 
#    0.000    0.000    0.000    0.000    0.000    0.000 
#
# Total GULP energy -156414.964510 kJ/mol
# GULP energy per Si atom -5586.248732 kJ/mol
# Density = 1.973103 g / cm^3
# Si number density = 19.776044 Si / 1000 Ang^3
#
#
#
# Elastic Constant Matrix: (Units=GPa)
#
#
# Indices 1 2 3 4 5 6 
#
# 1 73.6839 26.9979 0.7207 0.0000 -13.9682 0.0000
# 2 26.9979 69.1548 32.5494 0.0000 -17.0210 0.0000
# 3 0.7207 32.5494 87.5984 0.0000 -14.5204 0.0000
# 4 0.0000 0.0000 0.0000 25.6108 0.0000 -26.3276
# 5 -13.9682 -17.0210 -14.5204 0.0000 28.5329 0.0000
# 6 0.0000 0.0000 0.0000 -26.3276 0.0000 -309.9585
#
#
#
# Elastic Compliance Matrix: (Units=1/GPa)
#
#
# Indices 1 2 3 4 5 6 
#
# 1 0.017187 -0.006813 0.003398 0.000000 0.006079 0.000000
# 2 -0.006813 0.021973 -0.007086 0.000000 0.006166 0.000000
# 3 0.003398 -0.007086 0.014848 0.000000 0.004992 0.000000
# 4 0.000000 0.000000 0.000000 0.035910 0.000000 -0.003050
# 5 0.006079 0.006166 0.004992 0.000000 0.044242 0.000000
# 6 0.000000 0.000000 0.000000 -0.003050 0.000000 -0.002967
#
#
# Mechanical properties :
#
#
# Convention : Reuss Voigt Hill
#
# Bulk Modulus (GPa) = 30.29815 38.99701 34.64758
# Shear Modulus (GPa) = 30.63751 -39.81834 -4.59042
#
# Velocity S-wave (km/s) = 3.94029 -4.49203 -1.52520
# Velocity P-wave (km/s) = 6.00459 2.67251 3.80215
#
# Compressibility (1/GPa) = 0.03300531
#
# Stress axis : x y z
#
# Youngs Moduli (GPa) = 58.18425 45.51021 67.34703
#
# Poissons Ratio (x) = 0.31005 -0.22882
# Poissons Ratio (y) = 0.39639 0.47725
# Poissons Ratio (z) = -0.19769 0.32251
#
# Static dielectric constant tensor:
#      x y z
#    x 1.682110 0.000000 -0.010590 
#    y 0.000000 1.679910 0.000000 
#    z -0.010590 0.000000 1.688080 
# 
# From -- ./inp_files/37156.got.cif
#   From: 2010.05.17/outbox.cif.g08.bks.cpg/sg10_19_cif.got.tgz:37156.got - 2010.06.03 11:33:40.
