data_PCOD9153872
_publ_section_title
;
Structure prediction by ZEFSAII (Michael W. Deem and Ramdas Pophale) SiO2 
 PCOD9153872
Probable space group: P 2/M
;
_chemical_formula_sum "Si O2"
_cell_formula_units_Z 22
_cell_length_a 11.838583
_cell_length_b 14.125966
_cell_length_c 11.204086
_cell_angle_alpha 90.000000
_cell_angle_beta 141.685169
_cell_angle_gamma 90.000000
_cell_volume 1161.645193
_symmetry_space_group_name_H-M "P 2/M"
_symmetry_group_IT_number 10
_symmetry_cell_setting 'monoclinic'
loop_
_space_group_symop_operation_xyz
x,y,z
-x,y,-z
-x,-y,-z
x,-y,z
loop_
_atom_site_type_symbol
_atom_site_label
_atom_site_fract_x
_atom_site_fract_y
_atom_site_fract_z
Si Si1 0.212963 0.500000 0.516676
Si Si2 0.298982 0.000000 0.224767
Si Si3 0.006546 0.180704 0.368150
Si Si4 0.500000 0.170807 0.500000
Si Si5 0.361442 0.706136 0.992071
Si Si6 0.343974 0.703245 0.565777
Si Si7 0.021839 0.000000 0.217175
Si Si8 0.778334 0.500000 0.189045
O O1 0.297998 0.592337 0.525414
O O2 0.250963 0.500000 0.691402
O O3 0.992579 0.500000 0.332869
O O4 0.413335 0.903631 0.334087
O O5 0.165159 0.000000 0.228288
O O6 0.177890 0.000000 0.007066
O O7 0.820662 0.232233 0.173709
O O8 0.000000 0.150343 0.500000
O O9 0.173434 0.253072 0.494880
O O10 0.044731 0.092338 0.315586
O O11 0.635383 0.240298 0.541050
O O12 0.308184 0.596011 0.932462
O O13 0.500000 0.730779 0.000000
O O14 0.471383 0.718416 0.205840
#
# Coordination Sequence:
#
# PCOD9153872 Si02
#       8
#     2   2   4   2   4   4   2   2
#     4  11  21  37  64  94 131 168 207 252 311 378
#     4  10  22  44  71  89 117 164 231 259 295 388
#     4  12  23  41  62  97 135 163 203 262 330 376
#     4  11  24  45  68  92 120 169 218 265 308 372
#     4  12  22  37  63  96 128 167 213 251 307 372
#     4  12  24  41  65  93 131 170 210 261 310 371
#     4  11  23  42  66  95 123 165 208 268 323 369
#     4  11  20  37  63  97 127 171 211 247 302 383
#
# _framework density 18.938656999999999
#
# number of rings (size 3 to 8) (size 9 to 14) (size 15 to 20)
#    0.000    0.545    7.273    2.182    0.000    0.364 
#    0.000    0.455    0.000    1.091    0.000    0.000 
#    0.000    0.000    0.000    0.000    0.000    0.000 
#
# Total GULP energy -122944.144526 kJ/mol
# GULP energy per Si atom -5588.370206 kJ/mol
# Density = 1.889555 g / cm^3
# Si number density = 18.938657 Si / 1000 Ang^3
#
#
#
# Elastic Constant Matrix: (Units=GPa)
#
#
# Indices 1 2 3 4 5 6 
#
# 1 46.2433 20.1945 -2.4631 0.0000 2.1313 0.0000
# 2 20.1945 125.9293 27.6944 0.0000 -3.5286 0.0000
# 3 -2.4631 27.6944 81.7460 0.0000 13.1721 0.0000
# 4 0.0000 0.0000 0.0000 17.9712 0.0000 2.1994
# 5 2.1313 -3.5286 13.1721 0.0000 24.8277 0.0000
# 6 0.0000 0.0000 0.0000 2.1994 0.0000 23.6166
#
#
#
# Elastic Compliance Matrix: (Units=1/GPa)
#
#
# Indices 1 2 3 4 5 6 
#
# 1 0.024002 -0.004626 0.002983 0.000000 -0.004301 0.000000
# 2 -0.004626 0.009684 -0.004052 0.000000 0.003923 0.000000
# 3 0.002983 -0.004052 0.015123 0.000000 -0.008855 0.000000
# 4 0.000000 0.000000 0.000000 0.056286 0.000000 -0.005242
# 5 -0.004301 0.003923 -0.008855 0.000000 0.045902 0.000000
# 6 0.000000 0.000000 0.000000 -0.005242 0.000000 0.042831
#
#
# Mechanical properties :
#
#
# Convention : Reuss Voigt Hill
#
# Bulk Modulus (GPa) = 26.72435 38.30780 32.51607
# Shear Modulus (GPa) = 22.96836 27.18260 25.07548
#
# Velocity S-wave (km/s) = 3.48627 3.79264 3.64268
# Velocity P-wave (km/s) = 5.50882 6.28093 5.90750
#
# Compressibility (1/GPa) = 0.03741906
#
# Stress axis : x y z
#
# Youngs Moduli (GPa) = 41.66340 103.26459 66.12600
#
# Poissons Ratio (x) = 0.47766 -0.19727
# Poissons Ratio (y) = 0.19272 0.26796
# Poissons Ratio (z) = -0.12429 0.41846
#
# Static dielectric constant tensor:
#      x y z
#    x 1.638630 0.000000 0.013950 
#    y 0.000000 1.634460 0.000000 
#    z 0.013950 0.000000 1.674410 
# 
# From -- ./inp_files/46925.got.cif
#   From: 2010.05.17/outbox.cif.g08.bks.cpg/sg10_24_cif.got.tgz:46925.got - 2010.06.03 11:33:40.
