data_PCOD9153410
_publ_section_title
;
Structure prediction by ZEFSAII (Michael W. Deem and Ramdas Pophale) SiO2 
 PCOD9153410
Probable space group: P 2/M
;
_chemical_formula_sum "Si O2"
_cell_formula_units_Z 24
_cell_length_a 14.176150
_cell_length_b 13.999745
_cell_length_c 15.604870
_cell_angle_alpha 90.000000
_cell_angle_beta 27.466860
_cell_angle_gamma 90.000000
_cell_volume 1428.437669
_symmetry_space_group_name_H-M "P 2/M"
_symmetry_group_IT_number 10
_symmetry_cell_setting 'monoclinic'
loop_
_space_group_symop_operation_xyz
x,y,z
-x,y,-z
-x,-y,-z
x,-y,z
loop_
_atom_site_type_symbol
_atom_site_label
_atom_site_fract_x
_atom_site_fract_y
_atom_site_fract_z
Si Si1 0.794361 0.390124 0.779084
Si Si2 0.644332 0.192233 0.962189
Si Si3 0.863621 0.886773 0.025847
Si Si4 0.468051 0.791575 0.285764
Si Si5 0.939894 0.112354 0.316001
Si Si6 0.277752 0.391090 0.365417
O O1 0.737438 0.500000 0.846704
O O2 0.695971 0.305601 0.913147
O O3 0.734345 0.373282 0.727622
O O4 0.040326 0.382641 0.585805
O O5 0.863683 0.141421 0.785901
O O6 0.500000 0.166265 0.000000
O O7 0.528952 0.167692 0.143042
O O8 0.662541 0.820719 0.186074
O O9 0.805116 0.000000 0.068573
O O10 0.000000 0.873279 0.000000
O O11 0.994394 0.864928 0.834822
O O12 0.262583 0.835077 0.489996
O O13 0.416738 0.681821 0.305628
O O14 0.904902 0.000000 0.349688
O O15 0.342868 0.500000 0.325045
#
# Coordination Sequence:
#
# PCOD9153410 Si02
#       6
#     4   4   4   4   4   4
#     4   9  17  31  50  75 107 144 185 225 260 294
#     4  11  21  32  51  75 109 148 183 218 252 304
#     4   9  20  39  61  85 105 125 167 224 277 329
#     4  11  20  33  56  79 108 140 178 216 268 314
#     4  10  22  38  54  76 107 139 175 218 264 317
#     4   9  17  30  52  77 106 143 183 222 259 304
#
# _framework density 16.801572
#
# number of rings (size 3 to 8) (size 9 to 14) (size 15 to 20)
#    0.000    2.167    3.333    1.500    0.000    3.333 
#    0.000    3.333    0.000    0.500    0.000    1.167 
#    0.000    0.000    0.000    0.000    0.000    0.000 
#
# Total GULP energy -133853.544709 kJ/mol
# GULP energy per Si atom -5577.231030 kJ/mol
# Density = 1.676333 g / cm^3
# Si number density = 16.801572 Si / 1000 Ang^3
#
#
#
# Elastic Constant Matrix: (Units=GPa)
#
#
# Indices 1 2 3 4 5 6 
#
# 1 86.7347 39.0865 39.6390 0.0000 -20.2287 0.0000
# 2 39.0865 71.6639 46.2777 0.0000 -10.1661 0.0000
# 3 39.6390 46.2777 104.8681 0.0000 -9.2829 0.0000
# 4 0.0000 0.0000 0.0000 11.5175 0.0000 -11.9617
# 5 -20.2287 -10.1661 -9.2829 0.0000 18.8267 0.0000
# 6 0.0000 0.0000 0.0000 -11.9617 0.0000 19.5234
#
#
#
# Elastic Compliance Matrix: (Units=1/GPa)
#
#
# Indices 1 2 3 4 5 6 
#
# 1 0.019589 -0.006354 -0.003180 0.000000 0.016049 0.000000
# 2 -0.006354 0.022388 -0.007332 0.000000 0.001647 0.000000
# 3 -0.003180 -0.007332 0.013928 0.000000 -0.000508 0.000000
# 4 0.000000 0.000000 0.000000 0.238735 0.000000 0.146270
# 5 0.016049 0.001647 -0.000508 0.000000 0.070999 0.000000
# 6 0.000000 0.000000 0.000000 0.146270 0.000000 0.140838
#
#
# Mechanical properties :
#
#
# Convention : Reuss Voigt Hill
#
# Bulk Modulus (GPa) = 45.09916 57.03033 51.06475
# Shear Modulus (GPa) = 9.13075 19.19110 14.16093
#
# Velocity S-wave (km/s) = 2.33372 3.38334 2.90631
# Velocity P-wave (km/s) = 5.84484 7.01996 6.45918
#
# Compressibility (1/GPa) = 0.02217336
#
# Stress axis : x y z
#
# Youngs Moduli (GPa) = 51.04902 44.66663 71.79585
#
# Poissons Ratio (x) = 0.28382 0.22829
# Poissons Ratio (y) = 0.32437 0.52642
# Poissons Ratio (z) = 0.16232 0.32750
#
# Static dielectric constant tensor:
#      x y z
#    x 1.542550 0.000000 0.005180 
#    y 0.000000 1.579230 0.000000 
#    z 0.005180 0.000000 1.603820 
# 
# From -- ./inp_files/51521.got.cif
#   From: 2010.05.17/outbox.cif.g08.bks.cpg/sg10_26_cif.got.tgz:51521.got - 2010.06.03 11:33:40.
