data_PCOD9153905
_publ_section_title
;
Structure prediction by ZEFSAII (Michael W. Deem and Ramdas Pophale) SiO2 
 PCOD9153905
Probable space group: P 2/M
;
_chemical_formula_sum "Si O2"
_cell_formula_units_Z 28
_cell_length_a 22.343139
_cell_length_b 8.789898
_cell_length_c 15.056829
_cell_angle_alpha 90.000000
_cell_angle_beta 30.900047
_cell_angle_gamma 90.000000
_cell_volume 1518.579287
_symmetry_space_group_name_H-M "P 2/M"
_symmetry_group_IT_number 10
_symmetry_cell_setting 'monoclinic'
loop_
_space_group_symop_operation_xyz
x,y,z
-x,y,-z
-x,-y,-z
x,-y,z
loop_
_atom_site_type_symbol
_atom_site_label
_atom_site_fract_x
_atom_site_fract_y
_atom_site_fract_z
Si Si1 0.803714 0.817886 0.958840
Si Si2 0.119792 0.316208 0.960480
Si Si3 0.365704 0.682470 0.329209
Si Si4 0.144801 0.684581 0.725512
Si Si5 0.276904 0.181960 0.265934
Si Si6 0.977050 0.320130 0.424188
Si Si7 0.607863 0.816812 0.069599
O O1 0.690562 0.771915 0.045973
O O2 0.917505 0.753053 0.764329
O O3 0.809661 0.000000 0.951039
O O4 0.806081 0.755706 0.055518
O O5 0.124594 0.500000 0.960222
O O6 0.156558 0.271417 0.813915
O O7 0.983693 0.269054 0.143713
O O8 0.364500 0.500000 0.325887
O O9 0.251288 0.735341 0.529183
O O10 0.356213 0.750898 0.242880
O O11 0.482660 0.738998 0.227207
O O12 0.144322 0.500000 0.724843
O O13 0.146961 0.247351 0.441225
O O14 0.326221 0.223405 0.106177
O O15 0.274455 0.000000 0.275387
O O16 0.972815 0.500000 0.410862
O O17 0.000000 0.297885 0.500000
O O18 0.593831 0.000000 0.088629
#
# Coordination Sequence:
#
# PCOD9153905 Si02
#       7
#     4   4   4   4   4   4   4
#     4  11  22  37  56  81 114 150 186 226 277 333
#     4   9  17  35  62  85 109 142 178 223 280 339
#     4  11  22  36  57  84 111 142 189 240 279 323
#     4   8  17  35  58  84 112 140 174 224 286 337
#     4  11  22  38  58  79 110 152 189 226 278 334
#     4  11  22  35  55  83 113 142 181 229 273 322
#     4  10  23  40  54  73 110 156 192 223 272 336
#
# _framework density 18.438286000000002
#
# number of rings (size 3 to 8) (size 9 to 14) (size 15 to 20)
#    0.000    1.857    1.429    3.857    0.000    5.714 
#    0.000    4.286    0.000    4.286    0.000    0.000 
#    0.000    0.000    0.000    0.000    0.000    0.000 
#
# Total GULP energy -156437.674318 kJ/mol
# GULP energy per Si atom -5587.059797 kJ/mol
# Density = 1.839632 g / cm^3
# Si number density = 18.438286 Si / 1000 Ang^3
#
#
#
# Elastic Constant Matrix: (Units=GPa)
#
#
# Indices 1 2 3 4 5 6 
#
# 1 150.2643 39.0554 47.1614 0.0000 -2.9337 0.0000
# 2 39.0554 30.3370 16.4048 0.0000 0.5885 0.0000
# 3 47.1614 16.4048 46.1564 0.0000 -9.3877 0.0000
# 4 0.0000 0.0000 0.0000 23.9539 0.0000 -6.0700
# 5 -2.9337 0.5885 -9.3877 0.0000 19.5196 0.0000
# 6 0.0000 0.0000 0.0000 -6.0700 0.0000 31.5797
#
#
#
# Elastic Compliance Matrix: (Units=1/GPa)
#
#
# Indices 1 2 3 4 5 6 
#
# 1 0.012310 -0.010840 -0.009181 0.000000 -0.002238 0.000000
# 2 -0.010840 0.051862 -0.008874 0.000000 -0.007461 0.000000
# 3 -0.009181 -0.008874 0.037657 0.000000 0.016999 0.000000
# 4 0.000000 0.000000 0.000000 0.043884 0.000000 0.008435
# 5 -0.002238 -0.007461 0.016999 0.000000 0.059295 0.000000
# 6 0.000000 0.000000 0.000000 0.008435 0.000000 0.033287
#
#
# Mechanical properties :
#
#
# Convention : Reuss Voigt Hill
#
# Bulk Modulus (GPa) = 22.70670 48.00010 35.35340
# Shear Modulus (GPa) = 16.08935 23.28636 19.68786
#
# Velocity S-wave (km/s) = 2.95719 3.55764 3.27122
# Velocity P-wave (km/s) = 4.89915 6.55477 5.78648
#
# Compressibility (1/GPa) = 0.04403986
#
# Stress axis : x y z
#
# Youngs Moduli (GPa) = 81.23422 19.28206 26.55518
#
# Poissons Ratio (x) = 0.20902 0.24379
# Poissons Ratio (y) = 0.88057 0.23565
# Poissons Ratio (z) = 0.74579 0.17111
#
# Static dielectric constant tensor:
#      x y z
#    x 1.633030 0.000000 0.008260 
#    y 0.000000 1.618410 0.000000 
#    z 0.008260 0.000000 1.618070 
# 
# From -- ./inp_files/49093.got.cif
#   From: 2010.05.17/outbox.cif.g08.bks.cpg/sg10_25_cif.got.tgz:49093.got - 2010.06.03 11:33:40.
