data_PCOD9153680
_publ_section_title
;
Structure prediction by ZEFSAII (Michael W. Deem and Ramdas Pophale) SiO2 
 PCOD9153680
Probable space group: P 2/M
;
_chemical_formula_sum "Si O2"
_cell_formula_units_Z 20
_cell_length_a 13.269634
_cell_length_b 11.126089
_cell_length_c 9.985814
_cell_angle_alpha 90.000000
_cell_angle_beta 31.495679
_cell_angle_gamma 90.000000
_cell_volume 770.223201
_symmetry_space_group_name_H-M "P 2/M"
_symmetry_group_IT_number 10
_symmetry_cell_setting 'monoclinic'
loop_
_space_group_symop_operation_xyz
x,y,z
-x,y,-z
-x,-y,-z
x,-y,z
loop_
_atom_site_type_symbol
_atom_site_label
_atom_site_fract_x
_atom_site_fract_y
_atom_site_fract_z
Si Si1 0.266154 0.373671 0.248161
Si Si2 0.295139 0.125855 0.159077
Si Si3 0.931768 0.138689 0.230150
Si Si4 0.806687 0.367572 0.984411
Si Si5 0.506369 0.814588 0.341728
O O1 0.203563 0.500000 0.385833
O O2 0.197227 0.237378 0.346707
O O3 0.208243 0.381987 0.158729
O O4 0.500000 0.370897 0.000000
O O5 0.197271 0.000000 0.289650
O O6 0.500000 0.120093 0.000000
O O7 0.350458 0.138460 0.938700
O O8 0.704903 0.170216 0.479284
O O9 0.047983 0.259072 0.144394
O O10 0.956679 0.000000 0.256731
O O11 0.000000 0.127811 0.000000
O O12 0.848586 0.500000 0.994807
O O13 0.593773 0.318417 0.262031
O O14 0.500000 0.867416 0.500000
#
# Coordination Sequence:
#
# PCOD9153680 Si02
#       5
#     4   4   4   4   4
#     4   8  15  31  56  83 112 153 202 247 302 373
#     4   9  18  32  55  87 118 152 200 258 315 369
#     4  11  24  40  59  91 129 171 217 266 323 390
#     4  10  22  40  63  94 131 169 211 269 333 384
#     4  11  22  40  63  96 124 170 218 268 322 393
#
# _framework density 25.966498999999999
#
# number of rings (size 3 to 8) (size 9 to 14) (size 15 to 20)
#    0.000    2.200    2.000    0.600    0.000    7.200 
#    0.000    0.000    0.000   19.200    0.000   82.600 
#    0.000    0.000    0.000    0.000    0.000    0.000 
#
# Total GULP energy -111382.426726 kJ/mol
# GULP energy per Si atom -5569.121336 kJ/mol
# Density = 2.590740 g / cm^3
# Si number density = 25.966499 Si / 1000 Ang^3
#
#
#
# Elastic Constant Matrix: (Units=GPa)
#
#
# Indices 1 2 3 4 5 6 
#
# 1 135.0966 54.1747 27.3571 0.0000 -0.5929 0.0000
# 2 54.1747 320.1819 54.5175 0.0000 -22.8074 0.0000
# 3 27.3571 54.5175 92.9924 0.0000 -1.4892 0.0000
# 4 0.0000 0.0000 0.0000 -16.1009 0.0000 13.5906
# 5 -0.5929 -22.8074 -1.4892 0.0000 66.1595 0.0000
# 6 0.0000 0.0000 0.0000 13.5906 0.0000 26.3823
#
#
#
# Elastic Compliance Matrix: (Units=1/GPa)
#
#
# Indices 1 2 3 4 5 6 
#
# 1 0.008204 -0.001112 -0.001767 0.000000 -0.000350 0.000000
# 2 -0.001112 0.003710 -0.001828 0.000000 0.001228 0.000000
# 3 -0.001767 -0.001828 0.012339 0.000000 -0.000368 0.000000
# 4 0.000000 0.000000 0.000000 -0.043286 0.000000 0.022299
# 5 -0.000350 0.001228 -0.000368 0.000000 0.015527 0.000000
# 6 0.000000 0.000000 0.000000 0.022299 0.000000 0.026417
#
#
# Mechanical properties :
#
#
# Convention : Reuss Voigt Hill
#
# Bulk Modulus (GPa) = 67.39143 91.15217 79.27180
# Shear Modulus (GPa) = 134.14398 42.76963 88.45680
#
# Velocity S-wave (km/s) = 7.19531 4.06286 5.84292
# Velocity P-wave (km/s) = 9.74883 7.56235 8.72435
#
# Compressibility (1/GPa) = 0.01483868
#
# Stress axis : x y z
#
# Youngs Moduli (GPa) = 121.88537 269.52917 81.04131
#
# Poissons Ratio (x) = 0.29977 0.14322
# Poissons Ratio (y) = 0.13556 0.14816
# Poissons Ratio (z) = 0.21540 0.49277
#
# Static dielectric constant tensor:
#      x y z
#    x 2.048990 0.000000 0.037000 
#    y 0.000000 2.242150 0.000000 
#    z 0.037000 0.000000 2.104000 
# 
# From -- ./inp_files/50965.got.cif
#   From: 2010.05.17/outbox.cif.g08.bks.cpg/sg10_26_cif.got.tgz:50965.got - 2010.06.03 11:33:40.
