data_PCOD9153442
_publ_section_title
;
Structure prediction by ZEFSAII (Michael W. Deem and Ramdas Pophale) SiO2 
 PCOD9153442
Probable space group: P 2/M
;
_chemical_formula_sum "Si O2"
_cell_formula_units_Z 18
_cell_length_a 25.162520
_cell_length_b 5.708798
_cell_length_c 4.598256
_cell_angle_alpha 90.000000
_cell_angle_beta 86.449429
_cell_angle_gamma 90.000000
_cell_volume 659.261232
_symmetry_space_group_name_H-M "P 2/M"
_symmetry_group_IT_number 10
_symmetry_cell_setting 'monoclinic'
loop_
_space_group_symop_operation_xyz
x,y,z
-x,y,-z
-x,-y,-z
x,-y,z
loop_
_atom_site_type_symbol
_atom_site_label
_atom_site_fract_x
_atom_site_fract_y
_atom_site_fract_z
Si Si1 0.542383 0.000000 0.236944
Si Si2 0.262960 0.250147 0.712884
Si Si3 0.947489 0.250014 0.218624
Si Si4 0.631044 0.749976 0.932806
Si Si5 0.842401 0.250098 0.853241
O O1 0.500000 0.000000 0.500000
O O2 0.582645 0.216695 0.176593
O O3 0.500000 0.000000 0.000000
O O4 0.264749 0.500000 0.548070
O O5 0.313810 0.250226 0.908564
O O6 0.264265 0.000000 0.549441
O O7 0.209408 0.250484 0.923127
O O8 0.947339 0.500000 0.382026
O O9 0.947321 0.000000 0.381972
O O10 0.895255 0.250087 0.033360
O O11 0.000000 0.249994 0.000000
O O12 0.625896 0.500000 0.781421
O O13 0.627995 0.000000 0.764768
O O14 0.841798 0.500000 0.689706
O O15 0.841799 0.000000 0.690313
#
# Coordination Sequence:
#
# PCOD9153442 Si02
#       5
#     2   4   4   4   4
#     4  10  22  38  58  82 110 142 177 216 261 312
#     4   8  12  20  34  52  74 100 134 178 226 274
#     4   8  12  16  20  28  46  74 110 154 202 252
#     4   8  16  30  48  70  96 126 160 202 248 297
#     4   8  12  16  24  38  56  82 118 162 210 260
#
# _framework density 27.303293
#
# number of rings (size 3 to 8) (size 9 to 14) (size 15 to 20)
#    0.667    3.111    0.000    0.000    0.000    0.889 
#    0.000    0.000    0.000    0.000    0.000    0.000 
#    0.000    0.000    0.000    0.000    0.000    0.000 
#
# Total GULP energy -100477.694233 kJ/mol
# GULP energy per Si atom -5582.094124 kJ/mol
# Density = 2.724115 g / cm^3
# Si number density = 27.303293 Si / 1000 Ang^3
#
#
#
# Elastic Constant Matrix: (Units=GPa)
#
#
# Indices 1 2 3 4 5 6 
#
# 1 247.5073 -7.5212 58.0129 0.0000 -34.4403 0.0000
# 2 -7.5212 389.3193 14.9555 0.0000 4.6444 0.0000
# 3 58.0129 14.9555 71.8157 0.0000 -15.5810 0.0000
# 4 0.0000 0.0000 0.0000 -24.1005 0.0000 0.5593
# 5 -34.4403 4.6444 -15.5810 0.0000 59.1116 0.0000
# 6 0.0000 0.0000 0.0000 0.5593 0.0000 35.9001
#
#
#
# Elastic Compliance Matrix: (Units=1/GPa)
#
#
# Indices 1 2 3 4 5 6 
#
# 1 0.005226 0.000224 -0.003830 0.000000 0.002017 0.000000
# 2 0.000224 0.002606 -0.000785 0.000000 -0.000281 0.000000
# 3 -0.003830 -0.000785 0.017725 0.000000 0.002502 0.000000
# 4 0.000000 0.000000 0.000000 -0.041478 0.000000 0.000646
# 5 0.002017 -0.000281 0.002502 0.000000 0.018774 0.000000
# 6 0.000000 0.000000 0.000000 0.000646 0.000000 0.027845
#
#
# Mechanical properties :
#
#
# Convention : Reuss Voigt Hill
#
# Bulk Modulus (GPa) = 59.61250 93.28187 76.44718
# Shear Modulus (GPa) = 110.93503 57.06192 83.99847
#
# Velocity S-wave (km/s) = 6.38113 4.57653 5.55263
# Velocity P-wave (km/s) = 8.72769 7.88451 8.31679
#
# Compressibility (1/GPa) = 0.01677501
#
# Stress axis : x y z
#
# Youngs Moduli (GPa) = 191.36702 383.66919 56.41804
#
# Poissons Ratio (x) = -0.08595 0.21609
# Poissons Ratio (y) = -0.04287 0.04427
# Poissons Ratio (z) = 0.73297 0.30108
#
# Static dielectric constant tensor:
#      x y z
#    x 2.032940 0.000000 -0.006570 
#    y 0.000000 2.250190 0.000000 
#    z -0.006570 0.000000 1.962890 
# 
# From -- ./inp_files/13400.got.cif
#   From: 2010.05.17/outbox.cif.g08.bks.cpg/sg10_7_cif.got.tgz:13400.got - 2010.06.03 11:33:40.
