data_PCOD9153104
_publ_section_title
;
Structure prediction by ZEFSAII (Michael W. Deem and Ramdas Pophale) SiO2 
 PCOD9153104
Probable space group: P 2/M
;
_chemical_formula_sum "Si O2"
_cell_formula_units_Z 26
_cell_length_a 9.511373
_cell_length_b 14.096956
_cell_length_c 21.759403
_cell_angle_alpha 90.000000
_cell_angle_beta 150.958717
_cell_angle_gamma 90.000000
_cell_volume 1416.285488
_symmetry_space_group_name_H-M "P 2/M"
_symmetry_group_IT_number 10
_symmetry_cell_setting 'monoclinic'
loop_
_space_group_symop_operation_xyz
x,y,z
-x,y,-z
-x,-y,-z
x,-y,z
loop_
_atom_site_type_symbol
_atom_site_label
_atom_site_fract_x
_atom_site_fract_y
_atom_site_fract_z
Si Si1 0.284586 0.745571 0.142915
Si Si2 0.256362 0.610434 0.458253
Si Si3 0.500000 0.776443 0.000000
Si Si4 0.243081 0.747408 0.778937
Si Si5 0.229660 0.887599 0.357374
Si Si6 0.050002 0.886889 0.155349
Si Si7 0.344714 0.612486 0.627026
O O1 0.508647 0.772225 0.174713
O O2 0.175377 0.831591 0.144567
O O3 0.455173 0.671717 0.251111
O O4 0.000000 0.705657 0.000000
O O5 0.500000 0.618279 0.500000
O O6 0.167432 0.500000 0.430434
O O7 0.405001 0.637462 0.579298
O O8 0.977194 0.671831 0.334451
O O9 0.370310 0.716428 0.893842
O O10 0.255120 0.841745 0.938899
O O11 0.054137 0.838567 0.724543
O O12 0.500000 0.851541 0.500000
O O13 0.251139 0.870713 0.292592
O O14 0.207854 0.000000 0.357340
O O15 0.023918 0.000000 0.135156
O O16 0.385759 0.500000 0.652947
O O17 0.000000 0.632395 0.500000
#
# Coordination Sequence:
#
# PCOD9153104 Si02
#       7
#     4   4   2   4   4   4   4
#     4  12  25  39  57  93 127 159 203 250 302 360
#     4  10  22  39  64  94 117 152 205 252 299 357
#     4  10  21  40  59  82 114 160 207 242 299 352
#     4  11  22  37  61  85 121 160 198 252 301 360
#     4   9  20  38  60  87 115 152 202 252 309 361
#     4  10  22  39  60  84 118 158 201 245 293 358
#     4  10  22  42  65  87 119 161 204 245 298 367
#
# _framework density 18.357880999999999
#
# number of rings (size 3 to 8) (size 9 to 14) (size 15 to 20)
#    0.000    1.692    3.077    0.692    6.462    1.846 
#    0.000    0.385    0.000    3.231    0.000    0.000 
#    0.000    0.000    0.000    0.000    0.000    0.000 
#
# Total GULP energy -145050.845451 kJ/mol
# GULP energy per Si atom -5578.878671 kJ/mol
# Density = 1.831610 g / cm^3
# Si number density = 18.357881 Si / 1000 Ang^3
#
#
#
# Elastic Constant Matrix: (Units=GPa)
#
#
# Indices 1 2 3 4 5 6 
#
# 1 138.5907 31.3990 50.9841 0.0000 -9.3405 0.0000
# 2 31.3990 62.8778 38.5241 0.0000 -10.6103 0.0000
# 3 50.9841 38.5241 123.5513 0.0000 -21.6537 0.0000
# 4 0.0000 0.0000 0.0000 14.1338 0.0000 -8.2640
# 5 -9.3405 -10.6103 -21.6537 0.0000 32.6779 0.0000
# 6 0.0000 0.0000 0.0000 -8.2640 0.0000 13.2740
#
#
#
# Elastic Compliance Matrix: (Units=1/GPa)
#
#
# Indices 1 2 3 4 5 6 
#
# 1 0.008865 -0.002720 -0.002852 0.000000 -0.000239 0.000000
# 2 -0.002720 0.020695 -0.004853 0.000000 0.002727 0.000000
# 3 -0.002852 -0.004853 0.011727 0.000000 0.005380 0.000000
# 4 0.000000 0.000000 0.000000 0.111249 0.000000 0.069260
# 5 -0.000239 0.002727 0.005380 0.000000 0.034984 0.000000
# 6 0.000000 0.000000 0.000000 0.069260 0.000000 0.118455
#
#
# Mechanical properties :
#
#
# Convention : Reuss Voigt Hill
#
# Bulk Modulus (GPa) = 48.92895 62.98159 55.95527
# Shear Modulus (GPa) = 14.98645 25.62464 20.30555
#
# Velocity S-wave (km/s) = 2.86028 3.74015 3.32941
# Velocity P-wave (km/s) = 6.13343 7.28243 6.73248
#
# Compressibility (1/GPa) = 0.02043780
#
# Stress axis : x y z
#
# Youngs Moduli (GPa) = 112.80674 48.32018 85.27582
#
# Poissons Ratio (x) = 0.13142 0.24320
# Poissons Ratio (y) = 0.30680 0.41382
# Poissons Ratio (z) = 0.32172 0.23449
#
# Static dielectric constant tensor:
#      x y z
#    x 1.655290 0.000000 -0.019730 
#    y 0.000000 1.608680 0.000000 
#    z -0.019730 0.000000 1.673430 
# 
# From -- ./inp_files/82860.got.cif
#   From: 2010.05.17/outbox.cif.g08.bks.cpg/sg10_42_cif.got.tgz:82860.got - 2010.06.03 11:33:40.
