data_PCOD9153416
_publ_section_title
;
Structure prediction by ZEFSAII (Michael W. Deem and Ramdas Pophale) SiO2 
 PCOD9153416
Probable space group: P 2/M
;
_chemical_formula_sum "Si O2"
_cell_formula_units_Z 28
_cell_length_a 16.518161
_cell_length_b 11.426230
_cell_length_c 9.621728
_cell_angle_alpha 90.000000
_cell_angle_beta 120.037109
_cell_angle_gamma 90.000000
_cell_volume 1572.120549
_symmetry_space_group_name_H-M "P 2/M"
_symmetry_group_IT_number 10
_symmetry_cell_setting 'monoclinic'
loop_
_space_group_symop_operation_xyz
x,y,z
-x,y,-z
-x,-y,-z
x,-y,z
loop_
_atom_site_type_symbol
_atom_site_label
_atom_site_fract_x
_atom_site_fract_y
_atom_site_fract_z
Si Si1 0.400103 0.632701 0.986302
Si Si2 0.592768 0.000000 0.670308
Si Si3 0.544734 0.000000 0.189123
Si Si4 0.709768 0.771463 0.666107
Si Si5 0.695825 0.209843 0.325447
Si Si6 0.911923 0.140000 0.833151
Si Si7 0.089453 0.860505 0.492984
Si Si8 0.432004 0.364255 0.320113
O O1 0.363564 0.500000 0.976686
O O2 0.336196 0.702026 0.823031
O O3 0.500000 0.624766 0.000000
O O4 0.424007 0.687367 0.158290
O O5 0.500000 0.000000 0.500000
O O6 0.652264 0.884526 0.676992
O O7 0.543814 0.000000 0.780604
O O8 0.616545 0.108864 0.261620
O O9 0.500000 0.000000 0.000000
O O10 0.698041 0.754279 0.490202
O O11 0.816845 0.796419 0.791243
O O12 0.669432 0.656988 0.703969
O O13 0.803653 0.176645 0.384229
O O14 0.928358 0.161905 0.684817
O O15 0.897160 0.000000 0.837042
O O16 0.000000 0.174612 0.000000
O O17 0.000000 0.812048 0.500000
O O18 0.090144 0.000000 0.514863
O O19 0.500000 0.314230 0.500000
O O20 0.459181 0.500000 0.326318
#
# Coordination Sequence:
#
# PCOD9153416 Si02
#       8
#     4   2   2   4   4   4   4   4
#     4  10  22  38  55  78 109 144 185 231 272 315
#     4  12  22  36  53  76 116 152 179 216 272 324
#     4  12  26  36  47  80 120 148 181 220 268 326
#     4  11  21  35  57  80 108 149 182 220 274 326
#     4  11  21  37  56  78 113 146 181 224 272 326
#     4   9  18  34  52  77 110 139 178 224 267 321
#     4   9  18  34  54  76 106 144 179 219 269 323
#     4  10  22  38  56  79 107 143 188 229 268 322
#
# _framework density 17.810338000000002
#
# number of rings (size 3 to 8) (size 9 to 14) (size 15 to 20)
#    0.000    1.714    2.857    1.714    4.000    2.857 
#    0.000    0.000    0.000    0.857    0.000    0.000 
#    0.000    0.000    0.000    0.000    0.000    0.000 
#
# Total GULP energy -155909.600401 kJ/mol
# GULP energy per Si atom -5568.200014 kJ/mol
# Density = 1.776980 g / cm^3
# Si number density = 17.810338 Si / 1000 Ang^3
#
#
#
# Elastic Constant Matrix: (Units=GPa)
#
#
# Indices 1 2 3 4 5 6 
#
# 1 105.6054 9.9479 59.2739 0.0000 -1.2670 0.0000
# 2 9.9479 23.7924 28.1344 0.0000 -0.6969 0.0000
# 3 59.2739 28.1344 152.7572 0.0000 7.5709 0.0000
# 4 0.0000 0.0000 0.0000 16.6741 0.0000 0.7518
# 5 -1.2670 -0.6969 7.5709 0.0000 27.4930 0.0000
# 6 0.0000 0.0000 0.0000 0.7518 0.0000 20.1856
#
#
#
# Elastic Compliance Matrix: (Units=1/GPa)
#
#
# Indices 1 2 3 4 5 6 
#
# 1 0.012216 0.000856 -0.004995 0.000000 0.001960 0.000000
# 2 0.000856 0.054262 -0.010540 0.000000 0.004317 0.000000
# 3 -0.004995 -0.010540 0.010595 0.000000 -0.003415 0.000000
# 4 0.000000 0.000000 0.000000 0.060074 0.000000 -0.002237
# 5 0.001960 0.004317 -0.003415 0.000000 0.037513 0.000000
# 6 0.000000 0.000000 0.000000 -0.002237 0.000000 0.049624
#
#
# Mechanical properties :
#
#
# Convention : Reuss Voigt Hill
#
# Bulk Modulus (GPa) = 20.95756 52.98526 36.97141
# Shear Modulus (GPa) = 18.54971 25.19046 21.87008
#
# Velocity S-wave (km/s) = 3.23075 3.76489 3.50800
# Velocity P-wave (km/s) = 5.07046 6.97951 6.10013
#
# Compressibility (1/GPa) = 0.04771549
#
# Stress axis : x y z
#
# Youngs Moduli (GPa) = 81.86293 18.42903 94.38461
#
# Poissons Ratio (x) = -0.01578 0.47143
# Poissons Ratio (y) = -0.07010 0.99482
# Poissons Ratio (z) = 0.40889 0.19424
#
# Static dielectric constant tensor:
#      x y z
#    x 1.529630 0.000000 0.051640 
#    y 0.000000 1.688370 0.000000 
#    z 0.051640 0.000000 1.568490 
# 
# From -- ./inp_files/28713.got.cif
#   From: 2010.05.17/outbox.cif.g08.bks.cpg/sg10_15_cif.got.tgz:28713.got - 2010.06.03 11:33:40.
