data_PCOD9153881
_publ_section_title
;
Structure prediction by ZEFSAII (Michael W. Deem and Ramdas Pophale) SiO2 
 PCOD9153881
Probable space group: P 2/M
;
_chemical_formula_sum "Si O2"
_cell_formula_units_Z 32
_cell_length_a 22.226427
_cell_length_b 14.471289
_cell_length_c 14.571495
_cell_angle_alpha 90.000000
_cell_angle_beta 161.714012
_cell_angle_gamma 90.000000
_cell_volume 1470.547026
_symmetry_space_group_name_H-M "P 2/M"
_symmetry_group_IT_number 10
_symmetry_cell_setting 'monoclinic'
loop_
_space_group_symop_operation_xyz
x,y,z
-x,y,-z
-x,-y,-z
x,-y,z
loop_
_atom_site_type_symbol
_atom_site_label
_atom_site_fract_x
_atom_site_fract_y
_atom_site_fract_z
Si Si1 0.175756 0.105913 0.639847
Si Si2 0.248475 0.109138 0.545520
Si Si3 0.034234 0.605904 0.159017
Si Si4 0.214125 0.711727 0.815352
Si Si5 0.469940 0.388925 0.849965
Si Si6 0.146963 0.210781 0.067103
Si Si7 0.621846 0.896876 0.457334
Si Si8 0.744794 0.160297 0.969985
O O1 0.287317 0.131183 0.707604
O O2 0.200486 0.187467 0.747540
O O3 0.218439 0.000000 0.730078
O O4 0.950067 0.112641 0.285903
O O5 0.398969 0.122529 0.681328
O O6 0.206131 0.000000 0.487002
O O7 0.059938 0.163069 0.241421
O O8 0.002787 0.500000 0.143210
O O9 0.252931 0.631530 0.502772
O O10 0.000000 0.610074 0.000000
O O11 0.891251 0.680613 0.994304
O O12 0.000000 0.669717 0.500000
O O13 0.374887 0.655951 0.993555
O O14 0.257065 0.739420 0.982350
O O15 0.492901 0.500000 0.880052
O O16 0.500000 0.359829 0.000000
O O17 0.243559 0.178754 0.300886
O O18 0.269091 0.173751 0.158553
O O19 0.426203 0.893925 0.230159
O O20 0.706995 0.000000 0.589500
#
# Coordination Sequence:
#
# PCOD9153881 Si02
#       8
#     4   4   4   4   4   4   4   4
#     4   9  19  38  59  83 121 168 210 253 314 380
#     4   9  19  34  56  85 117 158 205 256 313 371
#     4  10  23  43  70  99 127 165 214 267 329 390
#     4  10  23  39  62  92 127 168 210 262 320 382
#     4  10  24  44  71 101 127 162 214 270 329 391
#     4  11  22  37  61  85 122 167 206 260 317 378
#     4  11  22  36  56  89 125 162 213 265 314 375
#     4  10  23  36  55  87 122 169 213 256 315 377
#
# _framework density 21.76061
#
# number of rings (size 3 to 8) (size 9 to 14) (size 15 to 20)
#    0.000    2.000    0.000    2.250    8.750    6.000 
#    0.000    0.625    0.000    4.125    0.000    0.000 
#    0.000    0.000    0.000    0.000    0.000    0.000 
#
# Total GULP energy -178877.108109 kJ/mol
# GULP energy per Si atom -5589.909628 kJ/mol
# Density = 2.171108 g / cm^3
# Si number density = 21.760610 Si / 1000 Ang^3
#
#
#
# Elastic Constant Matrix: (Units=GPa)
#
#
# Indices 1 2 3 4 5 6 
#
# 1 129.8145 33.4770 25.7283 0.0000 10.8456 0.0000
# 2 33.4770 51.8767 38.3136 0.0000 6.4354 0.0000
# 3 25.7283 38.3136 79.4527 0.0000 4.9827 0.0000
# 4 0.0000 0.0000 0.0000 20.0608 0.0000 13.8892
# 5 10.8456 6.4354 4.9827 0.0000 38.4478 0.0000
# 6 0.0000 0.0000 0.0000 13.8892 0.0000 20.2785
#
#
#
# Elastic Compliance Matrix: (Units=1/GPa)
#
#
# Indices 1 2 3 4 5 6 
#
# 1 0.009346 -0.005695 -0.000176 0.000000 -0.001660 0.000000
# 2 -0.005695 0.033797 -0.014316 0.000000 -0.002195 0.000000
# 3 -0.000176 -0.014316 0.019552 0.000000 -0.000088 0.000000
# 4 0.000000 0.000000 0.000000 0.094807 0.000000 -0.064935
# 5 -0.001660 -0.002195 -0.000088 0.000000 0.026856 0.000000
# 6 0.000000 0.000000 0.000000 -0.064935 0.000000 0.093789
#
#
# Mechanical properties :
#
#
# Convention : Reuss Voigt Hill
#
# Bulk Modulus (GPa) = 44.80071 50.68685 47.74378
# Shear Modulus (GPa) = 15.33934 26.66576 21.00255
#
# Velocity S-wave (km/s) = 2.65790 3.50439 3.11008
# Velocity P-wave (km/s) = 5.48196 6.30221 5.90634
#
# Compressibility (1/GPa) = 0.02232108
#
# Stress axis : x y z
#
# Youngs Moduli (GPa) = 107.00327 29.58876 51.14613
#
# Poissons Ratio (x) = 0.16851 0.00900
# Poissons Ratio (y) = 0.60938 0.73219
# Poissons Ratio (z) = 0.01882 0.42358
#
# Static dielectric constant tensor:
#      x y z
#    x 1.819130 0.000000 0.001460 
#    y 0.000000 1.768690 0.000000 
#    z 0.001460 0.000000 1.820440 
# 
# From -- ./inp_files/25333.got.cif
#   From: 2010.05.17/outbox.cif.g08.bks.cpg/sg10_13_cif.got.tgz:25333.got - 2010.06.03 11:33:40.
