data_PCOD9153953
_publ_section_title
;
Structure prediction by ZEFSAII (Michael W. Deem and Ramdas Pophale) SiO2 
 PCOD9153953
Probable space group: P 2/M
;
_chemical_formula_sum "Si O2"
_cell_formula_units_Z 19
_cell_length_a 5.180914
_cell_length_b 27.213125
_cell_length_c 4.971297
_cell_angle_alpha 90.000000
_cell_angle_beta 92.515900
_cell_angle_gamma 90.000000
_cell_volume 700.221888
_symmetry_space_group_name_H-M "P 2/M"
_symmetry_group_IT_number 10
_symmetry_cell_setting 'monoclinic'
loop_
_space_group_symop_operation_xyz
x,y,z
-x,y,-z
-x,-y,-z
x,-y,z
loop_
_atom_site_type_symbol
_atom_site_label
_atom_site_fract_x
_atom_site_fract_y
_atom_site_fract_z
Si Si1 0.177766 0.701411 0.278881
Si Si2 0.000000 0.000000 0.500000
Si Si3 0.741136 0.916418 0.806764
Si Si4 0.500000 0.631304 0.000000
Si Si5 0.258349 0.807782 0.187407
Si Si6 0.238372 0.443336 0.311783
O O1 0.241810 0.757838 0.353720
O O2 0.000000 0.678984 0.500000
O O3 0.433821 0.670895 0.227146
O O4 0.000000 0.701369 0.000000
O O5 0.206468 0.957203 0.411939
O O6 0.726743 0.861595 0.682953
O O7 0.500000 0.923857 0.000000
O O8 0.000000 0.920229 0.000000
O O9 0.726961 0.592820 0.939169
O O10 0.500000 0.802779 0.000000
O O11 0.000000 0.809231 0.000000
O O12 0.500000 0.436424 0.500000
O O13 0.230780 0.500000 0.220442
O O14 0.000000 0.435042 0.500000
#
# Coordination Sequence:
#
# PCOD9153953 Si02
#       6
#     4   1   4   2   4   4
#     4  11  26  44  69 102 145 187 238 289 354 423
#     4  12  24  38  68  96 124 174 220 282 346 392
#     4  10  23  41  64  92 131 168 221 277 336 407
#     4  12  25  40  70 102 144 183 232 298 348 420
#     4   9  19  43  65  93 130 179 223 277 341 415
#     4  10  24  45  70 100 138 185 235 289 352 420
#
# _framework density 27.134255
#
# number of rings (size 3 to 8) (size 9 to 14) (size 15 to 20)
#    0.000    1.684    1.053    1.579    7.368    1.684 
#    0.000    3.158    0.000    0.000    0.000    0.000 
#    0.000    0.000    0.000    0.000    0.000    0.000 
#
# Total GULP energy -106114.621629 kJ/mol
# GULP energy per Si atom -5584.980086 kJ/mol
# Density = 2.707250 g / cm^3
# Si number density = 27.134255 Si / 1000 Ang^3
#
#
#
# Elastic Constant Matrix: (Units=GPa)
#
#
# Indices 1 2 3 4 5 6 
#
# 1 224.2340 36.0295 67.6745 0.0000 -34.9761 0.0000
# 2 36.0295 271.6948 55.8951 0.0000 -57.1862 0.0000
# 3 67.6745 55.8951 114.5210 0.0000 -30.1994 0.0000
# 4 0.0000 0.0000 0.0000 24.1155 0.0000 -42.5508
# 5 -34.9761 -57.1862 -30.1994 0.0000 80.8964 0.0000
# 6 0.0000 0.0000 0.0000 -42.5508 0.0000 29.9671
#
#
#
# Elastic Compliance Matrix: (Units=1/GPa)
#
#
# Indices 1 2 3 4 5 6 
#
# 1 0.005556 0.000176 -0.002998 0.000000 0.001407 0.000000
# 2 0.000176 0.004557 -0.001618 0.000000 0.002694 0.000000
# 3 -0.002998 -0.001618 0.011813 0.000000 0.001970 0.000000
# 4 0.000000 0.000000 0.000000 -0.027546 0.000000 -0.039113
# 5 0.001407 0.002694 0.001970 0.000000 0.015609 0.000000
# 6 0.000000 0.000000 0.000000 -0.039113 0.000000 -0.022167
#
#
# Mechanical properties :
#
#
# Convention : Reuss Voigt Hill
#
# Bulk Modulus (GPa) = 76.65133 103.29420 89.97276
# Shear Modulus (GPa) = 4761.65236 57.05252 2409.35244
#
# Velocity S-wave (km/s) = 41.93637 4.59039 29.83061
# Velocity P-wave (km/s) = 48.71538 8.13916 34.92445
#
# Compressibility (1/GPa) = 0.01304609
#
# Stress axis : x y z
#
# Youngs Moduli (GPa) = 179.99814 219.44032 84.65417
#
# Poissons Ratio (x) = -0.03868 0.25378
# Poissons Ratio (y) = -0.03173 0.13697
# Poissons Ratio (z) = 0.53961 0.35506
#
# Static dielectric constant tensor:
#      x y z
#    x 2.175840 0.000000 0.147780 
#    y 0.000000 2.101420 0.000000 
#    z 0.147780 0.000000 2.059830 
# 
# From -- ./inp_files/2058.got.cif
#   From: 2010.05.17/outbox.cif.g08.bks.cpg/sg10_2_cif.got.tgz:2058.got - 2010.06.03 11:33:40.
