data_PCOD9153821
_publ_section_title
;
Structure prediction by ZEFSAII (Michael W. Deem and Ramdas Pophale) SiO2 
 PCOD9153821
Probable space group: P 2/M
;
_chemical_formula_sum "Si O2"
_cell_formula_units_Z 16
_cell_length_a 8.166000
_cell_length_b 18.967021
_cell_length_c 9.443144
_cell_angle_alpha 90.000000
_cell_angle_beta 147.229114
_cell_angle_gamma 90.000000
_cell_volume 791.676787
_symmetry_space_group_name_H-M "P 2/M"
_symmetry_group_IT_number 10
_symmetry_cell_setting 'monoclinic'
loop_
_space_group_symop_operation_xyz
x,y,z
-x,y,-z
-x,-y,-z
x,-y,z
loop_
_atom_site_type_symbol
_atom_site_label
_atom_site_fract_x
_atom_site_fract_y
_atom_site_fract_z
Si Si1 0.599520 0.660834 0.411653
Si Si2 0.771790 0.582871 0.085268
Si Si3 0.640894 0.917905 0.754358
Si Si4 0.645171 0.801207 0.258411
O O1 0.500000 0.673442 0.500000
O O2 0.605608 0.732893 0.328113
O O3 0.931476 0.625748 0.654063
O O4 0.361336 0.609886 0.160081
O O5 0.844393 0.500000 0.133377
O O6 0.500000 0.593356 0.000000
O O7 0.500000 0.898846 0.500000
O O8 0.515981 0.866878 0.783519
O O9 0.567300 0.000000 0.730116
O O10 0.000000 0.911278 0.000000
O O11 0.000000 0.815661 0.500000
O O12 0.500000 0.787614 0.000000
#
# Coordination Sequence:
#
# PCOD9153821 Si02
#       4
#     4   4   4   4
#     4  12  25  41  63  91 125 163 208 258 309 368
#     4  11  24  43  66  91 123 162 204 255 315 374
#     4  10  22  42  67  95 129 166 205 252 308 368
#     4  12  25  41  64  92 127 166 209 258 306 365
#
# _framework density 20.210269
#
# number of rings (size 3 to 8) (size 9 to 14) (size 15 to 20)
#    0.000    0.750    0.000    8.250    0.000    8.000 
#    0.000    0.000    0.000    0.000    0.000    0.000 
#    0.000    0.000    0.000    0.000    0.000    0.000 
#
# Total GULP energy -89636.010277 kJ/mol
# GULP energy per Si atom -5602.250642 kJ/mol
# Density = 2.016427 g / cm^3
# Si number density = 20.210269 Si / 1000 Ang^3
#
#
#
# Elastic Constant Matrix: (Units=GPa)
#
#
# Indices 1 2 3 4 5 6 
#
# 1 114.2454 83.3638 48.3209 0.0000 -26.8698 0.0000
# 2 83.3638 119.3443 48.3209 0.0000 -17.6895 0.0000
# 3 48.3209 48.3209 149.4852 0.0000 -20.6046 0.0000
# 4 0.0000 0.0000 0.0000 14.2088 0.0000 -77.6068
# 5 -26.8698 -17.6895 -20.6046 0.0000 37.1659 0.0000
# 6 0.0000 0.0000 0.0000 -77.6068 0.0000 -158.4046
#
#
#
# Elastic Compliance Matrix: (Units=1/GPa)
#
#
# Indices 1 2 3 4 5 6 
#
# 1 0.020293 -0.012407 -0.001452 0.000000 0.007961 0.000000
# 2 -0.012407 0.017568 -0.001897 0.000000 -0.001660 0.000000
# 3 -0.001452 -0.001897 0.008124 0.000000 0.002551 0.000000
# 4 0.000000 0.000000 0.000000 0.019146 0.000000 -0.009380
# 5 0.007961 -0.001660 0.002551 0.000000 0.033286 0.000000
# 6 0.000000 0.000000 0.000000 -0.009380 0.000000 -0.001717
#
#
# Mechanical properties :
#
#
# Convention : Reuss Voigt Hill
#
# Bulk Modulus (GPa) = 69.09578 82.56511 75.83045
# Shear Modulus (GPa) = 37.58420 -7.86802 14.85809
#
# Velocity S-wave (km/s) = 4.31705 -1.97523 2.71435
# Velocity P-wave (km/s) = 7.68843 5.97827 6.88664
#
# Compressibility (1/GPa) = 0.01447266
#
# Stress axis : x y z
#
# Youngs Moduli (GPa) = 49.27857 56.92289 123.09570
#
# Poissons Ratio (x) = 0.70624 0.17870
# Poissons Ratio (y) = 0.61140 0.23351
# Poissons Ratio (z) = 0.07154 0.10798
#
# Static dielectric constant tensor:
#      x y z
#    x 1.688700 0.000000 -0.006030 
#    y 0.000000 1.694790 0.000000 
#    z -0.006030 0.000000 1.680820 
# 
# From -- ./inp_files/3904.got.cif
#   From: 2010.05.17/outbox.cif.g08.bks.cpg/sg10_2_cif.got.tgz:3904.got - 2010.06.03 11:33:40.
