data_PCOD9153499
_publ_section_title
;
Structure prediction by ZEFSAII (Michael W. Deem and Ramdas Pophale) SiO2 
 PCOD9153499
Probable space group: P 2/M
;
_chemical_formula_sum "Si O2"
_cell_formula_units_Z 28
_cell_length_a 18.313559
_cell_length_b 19.278244
_cell_length_c 12.094171
_cell_angle_alpha 90.000000
_cell_angle_beta 19.596481
_cell_angle_gamma 90.000000
_cell_volume 1432.093068
_symmetry_space_group_name_H-M "P 2/M"
_symmetry_group_IT_number 10
_symmetry_cell_setting 'monoclinic'
loop_
_space_group_symop_operation_xyz
x,y,z
-x,y,-z
-x,-y,-z
x,-y,z
loop_
_atom_site_type_symbol
_atom_site_label
_atom_site_fract_x
_atom_site_fract_y
_atom_site_fract_z
Si Si1 0.637840 0.580944 0.071565
Si Si2 0.844492 0.831136 0.970467
Si Si3 0.127802 0.328979 0.076364
Si Si4 0.844522 0.080165 0.332019
Si Si5 0.245149 0.422662 0.342484
Si Si6 0.261662 0.675131 0.644288
Si Si7 0.446538 0.174970 0.390005
O O1 0.633177 0.500000 0.111909
O O2 0.392994 0.610921 0.405523
O O3 0.752214 0.631194 0.996204
O O4 0.767364 0.585112 0.771840
O O5 0.916889 0.752316 0.845796
O O6 0.035452 0.882788 0.735884
O O7 0.697590 0.830742 0.291928
O O8 0.686149 0.844883 0.092239
O O9 0.898361 0.366948 0.391303
O O10 0.271710 0.335364 0.761787
O O11 0.639572 0.124195 0.581790
O O12 0.797964 0.000000 0.422187
O O13 0.000000 0.081621 0.000000
O O14 0.170303 0.500000 0.479882
O O15 0.500000 0.417501 0.000000
O O16 0.392664 0.746024 0.429517
O O17 0.000000 0.682987 0.000000
#
# Coordination Sequence:
#
# PCOD9153499 Si02
#       7
#     4   4   4   4   4   4   4
#     4  11  23  37  54  78 107 141 182 231 283 329
#     4   9  17  29  48  71 102 140 181 220 265 319
#     4  11  20  35  55  77 106 144 184 226 275 327
#     4   9  17  28  45  73 107 144 181 217 265 326
#     4  10  22  39  56  76 105 142 181 228 287 336
#     4  11  21  34  54  78 106 144 186 230 274 325
#     4   9  16  30  46  70 104 142 179 220 270 320
#
# _framework density 19.551801999999999
#
# number of rings (size 3 to 8) (size 9 to 14) (size 15 to 20)
#    0.000    2.000    1.429    4.286    0.000    3.714 
#    0.000    2.857    0.000    0.000    0.000    0.000 
#    0.000    7.429    0.000    0.000    0.000    0.429 
#
# Total GULP energy -156095.773755 kJ/mol
# GULP energy per Si atom -5574.849063 kJ/mol
# Density = 1.950730 g / cm^3
# Si number density = 19.551802 Si / 1000 Ang^3
#
#
#
# Elastic Constant Matrix: (Units=GPa)
#
#
# Indices 1 2 3 4 5 6 
#
# 1 79.5056 64.3028 24.6649 0.0000 -33.9022 0.0000
# 2 64.3028 163.5249 48.4784 0.0000 -23.1638 0.0000
# 3 24.6649 48.4784 40.9142 0.0000 -20.1441 0.0000
# 4 0.0000 0.0000 0.0000 1.3384 0.0000 -14.0846
# 5 -33.9022 -23.1638 -20.1441 0.0000 28.6142 0.0000
# 6 0.0000 0.0000 0.0000 -14.0846 0.0000 25.6969
#
#
#
# Elastic Compliance Matrix: (Units=1/GPa)
#
#
# Indices 1 2 3 4 5 6 
#
# 1 0.036814 -0.012460 0.013896 0.000000 0.043313 0.000000
# 2 -0.012460 0.013646 -0.016050 0.000000 -0.015016 0.000000
# 3 0.013896 -0.016050 0.056308 0.000000 0.043111 0.000000
# 4 0.000000 0.000000 0.000000 -0.156702 0.000000 -0.085890
# 5 0.043313 -0.015016 0.043111 0.000000 0.104459 0.000000
# 6 0.000000 0.000000 0.000000 -0.085890 0.000000 -0.008162
#
#
# Mechanical properties :
#
#
# Convention : Reuss Voigt Hill
#
# Bulk Modulus (GPa) = 12.89687 62.09299 37.49493
# Shear Modulus (GPa) = 49.29106 20.89646 35.09376
#
# Velocity S-wave (km/s) = 5.02645 3.27276 4.24124
# Velocity P-wave (km/s) = 6.34803 6.79032 6.57290
#
# Compressibility (1/GPa) = 0.07753819
#
# Stress axis : x y z
#
# Youngs Moduli (GPa) = 27.16387 73.27930 17.75958
#
# Poissons Ratio (x) = 0.91310 -0.24679
# Poissons Ratio (y) = 0.33847 0.28505
# Poissons Ratio (z) = -0.37748 1.17617
#
# Static dielectric constant tensor:
#      x y z
#    x 1.750820 0.000000 -0.065950 
#    y 0.000000 1.667830 0.000000 
#    z -0.065950 0.000000 1.702380 
# 
# From -- ./inp_files/54238.got.cif
#   From: 2010.05.17/outbox.cif.g08.bks.cpg/sg10_28_cif.got.tgz:54238.got - 2010.06.03 11:33:40.
