data_PCOD9153772
_publ_section_title
;
Structure prediction by ZEFSAII (Michael W. Deem and Ramdas Pophale) SiO2 
 PCOD9153772
Probable space group: P 2/M
;
_chemical_formula_sum "Si O2"
_cell_formula_units_Z 24
_cell_length_a 14.686550
_cell_length_b 16.844612
_cell_length_c 9.252455
_cell_angle_alpha 90.000000
_cell_angle_beta 29.659563
_cell_angle_gamma 90.000000
_cell_volume 1132.680457
_symmetry_space_group_name_H-M "P 2/M"
_symmetry_group_IT_number 10
_symmetry_cell_setting 'monoclinic'
loop_
_space_group_symop_operation_xyz
x,y,z
-x,y,-z
-x,-y,-z
x,-y,z
loop_
_atom_site_type_symbol
_atom_site_label
_atom_site_fract_x
_atom_site_fract_y
_atom_site_fract_z
Si Si1 0.167305 0.819687 0.158945
Si Si2 0.998482 0.411251 0.828126
Si Si3 0.362653 0.663250 0.808960
Si Si4 0.819627 0.087516 0.152007
Si Si5 0.533714 0.861241 0.788434
Si Si6 0.624110 0.673744 0.694143
O O1 0.000000 0.826665 0.500000
O O2 0.241476 0.729818 0.053834
O O3 0.150220 0.849073 0.017555
O O4 0.333651 0.867734 0.996770
O O5 0.046133 0.500000 0.711126
O O6 0.166119 0.351161 0.564474
O O7 0.000000 0.411377 0.000000
O O8 0.795361 0.389994 0.047578
O O9 0.500000 0.700701 0.500000
O O10 0.516336 0.631669 0.709279
O O11 0.663016 0.101272 0.487971
O O12 0.794709 0.000000 0.119753
O O13 0.000000 0.088269 0.000000
O O14 0.605667 0.769209 0.698989
O O15 0.500000 0.889428 0.000000
O O16 0.500000 0.652334 0.000000
#
# Coordination Sequence:
#
# PCOD9153772 Si02
#       6
#     4   4   4   4   4   4
#     4  11  24  40  66  97 127 167 220 271 323 385
#     4  11  25  41  65  97 128 176 218 265 339 392
#     4  11  23  41  66  96 125 169 221 274 325 389
#     4  11  25  42  64  96 133 174 214 262 327 388
#     4  10  22  41  66  98 125 171 219 269 326 379
#     4  10  23  41  64  96 131 167 218 273 325 388
#
# _framework density 21.188676999999998
#
# number of rings (size 3 to 8) (size 9 to 14) (size 15 to 20)
#    0.000    1.333    1.667    3.500    9.333    3.333 
#    0.000    0.833    0.000    0.000    0.000    0.000 
#    0.000    0.000    0.000    0.000    0.000    0.000 
#
# Total GULP energy -133754.257961 kJ/mol
# GULP energy per Si atom -5573.094082 kJ/mol
# Density = 2.114045 g / cm^3
# Si number density = 21.188677 Si / 1000 Ang^3
#
#
#
# Elastic Constant Matrix: (Units=GPa)
#
#
# Indices 1 2 3 4 5 6 
#
# 1 84.6316 0.5433 19.3219 0.0000 -0.9849 0.0000
# 2 0.5433 27.5436 16.4951 0.0000 -6.7644 0.0000
# 3 19.3219 16.4951 158.5969 0.0000 -8.0002 0.0000
# 4 0.0000 0.0000 0.0000 1.9506 0.0000 6.9735
# 5 -0.9849 -6.7644 -8.0002 0.0000 37.5768 0.0000
# 6 0.0000 0.0000 0.0000 6.9735 0.0000 -18.0694
#
#
#
# Elastic Compliance Matrix: (Units=1/GPa)
#
#
# Indices 1 2 3 4 5 6 
#
# 1 0.012167 0.000718 -0.001551 0.000000 0.000118 0.000000
# 2 0.000718 0.040233 -0.003948 0.000000 0.006421 0.000000
# 3 -0.001551 -0.003948 0.006942 0.000000 0.000726 0.000000
# 4 0.000000 0.000000 0.000000 0.215428 0.000000 0.083141
# 5 0.000118 0.006421 0.000726 0.000000 0.027926 0.000000
# 6 0.000000 0.000000 0.000000 0.083141 0.000000 -0.023256
#
#
# Mechanical properties :
#
#
# Convention : Reuss Voigt Hill
#
# Bulk Modulus (GPa) = 20.08878 38.16586 29.12732
# Shear Modulus (GPa) = 16.36150 19.91906 18.14028
#
# Velocity S-wave (km/s) = 2.78183 3.06940 2.92915
# Velocity P-wave (km/s) = 4.45192 5.53291 5.02159
#
# Compressibility (1/GPa) = 0.04977904
#
# Stress axis : x y z
#
# Youngs Moduli (GPa) = 82.19102 24.85507 144.06064
#
# Poissons Ratio (x) = -0.01784 0.22344
# Poissons Ratio (y) = -0.05900 0.56876
# Poissons Ratio (z) = 0.12748 0.09813
#
# Static dielectric constant tensor:
#      x y z
#    x 1.782170 0.000000 -0.064850 
#    y 0.000000 1.805100 0.000000 
#    z -0.064850 0.000000 1.601130 
# 
# From -- ./inp_files/20133.got.cif
#   From: 2010.05.17/outbox.cif.g08.bks.cpg/sg10_11_cif.got.tgz:20133.got - 2010.06.03 11:33:40.
