data_PCOD9153191
_publ_section_title
;
Structure prediction by ZEFSAII (Michael W. Deem and Ramdas Pophale) SiO2 
 PCOD9153191
Probable space group: P 2/M
;
_chemical_formula_sum "Si O2"
_cell_formula_units_Z 28
_cell_length_a 14.325474
_cell_length_b 22.022666
_cell_length_c 7.880538
_cell_angle_alpha 90.000000
_cell_angle_beta 146.607950
_cell_angle_gamma 90.000000
_cell_volume 1368.313105
_symmetry_space_group_name_H-M "P 2/M"
_symmetry_group_IT_number 10
_symmetry_cell_setting 'monoclinic'
loop_
_space_group_symop_operation_xyz
x,y,z
-x,y,-z
-x,-y,-z
x,-y,z
loop_
_atom_site_type_symbol
_atom_site_label
_atom_site_fract_x
_atom_site_fract_y
_atom_site_fract_z
Si Si1 0.796613 0.241054 0.197452
Si Si2 0.335865 0.429496 0.838500
Si Si3 0.331098 0.637043 0.147437
Si Si4 0.312012 0.157978 0.661232
Si Si5 0.313127 0.850351 0.268210
Si Si6 0.993174 0.928787 0.694158
Si Si7 0.026415 0.430363 0.840266
O O1 0.733665 0.212671 0.279310
O O2 0.000000 0.240561 0.500000
O O3 0.726675 0.307946 0.058855
O O4 0.732197 0.200324 0.941210
O O5 0.329634 0.500000 0.777154
O O6 0.148295 0.407200 0.507962
O O7 0.500000 0.400503 0.000000
O O8 0.367043 0.420614 0.083237
O O9 0.500000 0.654939 0.500000
O O10 0.177685 0.615389 0.031424
O O11 0.314094 0.173071 0.464027
O O12 0.167539 0.107908 0.478116
O O13 0.500000 0.136336 0.000000
O O14 0.500000 0.873596 0.500000
O O15 0.166071 0.900504 0.029670
O O16 0.000000 0.920563 0.500000
O O17 0.979724 0.000000 0.710707
O O18 0.060066 0.500000 0.829729
O O19 0.000000 0.433614 0.000000
#
# Coordination Sequence:
#
# PCOD9153191 Si02
#       7
#     4   4   4   4   4   4   4
#     4  12  25  47  66  97 131 176 230 281 333 395
#     4  10  21  40  66  95 130 170 213 271 334 394
#     4  12  26  42  63  95 132 170 221 277 329 399
#     4  12  24  43  73  97 134 183 222 275 336 396
#     4  12  23  44  70  99 137 178 226 270 335 399
#     4  11  23  44  72 106 143 177 222 278 332 400
#     4  10  21  41  67  97 132 173 219 269 339 409
#
# _framework density 20.463151
#
# number of rings (size 3 to 8) (size 9 to 14) (size 15 to 20)
#    0.000    0.714    4.286    3.429    0.000    5.714 
#    5.143    0.000    0.000    0.000    0.000    0.000 
#    0.000    0.000    0.000    0.000    0.000    0.000 
#
# Total GULP energy -156473.557933 kJ/mol
# GULP energy per Si atom -5588.341355 kJ/mol
# Density = 2.041658 g / cm^3
# Si number density = 20.463151 Si / 1000 Ang^3
#
#
#
# Elastic Constant Matrix: (Units=GPa)
#
#
# Indices 1 2 3 4 5 6 
#
# 1 131.1926 36.6755 57.3159 0.0000 3.5622 0.0000
# 2 36.6755 77.1182 53.7021 0.0000 8.9439 0.0000
# 3 57.3159 53.7021 154.6164 0.0000 20.4398 0.0000
# 4 0.0000 0.0000 0.0000 24.2280 0.0000 -6.2150
# 5 3.5622 8.9439 20.4398 0.0000 49.4517 0.0000
# 6 0.0000 0.0000 0.0000 -6.2150 0.0000 8.8478
#
#
#
# Elastic Compliance Matrix: (Units=1/GPa)
#
#
# Indices 1 2 3 4 5 6 
#
# 1 0.009552 -0.002769 -0.002702 0.000000 0.000930 0.000000
# 2 -0.002769 0.017928 -0.005075 0.000000 -0.000945 0.000000
# 3 -0.002702 -0.005075 0.009610 0.000000 -0.002860 0.000000
# 4 0.000000 0.000000 0.000000 0.050346 0.000000 0.035365
# 5 0.000930 -0.000945 -0.002860 0.000000 0.021508 0.000000
# 6 0.000000 0.000000 0.000000 0.035365 0.000000 0.137864
#
#
# Mechanical properties :
#
#
# Convention : Reuss Voigt Hill
#
# Bulk Modulus (GPa) = 62.51117 73.14601 67.82859
# Shear Modulus (GPa) = 18.29943 30.85442 24.57693
#
# Velocity S-wave (km/s) = 2.99367 3.88726 3.46935
# Velocity P-wave (km/s) = 6.52410 7.48135 7.01906
#
# Compressibility (1/GPa) = 0.01599714
#
# Stress axis : x y z
#
# Youngs Moduli (GPa) = 104.69431 55.77916 104.05721
#
# Poissons Ratio (x) = 0.15444 0.28116
# Poissons Ratio (y) = 0.28987 0.52814
# Poissons Ratio (z) = 0.28288 0.28311
#
# Static dielectric constant tensor:
#      x y z
#    x 1.740550 0.000000 -0.003810 
#    y 0.000000 1.732070 0.000000 
#    z -0.003810 0.000000 1.710850 
# 
# From -- ./inp_files/30498.got.cif
#   From: 2010.05.17/outbox.cif.g08.bks.cpg/sg10_16_cif.got.tgz:30498.got - 2010.06.03 11:33:40.
