data_PCOD9153139
_publ_section_title
;
Structure prediction by ZEFSAII (Michael W. Deem and Ramdas Pophale) SiO2 
 PCOD9153139
Probable space group: P 2/M
;
_chemical_formula_sum "Si O2"
_cell_formula_units_Z 26
_cell_length_a 19.845465
_cell_length_b 12.504192
_cell_length_c 5.712336
_cell_angle_alpha 90.000000
_cell_angle_beta 55.726515
_cell_angle_gamma 90.000000
_cell_volume 1171.384342
_symmetry_space_group_name_H-M "P 2/M"
_symmetry_group_IT_number 10
_symmetry_cell_setting 'monoclinic'
loop_
_space_group_symop_operation_xyz
x,y,z
-x,y,-z
-x,-y,-z
x,-y,z
loop_
_atom_site_type_symbol
_atom_site_label
_atom_site_fract_x
_atom_site_fract_y
_atom_site_fract_z
Si Si1 0.154277 0.617871 0.174336
Si Si2 0.582424 0.000000 0.498606
Si Si3 0.213119 0.786140 0.423366
Si Si4 0.545265 0.763721 0.665131
Si Si5 0.067941 0.000000 0.102061
Si Si6 0.236653 0.000000 0.072655
Si Si7 0.932091 0.771632 0.945716
Si Si8 0.691215 0.622525 0.478881
O O1 0.143207 0.500000 0.291820
O O2 0.080848 0.663892 0.168359
O O3 0.232978 0.618474 0.849136
O O4 0.167175 0.705555 0.343437
O O5 0.500000 0.000000 0.500000
O O6 0.578120 0.114329 0.637020
O O7 0.670891 0.000000 0.203559
O O8 0.152092 0.803795 0.757754
O O9 0.287723 0.713144 0.368685
O O10 0.228732 0.894974 0.253320
O O11 0.500000 0.765350 0.500000
O O12 0.613682 0.672809 0.504150
O O13 0.500000 0.738459 0.000000
O O14 0.166408 0.000000 0.006973
O O15 0.048453 0.118664 0.222314
O O16 0.000000 0.000000 0.000000
O O17 0.000000 0.751447 0.000000
O O18 0.679532 0.500000 0.588158
#
# Coordination Sequence:
#
# PCOD9153139 Si02
#       8
#     4   2   4   4   2   2   4   4
#     4  10  21  40  63  90 126 170 226 279 337 414
#     4  10  25  43  69 105 148 185 228 300 360 430
#     4  11  23  39  67  98 125 175 231 282 348 427
#     4  11  26  46  71 104 147 188 236 296 365 434
#     4  10  21  42  62  93 137 169 215 289 349 411
#     4  12  23  41  74 101 134 184 240 283 360 442
#     4  10  22  41  60  90 133 169 215 283 351 414
#     4  10  24  43  67  95 134 178 227 295 353 419
#
# _framework density 22.195959999999999
#
# number of rings (size 3 to 8) (size 9 to 14) (size 15 to 20)
#    0.000    1.538    1.538    2.077    8.615    2.769 
#    0.000    2.308    0.000    0.000    0.000    0.000 
#    0.000    0.000    0.000    0.000    0.000    0.000 
#
# Total GULP energy -144740.324783 kJ/mol
# GULP energy per Si atom -5566.935569 kJ/mol
# Density = 2.214544 g / cm^3
# Si number density = 22.195960 Si / 1000 Ang^3
#
#
#
# Elastic Constant Matrix: (Units=GPa)
#
#
# Indices 1 2 3 4 5 6 
#
# 1 106.2846 59.2551 30.3068 0.0000 -2.9481 0.0000
# 2 59.2551 191.3484 43.6728 0.0000 4.3684 0.0000
# 3 30.3068 43.6728 61.9023 0.0000 -4.5184 0.0000
# 4 0.0000 0.0000 0.0000 39.8926 0.0000 12.2357
# 5 -2.9481 4.3684 -4.5184 0.0000 12.2450 0.0000
# 6 0.0000 0.0000 0.0000 12.2357 0.0000 47.3854
#
#
#
# Elastic Compliance Matrix: (Units=1/GPa)
#
#
# Indices 1 2 3 4 5 6 
#
# 1 0.012201 -0.003003 -0.003660 0.000000 0.002658 0.000000
# 2 -0.003003 0.007160 -0.003926 0.000000 -0.004726 0.000000
# 3 -0.003660 -0.003926 0.021329 0.000000 0.008390 0.000000
# 4 0.000000 0.000000 0.000000 0.027223 0.000000 -0.007030
# 5 0.002658 -0.004726 0.008390 0.000000 0.087088 0.000000
# 6 0.000000 0.000000 0.000000 -0.007030 0.000000 0.022919
#
#
# Mechanical properties :
#
#
# Convention : Reuss Voigt Hill
#
# Bulk Modulus (GPa) = 51.25597 69.55607 60.40602
# Shear Modulus (GPa) = 24.31875 34.99131 29.65503
#
# Velocity S-wave (km/s) = 3.31363 3.97479 3.65917
# Velocity P-wave (km/s) = 6.14677 7.24366 6.71764
#
# Compressibility (1/GPa) = 0.01950992
#
# Stress axis : x y z
#
# Youngs Moduli (GPa) = 81.96299 139.66230 46.88488
#
# Poissons Ratio (x) = 0.41947 0.17161
# Poissons Ratio (y) = 0.24617 0.18407
# Poissons Ratio (z) = 0.30001 0.54832
#
# Static dielectric constant tensor:
#      x y z
#    x 1.923980 0.000000 0.068890 
#    y 0.000000 1.799110 0.000000 
#    z 0.068890 0.000000 1.755930 
# 
# From -- ./inp_files/12365.got.cif
#   From: 2010.05.17/outbox.cif.g08.bks.cpg/sg10_7_cif.got.tgz:12365.got - 2010.06.03 11:33:40.
