data_PCOD9153213
_publ_section_title
;
Structure prediction by ZEFSAII (Michael W. Deem and Ramdas Pophale) SiO2 
 PCOD9153213
Probable space group: P 2/M
;
_chemical_formula_sum "Si O2"
_cell_formula_units_Z 32
_cell_length_a 18.263414
_cell_length_b 14.198239
_cell_length_c 11.832476
_cell_angle_alpha 90.000000
_cell_angle_beta 28.752863
_cell_angle_gamma 90.000000
_cell_volume 1475.932745
_symmetry_space_group_name_H-M "P 2/M"
_symmetry_group_IT_number 10
_symmetry_cell_setting 'monoclinic'
loop_
_space_group_symop_operation_xyz
x,y,z
-x,y,-z
-x,-y,-z
x,-y,z
loop_
_atom_site_type_symbol
_atom_site_label
_atom_site_fract_x
_atom_site_fract_y
_atom_site_fract_z
Si Si1 0.317977 0.897410 0.257812
Si Si2 0.412098 0.611588 0.345655
Si Si3 0.749928 0.307422 0.633492
Si Si4 0.923611 0.392737 0.850074
Si Si5 0.828487 0.724183 0.187544
Si Si6 0.405725 0.892271 0.512400
Si Si7 0.266048 0.308092 0.073593
Si Si8 0.711039 0.897866 0.967488
O O1 0.250723 0.802969 0.401706
O O2 0.287332 0.000000 0.352790
O O3 0.500000 0.885452 0.000000
O O4 0.264863 0.901761 0.199440
O O5 0.428952 0.500000 0.332728
O O6 0.383704 0.642491 0.254813
O O7 0.265012 0.650716 0.609255
O O8 0.561777 0.663553 0.190100
O O9 0.737914 0.309537 0.785228
O O10 0.903702 0.359692 0.392917
O O11 0.913905 0.500000 0.902486
O O12 0.846795 0.380331 0.832017
O O13 0.839223 0.323681 0.050520
O O14 0.729246 0.818992 0.319907
O O15 0.000000 0.737882 0.000000
O O16 0.500000 0.871568 0.500000
O O17 0.531970 0.889689 0.241561
O O18 0.350851 0.000000 0.595054
O O19 0.222168 0.203086 0.089466
O O20 0.762452 0.000000 0.945527
#
# Coordination Sequence:
#
# PCOD9153213 Si02
#       8
#     4   4   4   4   4   4   4   4
#     4   9  18  33  59  94 128 163 204 252 315 382
#     4  12  25  42  66  93 124 171 225 278 327 381
#     4  11  23  41  65  95 132 170 211 265 333 399
#     4  12  27  45  65  89 128 180 221 269 332 387
#     4  12  26  44  66  93 132 172 219 270 322 391
#     4  10  21  40  68  99 130 168 211 261 325 388
#     4  11  23  42  67  99 129 159 221 280 327 389
#     4   9  17  34  61  90 123 160 197 247 316 388
#
# _framework density 21.681204000000001
#
# number of rings (size 3 to 8) (size 9 to 14) (size 15 to 20)
#    0.000    1.250    2.500    4.125    0.000    3.750 
#    0.000    2.500    0.000    3.000    0.000    0.000 
#    0.000    0.000    0.000    0.000    0.000    0.000 
#
# Total GULP energy -178808.456038 kJ/mol
# GULP energy per Si atom -5587.764251 kJ/mol
# Density = 2.163186 g / cm^3
# Si number density = 21.681204 Si / 1000 Ang^3
#
#
#
# Elastic Constant Matrix: (Units=GPa)
#
#
# Indices 1 2 3 4 5 6 
#
# 1 51.6132 24.2776 -3.4882 0.0000 -6.8677 0.0000
# 2 24.2776 118.1995 -3.1629 0.0000 8.2144 0.0000
# 3 -3.4882 -3.1629 16.3758 0.0000 7.6773 0.0000
# 4 0.0000 0.0000 0.0000 18.1943 0.0000 7.4851
# 5 -6.8677 8.2144 7.6773 0.0000 19.5766 0.0000
# 6 0.0000 0.0000 0.0000 7.4851 0.0000 16.5160
#
#
#
# Elastic Compliance Matrix: (Units=1/GPa)
#
#
# Indices 1 2 3 4 5 6 
#
# 1 0.023399 -0.005610 -0.001288 0.000000 0.011068 0.000000
# 2 -0.005610 0.010297 0.004585 0.000000 -0.008087 0.000000
# 3 -0.001288 0.004585 0.076936 0.000000 -0.032547 0.000000
# 4 0.000000 0.000000 0.000000 0.067558 0.000000 -0.030618
# 5 0.011068 -0.008087 -0.032547 0.000000 0.071121 0.000000
# 6 0.000000 0.000000 0.000000 -0.030618 0.000000 0.074423
#
#
# Mechanical properties :
#
#
# Convention : Reuss Voigt Hill
#
# Bulk Modulus (GPa) = 9.43331 24.60461 17.01896
# Shear Modulus (GPa) = 13.74775 22.09484 17.92129
#
# Velocity S-wave (km/s) = 2.52084 3.19576 2.87815
# Velocity P-wave (km/s) = 3.58235 4.99902 4.34876
#
# Compressibility (1/GPa) = 0.10600729
#
# Stress axis : x y z
#
# Youngs Moduli (GPa) = 42.73662 97.11417 12.99784
#
# Poissons Ratio (x) = 0.54478 0.01674
# Poissons Ratio (y) = 0.23974 -0.05960
# Poissons Ratio (z) = 0.05504 -0.44528
#
# Static dielectric constant tensor:
#      x y z
#    x 1.805230 0.000000 0.040610 
#    y 0.000000 1.799140 0.000000 
#    z 0.040610 0.000000 1.788920 
# 
# From -- ./inp_files/54027.got.cif
#   From: 2010.05.17/outbox.cif.g08.bks.cpg/sg10_28_cif.got.tgz:54027.got - 2010.06.03 11:33:40.
