data_PCOD9153571
_publ_section_title
;
Structure prediction by ZEFSAII (Michael W. Deem and Ramdas Pophale) SiO2 
 PCOD9153571
Probable space group: P 2/M
;
_chemical_formula_sum "Si O2"
_cell_formula_units_Z 16
_cell_length_a 5.266684
_cell_length_b 10.156805
_cell_length_c 14.258468
_cell_angle_alpha 90.000000
_cell_angle_beta 100.856798
_cell_angle_gamma 90.000000
_cell_volume 749.071720
_symmetry_space_group_name_H-M "P 2/M"
_symmetry_group_IT_number 10
_symmetry_cell_setting 'monoclinic'
loop_
_space_group_symop_operation_xyz
x,y,z
-x,y,-z
-x,-y,-z
x,-y,z
loop_
_atom_site_type_symbol
_atom_site_label
_atom_site_fract_x
_atom_site_fract_y
_atom_site_fract_z
Si Si1 0.064809 0.352327 0.208702
Si Si2 0.576402 0.856250 0.698030
Si Si3 0.218892 0.147636 0.935097
Si Si4 0.020090 0.241216 0.608391
O O1 0.096119 0.500000 0.174820
O O2 0.856298 0.263411 0.140757
O O3 0.987484 0.354077 0.313175
O O4 0.322896 0.261299 0.228053
O O5 0.286352 0.835015 0.644343
O O6 0.772409 0.844144 0.623404
O O7 0.609075 0.000000 0.744183
O O8 0.209182 0.000000 0.891073
O O9 0.500000 0.164645 0.000000
O O10 0.000000 0.151222 0.000000
O O11 0.000000 0.283606 0.500000
#
# Coordination Sequence:
#
# PCOD9153571 Si02
#       4
#     4   4   4   4
#     4  10  25  43  64  94 131 169 211 254 311 377
#     4  10  22  39  62  90 124 164 212 263 311 363
#     4  10  23  43  67  95 124 160 207 259 318 374
#     4  10  23  40  62  95 127 167 211 262 312 367
#
# _framework density 21.359767999999999
#
# number of rings (size 3 to 8) (size 9 to 14) (size 15 to 20)
#    1.500    0.500    0.000    2.250    3.500    5.500 
#    0.000    1.250    0.000    0.000    0.000    0.000 
#    0.000    0.000    0.000    0.000    0.000    0.000 
#
# Total GULP energy -89203.328240 kJ/mol
# GULP energy per Si atom -5575.208015 kJ/mol
# Density = 2.131115 g / cm^3
# Si number density = 21.359768 Si / 1000 Ang^3
#
#
#
# Elastic Constant Matrix: (Units=GPa)
#
#
# Indices 1 2 3 4 5 6 
#
# 1 135.0742 13.2771 17.8047 0.0000 10.2536 0.0000
# 2 13.2771 171.2503 54.7338 0.0000 2.9427 0.0000
# 3 17.8047 54.7338 74.0053 0.0000 1.2463 0.0000
# 4 0.0000 0.0000 0.0000 12.2672 0.0000 14.1421
# 5 10.2536 2.9427 1.2463 0.0000 27.7986 0.0000
# 6 0.0000 0.0000 0.0000 14.1421 0.0000 19.0706
#
#
#
# Elastic Compliance Matrix: (Units=1/GPa)
#
#
# Indices 1 2 3 4 5 6 
#
# 1 0.007860 0.000037 -0.001871 0.000000 -0.002819 0.000000
# 2 0.000037 0.007656 -0.005661 0.000000 -0.000570 0.000000
# 3 -0.001871 -0.005661 0.018142 0.000000 0.000476 0.000000
# 4 0.000000 0.000000 0.000000 0.561836 0.000000 -0.416639
# 5 -0.002819 -0.000570 0.000476 0.000000 0.037052 0.000000
# 6 0.000000 0.000000 0.000000 -0.416639 0.000000 0.361403
#
#
# Mechanical properties :
#
#
# Convention : Reuss Voigt Hill
#
# Bulk Modulus (GPa) = 53.57018 61.32897 57.44957
# Shear Modulus (GPa) = 4.92532 31.46157 18.19345
#
# Velocity S-wave (km/s) = 1.52016 3.84205 2.92166
# Velocity P-wave (km/s) = 5.31183 6.96107 6.19161
#
# Compressibility (1/GPa) = 0.01866710
#
# Stress axis : x y z
#
# Youngs Moduli (GPa) = 127.22096 130.61959 55.12115
#
# Poissons Ratio (x) = -0.00484 0.10313
# Poissons Ratio (y) = -0.00471 0.31207
# Poissons Ratio (z) = 0.23803 0.73950
#
# Static dielectric constant tensor:
#      x y z
#    x 1.797630 0.000000 -0.033610 
#    y 0.000000 1.772290 0.000000 
#    z -0.033610 0.000000 1.779030 
# 
# From -- ./inp_files/10648.got.cif
#   From: 2010.05.17/outbox.cif.g08.bks.cpg/sg10_6_cif.got.tgz:10648.got - 2010.06.03 11:33:40.
