data_PCOD9153869
_publ_section_title
;
Structure prediction by ZEFSAII (Michael W. Deem and Ramdas Pophale) SiO2 
 PCOD9153869
Probable space group: P 2/M
;
_chemical_formula_sum "Si O2"
_cell_formula_units_Z 21
_cell_length_a 14.106601
_cell_length_b 13.903952
_cell_length_c 11.232589
_cell_angle_alpha 90.000000
_cell_angle_beta 32.312964
_cell_angle_gamma 90.000000
_cell_volume 1177.670064
_symmetry_space_group_name_H-M "P 2/M"
_symmetry_group_IT_number 10
_symmetry_cell_setting 'monoclinic'
loop_
_space_group_symop_operation_xyz
x,y,z
-x,y,-z
-x,-y,-z
x,-y,z
loop_
_atom_site_type_symbol
_atom_site_label
_atom_site_fract_x
_atom_site_fract_y
_atom_site_fract_z
Si Si1 0.734423 0.798289 0.052409
Si Si2 0.267238 0.000000 0.320671
Si Si3 0.000000 0.500000 0.500000
Si Si4 0.356925 0.814245 0.358090
Si Si5 0.213392 0.888575 0.762526
Si Si6 0.960334 0.301475 0.412340
Si Si7 0.142189 0.000000 0.183681
O O1 0.549517 0.774419 0.185799
O O2 0.715902 0.814449 0.213151
O O3 0.887055 0.728081 0.842561
O O4 0.793478 0.904493 0.948565
O O5 0.366467 0.094789 0.259750
O O6 0.222770 0.000000 0.229610
O O7 0.071049 0.000000 0.588315
O O8 0.037940 0.413660 0.558134
O O9 0.273242 0.854938 0.569140
O O10 0.224668 0.737693 0.440342
O O11 0.271575 0.000000 0.719140
O O12 0.000000 0.887448 0.000000
O O13 0.000000 0.251979 0.500000
#
# Coordination Sequence:
#
# PCOD9153869 Si02
#       7
#     4   2   1   4   4   4   2
#     4  12  23  36  59  89 127 167 205 246 292 356
#     4  11  21  34  51  81 127 173 205 239 284 347
#     4   8  24  48  74  84 116 154 192 264 340 374
#     4  12  23  36  59  89 127 167 205 246 292 356
#     4  11  21  37  57  84 130 179 211 240 282 341
#     4  10  22  44  64  90 116 150 202 251 320 375
#     4  11  21  34  51  81 127 173 205 239 284 347
#
# _framework density 17.831821000000001
#
# number of rings (size 3 to 8) (size 9 to 14) (size 15 to 20)
#    0.571    0.381    5.714    2.286    0.000    4.571 
#    0.000    1.905    0.000    2.286    0.000    2.667 
#    0.000    0.000    0.000    0.000    0.000    0.000 
#
# Total GULP energy -117054.743810 kJ/mol
# GULP energy per Si atom -5574.035420 kJ/mol
# Density = 1.779123 g / cm^3
# Si number density = 17.831821 Si / 1000 Ang^3
#
#
#
# Elastic Constant Matrix: (Units=GPa)
#
#
# Indices 1 2 3 4 5 6 
#
# 1 103.0143 39.5143 15.4334 0.0000 -8.4497 0.0000
# 2 39.5143 114.1218 19.2680 0.0000 -5.3728 0.0000
# 3 15.4334 19.2680 47.0753 0.0000 -11.0544 0.0000
# 4 0.0000 0.0000 0.0000 2.9743 0.0000 5.0929
# 5 -8.4497 -5.3728 -11.0544 0.0000 39.0199 0.0000
# 6 0.0000 0.0000 0.0000 5.0929 0.0000 -2.7861
#
#
#
# Elastic Compliance Matrix: (Units=1/GPa)
#
#
# Indices 1 2 3 4 5 6 
#
# 1 0.011493 -0.003580 -0.001965 0.000000 0.001439 0.000000
# 2 -0.003580 0.010530 -0.003190 0.000000 -0.000229 0.000000
# 3 -0.001965 -0.003190 0.024628 0.000000 0.006112 0.000000
# 4 0.000000 0.000000 0.000000 0.081406 0.000000 0.148809
# 5 0.001439 -0.000229 0.006112 0.000000 0.027640 0.000000
# 6 0.000000 0.000000 0.000000 0.148809 0.000000 -0.086905
#
#
# Mechanical properties :
#
#
# Convention : Reuss Voigt Hill
#
# Bulk Modulus (GPa) = 34.26852 45.84919 40.05885
# Shear Modulus (GPa) = 52.09026 20.50801 36.29914
#
# Velocity S-wave (km/s) = 5.41067 3.39496 4.51670
# Velocity P-wave (km/s) = 7.63500 6.41370 7.05084
#
# Compressibility (1/GPa) = 0.02918130
#
# Stress axis : x y z
#
# Youngs Moduli (GPa) = 87.00967 94.96752 40.60473
#
# Poissons Ratio (x) = 0.33998 0.07977
# Poissons Ratio (y) = 0.31149 0.12953
# Poissons Ratio (z) = 0.17094 0.30295
#
# Static dielectric constant tensor:
#      x y z
#    x 1.646790 0.000000 -0.005690 
#    y 0.000000 1.550880 0.000000 
#    z -0.005690 0.000000 1.640440 
# 
# From -- ./inp_files/51367.got.cif
#   From: 2010.05.17/outbox.cif.g08.bks.cpg/sg10_26_cif.got.tgz:51367.got - 2010.06.03 11:33:40.
