data_PCOD9153204
_publ_section_title
;
Structure prediction by ZEFSAII (Michael W. Deem and Ramdas Pophale) SiO2 
 PCOD9153204
Probable space group: P 2/M
;
_chemical_formula_sum "Si O2"
_cell_formula_units_Z 24
_cell_length_a 15.163013
_cell_length_b 11.774640
_cell_length_c 19.914760
_cell_angle_alpha 90.000000
_cell_angle_beta 161.164837
_cell_angle_gamma 90.000000
_cell_volume 1147.901023
_symmetry_space_group_name_H-M "P 2/M"
_symmetry_group_IT_number 10
_symmetry_cell_setting 'monoclinic'
loop_
_space_group_symop_operation_xyz
x,y,z
-x,y,-z
-x,-y,-z
x,-y,z
loop_
_atom_site_type_symbol
_atom_site_label
_atom_site_fract_x
_atom_site_fract_y
_atom_site_fract_z
Si Si1 0.237136 0.627211 0.349010
Si Si2 0.777090 0.195974 0.032793
Si Si3 0.186647 0.866839 0.788669
Si Si4 0.501095 0.377428 0.317910
Si Si5 0.254191 0.121603 0.133271
Si Si6 0.192763 0.714557 0.579825
O O1 0.500000 0.679501 0.500000
O O2 0.203843 0.500000 0.297376
O O3 0.317921 0.620948 0.484856
O O4 0.957318 0.694374 0.143857
O O5 0.865556 0.153164 0.169669
O O6 0.823162 0.118729 0.001008
O O7 0.454166 0.222540 0.800797
O O8 0.980753 0.799296 0.592547
O O9 0.165236 0.000000 0.758263
O O10 0.500000 0.831038 0.000000
O O11 0.344658 0.500000 0.206497
O O12 0.374324 0.249587 0.228146
O O13 0.680791 0.375139 0.380257
O O14 0.409434 0.000000 0.258061
O O15 0.000000 0.119805 0.000000
O O16 0.000000 0.670991 0.500000
#
# Coordination Sequence:
#
# PCOD9153204 Si02
#       6
#     4   4   4   4   4   4
#     4  10  21  40  67  98 131 172 227 284 335 398
#     4  11  22  40  66  95 134 178 221 271 342 403
#     4  11  23  40  65  96 132 179 229 277 335 403
#     4  10  22  40  63  93 130 172 222 272 330 400
#     4  10  22  40  63  96 135 172 219 276 334 399
#     4  11  23  40  64  95 135 171 220 276 340 401
#
# _framework density 20.907726
#
# number of rings (size 3 to 8) (size 9 to 14) (size 15 to 20)
#    0.000    1.500    3.333    1.500    0.000    7.000 
#    0.000    0.000    0.000    6.500    0.000    0.000 
#    0.000    0.000    0.000    0.000    0.000    0.000 
#
# Total GULP energy -133710.645315 kJ/mol
# GULP energy per Si atom -5571.276888 kJ/mol
# Density = 2.086014 g / cm^3
# Si number density = 20.907726 Si / 1000 Ang^3
#
#
#
# Elastic Constant Matrix: (Units=GPa)
#
#
# Indices 1 2 3 4 5 6 
#
# 1 94.4168 5.4698 23.1662 0.0000 16.1728 0.0000
# 2 5.4698 157.2357 51.2959 0.0000 2.6124 0.0000
# 3 23.1662 51.2959 86.4618 0.0000 -3.5772 0.0000
# 4 0.0000 0.0000 0.0000 24.7108 0.0000 -9.7403
# 5 16.1728 2.6124 -3.5772 0.0000 34.2034 0.0000
# 6 0.0000 0.0000 0.0000 -9.7403 0.0000 34.5638
#
#
#
# Elastic Compliance Matrix: (Units=1/GPa)
#
#
# Indices 1 2 3 4 5 6 
#
# 1 0.012708 0.001073 -0.004312 0.000000 -0.006542 0.000000
# 2 0.001073 0.008018 -0.005113 0.000000 -0.001655 0.000000
# 3 -0.004312 -0.005113 0.015924 0.000000 0.004095 0.000000
# 4 0.000000 0.000000 0.000000 0.045525 0.000000 0.012829
# 5 -0.006542 -0.001655 0.004095 0.000000 0.032885 0.000000
# 6 0.000000 0.000000 0.000000 0.012829 0.000000 0.032547
#
#
# Mechanical properties :
#
#
# Convention : Reuss Voigt Hill
#
# Bulk Modulus (GPa) = 50.13517 55.33091 52.73304
# Shear Modulus (GPa) = 29.24665 35.90776 32.57721
#
# Velocity S-wave (km/s) = 3.74417 4.14870 3.95161
# Velocity P-wave (km/s) = 6.53629 7.03354 6.78947
#
# Compressibility (1/GPa) = 0.01994608
#
# Stress axis : x y z
#
# Youngs Moduli (GPa) = 78.69186 124.71813 62.79780
#
# Poissons Ratio (x) = -0.13388 0.27081
# Poissons Ratio (y) = -0.08447 0.32109
# Poissons Ratio (z) = 0.33935 0.63769
#
# Static dielectric constant tensor:
#      x y z
#    x 1.742130 0.000000 0.008620 
#    y 0.000000 1.807500 0.000000 
#    z 0.008620 0.000000 1.768420 
# 
# From -- ./inp_files/85228.got.cif
#   From: 2010.05.17/outbox.cif.g08.bks.cpg/sg10_43_cif.got.tgz:85228.got - 2010.06.03 11:33:40.
