data_PCOD9153732
_publ_section_title
;
Structure prediction by ZEFSAII (Michael W. Deem and Ramdas Pophale) SiO2 
 PCOD9153732
Probable space group: P 2/M
;
_chemical_formula_sum "Si O2"
_cell_formula_units_Z 20
_cell_length_a 7.332144
_cell_length_b 10.590773
_cell_length_c 21.048858
_cell_angle_alpha 90.000000
_cell_angle_beta 34.309989
_cell_angle_gamma 90.000000
_cell_volume 921.323510
_symmetry_space_group_name_H-M "P 2/M"
_symmetry_group_IT_number 10
_symmetry_cell_setting 'monoclinic'
loop_
_space_group_symop_operation_xyz
x,y,z
-x,y,-z
-x,-y,-z
x,-y,z
loop_
_atom_site_type_symbol
_atom_site_label
_atom_site_fract_x
_atom_site_fract_y
_atom_site_fract_z
Si Si1 0.736916 0.641451 0.518350
Si Si2 0.276705 0.238652 0.745713
Si Si3 0.655564 0.861572 0.862972
Si Si4 0.873865 0.857678 0.654465
Si Si5 0.154237 0.641228 0.025629
O O1 0.722804 0.500000 0.495731
O O2 0.410097 0.683329 0.647316
O O3 0.000000 0.638316 0.500000
O O4 0.864397 0.749139 0.434511
O O5 0.576455 0.166229 0.691619
O O6 0.991472 0.149486 0.803659
O O7 0.120733 0.329367 0.843565
O O8 0.735652 0.848335 0.765300
O O9 0.424364 0.748775 0.950421
O O10 0.505858 0.000000 0.916338
O O11 0.002861 0.000000 0.607962
O O12 0.285338 0.500000 0.996891
O O13 0.000000 0.648021 0.000000
#
# Coordination Sequence:
#
# PCOD9153732 Si02
#       5
#     4   4   4   4   4
#     4   9  20  38  63  92 124 163 207 255 308 368
#     4  11  22  40  66  93 124 165 207 259 310 370
#     4  11  25  42  64  96 127 164 211 257 309 373
#     4  10  22  41  63  91 127 165 206 256 308 365
#     4  11  24  43  67  93 124 166 210 258 314 374
#
# _framework density 21.707899999999999
#
# number of rings (size 3 to 8) (size 9 to 14) (size 15 to 20)
#    0.000    1.600    2.000    1.800    0.000   12.000 
#    0.000    3.000    0.000    0.000    0.000    0.000 
#    0.000    0.000    0.000    0.000    0.000    0.000 
#
# Total GULP energy -111869.215505 kJ/mol
# GULP energy per Si atom -5593.460775 kJ/mol
# Density = 2.165849 g / cm^3
# Si number density = 21.707900 Si / 1000 Ang^3
#
#
#
# Elastic Constant Matrix: (Units=GPa)
#
#
# Indices 1 2 3 4 5 6 
#
# 1 74.2748 22.5304 7.2130 0.0000 1.8403 0.0000
# 2 22.5304 221.2974 91.1736 0.0000 7.2872 0.0000
# 3 7.2130 91.1736 110.1031 0.0000 2.8218 0.0000
# 4 0.0000 0.0000 0.0000 13.6692 0.0000 -5.1060
# 5 1.8403 7.2872 2.8218 0.0000 19.6042 0.0000
# 6 0.0000 0.0000 0.0000 -5.1060 0.0000 8.0872
#
#
#
# Elastic Compliance Matrix: (Units=1/GPa)
#
#
# Indices 1 2 3 4 5 6 
#
# 1 0.013916 -0.001554 0.000395 0.000000 -0.000786 0.000000
# 2 -0.001554 0.007092 -0.005728 0.000000 -0.001666 0.000000
# 3 0.000395 -0.005728 0.013797 0.000000 0.000106 0.000000
# 4 0.000000 0.000000 0.000000 0.095736 0.000000 0.060445
# 5 -0.000786 -0.001666 0.000106 0.000000 0.051687 0.000000
# 6 0.000000 0.000000 0.000000 0.060445 0.000000 0.161815
#
#
# Mechanical properties :
#
#
# Convention : Reuss Voigt Hill
#
# Bulk Modulus (GPa) = 47.54802 71.94548 59.74675
# Shear Modulus (GPa) = 13.70516 27.25601 20.48058
#
# Velocity S-wave (km/s) = 2.51538 3.54726 3.07492
# Velocity P-wave (km/s) = 5.51247 7.07049 6.33953
#
# Compressibility (1/GPa) = 0.02103137
#
# Stress axis : x y z
#
# Youngs Moduli (GPa) = 71.86017 141.00871 72.47939
#
# Poissons Ratio (x) = 0.21908 -0.02863
# Poissons Ratio (y) = 0.11165 0.41516
# Poissons Ratio (z) = -0.02839 0.80770
#
# Static dielectric constant tensor:
#      x y z
#    x 1.788770 0.000000 0.010570 
#    y 0.000000 1.776330 0.000000 
#    z 0.010570 0.000000 1.759460 
# 
# From -- ./inp_files/87794.got.cif
#   From: 2010.05.17/outbox.cif.g08.bks.cpg/sg10_44_cif.got.tgz:87794.got - 2010.06.03 11:33:40.
