data_PCOD9153300
_publ_section_title
;
Structure prediction by ZEFSAII (Michael W. Deem and Ramdas Pophale) SiO2 
 PCOD9153300
Probable space group: P 2/M
;
_chemical_formula_sum "Si O2"
_cell_formula_units_Z 21
_cell_length_a 7.971563
_cell_length_b 22.747238
_cell_length_c 6.478443
_cell_angle_alpha 90.000000
_cell_angle_beta 118.140278
_cell_angle_gamma 90.000000
_cell_volume 1035.882966
_symmetry_space_group_name_H-M "P 2/M"
_symmetry_group_IT_number 10
_symmetry_cell_setting 'monoclinic'
loop_
_space_group_symop_operation_xyz
x,y,z
-x,y,-z
-x,-y,-z
x,-y,z
loop_
_atom_site_type_symbol
_atom_site_label
_atom_site_fract_x
_atom_site_fract_y
_atom_site_fract_z
Si Si1 0.000000 0.883368 0.500000
Si Si2 0.500000 0.500000 0.500000
Si Si3 0.307909 0.298900 0.995580
Si Si4 0.277152 0.065564 0.316696
Si Si5 0.189447 0.599934 0.233543
Si Si6 0.000000 0.340573 0.500000
Si Si7 0.186141 0.176608 0.984385
O O1 0.860030 0.920286 0.568223
O O2 0.872483 0.842822 0.277943
O O3 0.350112 0.551273 0.334596
O O4 0.135597 0.303701 0.730657
O O5 0.500000 0.319851 0.000000
O O6 0.259050 0.341505 0.155575
O O7 0.328441 0.230992 0.071768
O O8 0.500000 0.066332 0.500000
O O9 0.246339 0.117244 0.135018
O O10 0.231229 0.000000 0.211345
O O11 0.127867 0.618660 0.427259
O O12 0.000000 0.580171 0.000000
O O13 0.000000 0.198376 0.000000
#
# Coordination Sequence:
#
# PCOD9153300 Si02
#       7
#     2   1   4   4   4   2   4
#     4  10  22  38  64  89 119 166 204 264 328 378
#     4  12  22  42  66  96 128 168 206 256 304 368
#     4  11  23  40  65  95 126 164 211 260 317 377
#     4  10  23  41  60  88 124 164 211 262 315 386
#     4  10  23  42  64  93 128 166 209 256 308 369
#     4  10  21  43  66  91 128 169 202 262 314 367
#     4  10  22  40  61  91 122 158 207 260 315 380
#
# _framework density 20.272561
#
# number of rings (size 3 to 8) (size 9 to 14) (size 15 to 20)
#    0.000    1.714    0.000    4.000    2.667    6.095 
#    1.714   10.952    0.000    0.000    0.000    0.000 
#    0.000    0.000    0.000    0.000    0.000    0.000 
#
# Total GULP energy -117060.943441 kJ/mol
# GULP energy per Si atom -5574.330640 kJ/mol
# Density = 2.022642 g / cm^3
# Si number density = 20.272561 Si / 1000 Ang^3
#
#
#
# Elastic Constant Matrix: (Units=GPa)
#
#
# Indices 1 2 3 4 5 6 
#
# 1 79.5074 50.8019 34.0266 0.0000 4.1921 0.0000
# 2 50.8019 150.3136 69.3964 0.0000 -2.7007 0.0000
# 3 34.0266 69.3964 87.9327 0.0000 -14.6203 0.0000
# 4 0.0000 0.0000 0.0000 2.5885 0.0000 33.7821
# 5 4.1921 -2.7007 -14.6203 0.0000 25.9978 0.0000
# 6 0.0000 0.0000 0.0000 33.7821 0.0000 35.3101
#
#
#
# Elastic Compliance Matrix: (Units=1/GPa)
#
#
# Indices 1 2 3 4 5 6 
#
# 1 0.017308 -0.003801 -0.004664 0.000000 -0.005808 0.000000
# 2 -0.003801 0.011677 -0.008209 0.000000 -0.002790 0.000000
# 3 -0.004664 -0.008209 0.021664 0.000000 0.012082 0.000000
# 4 0.000000 0.000000 0.000000 -0.033634 0.000000 0.032179
# 5 -0.005808 -0.002790 0.012082 0.000000 0.045906 0.000000
# 6 0.000000 0.000000 0.000000 0.032179 0.000000 -0.002466
#
#
# Mechanical properties :
#
#
# Convention : Reuss Voigt Hill
#
# Bulk Modulus (GPa) = 57.79368 69.57815 63.68592
# Shear Modulus (GPa) = 50.21610 23.68122 36.94866
#
# Velocity S-wave (km/s) = 4.98239 3.42152 4.27382
# Velocity P-wave (km/s) = 7.85297 7.07141 7.47242
#
# Compressibility (1/GPa) = 0.01730293
#
# Stress axis : x y z
#
# Youngs Moduli (GPa) = 57.77586 85.63892 46.15942
#
# Poissons Ratio (x) = 0.32551 0.21527
# Poissons Ratio (y) = 0.21960 0.37890
# Poissons Ratio (z) = 0.26945 0.70297
#
# Static dielectric constant tensor:
#      x y z
#    x 1.754530 0.000000 0.006210 
#    y 0.000000 1.696420 0.000000 
#    z 0.006210 0.000000 1.706000 
# 
# From -- ./inp_files/4869.got.cif
#   From: 2010.05.17/outbox.cif.g08.bks.cpg/sg10_3_cif.got.tgz:4869.got - 2010.06.03 11:33:40.
