data_PCOD9153344
_publ_section_title
;
Structure prediction by ZEFSAII (Michael W. Deem and Ramdas Pophale) SiO2 
 PCOD9153344
Probable space group: P 2/M
;
_chemical_formula_sum "Si O2"
_cell_formula_units_Z 16
_cell_length_a 7.422600
_cell_length_b 11.983208
_cell_length_c 7.422611
_cell_angle_alpha 90.000000
_cell_angle_beta 90.000137
_cell_angle_gamma 90.000000
_cell_volume 660.215712
_symmetry_space_group_name_H-M "P 2/M"
_symmetry_group_IT_number 10
_symmetry_cell_setting 'monoclinic'
loop_
_space_group_symop_operation_xyz
x,y,z
-x,y,-z
-x,-y,-z
x,-y,z
loop_
_atom_site_type_symbol
_atom_site_label
_atom_site_fract_x
_atom_site_fract_y
_atom_site_fract_z
Si Si1 0.220865 0.000000 0.381891
Si Si2 0.500000 0.807913 0.000000
Si Si3 0.000000 0.192087 0.500000
Si Si4 0.126152 0.377666 0.723356
Si Si5 0.618109 0.000000 0.220865
Si Si6 0.723355 0.622334 0.873847
O O1 0.100036 0.889856 0.360017
O O2 0.405620 0.000000 0.274465
O O3 0.274465 0.000000 0.594380
O O4 0.360017 0.889857 0.899964
O O5 0.593998 0.727250 0.853795
O O6 0.853796 0.272750 0.406001
O O7 0.164723 0.500000 0.642139
O O8 0.913320 0.372685 0.773230
O O9 0.226768 0.372685 0.913321
O O10 0.642138 0.500000 0.835277
#
# Coordination Sequence:
#
# PCOD9153344 Si02
#       6
#     2   2   2   4   2   4
#     4  10  22  36  48  68  98 128 160 202 242 272
#     4  11  19  32  54  72  91 127 168 194 228 287
#     4  11  19  32  54  72  91 127 168 194 228 287
#     4   9  18  32  50  74 101 124 151 193 240 283
#     4  10  22  36  48  68  98 128 160 202 242 272
#     4   9  18  32  50  74 101 124 151 193 240 283
#
# _framework density 24.234503
#
# number of rings (size 3 to 8) (size 9 to 14) (size 15 to 20)
#    0.000    2.250    0.000    5.250    0.000    0.000 
#    0.000    0.000    0.000   12.000    0.000   21.000 
#    0.000    0.000    0.000    0.000    0.000    0.000 
#
# Total GULP energy -89416.477362 kJ/mol
# GULP energy per Si atom -5588.529835 kJ/mol
# Density = 2.417934 g / cm^3
# Si number density = 24.234503 Si / 1000 Ang^3
#
#
#
# Elastic Constant Matrix: (Units=GPa)
#
#
# Indices 1 2 3 4 5 6 
#
# 1 51.0997 8.7988 -16.6101 0.0000 -13.7812 0.0000
# 2 8.7988 173.9835 8.7990 0.0000 0.0002 0.0000
# 3 -16.6101 8.7990 51.1006 0.0000 13.7816 0.0000
# 4 0.0000 0.0000 0.0000 20.6004 0.0000 0.0001
# 5 -13.7812 0.0002 13.7816 0.0000 29.2572 0.0000
# 6 0.0000 0.0000 0.0000 0.0001 0.0000 20.6001
#
#
#
# Elastic Compliance Matrix: (Units=1/GPa)
#
#
# Indices 1 2 3 4 5 6 
#
# 1 0.024017 -0.001505 0.005745 0.000000 0.008607 0.000000
# 2 -0.001505 0.005900 -0.001505 0.000000 0.000000 0.000000
# 3 0.005745 -0.001505 0.024017 0.000000 -0.008607 0.000000
# 4 0.000000 0.000000 0.000000 0.048543 0.000000 0.000000
# 5 0.008607 0.000000 -0.008607 0.000000 0.042288 0.000000
# 6 0.000000 0.000000 0.000000 0.000000 0.000000 0.048543
#
#
# Mechanical properties :
#
#
# Convention : Reuss Voigt Hill
#
# Bulk Modulus (GPa) = 16.83417 30.90659 23.87038
# Shear Modulus (GPa) = 24.08002 32.43795 28.25898
#
# Velocity S-wave (km/s) = 3.15560 3.66252 3.41847
# Velocity P-wave (km/s) = 4.49873 5.53771 5.04504
#
# Compressibility (1/GPa) = 0.05940300
#
# Stress axis : x y z
#
# Youngs Moduli (GPa) = 41.63657 169.49405 41.63712
#
# Poissons Ratio (x) = 0.25512 -0.23919
# Poissons Ratio (y) = 0.06267 0.06267
# Poissons Ratio (z) = -0.23919 0.25511
#
# Static dielectric constant tensor:
#      x y z
#    x 1.923170 0.000000 0.000000 
#    y 0.000000 1.990400 0.000000 
#    z 0.000000 0.000000 1.923170 
# 
# From -- ./inp_files/16624.got.cif
#   From: 2010.05.17/outbox.cif.g08.bks.cpg/sg10_9_cif.got.tgz:16624.got - 2010.06.03 11:33:40.
