data_PCOD9153340
_publ_section_title
;
Structure prediction by ZEFSAII (Michael W. Deem and Ramdas Pophale) SiO2 
 PCOD9153340
Probable space group: P 2/M
;
_chemical_formula_sum "Si O2"
_cell_formula_units_Z 26
_cell_length_a 9.583441
_cell_length_b 16.817433
_cell_length_c 7.627319
_cell_angle_alpha 90.000000
_cell_angle_beta 80.872236
_cell_angle_gamma 90.000000
_cell_volume 1213.720047
_symmetry_space_group_name_H-M "P 2/M"
_symmetry_group_IT_number 10
_symmetry_cell_setting 'monoclinic'
loop_
_space_group_symop_operation_xyz
x,y,z
-x,y,-z
-x,-y,-z
x,-y,z
loop_
_atom_site_type_symbol
_atom_site_label
_atom_site_fract_x
_atom_site_fract_y
_atom_site_fract_z
Si Si1 0.910320 0.588254 0.250635
Si Si2 0.622778 0.754394 0.703000
Si Si3 0.443072 0.000000 0.730144
Si Si4 0.668566 0.828743 0.336749
Si Si5 0.270397 0.000000 0.131371
Si Si6 0.199972 0.833719 0.059446
Si Si7 0.773036 0.410203 0.654942
Si Si8 0.000000 0.285390 0.000000
O O1 0.888687 0.500000 0.180994
O O2 0.815470 0.595735 0.441427
O O3 0.888404 0.657099 0.115898
O O4 0.075003 0.595216 0.277321
O O5 0.706362 0.795934 0.521846
O O6 0.459392 0.770398 0.695426
O O7 0.662055 0.802255 0.869621
O O8 0.670577 0.663275 0.714104
O O9 0.392508 0.081203 0.648659
O O10 0.610483 0.000000 0.741139
O O11 0.362620 0.000000 0.933634
O O12 0.778252 0.831392 0.154466
O O13 0.177285 0.078795 0.137998
O O14 0.077753 0.771136 0.121791
O O15 0.717716 0.500000 0.698429
#
# Coordination Sequence:
#
# PCOD9153340 Si02
#       8
#     4   4   2   4   2   4   4   2
#     4   9  18  33  55  80 106 139 186 231 263 312
#     4  11  20  35  57  83 110 139 182 229 275 321
#     4   9  16  34  57  81 105 141 188 231 266 306
#     4  10  22  35  57  83 109 143 186 229 271 318
#     4   9  18  34  56  76 112 149 175 224 278 314
#     4  11  22  37  54  82 114 145 181 227 272 325
#     4   9  18  35  55  77 109 145 178 222 275 325
#     4  12  21  33  56  84 110 144 182 223 279 326
#
# _framework density 21.421745000000001
#
# number of rings (size 3 to 8) (size 9 to 14) (size 15 to 20)
#    0.000    2.000    3.077    2.538    0.000    2.154 
#    0.000    1.538    0.000    3.692    0.000    5.385 
#    0.000    0.000    0.000    0.000    0.000    0.000 
#
# Total GULP energy -145075.422679 kJ/mol
# GULP energy per Si atom -5579.823949 kJ/mol
# Density = 2.137299 g / cm^3
# Si number density = 21.421745 Si / 1000 Ang^3
#
#
#
# Elastic Constant Matrix: (Units=GPa)
#
#
# Indices 1 2 3 4 5 6 
#
# 1 22.2445 20.7511 -10.8225 0.0000 3.0842 0.0000
# 2 20.7511 186.2433 6.5306 0.0000 1.4287 0.0000
# 3 -10.8225 6.5306 60.7050 0.0000 3.7414 0.0000
# 4 0.0000 0.0000 0.0000 12.3662 0.0000 1.7798
# 5 3.0842 1.4287 3.7414 0.0000 15.8020 0.0000
# 6 0.0000 0.0000 0.0000 1.7798 0.0000 20.1981
#
#
#
# Elastic Compliance Matrix: (Units=1/GPa)
#
#
# Indices 1 2 3 4 5 6 
#
# 1 0.059242 -0.006921 0.012158 0.000000 -0.013815 0.000000
# 2 -0.006921 0.006200 -0.001978 0.000000 0.001259 0.000000
# 3 0.012158 -0.001978 0.019270 0.000000 -0.006756 0.000000
# 4 0.000000 0.000000 0.000000 0.081905 0.000000 -0.007217
# 5 -0.013815 0.001259 -0.006756 0.000000 0.067465 0.000000
# 6 0.000000 0.000000 0.000000 -0.007217 0.000000 0.050145
#
#
# Mechanical properties :
#
#
# Convention : Reuss Voigt Hill
#
# Bulk Modulus (GPa) = 10.96154 33.56792 22.26473
# Shear Modulus (GPa) = 16.22744 26.52217 21.37480
#
# Velocity S-wave (km/s) = 2.75530 3.52248 3.16224
# Velocity P-wave (km/s) = 3.90517 5.67872 4.87330
#
# Compressibility (1/GPa) = 0.09122803
#
# Stress axis : x y z
#
# Youngs Moduli (GPa) = 16.88001 161.28578 51.89462
#
# Poissons Ratio (x) = 1.11626 -0.63092
# Poissons Ratio (y) = 0.11683 0.10267
# Poissons Ratio (z) = -0.20522 0.31910
#
# Static dielectric constant tensor:
#      x y z
#    x 1.771580 0.000000 -0.009600 
#    y 0.000000 1.801290 0.000000 
#    z -0.009600 0.000000 1.819110 
# 
# From -- ./inp_files/24658.got.cif
#   From: 2010.05.17/outbox.cif.g08.bks.cpg/sg10_13_cif.got.tgz:24658.got - 2010.06.03 11:33:40.
