data_PCOD9153463
_publ_section_title
;
Structure prediction by ZEFSAII (Michael W. Deem and Ramdas Pophale) SiO2 
 PCOD9153463
Probable space group: P 2/M
;
_chemical_formula_sum "Si O2"
_cell_formula_units_Z 26
_cell_length_a 8.915496
_cell_length_b 15.465870
_cell_length_c 14.989750
_cell_angle_alpha 90.000000
_cell_angle_beta 140.963786
_cell_angle_gamma 90.000000
_cell_volume 1301.741695
_symmetry_space_group_name_H-M "P 2/M"
_symmetry_group_IT_number 10
_symmetry_cell_setting 'monoclinic'
loop_
_space_group_symop_operation_xyz
x,y,z
-x,y,-z
-x,-y,-z
x,-y,z
loop_
_atom_site_type_symbol
_atom_site_label
_atom_site_fract_x
_atom_site_fract_y
_atom_site_fract_z
Si Si1 0.561380 0.402041 0.424228
Si Si2 0.456479 0.144430 0.304075
Si Si3 0.872283 0.294252 0.856059
Si Si4 0.264881 0.000000 0.667761
Si Si5 0.776912 0.800198 0.124315
Si Si6 0.097259 0.245904 0.443353
Si Si7 0.726975 0.000000 0.663194
Si Si8 0.212086 0.000000 0.844189
O O1 0.500000 0.403789 0.500000
O O2 0.597805 0.500000 0.408926
O O3 0.324533 0.358635 0.273948
O O4 0.794484 0.342391 0.516575
O O5 0.291559 0.215455 0.183555
O O6 0.662241 0.188973 0.458159
O O7 0.601598 0.083767 0.306396
O O8 0.283485 0.084069 0.281184
O O9 0.058576 0.252967 0.870513
O O10 0.000000 0.334194 0.000000
O O11 0.323771 0.000000 0.799409
O O12 0.000000 0.000000 0.500000
O O13 0.760129 0.905185 0.098296
O O14 0.906903 0.782849 0.280451
O O15 0.500000 0.770861 0.000000
O O16 0.000000 0.234829 0.500000
O O17 0.500000 0.000000 0.500000
O O18 0.936722 0.000000 0.691632
#
# Coordination Sequence:
#
# PCOD9153463 Si02
#       8
#     4   4   4   2   4   4   2   2
#     4  10  22  45  76 104 128 159 208 269 327 393
#     4  10  22  38  60  86 122 166 222 273 318 372
#     4  11  25  43  67  95 129 173 217 262 322 393
#     4  11  21  36  54  89 125 167 214 280 331 365
#     4  12  26  42  61  93 133 177 222 269 320 376
#     4  11  23  41  69  98 129 168 214 263 325 391
#     4  11  19  32  56  84 115 161 222 285 319 359
#     4  12  23  38  55  84 129 175 224 269 315 367
#
# _framework density 19.973240000000001
#
# number of rings (size 3 to 8) (size 9 to 14) (size 15 to 20)
#    0.000    1.077    3.077    4.385    6.462    0.615 
#    0.000    1.923    0.000    0.923    0.000    0.000 
#    0.000    0.000    0.000    0.000    0.000    0.000 
#
# Total GULP energy -144964.551827 kJ/mol
# GULP energy per Si atom -5575.559686 kJ/mol
# Density = 1.992778 g / cm^3
# Si number density = 19.973240 Si / 1000 Ang^3
#
#
#
# Elastic Constant Matrix: (Units=GPa)
#
#
# Indices 1 2 3 4 5 6 
#
# 1 67.0781 24.9581 28.1062 0.0000 8.6108 0.0000
# 2 24.9581 118.4015 23.5206 0.0000 5.7651 0.0000
# 3 28.1062 23.5206 104.5419 0.0000 13.4756 0.0000
# 4 0.0000 0.0000 0.0000 7.0115 0.0000 3.1471
# 5 8.6108 5.7651 13.4756 0.0000 36.7835 0.0000
# 6 0.0000 0.0000 0.0000 3.1471 0.0000 31.5097
#
#
#
# Elastic Compliance Matrix: (Units=1/GPa)
#
#
# Indices 1 2 3 4 5 6 
#
# 1 0.017901 -0.002893 -0.003862 0.000000 -0.002322 0.000000
# 2 -0.002893 0.009325 -0.001280 0.000000 -0.000316 0.000000
# 3 -0.003862 -0.001280 0.011282 0.000000 -0.003029 0.000000
# 4 0.000000 0.000000 0.000000 0.149317 0.000000 -0.014913
# 5 -0.002322 -0.000316 -0.003029 0.000000 0.028889 0.000000
# 6 0.000000 0.000000 0.000000 -0.014913 0.000000 0.033226
#
#
# Mechanical properties :
#
#
# Convention : Reuss Voigt Hill
#
# Bulk Modulus (GPa) = 44.56683 49.24346 46.90514
# Shear Modulus (GPa) = 18.28223 29.29003 23.78613
#
# Velocity S-wave (km/s) = 3.02873 3.83360 3.45469
# Velocity P-wave (km/s) = 5.88155 6.65609 6.28077
#
# Compressibility (1/GPa) = 0.02243821
#
# Stress axis : x y z
#
# Youngs Moduli (GPa) = 55.86306 107.23607 88.63483
#
# Poissons Ratio (x) = 0.31024 0.34235
# Poissons Ratio (y) = 0.16161 0.11342
# Poissons Ratio (z) = 0.21577 0.13722
#
# Static dielectric constant tensor:
#      x y z
#    x 1.701320 0.000000 0.012940 
#    y 0.000000 1.686400 0.000000 
#    z 0.012940 0.000000 1.710330 
# 
# From -- ./inp_files/62120.got.cif
#   From: 2010.05.17/outbox.cif.g08.bks.cpg/sg10_32_cif.got.tgz:62120.got - 2010.06.03 11:33:40.
