data_PCOD9153519
_publ_section_title
;
Structure prediction by ZEFSAII (Michael W. Deem and Ramdas Pophale) SiO2 
 PCOD9153519
Probable space group: P 2/M
;
_chemical_formula_sum "Si O2"
_cell_formula_units_Z 22
_cell_length_a 7.298428
_cell_length_b 7.207824
_cell_length_c 28.398860
_cell_angle_alpha 90.000000
_cell_angle_beta 142.680936
_cell_angle_gamma 90.000000
_cell_volume 905.708285
_symmetry_space_group_name_H-M "P 2/M"
_symmetry_group_IT_number 10
_symmetry_cell_setting 'monoclinic'
loop_
_space_group_symop_operation_xyz
x,y,z
-x,y,-z
-x,-y,-z
x,-y,z
loop_
_atom_site_type_symbol
_atom_site_label
_atom_site_fract_x
_atom_site_fract_y
_atom_site_fract_z
Si Si1 0.129698 0.500000 0.319840
Si Si2 0.451530 0.220933 0.560563
Si Si3 0.384510 0.775277 0.220004
Si Si4 0.309214 0.224576 0.916650
Si Si5 0.292744 0.778658 0.810708
Si Si6 0.823194 0.224209 0.392638
O O1 0.248131 0.337777 0.380615
O O2 0.007593 0.662362 0.258725
O O3 0.330318 0.272674 0.588566
O O4 0.175268 0.273637 0.470078
O O5 0.501030 0.000000 0.567557
O O6 0.507198 0.726362 0.193490
O O7 0.616833 0.708987 0.307566
O O8 0.039463 0.714850 0.154160
O O9 0.383648 0.000000 0.222783
O O10 0.434195 0.266909 0.890232
O O11 0.304499 0.000000 0.919075
O O12 0.500000 0.291833 0.000000
O O13 0.233138 0.000000 0.797294
O O14 0.823261 0.000000 0.390923
#
# Coordination Sequence:
#
# PCOD9153519 Si02
#       6
#     2   4   4   4   4   4
#     4  12  22  35  56  83 115 154 200 242 289 341
#     4   9  18  33  55  83 117 155 198 248 287 330
#     4   9  17  33  58  84 117 158 192 234 292 345
#     4   9  18  35  63  94 117 147 193 236 286 353
#     4  10  22  39  58  85 121 155 191 238 288 344
#     4   8  15  31  55  83 116 158 200 235 288 348
#
# _framework density 24.290379999999999
#
# number of rings (size 3 to 8) (size 9 to 14) (size 15 to 20)
#    0.000    2.727    0.000    2.727    0.000    5.091 
#    0.000   10.455    0.000    5.455    0.000    0.000 
#    0.000    0.000    0.000    0.000    0.000    0.000 
#
# Total GULP energy -122507.892038 kJ/mol
# GULP energy per Si atom -5568.540547 kJ/mol
# Density = 2.423509 g / cm^3
# Si number density = 24.290380 Si / 1000 Ang^3
#
#
#
# Elastic Constant Matrix: (Units=GPa)
#
#
# Indices 1 2 3 4 5 6 
#
# 1 79.8860 12.0906 89.9432 0.0000 -40.0528 0.0000
# 2 12.0906 129.4640 22.5943 0.0000 -10.3768 0.0000
# 3 89.9432 22.5943 216.6944 0.0000 -48.5249 0.0000
# 4 0.0000 0.0000 0.0000 74.2572 0.0000 31.5188
# 5 -40.0528 -10.3768 -48.5249 0.0000 39.5560 0.0000
# 6 0.0000 0.0000 0.0000 31.5188 0.0000 -11.5139
#
#
#
# Elastic Compliance Matrix: (Units=1/GPa)
#
#
# Indices 1 2 3 4 5 6 
#
# 1 0.034811 0.000270 -0.009056 0.000000 0.024210 0.000000
# 2 0.000270 0.007931 -0.000568 0.000000 0.001657 0.000000
# 3 -0.009056 -0.000568 0.008750 0.000000 0.001415 0.000000
# 4 0.000000 0.000000 0.000000 0.006229 0.000000 0.017052
# 5 0.024210 0.001657 0.001415 0.000000 0.051965 0.000000
# 6 0.000000 0.000000 0.000000 0.017052 0.000000 -0.040173
#
#
# Mechanical properties :
#
#
# Convention : Reuss Voigt Hill
#
# Bulk Modulus (GPa) = 30.50248 75.03342 52.76795
# Shear Modulus (GPa) = 50.42950 40.55430 45.49190
#
# Velocity S-wave (km/s) = 4.56138 4.09046 4.33232
# Velocity P-wave (km/s) = 6.35030 7.29838 6.84078
#
# Compressibility (1/GPa) = 0.03278422
#
# Stress axis : x y z
#
# Youngs Moduli (GPa) = 28.72646 126.08944 114.29021
#
# Poissons Ratio (x) = -0.03403 1.03498
# Poissons Ratio (y) = -0.00775 0.06490
# Poissons Ratio (z) = 0.26014 0.07160
#
# Static dielectric constant tensor:
#      x y z
#    x 2.051160 0.000000 0.039280 
#    y 0.000000 1.927110 0.000000 
#    z 0.039280 0.000000 1.910900 
# 
# From -- ./inp_files/94572.got.cif
#   From: 2010.05.17/outbox.cif.g08.bks.cpg/sg10_48_cif.got.tgz:94572.got - 2010.06.03 11:33:40.
