data_PCOD9153121
_publ_section_title
;
Structure prediction by ZEFSAII (Michael W. Deem and Ramdas Pophale) SiO2 
 PCOD9153121
Probable space group: P 2/M
;
_chemical_formula_sum "Si O2"
_cell_formula_units_Z 32
_cell_length_a 12.548189
_cell_length_b 7.838340
_cell_length_c 32.868830
_cell_angle_alpha 90.000000
_cell_angle_beta 152.445567
_cell_angle_gamma 90.000000
_cell_volume 1495.500848
_symmetry_space_group_name_H-M "P 2/M"
_symmetry_group_IT_number 10
_symmetry_cell_setting 'monoclinic'
loop_
_space_group_symop_operation_xyz
x,y,z
-x,y,-z
-x,-y,-z
x,-y,z
loop_
_atom_site_type_symbol
_atom_site_label
_atom_site_fract_x
_atom_site_fract_y
_atom_site_fract_z
Si Si1 0.117793 0.301718 0.822313
Si Si2 0.070374 0.194960 0.157431
Si Si3 0.724175 0.208129 0.525189
Si Si4 0.598851 0.705898 0.953411
Si Si5 0.192413 0.793382 0.356774
Si Si6 0.268271 0.708598 0.090671
Si Si7 0.506292 0.303766 0.749236
Si Si8 0.024542 0.800855 0.553140
O O1 0.138572 0.500000 0.841197
O O2 0.976536 0.215190 0.810625
O O3 0.374340 0.230816 0.901442
O O4 0.983899 0.284825 0.734614
O O5 0.283066 0.298334 0.211237
O O6 0.123222 0.000000 0.165807
O O7 0.834518 0.246600 0.055330
O O8 0.837299 0.260433 0.606364
O O9 0.455117 0.253899 0.434297
O O10 0.859385 0.273644 0.531922
O O11 0.730663 0.000000 0.527745
O O12 0.582724 0.500000 0.947152
O O13 0.614206 0.763764 0.911699
O O14 0.173721 0.000000 0.348177
O O15 0.266542 0.500000 0.090797
O O16 0.398237 0.764990 0.175410
O O17 0.000000 0.761883 0.000000
O O18 0.437071 0.500000 0.732181
O O19 0.285310 0.209615 0.656916
O O20 0.000000 0.723498 0.500000
O O21 0.956860 0.000000 0.526767
#
# Coordination Sequence:
#
# PCOD9153121 Si02
#       8
#     4   4   4   4   4   4   4   4
#     4  11  24  38  59  89 121 155 198 249 301 354
#     4  12  25  41  61  85 119 158 202 248 299 357
#     4   8  17  36  59  83 116 158 199 242 296 353
#     4  10  21  40  62  86 121 160 198 239 295 356
#     4   9  18  36  61  84 112 157 204 244 293 351
#     4   9  17  35  63  88 117 160 199 238 295 360
#     4  11  23  40  64  91 122 160 205 250 302 363
#     4  10  22  39  60  88 124 162 202 249 303 358
#
# _framework density 21.397514999999999
#
# number of rings (size 3 to 8) (size 9 to 14) (size 15 to 20)
#    0.000    2.000    1.250    3.000    3.500    2.750 
#    0.000    3.750    0.000    0.000    0.000    0.000 
#    0.000    0.000    0.000    0.000    0.000    0.000 
#
# Total GULP energy -178814.708347 kJ/mol
# GULP energy per Si atom -5587.959636 kJ/mol
# Density = 2.134881 g / cm^3
# Si number density = 21.397515 Si / 1000 Ang^3
#
#
#
# Elastic Constant Matrix: (Units=GPa)
#
#
# Indices 1 2 3 4 5 6 
#
# 1 112.4737 5.5972 29.4676 0.0000 -17.3809 0.0000
# 2 5.5972 27.6057 -10.4197 0.0000 -0.7110 0.0000
# 3 29.4676 -10.4197 59.3317 0.0000 -12.6534 0.0000
# 4 0.0000 0.0000 0.0000 22.2197 0.0000 -1.8592
# 5 -17.3809 -0.7110 -12.6534 0.0000 22.3799 0.0000
# 6 0.0000 0.0000 0.0000 -1.8592 0.0000 6.9102
#
#
#
# Elastic Compliance Matrix: (Units=1/GPa)
#
#
# Indices 1 2 3 4 5 6 
#
# 1 0.011325 -0.004075 -0.005108 0.000000 0.005778 0.000000
# 2 -0.004075 0.040932 0.010023 0.000000 0.003802 0.000000
# 3 -0.005108 0.010023 0.023167 0.000000 0.009450 0.000000
# 4 0.000000 0.000000 0.000000 0.046042 0.000000 0.012388
# 5 0.005778 0.003802 0.009450 0.000000 0.054634 0.000000
# 6 0.000000 0.000000 0.000000 0.012388 0.000000 0.148046
#
#
# Mechanical properties :
#
#
# Convention : Reuss Voigt Hill
#
# Bulk Modulus (GPa) = 12.96959 27.63347 20.30153
# Shear Modulus (GPa) = 14.36092 21.95304 18.15698
#
# Velocity S-wave (km/s) = 2.59347 3.20654 2.91616
# Velocity P-wave (km/s) = 3.87847 5.16252 4.56585
#
# Compressibility (1/GPa) = 0.07710346
#
# Stress axis : x y z
#
# Youngs Moduli (GPa) = 88.30070 24.43082 43.16484
#
# Poissons Ratio (x) = 0.09957 0.22049
# Poissons Ratio (y) = 0.35986 -0.43266
# Poissons Ratio (z) = 0.45105 -0.24488
#
# Static dielectric constant tensor:
#      x y z
#    x 1.786020 0.000000 -0.001870 
#    y 0.000000 1.785130 0.000000 
#    z -0.001870 0.000000 1.730750 
# 
# From -- ./inp_files/95075.got.cif
#   From: 2010.05.17/outbox.cif.g08.bks.cpg/sg10_48_cif.got.tgz:95075.got - 2010.06.03 11:33:40.
