data_PCOD9153206
_publ_section_title
;
Structure prediction by ZEFSAII (Michael W. Deem and Ramdas Pophale) SiO2 
 PCOD9153206
Probable space group: P 2/M
;
_chemical_formula_sum "Si O2"
_cell_formula_units_Z 20
_cell_length_a 5.367564
_cell_length_b 21.580013
_cell_length_c 8.012846
_cell_angle_alpha 90.000000
_cell_angle_beta 92.740754
_cell_angle_gamma 90.000000
_cell_volume 927.083096
_symmetry_space_group_name_H-M "P 2/M"
_symmetry_group_IT_number 10
_symmetry_cell_setting 'monoclinic'
loop_
_space_group_symop_operation_xyz
x,y,z
-x,y,-z
-x,-y,-z
x,-y,z
loop_
_atom_site_type_symbol
_atom_site_label
_atom_site_fract_x
_atom_site_fract_y
_atom_site_fract_z
Si Si1 0.243622 0.925909 0.395769
Si Si2 0.987046 0.614810 0.816446
Si Si3 0.743160 0.827688 0.889636
Si Si4 0.775820 0.500000 0.361303
Si Si5 0.353642 0.500000 0.162609
Si Si6 0.766227 0.726376 0.603243
O O1 0.500000 0.908789 0.500000
O O2 0.237821 0.889452 0.222312
O O3 0.000000 0.911047 0.500000
O O4 0.245587 0.000000 0.369942
O O5 0.793389 0.562331 0.853792
O O6 0.878152 0.662693 0.680731
O O7 0.187770 0.567376 0.736963
O O8 0.000000 0.647710 0.000000
O O9 0.717874 0.772315 0.755318
O O10 0.500000 0.829236 0.000000
O O11 0.000000 0.820311 0.000000
O O12 0.479044 0.500000 0.345767
O O13 0.000000 0.500000 0.500000
O O14 0.500000 0.500000 0.000000
O O15 0.500000 0.718261 0.500000
O O16 0.000000 0.751432 0.500000
#
# Coordination Sequence:
#
# PCOD9153206 Si02
#       6
#     4   4   4   2   2   4
#     4  10  21  40  68 102 143 187 228 275 333 393
#     4  11  24  40  62  92 122 165 214 272 331 401
#     4  12  25  44  70 100 137 180 229 282 336 394
#     4  11  23  39  61  89 127 156 211 261 332 395
#     4  11  21  39  65  88 124 167 204 271 334 403
#     4  12  28  47  69  96 132 175 226 279 337 403
#
# _framework density 21.573039999999999
#
# number of rings (size 3 to 8) (size 9 to 14) (size 15 to 20)
#    0.000    0.800    2.000    5.400    5.600    2.400 
#    0.000    0.000    0.000    0.000    0.000    0.000 
#    0.000    0.000    0.000    0.000    0.000    0.000 
#
# Total GULP energy -111456.734357 kJ/mol
# GULP energy per Si atom -5572.836718 kJ/mol
# Density = 2.152394 g / cm^3
# Si number density = 21.573040 Si / 1000 Ang^3
#
#
#
# Elastic Constant Matrix: (Units=GPa)
#
#
# Indices 1 2 3 4 5 6 
#
# 1 115.1063 19.6892 35.4509 0.0000 12.5286 0.0000
# 2 19.6892 82.2599 38.3122 0.0000 -0.5313 0.0000
# 3 35.4509 38.3122 116.2447 0.0000 23.5375 0.0000
# 4 0.0000 0.0000 0.0000 26.0525 0.0000 10.1390
# 5 12.5286 -0.5313 23.5375 0.0000 48.0610 0.0000
# 6 0.0000 0.0000 0.0000 10.1390 0.0000 9.0350
#
#
#
# Elastic Compliance Matrix: (Units=1/GPa)
#
#
# Indices 1 2 3 4 5 6 
#
# 1 0.009762 -0.001295 -0.002256 0.000000 -0.001454 0.000000
# 2 -0.001295 0.014868 -0.005114 0.000000 0.003007 0.000000
# 3 -0.002256 -0.005114 0.012065 0.000000 -0.005377 0.000000
# 4 0.000000 0.000000 0.000000 0.068145 0.000000 -0.076473
# 5 -0.001454 0.003007 -0.005377 0.000000 0.023853 0.000000
# 6 0.000000 0.000000 0.000000 -0.076473 0.000000 0.196498
#
#
# Mechanical properties :
#
#
# Convention : Reuss Voigt Hill
#
# Bulk Modulus (GPa) = 51.64040 55.61284 53.62662
# Shear Modulus (GPa) = 14.32763 31.30695 22.81729
#
# Velocity S-wave (km/s) = 2.57990 3.81360 3.25572
# Velocity P-wave (km/s) = 5.73271 6.72505 6.24861
#
# Compressibility (1/GPa) = 0.01936468
#
# Stress axis : x y z
#
# Youngs Moduli (GPa) = 102.43549 67.25923 82.88658
#
# Poissons Ratio (x) = 0.08713 0.18697
# Poissons Ratio (y) = 0.13270 0.42387
# Poissons Ratio (z) = 0.23107 0.34396
#
# Static dielectric constant tensor:
#      x y z
#    x 1.770830 0.000000 0.108130 
#    y 0.000000 1.745200 0.000000 
#    z 0.108130 0.000000 1.746370 
# 
# From -- ./inp_files/15289.got.cif
#   From: 2010.05.17/outbox.cif.g08.bks.cpg/sg10_8_cif.got.tgz:15289.got - 2010.06.03 11:33:40.
