data_PCOD9153205
_publ_section_title
;
Structure prediction by ZEFSAII (Michael W. Deem and Ramdas Pophale) SiO2 
 PCOD9153205
Probable space group: P 2/M
;
_chemical_formula_sum "Si O2"
_cell_formula_units_Z 17
_cell_length_a 5.199969
_cell_length_b 24.587272
_cell_length_c 5.263500
_cell_angle_alpha 90.000000
_cell_angle_beta 95.707922
_cell_angle_gamma 90.000000
_cell_volume 669.617916
_symmetry_space_group_name_H-M "P 2/M"
_symmetry_group_IT_number 10
_symmetry_cell_setting 'monoclinic'
loop_
_space_group_symop_operation_xyz
x,y,z
-x,y,-z
-x,-y,-z
x,-y,z
loop_
_atom_site_type_symbol
_atom_site_label
_atom_site_fract_x
_atom_site_fract_y
_atom_site_fract_z
Si Si1 0.000000 0.000000 0.000000
Si Si2 0.169240 0.382128 0.772964
Si Si3 0.719583 0.731476 0.335549
Si Si4 0.321973 0.898327 0.235048
Si Si5 0.730448 0.500000 0.323170
Si Si6 0.000000 0.193418 0.000000
O O1 0.847364 0.047767 0.822190
O O2 0.352669 0.330678 0.743212
O O3 0.275446 0.442839 0.823732
O O4 0.000000 0.386147 0.500000
O O5 0.000000 0.367646 0.000000
O O6 0.500000 0.752962 0.500000
O O7 0.000000 0.728826 0.500000
O O8 0.782796 0.768797 0.102562
O O9 0.500000 0.901339 0.500000
O O10 0.500000 0.893829 0.000000
O O11 0.131470 0.846795 0.215761
O O12 0.500000 0.500000 0.500000
O O13 0.000000 0.500000 0.500000
#
# Coordination Sequence:
#
# PCOD9153205 Si02
#       6
#     1   4   4   4   2   2
#     4  10  24  50  80 120 160 208 266 324 390 472
#     4  10  21  44  68 104 142 194 254 326 402 483
#     4  11  26  46  73 104 151 204 266 329 404 482
#     4  11  27  47  79 114 161 208 265 325 397 465
#     4  10  21  40  68 102 142 190 250 325 403 481
#     4  11  28  45  72 111 154 209 270 332 396 481
#
# _framework density 25.387613999999999
#
# number of rings (size 3 to 8) (size 9 to 14) (size 15 to 20)
#    0.000    1.412    1.176    1.765    6.588    3.765 
#    0.000   16.471    0.000    0.000    0.000    0.000 
#    0.000    0.000    0.000    0.000    0.000    0.000 
#
# Total GULP energy -95043.499560 kJ/mol
# GULP energy per Si atom -5590.794092 kJ/mol
# Density = 2.532983 g / cm^3
# Si number density = 25.387614 Si / 1000 Ang^3
#
#
#
# Elastic Constant Matrix: (Units=GPa)
#
#
# Indices 1 2 3 4 5 6 
#
# 1 134.7280 42.7708 64.5076 0.0000 12.9451 0.0000
# 2 42.7708 231.3307 32.8598 0.0000 -0.5526 0.0000
# 3 64.5076 32.8598 154.0897 0.0000 7.6316 0.0000
# 4 0.0000 0.0000 0.0000 13.8935 0.0000 8.8894
# 5 12.9451 -0.5526 7.6316 0.0000 81.9458 0.0000
# 6 0.0000 0.0000 0.0000 8.8894 0.0000 -35.5700
#
#
#
# Elastic Compliance Matrix: (Units=1/GPa)
#
#
# Indices 1 2 3 4 5 6 
#
# 1 0.009734 -0.001271 -0.003745 0.000000 -0.001197 0.000000
# 2 -0.001271 0.004625 -0.000468 0.000000 0.000275 0.000000
# 3 -0.003745 -0.000468 0.008166 0.000000 -0.000172 0.000000
# 4 0.000000 0.000000 0.000000 0.062054 0.000000 0.015508
# 5 -0.001197 0.000275 -0.000172 0.000000 0.012410 0.000000
# 6 0.000000 0.000000 0.000000 0.015508 0.000000 -0.024238
#
#
# Mechanical properties :
#
#
# Convention : Reuss Voigt Hill
#
# Bulk Modulus (GPa) = 86.52137 88.93607 87.72872
# Shear Modulus (GPa) = 57.09766 37.38788 47.24277
#
# Velocity S-wave (km/s) = 4.74755 3.84172 4.31845
# Velocity P-wave (km/s) = 8.01289 7.40174 7.71337
#
# Compressibility (1/GPa) = 0.01155784
#
# Stress axis : x y z
#
# Youngs Moduli (GPa) = 102.73580 216.22211 122.46382
#
# Poissons Ratio (x) = 0.27474 0.45858
# Poissons Ratio (y) = 0.13054 0.05731
# Poissons Ratio (z) = 0.38471 0.10119
#
# Static dielectric constant tensor:
#      x y z
#    x 2.306920 0.000000 0.255390 
#    y 0.000000 2.004580 0.000000 
#    z 0.255390 0.000000 2.156570 
# 
# From -- ./inp_files/1685.got.cif
#   From: 2010.05.17/outbox.cif.g08.bks.cpg/sg10_1_cif.got.tgz:1685.got - 2010.06.03 11:33:40.
