data_PCOD9153362
_publ_section_title
;
Structure prediction by ZEFSAII (Michael W. Deem and Ramdas Pophale) SiO2 
 PCOD9153362
Probable space group: P 2/M
;
_chemical_formula_sum "Si O2"
_cell_formula_units_Z 24
_cell_length_a 10.422179
_cell_length_b 16.884853
_cell_length_c 8.542068
_cell_angle_alpha 90.000000
_cell_angle_beta 118.949071
_cell_angle_gamma 90.000000
_cell_volume 1315.381876
_symmetry_space_group_name_H-M "P 2/M"
_symmetry_group_IT_number 10
_symmetry_cell_setting 'monoclinic'
loop_
_space_group_symop_operation_xyz
x,y,z
-x,y,-z
-x,-y,-z
x,-y,z
loop_
_atom_site_type_symbol
_atom_site_label
_atom_site_fract_x
_atom_site_fract_y
_atom_site_fract_z
Si Si1 0.175904 0.232879 0.920789
Si Si2 0.167853 0.747652 0.287769
Si Si3 0.372842 0.339165 0.818671
Si Si4 0.383237 0.088658 0.070425
Si Si5 0.333446 0.588538 0.470573
Si Si6 0.428318 0.800881 0.617288
O O1 0.251654 0.301244 0.861410
O O2 0.003376 0.237660 0.786030
O O3 0.196336 0.240892 0.120168
O O4 0.256859 0.149109 0.940532
O O5 0.226373 0.658724 0.352704
O O6 0.260076 0.804287 0.460335
O O7 0.332325 0.399232 0.657664
O O8 0.436519 0.263118 0.760455
O O9 0.500000 0.373920 0.000000
O O10 0.477652 0.124699 0.270300
O O11 0.329129 0.000000 0.072607
O O12 0.500000 0.085173 0.000000
O O13 0.500000 0.596723 0.500000
O O14 0.284455 0.500000 0.399435
O O15 0.500000 0.769843 0.500000
#
# Coordination Sequence:
#
# PCOD9153362 Si02
#       6
#     4   4   4   4   4   4
#     4  11  20  39  57  86 112 158 197 233 278 357
#     4  10  22  36  61  84 114 154 199 231 287 342
#     4  11  18  33  60  84 111 153 198 232 276 346
#     4  11  22  38  60  87 117 149 191 248 294 328
#     4  10  22  38  58  89 121 146 187 246 292 329
#     4  11  18  34  57  84 109 148 195 239 270 345
#
# _framework density 18.245652
#
# number of rings (size 3 to 8) (size 9 to 14) (size 15 to 20)
#    0.000    1.333    5.000    3.000    0.000    3.333 
#    0.000    6.667    0.000    2.000    0.000    0.000 
#    0.000    0.000    0.000    0.000    0.000    0.000 
#
# Total GULP energy -133680.161726 kJ/mol
# GULP energy per Si atom -5570.006739 kJ/mol
# Density = 1.820412 g / cm^3
# Si number density = 18.245652 Si / 1000 Ang^3
#
#
#
# Elastic Constant Matrix: (Units=GPa)
#
#
# Indices 1 2 3 4 5 6 
#
# 1 92.2788 35.6968 25.8671 0.0000 10.6016 0.0000
# 2 35.6968 92.9738 16.1759 0.0000 21.8231 0.0000
# 3 25.8671 16.1759 67.7113 0.0000 16.6330 0.0000
# 4 0.0000 0.0000 0.0000 17.0310 0.0000 -1.9379
# 5 10.6016 21.8231 16.6330 0.0000 33.8471 0.0000
# 6 0.0000 0.0000 0.0000 -1.9379 0.0000 12.8104
#
#
#
# Elastic Compliance Matrix: (Units=1/GPa)
#
#
# Indices 1 2 3 4 5 6 
#
# 1 0.013791 -0.004744 -0.004350 0.000000 0.000877 0.000000
# 2 -0.004744 0.014386 0.000329 0.000000 -0.007951 0.000000
# 3 -0.004350 0.000329 0.018275 0.000000 -0.007830 0.000000
# 4 0.000000 0.000000 0.000000 0.059745 0.000000 0.009038
# 5 0.000877 -0.007951 -0.007830 0.000000 0.038244 0.000000
# 6 0.000000 0.000000 0.000000 0.009038 0.000000 0.079429
#
#
# Mechanical properties :
#
#
# Convention : Reuss Voigt Hill
#
# Bulk Modulus (GPa) = 34.57691 45.38262 39.97977
# Shear Modulus (GPa) = 19.91700 24.41930 22.16815
#
# Velocity S-wave (km/s) = 3.30753 3.66233 3.48944
# Velocity P-wave (km/s) = 5.79467 6.54299 6.18017
#
# Compressibility (1/GPa) = 0.02892103
#
# Stress axis : x y z
#
# Youngs Moduli (GPa) = 72.51367 69.51103 54.71815
#
# Poissons Ratio (x) = 0.32974 0.23805
# Poissons Ratio (y) = 0.34398 -0.01798
# Poissons Ratio (z) = 0.31547 -0.02284
#
# Static dielectric constant tensor:
#      x y z
#    x 1.663460 0.000000 0.012650 
#    y 0.000000 1.644520 0.000000 
#    z 0.012650 0.000000 1.653790 
# 
# From -- ./inp_files/25562.got.cif
#   From: 2010.05.17/outbox.cif.g08.bks.cpg/sg10_13_cif.got.tgz:25562.got - 2010.06.03 11:33:40.
