data_PCOD9153186
_publ_section_title
;
Structure prediction by ZEFSAII (Michael W. Deem and Ramdas Pophale) SiO2 
 PCOD9153186
Probable space group: P 2/M
;
_chemical_formula_sum "Si O2"
_cell_formula_units_Z 30
_cell_length_a 14.232025
_cell_length_b 16.438114
_cell_length_c 6.677758
_cell_angle_alpha 90.000000
_cell_angle_beta 111.507583
_cell_angle_gamma 90.000000
_cell_volume 1453.465135
_symmetry_space_group_name_H-M "P 2/M"
_symmetry_group_IT_number 10
_symmetry_cell_setting 'monoclinic'
loop_
_space_group_symop_operation_xyz
x,y,z
-x,y,-z
-x,-y,-z
x,-y,z
loop_
_atom_site_type_symbol
_atom_site_label
_atom_site_fract_x
_atom_site_fract_y
_atom_site_fract_z
Si Si1 0.000000 0.660793 0.500000
Si Si2 0.177691 0.660576 0.373266
Si Si3 0.729507 0.812481 0.381996
Si Si4 0.905000 0.247796 0.051219
Si Si5 0.596892 0.284296 0.954393
Si Si6 0.380636 0.596609 0.362660
Si Si7 0.780325 0.911379 0.067253
Si Si8 0.399937 0.863788 0.336192
O O1 0.908858 0.618225 0.558056
O O2 0.943689 0.714314 0.287782
O O3 0.186668 0.751558 0.470340
O O4 0.291809 0.624943 0.446938
O O5 0.141344 0.679209 0.119020
O O6 0.766043 0.891379 0.290664
O O7 0.663129 0.836069 0.520189
O O8 0.668860 0.759734 0.169498
O O9 0.834441 0.169859 0.027895
O O10 0.000000 0.217584 0.000000
O O11 0.642551 0.357450 0.863120
O O12 0.568376 0.215638 0.768121
O O13 0.500000 0.313101 0.000000
O O14 0.500000 0.616428 0.500000
O O15 0.374335 0.500000 0.340662
O O16 0.828519 0.000000 0.074806
O O17 0.672920 0.911687 0.869581
O O18 0.500000 0.904631 0.500000
#
# Coordination Sequence:
#
# PCOD9153186 Si02
#       8
#     2   4   4   4   4   4   4   4
#     4  10  22  38  72  98 118 156 224 282 308 362
#     4  11  20  41  68  93 125 165 214 264 311 375
#     4  11  20  36  62  87 114 163 216 257 301 365
#     4  10  21  40  66  94 117 158 215 261 318 380
#     4  11  20  33  62  90 116 162 220 258 301 367
#     4  11  24  41  62  98 142 174 203 254 320 380
#     4  11  24  38  56  90 129 162 203 261 329 388
#     4  11  21  38  60  88 117 165 219 264 302 363
#
# _framework density 20.640329000000001
#
# number of rings (size 3 to 8) (size 9 to 14) (size 15 to 20)
#    0.000    1.200    5.333    2.000    0.000    1.333 
#    0.000    2.000    0.000    3.600    0.000    0.000 
#    0.000    0.000    0.000    0.000    0.000    0.000 
#
# Total GULP energy -167254.398874 kJ/mol
# GULP energy per Si atom -5575.146629 kJ/mol
# Density = 2.059335 g / cm^3
# Si number density = 20.640329 Si / 1000 Ang^3
#
#
#
# Elastic Constant Matrix: (Units=GPa)
#
#
# Indices 1 2 3 4 5 6 
#
# 1 134.0362 14.9729 18.3070 0.0000 -23.0458 0.0000
# 2 14.9729 58.9638 16.4197 0.0000 -4.2908 0.0000
# 3 18.3070 16.4197 98.2123 0.0000 -8.6285 0.0000
# 4 0.0000 0.0000 0.0000 -31.9321 0.0000 7.6990
# 5 -23.0458 -4.2908 -8.6285 0.0000 39.8318 0.0000
# 6 0.0000 0.0000 0.0000 7.6990 0.0000 0.5354
#
#
#
# Elastic Compliance Matrix: (Units=1/GPa)
#
#
# Indices 1 2 3 4 5 6 
#
# 1 0.008551 -0.001580 -0.000928 0.000000 0.004576 0.000000
# 2 -0.001580 0.018146 -0.002699 0.000000 0.000456 0.000000
# 3 -0.000928 -0.002699 0.010942 0.000000 0.001543 0.000000
# 4 0.000000 0.000000 0.000000 -0.007011 0.000000 0.100811
# 5 0.004576 0.000456 0.001543 0.000000 0.028136 0.000000
# 6 0.000000 0.000000 0.000000 0.100811 0.000000 0.418122
#
#
# Mechanical properties :
#
#
# Convention : Reuss Voigt Hill
#
# Bulk Modulus (GPa) = 36.73173 43.40128 40.06650
# Shear Modulus (GPa) = 10.07305 17.78786 13.93046
#
# Velocity S-wave (km/s) = 2.21153 2.93883 2.60073
# Velocity P-wave (km/s) = 4.93517 5.70865 5.33594
#
# Compressibility (1/GPa) = 0.02722442
#
# Stress axis : x y z
#
# Youngs Moduli (GPa) = 116.94988 55.10985 91.39313
#
# Poissons Ratio (x) = 0.08707 0.08478
# Poissons Ratio (y) = 0.18478 0.24668
# Poissons Ratio (z) = 0.10849 0.14875
#
# Static dielectric constant tensor:
#      x y z
#    x 1.821360 0.000000 0.018480 
#    y 0.000000 1.709650 0.000000 
#    z 0.018480 0.000000 1.759570 
# 
# From -- ./inp_files/9840.got.cif
#   From: 2010.05.17/outbox.cif.g08.bks.cpg/sg10_5_cif.got.tgz:9840.got - 2010.06.03 11:33:40.
