data_PCOD9153978
_publ_section_title
;
Structure prediction by ZEFSAII (Michael W. Deem and Ramdas Pophale) SiO2 
 PCOD9153978
Probable space group: P 2/M
;
_chemical_formula_sum "Si O2"
_cell_formula_units_Z 26
_cell_length_a 6.755833
_cell_length_b 19.927262
_cell_length_c 10.696230
_cell_angle_alpha 90.000000
_cell_angle_beta 62.471994
_cell_angle_gamma 90.000000
_cell_volume 1276.955081
_symmetry_space_group_name_H-M "P 2/M"
_symmetry_group_IT_number 10
_symmetry_cell_setting 'monoclinic'
loop_
_space_group_symop_operation_xyz
x,y,z
-x,y,-z
-x,-y,-z
x,-y,z
loop_
_atom_site_type_symbol
_atom_site_label
_atom_site_fract_x
_atom_site_fract_y
_atom_site_fract_z
Si Si1 0.447408 0.673295 0.654601
Si Si2 0.047544 0.633694 0.127755
Si Si3 0.139432 0.924747 0.831558
Si Si4 0.498615 0.189507 0.251043
Si Si5 0.192539 0.423113 0.341382
Si Si6 0.500000 0.276513 0.000000
Si Si7 0.849755 0.927007 0.666612
O O1 0.500000 0.648539 0.500000
O O2 0.521089 0.750492 0.644758
O O3 0.599897 0.627134 0.699895
O O4 0.185915 0.669400 0.765512
O O5 0.096906 0.583908 0.228858
O O6 0.270150 0.680267 0.061618
O O7 0.000000 0.607970 0.000000
O O8 0.987449 0.920769 0.753591
O O9 0.296452 0.860248 0.785345
O O10 0.243563 0.000000 0.796541
O O11 0.000000 0.922163 0.000000
O O12 0.297348 0.138158 0.304947
O O13 0.510092 0.229040 0.117502
O O14 0.261451 0.500000 0.343772
O O15 0.000000 0.406304 0.500000
O O16 0.000000 0.929626 0.500000
O O17 0.732437 0.000000 0.708959
#
# Coordination Sequence:
#
# PCOD9153978 Si02
#       7
#     4   4   4   4   4   2   4
#     4  12  27  43  71 108 144 183 234 289 350 421
#     4  12  24  47  70 101 148 181 228 288 352 410
#     4  10  23  42  63  92 129 173 228 281 333 402
#     4  12  25  38  69  96 132 178 225 283 344 409
#     4  11  25  48  76 106 142 184 233 285 346 424
#     4  12  26  42  68 104 136 188 222 290 350 418
#     4  10  24  43  63  92 133 178 228 286 345 407
#
# _framework density 20.360934
#
# number of rings (size 3 to 8) (size 9 to 14) (size 15 to 20)
#    0.000    0.769    4.615    1.385    6.462    1.846 
#    0.000    8.077    0.000    0.000    0.000    0.000 
#    0.000    0.000    0.000    0.000    0.000    0.000 
#
# Total GULP energy -145131.678421 kJ/mol
# GULP energy per Si atom -5581.987632 kJ/mol
# Density = 2.031459 g / cm^3
# Si number density = 20.360934 Si / 1000 Ang^3
#
#
#
# Elastic Constant Matrix: (Units=GPa)
#
#
# Indices 1 2 3 4 5 6 
#
# 1 129.3378 60.6237 52.6628 0.0000 -6.5011 0.0000
# 2 60.6237 125.8342 25.3660 0.0000 -16.8236 0.0000
# 3 52.6628 25.3660 90.4224 0.0000 6.6651 0.0000
# 4 0.0000 0.0000 0.0000 10.8405 0.0000 15.0004
# 5 -6.5011 -16.8236 6.6651 0.0000 35.5955 0.0000
# 6 0.0000 0.0000 0.0000 15.0004 0.0000 17.8998
#
#
#
# Elastic Compliance Matrix: (Units=1/GPa)
#
#
# Indices 1 2 3 4 5 6 
#
# 1 0.012400 -0.004597 -0.006022 0.000000 0.001220 0.000000
# 2 -0.004597 0.010898 -0.000708 0.000000 0.004444 0.000000
# 3 -0.006022 -0.000708 0.015079 0.000000 -0.004258 0.000000
# 4 0.000000 0.000000 0.000000 -0.577964 0.000000 0.484347
# 5 0.001220 0.004444 -0.004258 0.000000 0.031214 0.000000
# 6 0.000000 0.000000 0.000000 0.484347 0.000000 -0.350027
#
#
# Mechanical properties :
#
#
# Convention : Reuss Voigt Hill
#
# Bulk Modulus (GPa) = 63.59744 69.21104 66.40424
# Shear Modulus (GPa) = -6.02043 26.66327 10.32142
#
# Velocity S-wave (km/s) = -1.72142 3.62267 2.25394
# Velocity P-wave (km/s) = 5.22990 7.18082 6.28156
#
# Compressibility (1/GPa) = 0.01572390
#
# Stress axis : x y z
#
# Youngs Moduli (GPa) = 80.64748 91.75672 66.31811
#
# Poissons Ratio (x) = 0.42179 0.39937
# Poissons Ratio (y) = 0.37072 0.04693
# Poissons Ratio (z) = 0.48566 0.06493
#
# Static dielectric constant tensor:
#      x y z
#    x 1.734980 0.000000 0.001990 
#    y 0.000000 1.686910 0.000000 
#    z 0.001990 0.000000 1.737590 
# 
# From -- ./inp_files/39687.got.cif
#   From: 2010.05.17/outbox.cif.g08.bks.cpg/sg10_20_cif.got.tgz:39687.got - 2010.06.03 11:33:40.
