data_PCOD9153044
_publ_section_title
;
Structure prediction by ZEFSAII (Michael W. Deem and Ramdas Pophale) SiO2 
 PCOD9153044
Probable space group: P 2/M
;
_chemical_formula_sum "Si O2"
_cell_formula_units_Z 32
_cell_length_a 12.227412
_cell_length_b 9.451314
_cell_length_c 31.323077
_cell_angle_alpha 90.000000
_cell_angle_beta 25.707398
_cell_angle_gamma 90.000000
_cell_volume 1570.204083
_symmetry_space_group_name_H-M "P 2/M"
_symmetry_group_IT_number 10
_symmetry_cell_setting 'monoclinic'
loop_
_space_group_symop_operation_xyz
x,y,z
-x,y,-z
-x,-y,-z
x,-y,z
loop_
_atom_site_type_symbol
_atom_site_label
_atom_site_fract_x
_atom_site_fract_y
_atom_site_fract_z
Si Si1 0.038924 0.844341 0.569529
Si Si2 0.263667 0.334412 0.882890
Si Si3 0.198863 0.160943 0.701676
Si Si4 0.520319 0.838199 0.263706
Si Si5 0.293769 0.670232 0.109183
Si Si6 0.346506 0.339511 0.185591
Si Si7 0.608860 0.667893 0.605640
Si Si8 0.790763 0.750888 0.397538
O O1 0.128814 0.721943 0.506085
O O2 0.153844 0.824897 0.576466
O O3 0.738137 0.841830 0.672938
O O4 0.121772 0.000000 0.524269
O O5 0.316134 0.500000 0.853442
O O6 0.272968 0.241288 0.837231
O O7 0.479149 0.276115 0.839216
O O8 0.000000 0.328297 0.000000
O O9 0.416886 0.268374 0.638428
O O10 0.192522 0.160116 0.652202
O O11 0.951748 0.232623 0.809171
O O12 0.235962 0.000000 0.703175
O O13 0.459727 0.747518 0.326846
O O14 0.586057 0.000000 0.251034
O O15 0.230484 0.500000 0.132921
O O16 0.387683 0.715039 0.123338
O O17 0.500000 0.689486 0.000000
O O18 0.437079 0.500000 0.151815
O O19 0.048115 0.340272 0.301489
O O20 0.596576 0.500000 0.613848
O O21 0.500000 0.693488 0.500000
#
# Coordination Sequence:
#
# PCOD9153044 Si02
#       8
#     4   4   4   4   4   4   4   4
#     4  11  23  41  64  92 126 166 209 257 318 379
#     4  10  21  39  64  93 125 167 216 263 318 377
#     4  11  23  39  61  91 127 162 210 264 314 376
#     4  11  24  43  66  91 125 166 213 268 322 375
#     4   9  19  37  60  86 122 166 209 254 314 375
#     4   9  19  36  57  88 128 161 204 264 312 366
#     4  12  26  42  62  89 125 167 212 258 318 387
#     4  11  21  37  62  94 125 170 209 253 312 378
#
# _framework density 20.379518000000001
#
# number of rings (size 3 to 8) (size 9 to 14) (size 15 to 20)
#    0.000    1.500    2.500    2.625    0.000    5.750 
#    0.000    2.500    0.000    0.000    0.000    0.000 
#    0.000    0.000    0.000    0.000    0.000    0.000 
#
# Total GULP energy -178362.349169 kJ/mol
# GULP energy per Si atom -5573.823412 kJ/mol
# Density = 2.033313 g / cm^3
# Si number density = 20.379518 Si / 1000 Ang^3
#
#
#
# Elastic Constant Matrix: (Units=GPa)
#
#
# Indices 1 2 3 4 5 6 
#
# 1 60.4131 32.8210 16.0646 0.0000 13.8603 0.0000
# 2 32.8210 130.8852 44.8664 0.0000 19.2853 0.0000
# 3 16.0646 44.8664 95.2739 0.0000 24.2110 0.0000
# 4 0.0000 0.0000 0.0000 20.6299 0.0000 -2.0643
# 5 13.8603 19.2853 24.2110 0.0000 25.8945 0.0000
# 6 0.0000 0.0000 0.0000 -2.0643 0.0000 7.7385
#
#
#
# Elastic Compliance Matrix: (Units=1/GPa)
#
#
# Indices 1 2 3 4 5 6 
#
# 1 0.020582 -0.004122 0.000643 0.000000 -0.008548 0.000000
# 2 -0.004122 0.010206 -0.003594 0.000000 -0.002034 0.000000
# 3 0.000643 -0.003594 0.015067 0.000000 -0.011755 0.000000
# 4 0.000000 0.000000 0.000000 0.049803 0.000000 0.013285
# 5 -0.008548 -0.002034 -0.011755 0.000000 0.055699 0.000000
# 6 0.000000 0.000000 0.000000 0.013285 0.000000 0.132768
#
#
# Mechanical properties :
#
#
# Convention : Reuss Voigt Hill
#
# Bulk Modulus (GPa) = 31.53707 52.67513 42.10610
# Shear Modulus (GPa) = 16.18954 23.70726 19.94840
#
# Velocity S-wave (km/s) = 2.82157 3.41440 3.13205
# Velocity P-wave (km/s) = 5.11112 6.43796 5.81253
#
# Compressibility (1/GPa) = 0.03170872
#
# Stress axis : x y z
#
# Youngs Moduli (GPa) = 48.58536 97.98453 66.36834
#
# Poissons Ratio (x) = 0.40391 -0.04267
# Poissons Ratio (y) = 0.20028 0.23854
# Poissons Ratio (z) = -0.03124 0.35217
#
# Static dielectric constant tensor:
#      x y z
#    x 1.789560 0.000000 -0.037090 
#    y 0.000000 1.708980 0.000000 
#    z -0.037090 0.000000 1.732610 
# 
# From -- ./inp_files/94963.got.cif
#   From: 2010.05.17/outbox.cif.g08.bks.cpg/sg10_48_cif.got.tgz:94963.got - 2010.06.03 11:33:40.
