data_PCOD9153193
_publ_section_title
;
Structure prediction by ZEFSAII (Michael W. Deem and Ramdas Pophale) SiO2 
 PCOD9153193
Probable space group: P 2/M
;
_chemical_formula_sum "Si O2"
_cell_formula_units_Z 17
_cell_length_a 5.313730
_cell_length_b 24.348766
_cell_length_c 5.128720
_cell_angle_alpha 90.000000
_cell_angle_beta 93.953689
_cell_angle_gamma 90.000000
_cell_volume 661.988771
_symmetry_space_group_name_H-M "P 2/M"
_symmetry_group_IT_number 10
_symmetry_cell_setting 'monoclinic'
loop_
_space_group_symop_operation_xyz
x,y,z
-x,y,-z
-x,-y,-z
x,-y,z
loop_
_atom_site_type_symbol
_atom_site_label
_atom_site_fract_x
_atom_site_fract_y
_atom_site_fract_z
Si Si1 0.000000 0.813523 0.000000
Si Si2 0.662754 0.265899 0.276766
Si Si3 0.768539 0.619418 0.167735
Si Si4 0.677644 0.500000 0.265217
Si Si5 0.830246 0.919095 0.750579
Si Si6 0.500000 0.000000 0.000000
O O1 0.882495 0.774411 0.208012
O O2 0.188178 0.855514 0.162457
O O3 0.500000 0.243564 0.500000
O O4 0.741429 0.328363 0.353769
O O5 0.500000 0.270182 0.000000
O O6 0.820881 0.557946 0.271939
O O7 0.500000 0.615147 0.000000
O O8 0.000000 0.634435 0.000000
O O9 0.500000 0.500000 0.500000
O O10 0.500000 0.500000 0.000000
O O11 0.000000 0.924454 0.500000
O O12 0.575082 0.951819 0.786169
O O13 0.000000 0.943463 0.000000
#
# Coordination Sequence:
#
# PCOD9153193 Si02
#       6
#     2   4   4   2   4   1
#     4  10  26  43  66  97 134 172 224 276 330 404
#     4  11  25  42  66  95 132 178 226 280 347 408
#     4  10  21  43  65 100 134 185 233 296 357 426
#     4  10  21  40  66  96 136 178 236 293 359 425
#     4  10  26  43  66  98 131 168 219 264 327 397
#     4  12  24  46  72  96 136 174 212 272 336 388
#
# _framework density 25.68019
#
# number of rings (size 3 to 8) (size 9 to 14) (size 15 to 20)
#    0.706    0.941    1.176    1.765    4.941    1.882 
#    0.000   16.471    0.000    0.000    0.000    0.000 
#    0.000    0.000    0.000    0.000    0.000    0.000 
#
# Total GULP energy -94755.027994 kJ/mol
# GULP energy per Si atom -5573.825176 kJ/mol
# Density = 2.562174 g / cm^3
# Si number density = 25.680190 Si / 1000 Ang^3
#
#
#
# Elastic Constant Matrix: (Units=GPa)
#
#
# Indices 1 2 3 4 5 6 
#
# 1 87.3218 25.3492 43.9982 0.0000 -17.5718 0.0000
# 2 25.3492 240.0477 34.7136 0.0000 -33.8931 0.0000
# 3 43.9982 34.7136 187.4708 0.0000 -41.7229 0.0000
# 4 0.0000 0.0000 0.0000 -40.1890 0.0000 -36.8914
# 5 -17.5718 -33.8931 -41.7229 0.0000 72.0271 0.0000
# 6 0.0000 0.0000 0.0000 -36.8914 0.0000 32.3105
#
#
#
# Elastic Compliance Matrix: (Units=1/GPa)
#
#
# Indices 1 2 3 4 5 6 
#
# 1 0.013306 -0.000834 -0.002679 0.000000 0.001302 0.000000
# 2 -0.000834 0.004542 -0.000247 0.000000 0.001791 0.000000
# 3 -0.002679 -0.000247 0.006701 0.000000 0.003112 0.000000
# 4 0.000000 0.000000 0.000000 -0.012149 0.000000 -0.013872
# 5 0.001302 0.001791 0.003112 0.000000 0.016847 0.000000
# 6 0.000000 0.000000 0.000000 -0.013872 0.000000 0.015111
#
#
# Mechanical properties :
#
#
# Convention : Reuss Voigt Hill
#
# Bulk Modulus (GPa) = 58.71730 80.32916 69.52323
# Shear Modulus (GPa) = 86.87513 40.21502 63.54508
#
# Velocity S-wave (km/s) = 5.82263 3.96156 4.97981
# Velocity P-wave (km/s) = 8.25340 7.23006 7.75862
#
# Compressibility (1/GPa) = 0.01703076
#
# Stress axis : x y z
#
# Youngs Moduli (GPa) = 75.15632 220.14409 149.22860
#
# Poissons Ratio (x) = 0.18358 0.39972
# Poissons Ratio (y) = 0.06267 0.03683
# Poissons Ratio (z) = 0.20131 0.05433
#
# Static dielectric constant tensor:
#      x y z
#    x 2.123700 0.000000 -0.016730 
#    y 0.000000 2.133530 0.000000 
#    z -0.016730 0.000000 1.983670 
# 
# From -- ./inp_files/1907.got.cif
#   From: 2010.05.17/outbox.cif.g08.bks.cpg/sg10_1_cif.got.tgz:1907.got - 2010.06.03 11:33:40.
