data_PCOD9153349
_publ_section_title
;
Structure prediction by ZEFSAII (Michael W. Deem and Ramdas Pophale) SiO2 
 PCOD9153349
Probable space group: P 2/M
;
_chemical_formula_sum "Si O2"
_cell_formula_units_Z 24
_cell_length_a 14.391820
_cell_length_b 13.775111
_cell_length_c 12.109053
_cell_angle_alpha 90.000000
_cell_angle_beta 29.687211
_cell_angle_gamma 90.000000
_cell_volume 1188.935900
_symmetry_space_group_name_H-M "P 2/M"
_symmetry_group_IT_number 10
_symmetry_cell_setting 'monoclinic'
loop_
_space_group_symop_operation_xyz
x,y,z
-x,y,-z
-x,-y,-z
x,-y,z
loop_
_atom_site_type_symbol
_atom_site_label
_atom_site_fract_x
_atom_site_fract_y
_atom_site_fract_z
Si Si1 0.085096 0.883580 0.526704
Si Si2 0.581456 0.116969 0.676753
Si Si3 0.293516 0.384055 0.234821
Si Si4 0.957545 0.386104 0.725963
Si Si5 0.722431 0.889399 0.298420
Si Si6 0.189854 0.792128 0.012396
O O1 0.300672 0.861253 0.334986
O O2 0.000000 0.844902 0.500000
O O3 0.077370 0.000000 0.530563
O O4 0.950625 0.849481 0.763061
O O5 0.720485 0.136233 0.429179
O O6 0.395684 0.178944 0.846815
O O7 0.537005 0.000000 0.719080
O O8 0.314451 0.500000 0.233765
O O9 0.174742 0.375501 0.245191
O O10 0.162224 0.350618 0.471865
O O11 0.500000 0.342931 0.000000
O O12 0.966425 0.500000 0.744688
O O13 0.867423 0.319262 0.911880
O O14 0.500000 0.888235 0.500000
O O15 0.817943 0.824927 0.106557
O O16 0.786970 0.000000 0.218187
#
# Coordination Sequence:
#
# PCOD9153349 Si02
#       6
#     4   4   4   4   4   4
#     4  10  22  36  51  79 115 142 175 218 274 345
#     4   9  19  37  58  80 107 143 185 231 277 321
#     4   8  15  31  52  69  93 136 185 231 273 313
#     4   9  19  32  48  76 108 140 184 231 270 318
#     4   8  15  31  56  81 103 135 186 235 272 315
#     4  11  20  32  54  79 112 146 181 225 275 325
#
# _framework density 20.186119000000001
#
# number of rings (size 3 to 8) (size 9 to 14) (size 15 to 20)
#    0.000    2.833    0.000    3.500    2.333    2.667 
#    0.000    5.000    0.000    4.500    0.000    1.167 
#    0.000    0.000    0.000    0.000    0.000    0.000 
#
# Total GULP energy -133908.471391 kJ/mol
# GULP energy per Si atom -5579.519641 kJ/mol
# Density = 2.014017 g / cm^3
# Si number density = 20.186119 Si / 1000 Ang^3
#
#
#
# Elastic Constant Matrix: (Units=GPa)
#
#
# Indices 1 2 3 4 5 6 
#
# 1 83.8281 25.0995 36.6528 0.0000 -8.8583 0.0000
# 2 25.0995 84.0209 51.5288 0.0000 0.0524 0.0000
# 3 36.6528 51.5288 120.3298 0.0000 -11.2619 0.0000
# 4 0.0000 0.0000 0.0000 38.2757 0.0000 3.3431
# 5 -8.8583 0.0524 -11.2619 0.0000 21.5020 0.0000
# 6 0.0000 0.0000 0.0000 3.3431 0.0000 3.4895
#
#
#
# Elastic Compliance Matrix: (Units=1/GPa)
#
#
# Indices 1 2 3 4 5 6 
#
# 1 0.014422 -0.002538 -0.002891 0.000000 0.004433 0.000000
# 2 -0.002538 0.016896 -0.006902 0.000000 -0.004702 0.000000
# 3 -0.002891 -0.006902 0.012658 0.000000 0.005455 0.000000
# 4 0.000000 0.000000 0.000000 0.028512 0.000000 -0.027316
# 5 0.004433 -0.004702 0.005455 0.000000 0.051202 0.000000
# 6 0.000000 0.000000 0.000000 -0.027316 0.000000 0.312744
#
#
# Mechanical properties :
#
#
# Convention : Reuss Voigt Hill
#
# Bulk Modulus (GPa) = 51.78025 57.19343 54.48684
# Shear Modulus (GPa) = 10.69442 24.31329 17.50385
#
# Velocity S-wave (km/s) = 2.30422 3.47429 2.94789
# Velocity P-wave (km/s) = 5.72593 6.66999 6.21591
#
# Compressibility (1/GPa) = 0.01931238
#
# Stress axis : x y z
#
# Youngs Moduli (GPa) = 69.34022 59.18559 79.00423
#
# Poissons Ratio (x) = 0.15020 0.22842
# Poissons Ratio (y) = 0.17597 0.54532
# Poissons Ratio (z) = 0.20048 0.40852
#
# Static dielectric constant tensor:
#      x y z
#    x 1.760520 0.000000 -0.028060 
#    y 0.000000 1.742240 0.000000 
#    z -0.028060 0.000000 1.732150 
# 
# From -- ./inp_files/51506.got.cif
#   From: 2010.05.17/outbox.cif.g08.bks.cpg/sg10_26_cif.got.tgz:51506.got - 2010.06.03 11:33:40.
