data_PCOD9153020
_publ_section_title
;
Structure prediction by ZEFSAII (Michael W. Deem and Ramdas Pophale) SiO2 
 PCOD9153020
Probable space group: P 2/M
;
_chemical_formula_sum "Si O2"
_cell_formula_units_Z 16
_cell_length_a 11.125137
_cell_length_b 13.339664
_cell_length_c 11.251389
_cell_angle_alpha 90.000000
_cell_angle_beta 153.599839
_cell_angle_gamma 90.000000
_cell_volume 742.442249
_symmetry_space_group_name_H-M "P 2/M"
_symmetry_group_IT_number 10
_symmetry_cell_setting 'monoclinic'
loop_
_space_group_symop_operation_xyz
x,y,z
-x,y,-z
-x,-y,-z
x,-y,z
loop_
_atom_site_type_symbol
_atom_site_label
_atom_site_fract_x
_atom_site_fract_y
_atom_site_fract_z
Si Si1 0.121158 0.789468 0.341937
Si Si2 0.712716 0.319512 0.293833
Si Si3 0.192133 0.000000 0.283428
Si Si4 0.500000 0.671350 0.500000
Si Si5 0.267664 0.393236 0.061395
O O1 0.211179 0.776551 0.557952
O O2 0.112333 0.902858 0.290771
O O3 0.336221 0.741596 0.442811
O O4 0.876032 0.710239 0.105312
O O5 0.553610 0.389769 0.245512
O O6 0.000000 0.359327 0.500000
O O7 0.500000 0.301022 0.000000
O O8 0.500000 0.000000 0.500000
O O9 0.000000 0.000000 0.000000
O O10 0.684093 0.610934 0.754646
O O11 0.131307 0.500000 0.910262
#
# Coordination Sequence:
#
# PCOD9153020 Si02
#       5
#     4   4   2   2   4
#     4  11  24  44  71 102 141 181 231 284 349 408
#     4  11  24  47  70  95 142 184 236 287 334 408
#     4  12  26  44  76 107 140 179 226 285 342 417
#     4  10  21  39  64 100 144 177 229 280 350 416
#     4  11  24  41  68 102 142 185 229 286 346 414
#
# _framework density 21.550498000000001
#
# number of rings (size 3 to 8) (size 9 to 14) (size 15 to 20)
#    0.000    1.000    3.750    2.625    3.500    7.000 
#    0.000    1.250    0.000    0.000    0.000    0.000 
#    0.000    0.000    0.000    0.000    0.000    0.000 
#
# Total GULP energy -89230.244934 kJ/mol
# GULP energy per Si atom -5576.890308 kJ/mol
# Density = 2.150145 g / cm^3
# Si number density = 21.550498 Si / 1000 Ang^3
#
#
#
# Elastic Constant Matrix: (Units=GPa)
#
#
# Indices 1 2 3 4 5 6 
#
# 1 89.5819 22.3763 45.8859 0.0000 -5.7635 0.0000
# 2 22.3763 182.7698 51.0959 0.0000 -7.6582 0.0000
# 3 45.8859 51.0959 142.9482 0.0000 -18.1147 0.0000
# 4 0.0000 0.0000 0.0000 16.6742 0.0000 -7.5474
# 5 -5.7635 -7.6582 -18.1147 0.0000 58.1367 0.0000
# 6 0.0000 0.0000 0.0000 -7.5474 0.0000 -20.3563
#
#
#
# Elastic Compliance Matrix: (Units=1/GPa)
#
#
# Indices 1 2 3 4 5 6 
#
# 1 0.013398 -0.000487 -0.004130 0.000000 -0.000023 0.000000
# 2 -0.000487 0.006097 -0.002007 0.000000 0.000130 0.000000
# 3 -0.004130 -0.002007 0.009321 0.000000 0.002231 0.000000
# 4 0.000000 0.000000 0.000000 0.051355 0.000000 -0.019040
# 5 -0.000023 0.000130 0.002231 0.000000 0.017911 0.000000
# 6 0.000000 0.000000 0.000000 -0.019040 0.000000 -0.042065
#
#
# Mechanical properties :
#
#
# Convention : Reuss Voigt Hill
#
# Bulk Modulus (GPa) = 64.22439 72.66845 68.44642
# Shear Modulus (GPa) = 67.15583 30.62037 48.88810
#
# Velocity S-wave (km/s) = 5.58836 3.77353 4.76808
# Velocity P-wave (km/s) = 8.45613 7.26494 7.88307
#
# Compressibility (1/GPa) = 0.01557041
#
# Stress axis : x y z
#
# Youngs Moduli (GPa) = 74.63555 164.00379 107.28283
#
# Poissons Ratio (x) = 0.07983 0.44305
# Poissons Ratio (y) = 0.03633 0.21530
# Poissons Ratio (z) = 0.30822 0.32912
#
# Static dielectric constant tensor:
#      x y z
#    x 1.824290 0.000000 0.043270 
#    y 0.000000 1.804050 0.000000 
#    z 0.043270 0.000000 1.893260 
# 
# From -- ./inp_files/46937.got.cif
#   From: 2010.05.17/outbox.cif.g08.bks.cpg/sg10_24_cif.got.tgz:46937.got - 2010.06.03 11:33:40.
