data_PCOD9153755
_publ_section_title
;
Structure prediction by ZEFSAII (Michael W. Deem and Ramdas Pophale) SiO2 
 PCOD9153755
Probable space group: P 2/M
;
_chemical_formula_sum "Si O2"
_cell_formula_units_Z 24
_cell_length_a 9.938136
_cell_length_b 7.684902
_cell_length_c 14.280705
_cell_angle_alpha 90.000000
_cell_angle_beta 93.841921
_cell_angle_gamma 90.000000
_cell_volume 1088.217821
_symmetry_space_group_name_H-M "P 2/M"
_symmetry_group_IT_number 10
_symmetry_cell_setting 'monoclinic'
loop_
_space_group_symop_operation_xyz
x,y,z
-x,y,-z
-x,-y,-z
x,-y,z
loop_
_atom_site_type_symbol
_atom_site_label
_atom_site_fract_x
_atom_site_fract_y
_atom_site_fract_z
Si Si1 0.211684 0.500000 0.566248
Si Si2 0.958439 0.196930 0.781277
Si Si3 0.912912 0.500000 0.640215
Si Si4 0.540070 0.798364 0.793148
Si Si5 0.570447 0.792143 0.403147
Si Si6 0.752073 0.700034 0.152904
Si Si7 0.228433 0.209475 0.059652
O O1 0.182921 0.500000 0.453697
O O2 0.298165 0.671114 0.595134
O O3 0.066802 0.500000 0.609034
O O4 0.898786 0.331251 0.704671
O O5 0.902138 0.239448 0.882195
O O6 0.119463 0.211956 0.793241
O O7 0.917523 0.000000 0.757459
O O8 0.526966 0.733305 0.686458
O O9 0.390334 0.783450 0.827933
O O10 0.647201 0.723287 0.871027
O O11 0.579282 0.000000 0.787219
O O12 0.500000 0.768724 0.500000
O O13 0.599331 0.000000 0.392619
O O14 0.748622 0.500000 0.183167
O O15 0.771797 0.709671 0.042313
O O16 0.240418 0.000000 0.045409
#
# Coordination Sequence:
#
# PCOD9153755 Si02
#       7
#     2   4   2   4   4   4   4
#     4  11  25  44  66  97 133 168 211 272 330 377
#     4  11  24  44  69  93 129 175 216 268 326 380
#     4  11  26  44  65  99 129 166 222 265 319 400
#     4  10  22  41  65  93 129 171 217 270 322 383
#     4  10  23  43  69  98 129 169 218 266 324 390
#     4  12  24  39  61  96 134 173 220 263 317 391
#     4  10  23  41  64  94 128 172 223 266 320 383
#
# _framework density 22.054407000000001
#
# number of rings (size 3 to 8) (size 9 to 14) (size 15 to 20)
#    0.000    1.333    0.833    3.750    4.667    7.333 
#    0.000    1.667    0.000    0.000    0.000    0.000 
#    0.000    0.000    0.000    0.000    0.000    0.000 
#
# Total GULP energy -134295.036784 kJ/mol
# GULP energy per Si atom -5595.626533 kJ/mol
# Density = 2.200421 g / cm^3
# Si number density = 22.054407 Si / 1000 Ang^3
#
#
#
# Elastic Constant Matrix: (Units=GPa)
#
#
# Indices 1 2 3 4 5 6 
#
# 1 66.1001 3.8538 -6.1694 0.0000 7.5069 0.0000
# 2 3.8538 77.7061 26.0780 0.0000 3.0865 0.0000
# 3 -6.1694 26.0780 106.8579 0.0000 3.1987 0.0000
# 4 0.0000 0.0000 0.0000 12.0449 0.0000 12.8446
# 5 7.5069 3.0865 3.1987 0.0000 33.0150 0.0000
# 6 0.0000 0.0000 0.0000 12.8446 0.0000 -23.3057
#
#
#
# Elastic Compliance Matrix: (Units=1/GPa)
#
#
# Indices 1 2 3 4 5 6 
#
# 1 0.015718 -0.001064 0.001275 0.000000 -0.003598 0.000000
# 2 -0.001064 0.014121 -0.003485 0.000000 -0.000740 0.000000
# 3 0.001275 -0.003485 0.010311 0.000000 -0.000963 0.000000
# 4 0.000000 0.000000 0.000000 0.052290 0.000000 0.028819
# 5 -0.003598 -0.000740 -0.000963 0.000000 0.031270 0.000000
# 6 0.000000 0.000000 0.000000 0.028819 0.000000 -0.027025
#
#
# Mechanical properties :
#
#
# Convention : Reuss Voigt Hill
#
# Bulk Modulus (GPa) = 29.76142 33.13209 31.44676
# Shear Modulus (GPa) = 43.69263 19.47763 31.58513
#
# Velocity S-wave (km/s) = 4.45582 2.97503 3.78848
# Velocity P-wave (km/s) = 6.32426 5.18233 5.78156
#
# Compressibility (1/GPa) = 0.03360054
#
# Stress axis : x y z
#
# Youngs Moduli (GPa) = 63.62031 70.81707 96.98143
#
# Poissons Ratio (x) = 0.07538 -0.12365
# Poissons Ratio (y) = 0.06772 0.33802
# Poissons Ratio (z) = -0.08111 0.24683
#
# Static dielectric constant tensor:
#      x y z
#    x 1.782010 0.000000 -0.001560 
#    y 0.000000 1.785500 0.000000 
#    z -0.001560 0.000000 1.799700 
# 
# From -- ./inp_files/60403.got.cif
#   From: 2010.05.17/outbox.cif.g08.bks.cpg/sg10_31_cif.got.tgz:60403.got - 2010.06.03 11:33:40.
