data_PCOD9153608
_publ_section_title
;
Structure prediction by ZEFSAII (Michael W. Deem and Ramdas Pophale) SiO2 
 PCOD9153608
Probable space group: P 2/M
;
_chemical_formula_sum "Si O2"
_cell_formula_units_Z 24
_cell_length_a 15.201393
_cell_length_b 7.383754
_cell_length_c 31.075531
_cell_angle_alpha 90.000000
_cell_angle_beta 158.250510
_cell_angle_gamma 90.000000
_cell_volume 1292.483505
_symmetry_space_group_name_H-M "P 2/M"
_symmetry_group_IT_number 10
_symmetry_cell_setting 'monoclinic'
loop_
_space_group_symop_operation_xyz
x,y,z
-x,y,-z
-x,-y,-z
x,-y,z
loop_
_atom_site_type_symbol
_atom_site_label
_atom_site_fract_x
_atom_site_fract_y
_atom_site_fract_z
Si Si1 0.238881 0.500000 0.403595
Si Si2 0.103366 0.788029 0.414216
Si Si3 0.796213 0.779176 0.965426
Si Si4 0.196177 0.221135 0.554089
Si Si5 0.409585 0.790451 0.854502
Si Si6 0.287019 0.500000 0.868060
Si Si7 0.681052 0.779506 0.817376
O O1 0.500000 0.500000 0.500000
O O2 0.208299 0.669989 0.422718
O O3 0.008174 0.500000 0.265682
O O4 0.163305 0.723389 0.489613
O O5 0.818175 0.778848 0.280111
O O6 0.172308 0.000000 0.441121
O O7 0.637691 0.719005 0.932915
O O8 0.687302 0.723389 0.870084
O O9 0.790537 0.000000 0.963147
O O10 0.069644 0.723245 0.090053
O O11 0.450769 0.279631 0.687491
O O12 0.000000 0.278554 0.500000
O O13 0.187264 0.000000 0.549340
O O14 0.345028 0.675856 0.866274
O O15 0.446109 0.000000 0.882188
O O16 0.500000 0.500000 0.000000
O O17 0.679479 0.000000 0.816826
#
# Coordination Sequence:
#
# PCOD9153608 Si02
#       7
#     2   4   4   4   4   2   4
#     4  10  22  42  61  77 105 141 173 219 281 325
#     4   9  18  33  55  81 106 137 179 216 253 316
#     4   8  13  23  41  67  98 136 174 204 244 296
#     4   9  15  24  42  71 107 141 173 211 253 297
#     4   9  17  32  55  77 101 134 170 208 257 310
#     4  10  22  40  58  80 103 126 167 221 268 320
#     4   8  13  21  37  65 103 139 172 207 242 289
#
# _framework density 18.568901
#
# number of rings (size 3 to 8) (size 9 to 14) (size 15 to 20)
#    0.000    3.167    0.000    2.000    0.000    4.667 
#    3.000    0.417    0.000    3.000    0.000    0.000 
#    0.000    0.000    0.000    0.000    0.000    0.000 
#
# Total GULP energy -133688.129508 kJ/mol
# GULP energy per Si atom -5570.338729 kJ/mol
# Density = 1.852664 g / cm^3
# Si number density = 18.568901 Si / 1000 Ang^3
#
#
#
# Elastic Constant Matrix: (Units=GPa)
#
#
# Indices 1 2 3 4 5 6 
#
# 1 86.6632 24.9046 61.9844 0.0000 16.6671 0.0000
# 2 24.9046 73.5518 28.2196 0.0000 2.7386 0.0000
# 3 61.9844 28.2196 140.5558 0.0000 -11.0403 0.0000
# 4 0.0000 0.0000 0.0000 5.3990 0.0000 0.8664
# 5 16.6671 2.7386 -11.0403 0.0000 24.8278 0.0000
# 6 0.0000 0.0000 0.0000 0.8664 0.0000 16.9773
#
#
#
# Elastic Compliance Matrix: (Units=1/GPa)
#
#
# Indices 1 2 3 4 5 6 
#
# 1 0.025632 -0.003069 -0.012447 0.000000 -0.022403 0.000000
# 2 -0.003069 0.015324 -0.001755 0.000000 -0.000410 0.000000
# 3 -0.012447 -0.001755 0.014121 0.000000 0.014829 0.000000
# 4 0.000000 0.000000 0.000000 0.186749 0.000000 -0.009531
# 5 -0.022403 -0.000410 0.014829 0.000000 0.061956 0.000000
# 6 0.000000 0.000000 0.000000 -0.009531 0.000000 0.059389
#
#
# Mechanical properties :
#
#
# Convention : Reuss Voigt Hill
#
# Bulk Modulus (GPa) = 48.70094 58.99868 53.84981
# Shear Modulus (GPa) = 12.35914 21.81829 17.08871
#
# Velocity S-wave (km/s) = 2.58269 3.43153 3.03691
# Velocity P-wave (km/s) = 5.93109 6.89510 6.43118
#
# Compressibility (1/GPa) = 0.02053348
#
# Stress axis : x y z
#
# Youngs Moduli (GPa) = 39.01345 65.25770 70.81695
#
# Poissons Ratio (x) = 0.20029 0.88147
# Poissons Ratio (y) = 0.11974 0.12431
# Poissons Ratio (z) = 0.48561 0.11455
#
# Static dielectric constant tensor:
#      x y z
#    x 1.604980 0.000000 0.001740 
#    y 0.000000 1.761110 0.000000 
#    z 0.001740 0.000000 1.654780 
# 
# From -- ./inp_files/88767.got.cif
#   From: 2010.05.17/outbox.cif.g08.bks.cpg/sg10_45_cif.got.tgz:88767.got - 2010.06.03 11:33:40.
