data_PCOD9153728
_publ_section_title
;
Structure prediction by ZEFSAII (Michael W. Deem and Ramdas Pophale) SiO2 
 PCOD9153728
Probable space group: P 2/M
;
_chemical_formula_sum "Si O2"
_cell_formula_units_Z 28
_cell_length_a 9.731077
_cell_length_b 8.677845
_cell_length_c 28.529920
_cell_angle_alpha 90.000000
_cell_angle_beta 33.905081
_cell_angle_gamma 90.000000
_cell_volume 1343.898380
_symmetry_space_group_name_H-M "P 2/M"
_symmetry_group_IT_number 10
_symmetry_cell_setting 'monoclinic'
loop_
_space_group_symop_operation_xyz
x,y,z
-x,y,-z
-x,-y,-z
x,-y,z
loop_
_atom_site_type_symbol
_atom_site_label
_atom_site_fract_x
_atom_site_fract_y
_atom_site_fract_z
Si Si1 0.911163 0.682756 0.884570
Si Si2 0.268990 0.183421 0.159898
Si Si3 0.215894 0.686003 0.973960
Si Si4 0.442220 0.181263 0.717642
Si Si5 0.636644 0.679747 0.567215
Si Si6 0.045659 0.816885 0.390616
Si Si7 0.813006 0.184484 0.355526
O O1 0.871345 0.500000 0.893131
O O2 0.197250 0.722754 0.795630
O O3 0.760853 0.759226 0.884870
O O4 0.840323 0.735817 0.956739
O O5 0.512261 0.253764 0.114348
O O6 0.020747 0.225230 0.258330
O O7 0.288166 0.000000 0.155316
O O8 0.218531 0.500000 0.972270
O O9 0.000000 0.738369 0.000000
O O10 0.555899 0.221264 0.634891
O O11 0.663844 0.216211 0.690679
O O12 0.380394 0.000000 0.737048
O O13 0.627370 0.500000 0.581441
O O14 0.899801 0.725866 0.471821
O O15 0.433738 0.723315 0.585498
O O16 0.924638 0.784180 0.374858
O O17 0.018226 0.000000 0.407826
O O18 0.762902 0.000000 0.366524
#
# Coordination Sequence:
#
# PCOD9153728 Si02
#       7
#     4   4   4   4   4   4   4
#     4  11  23  41  65  92 124 164 206 250 304 365
#     4  11  23  40  66  95 124 163 210 255 301 359
#     4  10  24  44  65  93 130 167 199 245 310 369
#     4  11  23  40  64  91 121 161 207 255 309 365
#     4  12  24  39  61  91 124 162 208 255 306 366
#     4  10  23  41  62  87 122 165 207 256 314 364
#     4  10  22  41  63  89 123 164 206 255 310 363
#
# _framework density 20.834907999999999
#
# number of rings (size 3 to 8) (size 9 to 14) (size 15 to 20)
#    0.000    1.286    1.429    3.857    2.000    8.857 
#    0.000    0.000    0.000    0.000    0.000    0.000 
#    0.000    0.000    0.000    0.000    0.000    0.000 
#
# Total GULP energy -156667.782944 kJ/mol
# GULP energy per Si atom -5595.277962 kJ/mol
# Density = 2.078749 g / cm^3
# Si number density = 20.834908 Si / 1000 Ang^3
#
#
#
# Elastic Constant Matrix: (Units=GPa)
#
#
# Indices 1 2 3 4 5 6 
#
# 1 71.6103 9.5229 8.3974 0.0000 -18.0514 0.0000
# 2 9.5229 8.1855 6.6558 0.0000 -3.2151 0.0000
# 3 8.3974 6.6558 56.5675 0.0000 -7.0029 0.0000
# 4 0.0000 0.0000 0.0000 26.2859 0.0000 -7.3642
# 5 -18.0514 -3.2151 -7.0029 0.0000 34.8136 0.0000
# 6 0.0000 0.0000 0.0000 -7.3642 0.0000 28.7044
#
#
#
# Elastic Compliance Matrix: (Units=1/GPa)
#
#
# Indices 1 2 3 4 5 6 
#
# 1 0.018383 -0.018644 0.000443 0.000000 0.007899 0.000000
# 2 -0.018644 0.157146 -0.015509 0.000000 0.001726 0.000000
# 3 0.000443 -0.015509 0.019781 0.000000 0.002776 0.000000
# 4 0.000000 0.000000 0.000000 0.040989 0.000000 0.010516
# 5 0.007899 0.001726 0.002776 0.000000 0.033538 0.000000
# 6 0.000000 0.000000 0.000000 0.010516 0.000000 0.037536
#
#
# Mechanical properties :
#
#
# Convention : Reuss Voigt Hill
#
# Bulk Modulus (GPa) = 7.81923 20.61285 14.21604
# Shear Modulus (GPa) = 11.97823 25.41326 18.69575
#
# Velocity S-wave (km/s) = 2.40033 3.49627 2.99879
# Velocity P-wave (km/s) = 3.38278 5.11991 4.33916
#
# Compressibility (1/GPa) = 0.12788977
#
# Stress axis : x y z
#
# Youngs Moduli (GPa) = 54.39772 6.36349 50.55413
#
# Poissons Ratio (x) = 0.11864 -0.02238
# Poissons Ratio (y) = 1.01420 0.78403
# Poissons Ratio (z) = -0.02408 0.09869
#
# Static dielectric constant tensor:
#      x y z
#    x 1.759490 0.000000 -0.002230 
#    y 0.000000 1.699170 0.000000 
#    z -0.002230 0.000000 1.732910 
# 
# From -- ./inp_files/82169.got.cif
#   From: 2010.05.17/outbox.cif.g08.bks.cpg/sg10_42_cif.got.tgz:82169.got - 2010.06.03 11:33:40.
