data_PCOD9153101
_publ_section_title
;
Structure prediction by ZEFSAII (Michael W. Deem and Ramdas Pophale) SiO2 
 PCOD9153101
Probable space group: P 2/M
;
_chemical_formula_sum "Si O2"
_cell_formula_units_Z 28
_cell_length_a 15.112551
_cell_length_b 16.150466
_cell_length_c 6.841077
_cell_angle_alpha 90.000000
_cell_angle_beta 41.636861
_cell_angle_gamma 90.000000
_cell_volume 1109.383303
_symmetry_space_group_name_H-M "P 2/M"
_symmetry_group_IT_number 10
_symmetry_cell_setting 'monoclinic'
loop_
_space_group_symop_operation_xyz
x,y,z
-x,y,-z
-x,-y,-z
x,-y,z
loop_
_atom_site_type_symbol
_atom_site_label
_atom_site_fract_x
_atom_site_fract_y
_atom_site_fract_z
Si Si1 0.615976 0.784690 0.914471
Si Si2 0.312500 0.500000 0.626713
Si Si3 0.207105 0.828720 0.696947
Si Si4 0.179155 0.644051 0.368375
Si Si5 0.617704 0.500000 0.023849
Si Si6 0.675316 0.907935 0.115275
Si Si7 0.883439 0.649256 0.990254
Si Si8 0.073569 0.907189 0.561525
O O1 0.657428 0.836920 0.654743
O O2 0.747542 0.730822 0.726030
O O3 0.500000 0.731953 0.000000
O O4 0.588006 0.834029 0.161858
O O5 0.354415 0.500000 0.787182
O O6 0.215606 0.579282 0.760272
O O7 0.455783 0.500000 0.277838
O O8 0.241749 0.881442 0.831323
O O9 0.164523 0.738134 0.847559
O O10 0.098956 0.861694 0.720529
O O11 0.045265 0.636215 0.721692
O O12 0.296466 0.577038 0.198882
O O13 0.141070 0.642869 0.202968
O O14 0.620666 0.000000 0.230842
O O15 0.781442 0.916258 0.767552
O O16 0.000000 0.863569 0.500000
O O17 0.015728 0.000000 0.685772
#
# Coordination Sequence:
#
# PCOD9153101 Si02
#       8
#     4   2   4   4   2   4   4   4
#     4  11  26  44  64 101 145 191 248 312 369 439
#     4   9  19  37  66 117 141 186 256 299 361 442
#     4  11  23  41  69 103 137 193 243 303 367 443
#     4  10  21  42  66 103 148 195 242 299 380 434
#     4   9  19  37  71 102 149 199 234 303 370 445
#     4  10  22  43  67  98 138 188 248 308 370 441
#     4  10  21  39  71 105 147 191 245 310 360 443
#     4   9  20  38  63 100 145 186 236 303 367 437
#
# _framework density 25.239249999999998
#
# number of rings (size 3 to 8) (size 9 to 14) (size 15 to 20)
#    0.000    2.000    1.429    0.857    2.000    7.714 
#    0.000    3.929    0.000    2.571    0.000    0.500 
#    0.000    0.000    0.000    0.000    0.000    0.000 
#
# Total GULP energy -156146.514501 kJ/mol
# GULP energy per Si atom -5576.661232 kJ/mol
# Density = 2.518180 g / cm^3
# Si number density = 25.239250 Si / 1000 Ang^3
#
#
#
# Elastic Constant Matrix: (Units=GPa)
#
#
# Indices 1 2 3 4 5 6 
#
# 1 176.8301 63.9770 59.0871 0.0000 -5.2427 0.0000
# 2 63.9770 128.2598 62.1091 0.0000 4.5564 0.0000
# 3 59.0871 62.1091 164.1504 0.0000 8.3496 0.0000
# 4 0.0000 0.0000 0.0000 -9.8840 0.0000 7.3616
# 5 -5.2427 4.5564 8.3496 0.0000 33.0010 0.0000
# 6 0.0000 0.0000 0.0000 7.3616 0.0000 75.4194
#
#
#
# Elastic Compliance Matrix: (Units=1/GPa)
#
#
# Indices 1 2 3 4 5 6 
#
# 1 0.007318 -0.002934 -0.001625 0.000000 0.001979 0.000000
# 2 -0.002934 0.010727 -0.002942 0.000000 -0.001203 0.000000
# 3 -0.001625 -0.002942 0.007884 0.000000 -0.001847 0.000000
# 4 0.000000 0.000000 0.000000 -0.094317 0.000000 0.009206
# 5 0.001979 -0.001203 -0.001847 0.000000 0.031250 0.000000
# 6 0.000000 0.000000 0.000000 0.009206 0.000000 0.012361
#
#
# Mechanical properties :
#
#
# Convention : Reuss Voigt Hill
#
# Bulk Modulus (GPa) = 91.50205 93.28739 92.39472
# Shear Modulus (GPa) = -815.14721 38.64510 -388.25106
#
# Velocity S-wave (km/s) = -17.99081 3.91724 -12.41621
# Velocity P-wave (km/s) = 19.88030 7.58295 12.99472
#
# Compressibility (1/GPa) = 0.01092872
#
# Stress axis : x y z
#
# Youngs Moduli (GPa) = 136.64546 93.22011 126.84283
#
# Poissons Ratio (x) = 0.27350 0.20610
# Poissons Ratio (y) = 0.40090 0.37312
# Poissons Ratio (z) = 0.22202 0.27422
#
# Static dielectric constant tensor:
#      x y z
#    x 2.088270 0.000000 -0.060420 
#    y 0.000000 2.093290 0.000000 
#    z -0.060420 0.000000 2.087850 
# 
# From -- ./inp_files/9643.got.cif
#   From: 2010.05.17/outbox.cif.g08.bks.cpg/sg10_5_cif.got.tgz:9643.got - 2010.06.03 11:33:40.
