data_PCOD9153084
_publ_section_title
;
Structure prediction by ZEFSAII (Michael W. Deem and Ramdas Pophale) SiO2 
 PCOD9153084
Probable space group: P 2/M
;
_chemical_formula_sum "Si O2"
_cell_formula_units_Z 29
_cell_length_a 9.291088
_cell_length_b 14.678126
_cell_length_c 20.561031
_cell_angle_alpha 90.000000
_cell_angle_beta 27.593908
_cell_angle_gamma 90.000000
_cell_volume 1298.830018
_symmetry_space_group_name_H-M "P 2/M"
_symmetry_group_IT_number 10
_symmetry_cell_setting 'monoclinic'
loop_
_space_group_symop_operation_xyz
x,y,z
-x,y,-z
-x,-y,-z
x,-y,z
loop_
_atom_site_type_symbol
_atom_site_label
_atom_site_fract_x
_atom_site_fract_y
_atom_site_fract_z
Si Si1 0.674890 0.389724 0.745685
Si Si2 0.240045 0.108974 0.201807
Si Si3 0.636421 0.843614 0.378119
Si Si4 0.923302 0.895307 0.463152
Si Si5 0.000000 0.500000 0.000000
Si Si6 0.589562 0.366177 0.535534
Si Si7 0.359400 0.269933 0.985261
Si Si8 0.742261 0.358473 0.203689
O O1 0.576888 0.500000 0.783679
O O2 0.538548 0.335802 0.862053
O O3 0.540679 0.343414 0.733729
O O4 0.046231 0.382899 0.599512
O O5 0.547408 0.166777 0.068853
O O6 0.998860 0.142340 0.242800
O O7 0.090274 0.139594 0.331114
O O8 0.270204 0.000000 0.187256
O O9 0.500000 0.885380 0.500000
O O10 0.446862 0.892190 0.397827
O O11 0.511240 0.740383 0.425500
O O12 0.000000 0.847712 0.500000
O O13 0.028421 0.000000 0.424265
O O14 0.951956 0.422546 0.075573
O O15 0.500000 0.401120 0.500000
O O16 0.401053 0.400049 0.673497
O O17 0.500000 0.292848 0.000000
O O18 0.989261 0.282397 0.126796
#
# Coordination Sequence:
#
# PCOD9153084 Si02
#       8
#     4   4   4   4   1   4   4   4
#     4  12  25  46  71 103 136 181 232 278 345 415
#     4  10  21  39  66  95 131 179 229 278 336 409
#     4   9  17  35  57  88 136 172 215 259 339 414
#     4   9  17  30  53  89 129 167 214 274 335 399
#     4  12  24  52  70  96 128 196 244 260 326 456
#     4  11  25  43  67 108 140 171 219 297 347 385
#     4  12  25  45  69  99 140 179 232 293 341 408
#     4  12  24  47  73  93 139 187 234 274 335 426
#
# _framework density 22.327788000000002
#
# number of rings (size 3 to 8) (size 9 to 14) (size 15 to 20)
#    0.000    1.241    2.069    4.966    0.966    5.241 
#    2.483    0.000    0.000    1.655    0.000    0.000 
#    0.000    0.000    0.000    0.000    0.000    0.000 
#
# Total GULP energy -161617.847439 kJ/mol
# GULP energy per Si atom -5573.029222 kJ/mol
# Density = 2.227697 g / cm^3
# Si number density = 22.327788 Si / 1000 Ang^3
#
#
#
# Elastic Constant Matrix: (Units=GPa)
#
#
# Indices 1 2 3 4 5 6 
#
# 1 195.9395 40.3006 75.2746 0.0000 2.2672 0.0000
# 2 40.3006 106.6478 34.6223 0.0000 -4.2198 0.0000
# 3 75.2746 34.6223 123.6734 0.0000 0.4151 0.0000
# 4 0.0000 0.0000 0.0000 30.9733 0.0000 -2.2528
# 5 2.2672 -4.2198 0.4151 0.0000 49.1674 0.0000
# 6 0.0000 0.0000 0.0000 -2.2528 0.0000 27.1751
#
#
#
# Elastic Compliance Matrix: (Units=1/GPa)
#
#
# Indices 1 2 3 4 5 6 
#
# 1 0.006843 -0.001375 -0.003779 0.000000 -0.000402 0.000000
# 2 -0.001375 0.010631 -0.002143 0.000000 0.000994 0.000000
# 3 -0.003779 -0.002143 0.010986 0.000000 -0.000102 0.000000
# 4 0.000000 0.000000 0.000000 0.032482 0.000000 0.002693
# 5 -0.000402 0.000994 -0.000102 0.000000 0.020443 0.000000
# 6 0.000000 0.000000 0.000000 0.002693 0.000000 0.037022
#
#
# Mechanical properties :
#
#
# Convention : Reuss Voigt Hill
#
# Bulk Modulus (GPa) = 72.11195 80.73951 76.42573
# Shear Modulus (GPa) = 36.33158 39.86736 38.09947
#
# Velocity S-wave (km/s) = 4.03822 4.23016 4.13530
# Velocity P-wave (km/s) = 7.35595 7.75232 7.55674
#
# Compressibility (1/GPa) = 0.01386733
#
# Stress axis : x y z
#
# Youngs Moduli (GPa) = 146.14131 94.06322 91.02620
#
# Poissons Ratio (x) = 0.12933 0.34395
# Poissons Ratio (y) = 0.20094 0.19504
# Poissons Ratio (z) = 0.55221 0.20154
#
# Static dielectric constant tensor:
#      x y z
#    x 1.836870 0.000000 0.057390 
#    y 0.000000 1.569510 0.000000 
#    z 0.057390 0.000000 1.658300 
# 
# From -- ./inp_files/82927.got.cif
#   From: 2010.05.17/outbox.cif.g08.bks.cpg/sg10_42_cif.got.tgz:82927.got - 2010.06.03 11:33:40.
