data_PCOD9153638
_publ_section_title
;
Structure prediction by ZEFSAII (Michael W. Deem and Ramdas Pophale) SiO2 
 PCOD9153638
Probable space group: P 2/M
;
_chemical_formula_sum "Si O2"
_cell_formula_units_Z 24
_cell_length_a 14.914444
_cell_length_b 9.193648
_cell_length_c 14.141357
_cell_angle_alpha 90.000000
_cell_angle_beta 39.095808
_cell_angle_gamma 90.000000
_cell_volume 1222.793428
_symmetry_space_group_name_H-M "P 2/M"
_symmetry_group_IT_number 10
_symmetry_cell_setting 'monoclinic'
loop_
_space_group_symop_operation_xyz
x,y,z
-x,y,-z
-x,-y,-z
x,-y,z
loop_
_atom_site_type_symbol
_atom_site_label
_atom_site_fract_x
_atom_site_fract_y
_atom_site_fract_z
Si Si1 0.295093 0.827724 0.315165
Si Si2 0.714225 0.667867 0.865671
Si Si3 0.947662 0.330060 0.386404
Si Si4 0.228640 0.828304 0.856281
Si Si5 0.449857 0.671570 0.802763
Si Si6 0.926764 0.172005 0.208455
O O1 0.334771 0.771506 0.178297
O O2 0.141338 0.762756 0.466217
O O3 0.405123 0.758160 0.299308
O O4 0.296548 0.000000 0.318955
O O5 0.685823 0.500000 0.860735
O O6 0.883310 0.685645 0.739985
O O7 0.640058 0.693510 0.026729
O O8 0.912134 0.500000 0.426356
O O9 0.909160 0.270176 0.314338
O O10 0.354781 0.734201 0.796013
O O11 0.183837 0.795936 0.785206
O O12 0.263074 0.000000 0.834496
O O13 0.084517 0.805732 0.035538
O O14 0.475799 0.500000 0.770588
O O15 0.914914 0.000000 0.242114
#
# Coordination Sequence:
#
# PCOD9153638 Si02
#       6
#     4   4   4   4   4   4
#     4  12  26  40  57  84 117 156 196 240 291 344
#     4  10  22  40  61  86 115 151 194 240 289 341
#     4  11  22  39  61  87 118 154 193 238 289 343
#     4   9  18  34  58  88 120 152 188 234 285 338
#     4  11  22  39  61  87 118 154 193 238 289 343
#     4   9  18  34  58  88 120 152 188 234 285 338
#
# _framework density 19.627191
#
# number of rings (size 3 to 8) (size 9 to 14) (size 15 to 20)
#    0.000    1.667    1.667    4.500    0.000    7.333 
#    0.000    2.500    0.000    5.000    0.000    0.000 
#    0.000    0.000    0.000    0.000    0.000    0.000 
#
# Total GULP energy -134186.337402 kJ/mol
# GULP energy per Si atom -5591.097392 kJ/mol
# Density = 1.958252 g / cm^3
# Si number density = 19.627191 Si / 1000 Ang^3
#
#
#
# Elastic Constant Matrix: (Units=GPa)
#
#
# Indices 1 2 3 4 5 6 
#
# 1 92.0071 57.0317 4.2759 0.0000 -3.9704 0.0000
# 2 57.0317 87.2849 22.2194 0.0000 -7.1758 0.0000
# 3 4.2759 22.2194 36.4566 0.0000 -7.8962 0.0000
# 4 0.0000 0.0000 0.0000 40.6381 0.0000 -0.0336
# 5 -3.9704 -7.1758 -7.8962 0.0000 28.0524 0.0000
# 6 0.0000 0.0000 0.0000 -0.0336 0.0000 39.1622
#
#
#
# Elastic Compliance Matrix: (Units=1/GPa)
#
#
# Indices 1 2 3 4 5 6 
#
# 1 0.019504 -0.014364 0.006676 0.000000 0.000965 0.000000
# 2 -0.014364 0.024178 -0.012941 0.000000 0.000509 0.000000
# 3 0.006676 -0.012941 0.036231 0.000000 0.007833 0.000000
# 4 0.000000 0.000000 0.000000 0.024607 0.000000 0.000021
# 5 0.000965 0.000509 0.007833 0.000000 0.038119 0.000000
# 6 0.000000 0.000000 0.000000 0.000021 0.000000 0.025535
#
#
# Mechanical properties :
#
#
# Convention : Reuss Voigt Hill
#
# Bulk Modulus (GPa) = 25.87004 42.53361 34.20182
# Shear Modulus (GPa) = 22.49045 30.38529 26.43787
#
# Velocity S-wave (km/s) = 3.38876 3.93889 3.67413
# Velocity P-wave (km/s) = 5.34050 6.51185 5.95505
#
# Compressibility (1/GPa) = 0.03865476
#
# Stress axis : x y z
#
# Youngs Moduli (GPa) = 51.27241 41.35973 27.60094
#
# Poissons Ratio (x) = 0.59408 -0.18426
# Poissons Ratio (y) = 0.73646 0.35718
# Poissons Ratio (z) = -0.34229 0.53524
#
# Static dielectric constant tensor:
#      x y z
#    x 1.678870 0.000000 -0.004020 
#    y 0.000000 1.650490 0.000000 
#    z -0.004020 0.000000 1.701020 
# 
# From -- ./inp_files/27015.got.cif
#   From: 2010.05.17/outbox.cif.g08.bks.cpg/sg10_14_cif.got.tgz:27015.got - 2010.06.03 11:33:40.
