data_PCOD9153564
_publ_section_title
;
Structure prediction by ZEFSAII (Michael W. Deem and Ramdas Pophale) SiO2 
 PCOD9153564
Probable space group: P 2/M
;
_chemical_formula_sum "Si O2"
_cell_formula_units_Z 32
_cell_length_a 12.165073
_cell_length_b 14.857199
_cell_length_c 13.792666
_cell_angle_alpha 90.000000
_cell_angle_beta 136.592787
_cell_angle_gamma 90.000000
_cell_volume 1713.048828
_symmetry_space_group_name_H-M "P 2/M"
_symmetry_group_IT_number 10
_symmetry_cell_setting 'monoclinic'
loop_
_space_group_symop_operation_xyz
x,y,z
-x,y,-z
-x,-y,-z
x,-y,z
loop_
_atom_site_type_symbol
_atom_site_label
_atom_site_fract_x
_atom_site_fract_y
_atom_site_fract_z
Si Si1 0.489744 0.391568 0.881622
Si Si2 0.178230 0.748958 0.390846
Si Si3 0.795544 0.349294 0.947321
Si Si4 0.226308 0.143660 0.125467
Si Si5 0.169768 0.604132 0.554773
Si Si6 0.846428 0.598888 0.769747
Si Si7 0.558187 0.101977 0.425441
Si Si8 0.986304 0.098824 0.821597
O O1 0.500547 0.500000 0.890726
O O2 0.642530 0.358856 0.917781
O O3 0.320963 0.370696 0.720473
O O4 0.500000 0.359707 0.000000
O O5 0.151061 0.677756 0.458511
O O6 0.227297 0.683218 0.333847
O O7 0.312707 0.820607 0.504306
O O8 0.037067 0.815447 0.262971
O O9 0.810021 0.247509 0.918996
O O10 0.782158 0.402544 0.837994
O O11 0.962007 0.381245 0.102463
O O12 0.409113 0.122983 0.261520
O O13 0.136171 0.113315 0.166261
O O14 0.154310 0.097738 0.984429
O O15 0.198491 0.500000 0.540382
O O16 0.000000 0.603445 0.500000
O O17 0.820513 0.500000 0.709467
O O18 0.500000 0.105860 0.500000
O O19 0.614549 0.000000 0.444056
O O20 0.955568 0.000000 0.758566
#
# Coordination Sequence:
#
# PCOD9153564 Si02
#       8
#     4   4   4   4   4   4   4   4
#     4  10  22  39  62  88 115 156 211 264 302 351
#     4  12  22  37  56  88 118 159 204 245 300 377
#     4  11  19  36  56  89 125 159 204 253 301 368
#     4  11  19  34  54  82 119 159 200 248 300 360
#     4  10  24  44  63  87 120 160 209 265 318 368
#     4  11  21  34  56  86 127 170 198 243 311 377
#     4  11  21  34  54  83 121 160 196 246 309 367
#     4  11  20  34  56  84 120 157 202 248 297 368
#
# _framework density 18.680143999999999
#
# number of rings (size 3 to 8) (size 9 to 14) (size 15 to 20)
#    0.000    1.125    3.750    5.250    1.750    0.000 
#    0.000    0.000    0.000    5.250    0.000    0.000 
#    0.000    9.500    0.000    0.000    0.000    0.000 
#
# Total GULP energy -178529.642740 kJ/mol
# GULP energy per Si atom -5579.051336 kJ/mol
# Density = 1.863763 g / cm^3
# Si number density = 18.680144 Si / 1000 Ang^3
#
#
#
# Elastic Constant Matrix: (Units=GPa)
#
#
# Indices 1 2 3 4 5 6 
#
# 1 81.4959 20.7067 36.3084 0.0000 0.7924 0.0000
# 2 20.7067 149.2022 36.6598 0.0000 -11.6449 0.0000
# 3 36.3084 36.6598 113.4482 0.0000 -0.9955 0.0000
# 4 0.0000 0.0000 0.0000 17.0718 0.0000 0.8301
# 5 0.7924 -11.6449 -0.9955 0.0000 21.4554 0.0000
# 6 0.0000 0.0000 0.0000 0.8301 0.0000 20.8906
#
#
#
# Elastic Compliance Matrix: (Units=1/GPa)
#
#
# Indices 1 2 3 4 5 6 
#
# 1 0.014467 -0.001053 -0.004301 0.000000 -0.001305 0.000000
# 2 -0.001053 0.007688 -0.002111 0.000000 0.004114 0.000000
# 3 -0.004301 -0.002111 0.010869 0.000000 -0.000483 0.000000
# 4 0.000000 0.000000 0.000000 0.058689 0.000000 -0.002332
# 5 -0.001305 0.004114 -0.000483 0.000000 0.048867 0.000000
# 6 0.000000 0.000000 0.000000 -0.002332 0.000000 0.047961
#
#
# Mechanical properties :
#
#
# Convention : Reuss Voigt Hill
#
# Bulk Modulus (GPa) = 55.26817 59.05511 57.16164
# Shear Modulus (GPa) = 23.86589 28.58167 26.22378
#
# Velocity S-wave (km/s) = 3.57824 3.91584 3.75084
# Velocity P-wave (km/s) = 6.83539 7.21994 7.03029
#
# Compressibility (1/GPa) = 0.01809360
#
# Stress axis : x y z
#
# Youngs Moduli (GPa) = 69.12232 130.06843 92.00264
#
# Poissons Ratio (x) = 0.13693 0.39574
# Poissons Ratio (y) = 0.07277 0.19425
# Poissons Ratio (z) = 0.29732 0.27462
#
# Static dielectric constant tensor:
#      x y z
#    x 1.615220 0.000000 -0.001990 
#    y 0.000000 1.683100 0.000000 
#    z -0.001990 0.000000 1.697680 
# 
# From -- ./inp_files/65106.got.cif
#   From: 2010.05.17/outbox.cif.g08.bks.cpg/sg10_33_cif.got.tgz:65106.got - 2010.06.03 11:33:40.
