data_PCOD9153837
_publ_section_title
;
Structure prediction by ZEFSAII (Michael W. Deem and Ramdas Pophale) SiO2 
 PCOD9153837
Probable space group: P 2/M
;
_chemical_formula_sum "Si O2"
_cell_formula_units_Z 28
_cell_length_a 22.057117
_cell_length_b 15.789250
_cell_length_c 9.435537
_cell_angle_alpha 90.000000
_cell_angle_beta 152.470066
_cell_angle_gamma 90.000000
_cell_volume 1518.861084
_symmetry_space_group_name_H-M "P 2/M"
_symmetry_group_IT_number 10
_symmetry_cell_setting 'monoclinic'
loop_
_space_group_symop_operation_xyz
x,y,z
-x,y,-z
-x,-y,-z
x,-y,z
loop_
_atom_site_type_symbol
_atom_site_label
_atom_site_fract_x
_atom_site_fract_y
_atom_site_fract_z
Si Si1 0.150641 0.784703 0.855426
Si Si2 0.136823 0.500000 0.871003
Si Si3 0.392192 0.899742 0.399587
Si Si4 0.146804 0.596415 0.357525
Si Si5 0.722914 0.678393 0.134075
Si Si6 0.234194 0.337773 0.248661
Si Si7 0.509320 0.760568 0.189952
Si Si8 0.372041 0.500000 0.140831
O O1 0.221917 0.716988 0.896829
O O2 0.000000 0.799605 0.500000
O O3 0.249020 0.864317 0.058627
O O4 0.156435 0.741747 0.022532
O O5 0.000000 0.500000 0.500000
O O6 0.170377 0.418805 0.037859
O O7 0.243945 0.500000 0.971775
O O8 0.500000 0.881046 0.500000
O O9 0.435395 0.847159 0.627822
O O10 0.389714 0.000000 0.417127
O O11 0.194670 0.500000 0.477912
O O12 0.155571 0.649310 0.518421
O O13 0.224230 0.643107 0.393960
O O14 0.000000 0.591369 0.000000
O O15 0.630155 0.742819 0.025765
O O16 0.638445 0.591634 0.952697
O O17 0.386347 0.311733 0.542594
O O18 0.500000 0.761617 0.000000
O O19 0.500000 0.500000 0.500000
#
# Coordination Sequence:
#
# PCOD9153837 Si02
#       8
#     4   2   4   4   4   4   4   2
#     4  11  23  39  65  91 121 155 198 250 303 357
#     4  12  24  35  56  79 114 157 210 257 299 341
#     4  10  22  42  69  96 121 152 191 241 302 372
#     4  11  23  36  53  77 117 163 211 255 295 340
#     4  12  23  39  57  88 118 161 207 251 293 353
#     4  11  22  37  55  83 116 156 209 250 294 350
#     4  11  23  40  62  89 120 157 197 243 303 365
#     4  12  26  37  54  81 120 163 202 257 300 334
#
# _framework density 18.434867000000001
#
# number of rings (size 3 to 8) (size 9 to 14) (size 15 to 20)
#    0.000    0.857    5.714    2.143    4.000    0.571 
#    0.000    1.429    0.000    0.000    0.000    1.000 
#    0.000    0.000    0.000    0.000    0.000    0.000 
#
# Total GULP energy -156162.055926 kJ/mol
# GULP energy per Si atom -5577.216283 kJ/mol
# Density = 1.839291 g / cm^3
# Si number density = 18.434867 Si / 1000 Ang^3
#
#
#
# Elastic Constant Matrix: (Units=GPa)
#
#
# Indices 1 2 3 4 5 6 
#
# 1 50.1706 25.2320 15.8232 0.0000 0.8122 0.0000
# 2 25.2320 90.9163 43.1065 0.0000 -0.1834 0.0000
# 3 15.8232 43.1065 118.3713 0.0000 3.5340 0.0000
# 4 0.0000 0.0000 0.0000 -48.0561 0.0000 17.1876
# 5 0.8122 -0.1834 3.5340 0.0000 32.3619 0.0000
# 6 0.0000 0.0000 0.0000 17.1876 0.0000 18.0738
#
#
#
# Elastic Compliance Matrix: (Units=1/GPa)
#
#
# Indices 1 2 3 4 5 6 
#
# 1 0.023256 -0.006030 -0.000897 0.000000 -0.000520 0.000000
# 2 -0.006030 0.014870 -0.004631 0.000000 0.000741 0.000000
# 3 -0.000897 -0.004631 0.010288 0.000000 -0.001127 0.000000
# 4 0.000000 0.000000 0.000000 -0.015528 0.000000 0.014766
# 5 -0.000520 0.000741 -0.001127 0.000000 0.031041 0.000000
# 6 0.000000 0.000000 0.000000 0.014766 0.000000 0.041286
#
#
# Mechanical properties :
#
#
# Convention : Reuss Voigt Hill
#
# Bulk Modulus (GPa) = 39.52998 47.53127 43.53063
# Shear Modulus (GPa) = 36.55973 12.16236 24.36104
#
# Velocity S-wave (km/s) = 4.45813 2.57134 3.63914
# Velocity P-wave (km/s) = 6.92744 5.88685 6.42824
#
# Compressibility (1/GPa) = 0.02529726
#
# Stress axis : x y z
#
# Youngs Moduli (GPa) = 42.99978 67.25017 97.19968
#
# Poissons Ratio (x) = 0.40550 0.08722
# Poissons Ratio (y) = 0.25928 0.45015
# Poissons Ratio (z) = 0.03859 0.31145
#
# Static dielectric constant tensor:
#      x y z
#    x 1.667200 0.000000 -0.005310 
#    y 0.000000 1.694020 0.000000 
#    z -0.005310 0.000000 1.661560 
# 
# From -- ./inp_files/25458.got.cif
#   From: 2010.05.17/outbox.cif.g08.bks.cpg/sg10_13_cif.got.tgz:25458.got - 2010.06.03 11:33:40.
