data_PCOD9153099
_publ_section_title
;
Structure prediction by ZEFSAII (Michael W. Deem and Ramdas Pophale) SiO2 
 PCOD9153099
Probable space group: P 2/M
;
_chemical_formula_sum "Si O2"
_cell_formula_units_Z 21
_cell_length_a 11.879128
_cell_length_b 11.600702
_cell_length_c 11.108252
_cell_angle_alpha 90.000000
_cell_angle_beta 35.323603
_cell_angle_gamma 90.000000
_cell_volume 885.091101
_symmetry_space_group_name_H-M "P 2/M"
_symmetry_group_IT_number 10
_symmetry_cell_setting 'monoclinic'
loop_
_space_group_symop_operation_xyz
x,y,z
-x,y,-z
-x,-y,-z
x,-y,z
loop_
_atom_site_type_symbol
_atom_site_label
_atom_site_fract_x
_atom_site_fract_y
_atom_site_fract_z
Si Si1 0.734111 0.624492 0.310958
Si Si2 0.281060 0.877296 0.746258
Si Si3 0.407908 0.629060 0.212718
Si Si4 0.694700 0.186492 0.006832
Si Si5 0.022215 0.628940 0.655917
Si Si6 0.500000 0.000000 0.000000
O O1 0.500000 0.625489 0.500000
O O2 0.791075 0.500000 0.203201
O O3 0.799910 0.750409 0.210410
O O4 0.827775 0.622002 0.361923
O O5 0.500000 0.876171 0.500000
O O6 0.272022 0.878924 0.898221
O O7 0.196929 0.000000 0.772726
O O8 0.444000 0.500000 0.227043
O O9 0.517306 0.726056 0.191243
O O10 0.177142 0.648555 0.413554
O O11 0.127987 0.730811 0.187484
O O12 0.624002 0.100823 0.964826
O O13 0.500000 0.364342 0.000000
O O14 0.931761 0.500000 0.723966
#
# Coordination Sequence:
#
# PCOD9153099 Si02
#       6
#     4   4   4   4   4   1
#     4   9  18  37  66 103 144 184 228 286 362 439
#     4  10  21  39  68 100 136 182 233 295 361 430
#     4  10  21  40  70 102 138 182 235 302 367 429
#     4  12  24  47  71  98 144 193 246 308 359 442
#     4  10  23  43  72 112 147 187 240 300 372 444
#     4  12  28  52  70  98 144 198 260 298 366 428
#
# _framework density 23.726371
#
# number of rings (size 3 to 8) (size 9 to 14) (size 15 to 20)
#    0.000    1.714    1.905    2.857    0.000    4.571 
#    1.714    7.619    0.000    0.000    0.000    0.000 
#    0.000    0.000    0.000    0.000    0.000    0.000 
#
# Total GULP energy -116967.278241 kJ/mol
# GULP energy per Si atom -5569.870392 kJ/mol
# Density = 2.367237 g / cm^3
# Si number density = 23.726371 Si / 1000 Ang^3
#
#
#
# Elastic Constant Matrix: (Units=GPa)
#
#
# Indices 1 2 3 4 5 6 
#
# 1 80.9103 42.5757 39.0652 0.0000 -2.0103 0.0000
# 2 42.5757 260.0492 66.3880 0.0000 -7.2165 0.0000
# 3 39.0652 66.3880 145.0396 0.0000 -20.7343 0.0000
# 4 0.0000 0.0000 0.0000 450.4396 0.0000 33.9218
# 5 -2.0103 -7.2165 -20.7343 0.0000 36.1843 0.0000
# 6 0.0000 0.0000 0.0000 33.9218 0.0000 -9.0308
#
#
#
# Elastic Compliance Matrix: (Units=1/GPa)
#
#
# Indices 1 2 3 4 5 6 
#
# 1 0.014837 -0.001581 -0.003485 0.000000 -0.001488 0.000000
# 2 -0.001581 0.004526 -0.001666 0.000000 -0.000140 0.000000
# 3 -0.003485 -0.001666 0.009281 0.000000 0.004792 0.000000
# 4 0.000000 0.000000 0.000000 0.001731 0.000000 0.006500
# 5 -0.001488 -0.000140 0.004792 0.000000 0.030272 0.000000
# 6 0.000000 0.000000 0.000000 0.006500 0.000000 -0.086316
#
#
# Mechanical properties :
#
#
# Convention : Reuss Voigt Hill
#
# Bulk Modulus (GPa) = 65.87647 86.89521 76.38584
# Shear Modulus (GPa) = -699.64850 118.04998 -290.79926
#
# Velocity S-wave (km/s) = -17.19076 7.06136 -11.08286
# Velocity P-wave (km/s) = 19.13647 10.15810 11.46772
#
# Compressibility (1/GPa) = 0.01517993
#
# Stress axis : x y z
#
# Youngs Moduli (GPa) = 67.39911 220.96665 107.74729
#
# Poissons Ratio (x) = 0.34927 0.37555
# Poissons Ratio (y) = 0.10653 0.17948
# Poissons Ratio (z) = 0.23492 0.36807
#
# Static dielectric constant tensor:
#      x y z
#    x 2.114230 0.000000 0.119500 
#    y 0.000000 1.987480 0.000000 
#    z 0.119500 0.000000 2.001860 
# 
# From -- ./inp_files/46460.got.cif
#   From: 2010.05.17/outbox.cif.g08.bks.cpg/sg10_24_cif.got.tgz:46460.got - 2010.06.03 11:33:40.
