data_PCOD9153911
_publ_section_title
;
Structure prediction by ZEFSAII (Michael W. Deem and Ramdas Pophale) SiO2 
 PCOD9153911
Probable space group: P 2/M
;
_chemical_formula_sum "Si O2"
_cell_formula_units_Z 21
_cell_length_a 14.806185
_cell_length_b 7.490447
_cell_length_c 22.692158
_cell_angle_alpha 90.000000
_cell_angle_beta 21.738260
_cell_angle_gamma 90.000000
_cell_volume 932.092738
_symmetry_space_group_name_H-M "P 2/M"
_symmetry_group_IT_number 10
_symmetry_cell_setting 'monoclinic'
loop_
_space_group_symop_operation_xyz
x,y,z
-x,y,-z
-x,-y,-z
x,-y,z
loop_
_atom_site_type_symbol
_atom_site_label
_atom_site_fract_x
_atom_site_fract_y
_atom_site_fract_z
Si Si1 0.769529 0.283219 0.319046
Si Si2 0.169286 0.206017 0.173302
Si Si3 0.955828 0.289784 0.961443
Si Si4 0.039749 0.783197 0.383245
Si Si5 0.500000 0.500000 0.000000
Si Si6 0.397785 0.784313 0.269884
O O1 0.500000 0.224538 0.500000
O O2 0.771791 0.500000 0.317304
O O3 0.956757 0.221663 0.255159
O O4 0.866978 0.217965 0.196827
O O5 0.078416 0.273685 0.292732
O O6 0.245360 0.000000 0.130474
O O7 0.382397 0.341931 0.029420
O O8 0.011159 0.500000 0.931660
O O9 0.675031 0.272217 0.111254
O O10 0.000000 0.213690 0.000000
O O11 0.254004 0.725985 0.298055
O O12 0.781700 0.728132 0.567922
O O13 0.041047 0.000000 0.381921
O O14 0.399488 0.000000 0.267415
#
# Coordination Sequence:
#
# PCOD9153911 Si02
#       6
#     4   4   4   4   1   4
#     4  10  23  44  66  92 132 179 226 278 337 395
#     4  11  24  42  68  99 133 174 223 277 333 403
#     4  10  23  40  59  89 124 166 218 273 321 383
#     4   8  18  37  61  91 125 161 203 264 324 386
#     4  12  26  44  62 100 134 178 214 270 340 404
#     4   9  18  37  62  87 122 163 206 257 325 387
#
# _framework density 22.529948999999998
#
# number of rings (size 3 to 8) (size 9 to 14) (size 15 to 20)
#    0.000    2.286    0.952    1.429    5.333    1.524 
#    1.714    0.952    0.000    0.000    0.000    0.000 
#    0.000    0.000    0.000    0.000    0.000    0.000 
#
# Total GULP energy -117131.069943 kJ/mol
# GULP energy per Si atom -5577.669997 kJ/mol
# Density = 2.247867 g / cm^3
# Si number density = 22.529949 Si / 1000 Ang^3
#
#
#
# Elastic Constant Matrix: (Units=GPa)
#
#
# Indices 1 2 3 4 5 6 
#
# 1 160.1902 12.1388 92.4070 0.0000 16.6051 0.0000
# 2 12.1388 98.9281 14.0327 0.0000 0.8055 0.0000
# 3 92.4070 14.0327 161.8289 0.0000 8.9654 0.0000
# 4 0.0000 0.0000 0.0000 17.4102 0.0000 -17.5256
# 5 16.6051 0.8055 8.9654 0.0000 45.3409 0.0000
# 6 0.0000 0.0000 0.0000 -17.5256 0.0000 19.2677
#
#
#
# Elastic Compliance Matrix: (Units=1/GPa)
#
#
# Indices 1 2 3 4 5 6 
#
# 1 0.009587 -0.000404 -0.005303 0.000000 -0.002455 0.000000
# 2 -0.000404 0.010251 -0.000664 0.000000 0.000097 0.000000
# 3 -0.005303 -0.000664 0.009258 0.000000 0.000123 0.000000
# 4 0.000000 0.000000 0.000000 0.680611 0.000000 0.619072
# 5 -0.002455 0.000097 0.000123 0.000000 0.022928 0.000000
# 6 0.000000 0.000000 0.000000 0.619072 0.000000 0.614997
#
#
# Mechanical properties :
#
#
# Convention : Reuss Voigt Hill
#
# Bulk Modulus (GPa) = 61.14443 73.12269 67.13356
# Shear Modulus (GPa) = 3.66079 36.56167 20.11123
#
# Velocity S-wave (km/s) = 1.27608 4.03277 2.99096
# Velocity P-wave (km/s) = 5.41934 7.36278 6.46451
#
# Compressibility (1/GPa) = 0.01635472
#
# Stress axis : x y z
#
# Youngs Moduli (GPa) = 104.30887 97.54889 108.01117
#
# Poissons Ratio (x) = 0.03942 0.57281
# Poissons Ratio (y) = 0.04215 0.07167
# Poissons Ratio (z) = 0.55317 0.06473
#
# Static dielectric constant tensor:
#      x y z
#    x 7.182650 0.000000 -4.275960 
#    y 0.000000 1.857680 0.000000 
#    z -4.275960 0.000000 5.360130 
# 
# From -- ./inp_files/89298.got.cif
#   From: 2010.05.17/outbox.cif.g08.bks.cpg/sg10_45_cif.got.tgz:89298.got - 2010.06.03 11:33:40.
