data_PCOD9153327
_publ_section_title
;
Structure prediction by ZEFSAII (Michael W. Deem and Ramdas Pophale) SiO2 
 PCOD9153327
Probable space group: P 2/M
;
_chemical_formula_sum "Si O2"
_cell_formula_units_Z 14
_cell_length_a 5.174654
_cell_length_b 19.738563
_cell_length_c 4.954051
_cell_angle_alpha 90.000000
_cell_angle_beta 87.040263
_cell_angle_gamma 90.000000
_cell_volume 505.332947
_symmetry_space_group_name_H-M "P 2/M"
_symmetry_group_IT_number 10
_symmetry_cell_setting 'monoclinic'
loop_
_space_group_symop_operation_xyz
x,y,z
-x,y,-z
-x,-y,-z
x,-y,z
loop_
_atom_site_type_symbol
_atom_site_label
_atom_site_fract_x
_atom_site_fract_y
_atom_site_fract_z
Si Si1 0.241302 0.000000 0.688045
Si Si2 0.238388 0.148620 0.696287
Si Si3 0.258666 0.500000 0.810257
Si Si4 0.819495 0.648481 0.279280
Si Si5 0.500000 0.255218 0.000000
O O1 0.500000 0.000000 0.500000
O O2 0.237318 0.926823 0.825957
O O3 0.000000 0.000000 0.500000
O O4 0.500000 0.155949 0.500000
O O5 0.272946 0.202652 0.933954
O O6 0.000000 0.155696 0.500000
O O7 0.248680 0.570593 0.652839
O O8 0.500000 0.500000 0.000000
O O9 0.000000 0.500000 0.000000
O O10 0.562054 0.690230 0.228740
O O11 0.000000 0.678695 0.500000
O O12 0.000000 0.649366 0.000000
#
# Coordination Sequence:
#
# PCOD9153327 Si02
#       5
#     2   4   2   4   2
#     4   8  16  37  62  89 122 172 225 282 335 405
#     4  10  23  41  65  93 133 176 229 283 346 411
#     4  10  21  48  72 105 137 185 238 292 344 413
#     4  11  26  46  71 102 142 186 236 290 350 416
#     4  12  26  38  66  96 142 178 230 282 354 424
#
# _framework density 27.704502999999999
#
# number of rings (size 3 to 8) (size 9 to 14) (size 15 to 20)
#    0.000    1.714    1.429    1.286    8.000    0.571 
#    0.000    2.857    0.000   10.286    0.000    0.000 
#    0.000    0.000    0.000    0.000    0.000    0.000 
#
# Total GULP energy -78319.073223 kJ/mol
# GULP energy per Si atom -5594.219516 kJ/mol
# Density = 2.764145 g / cm^3
# Si number density = 27.704503 Si / 1000 Ang^3
#
#
#
# Elastic Constant Matrix: (Units=GPa)
#
#
# Indices 1 2 3 4 5 6 
#
# 1 216.7897 11.8955 70.2909 0.0000 27.2252 0.0000
# 2 11.8955 266.4705 45.3540 0.0000 39.3050 0.0000
# 3 70.2909 45.3540 153.6276 0.0000 41.8210 0.0000
# 4 0.0000 0.0000 0.0000 21.0721 0.0000 38.6465
# 5 27.2252 39.3050 41.8210 0.0000 83.6289 0.0000
# 6 0.0000 0.0000 0.0000 38.6465 0.0000 11.1219
#
#
#
# Elastic Compliance Matrix: (Units=1/GPa)
#
#
# Indices 1 2 3 4 5 6 
#
# 1 0.005460 0.000267 -0.002383 0.000000 -0.000711 0.000000
# 2 0.000267 0.004128 -0.000913 0.000000 -0.001570 0.000000
# 3 -0.002383 -0.000913 0.008730 0.000000 -0.003160 0.000000
# 4 0.000000 0.000000 0.000000 -0.008833 0.000000 0.030692
# 5 -0.000711 -0.001570 -0.003160 0.000000 0.014508 0.000000
# 6 0.000000 0.000000 0.000000 0.030692 0.000000 -0.016735
#
#
# Mechanical properties :
#
#
# Convention : Reuss Voigt Hill
#
# Bulk Modulus (GPa) = 81.57941 99.10761 90.34351
# Shear Modulus (GPa) = 287.28856 57.12107 172.20481
#
# Velocity S-wave (km/s) = 10.19424 4.54563 7.89257
# Velocity P-wave (km/s) = 12.96432 7.96248 10.75813
#
# Compressibility (1/GPa) = 0.01225800
#
# Stress axis : x y z
#
# Youngs Moduli (GPa) = 183.14248 242.25373 114.55105
#
# Poissons Ratio (x) = -0.06463 0.27303
# Poissons Ratio (y) = -0.04886 0.10461
# Poissons Ratio (z) = 0.43652 0.22124
#
# Static dielectric constant tensor:
#      x y z
#    x 2.236670 0.000000 -0.189190 
#    y 0.000000 2.180820 0.000000 
#    z -0.189190 0.000000 2.108290 
# 
# From -- ./inp_files/949.got.cif
#   From: 2010.05.17/outbox.cif.g08.bks.cpg/sg10_1_cif.got.tgz:949.got - 2010.06.03 11:33:40.
