data_PCOD9153948
_publ_section_title
;
Structure prediction by ZEFSAII (Michael W. Deem and Ramdas Pophale) SiO2 
 PCOD9153948
Probable space group: P 2/M
;
_chemical_formula_sum "Si O2"
_cell_formula_units_Z 28
_cell_length_a 9.088671
_cell_length_b 8.767328
_cell_length_c 22.813338
_cell_angle_alpha 90.000000
_cell_angle_beta 53.340292
_cell_angle_gamma 90.000000
_cell_volume 1458.266197
_symmetry_space_group_name_H-M "P 2/M"
_symmetry_group_IT_number 10
_symmetry_cell_setting 'monoclinic'
loop_
_space_group_symop_operation_xyz
x,y,z
-x,y,-z
-x,-y,-z
x,-y,z
loop_
_atom_site_type_symbol
_atom_site_label
_atom_site_fract_x
_atom_site_fract_y
_atom_site_fract_z
Si Si1 0.470652 0.818020 0.575765
Si Si2 0.377969 0.817143 0.862559
Si Si3 0.679395 0.318153 0.995757
Si Si4 0.799949 0.682695 0.573731
Si Si5 0.768967 0.817100 0.711056
Si Si6 0.953826 0.817718 0.146642
Si Si7 0.907423 0.318178 0.286622
O O1 0.500000 0.786707 0.500000
O O2 0.642856 0.757031 0.571387
O O3 0.286406 0.738937 0.642309
O O4 0.453920 0.000000 0.587718
O O5 0.352644 0.733114 0.930013
O O6 0.572695 0.779894 0.786758
O O7 0.213490 0.779514 0.857171
O O8 0.372735 0.000000 0.874140
O O9 0.707614 0.500000 0.986103
O O10 0.500000 0.280110 0.000000
O O11 0.856542 0.234722 0.927527
O O12 0.778811 0.500000 0.578500
O O13 0.783838 0.744684 0.643366
O O14 0.000000 0.719850 0.500000
O O15 0.930573 0.754599 0.713434
O O16 0.782740 0.000000 0.703123
O O17 0.927788 0.736997 0.215037
O O18 0.954230 0.000000 0.155312
O O19 0.918476 0.500000 0.287172
#
# Coordination Sequence:
#
# PCOD9153948 Si02
#       7
#     4   4   4   4   4   4   4
#     4  11  24  42  65  92 123 163 210 255 304 366
#     4  10  23  41  62  89 119 156 201 250 302 360
#     4  11  24  40  60  89 123 159 201 249 303 363
#     4  11  24  41  63  93 128 164 204 254 311 366
#     4  11  23  41  65  91 123 163 207 253 305 368
#     4  11  23  41  64  90 122 159 204 252 302 365
#     4  12  25  41  63  92 126 161 203 255 311 367
#
# _framework density 19.200883999999999
#
# number of rings (size 3 to 8) (size 9 to 14) (size 15 to 20)
#    0.000    1.000    0.000    6.429    0.000   13.143 
#    0.000    0.000    0.000    0.000    0.000    0.000 
#    0.000    0.000    0.000    0.000    0.000    0.000 
#
# Total GULP energy -156755.176256 kJ/mol
# GULP energy per Si atom -5598.399152 kJ/mol
# Density = 1.915718 g / cm^3
# Si number density = 19.200884 Si / 1000 Ang^3
#
#
#
# Elastic Constant Matrix: (Units=GPa)
#
#
# Indices 1 2 3 4 5 6 
#
# 1 132.4492 24.6037 40.3011 0.0000 -1.9831 0.0000
# 2 24.6037 37.2902 32.4552 0.0000 -0.4217 0.0000
# 3 40.3011 32.4552 115.1542 0.0000 -0.6715 0.0000
# 4 0.0000 0.0000 0.0000 106.3077 0.0000 79.1388
# 5 -1.9831 -0.4217 -0.6715 0.0000 39.6306 0.0000
# 6 0.0000 0.0000 0.0000 79.1388 0.0000 116.9853
#
#
#
# Elastic Compliance Matrix: (Units=1/GPa)
#
#
# Indices 1 2 3 4 5 6 
#
# 1 0.008925 -0.004197 -0.001938 0.000000 0.000369 0.000000
# 2 -0.004197 0.037509 -0.009102 0.000000 0.000035 0.000000
# 3 -0.001938 -0.009102 0.011928 0.000000 0.000008 0.000000
# 4 0.000000 0.000000 0.000000 0.018950 0.000000 -0.012819
# 5 0.000369 0.000035 0.000008 0.000000 0.025252 0.000000
# 6 0.000000 0.000000 0.000000 -0.012819 0.000000 0.017220
#
#
# Mechanical properties :
#
#
# Convention : Reuss Voigt Hill
#
# Bulk Modulus (GPa) = 35.86112 53.29040 44.57576
# Shear Modulus (GPa) = 31.33721 65.08695 48.21208
#
# Velocity S-wave (km/s) = 4.04427 5.82851 5.01635
# Velocity P-wave (km/s) = 6.36597 8.55042 7.53775
#
# Compressibility (1/GPa) = 0.02788535
#
# Stress axis : x y z
#
# Youngs Moduli (GPa) = 112.04338 26.66051 83.83744
#
# Poissons Ratio (x) = 0.11191 0.16251
# Poissons Ratio (y) = 0.47030 0.76311
# Poissons Ratio (z) = 0.21719 0.24267
#
# Static dielectric constant tensor:
#      x y z
#    x 1.629750 0.000000 -0.004870 
#    y 0.000000 1.642360 0.000000 
#    z -0.004870 0.000000 1.626080 
# 
# From -- ./inp_files/82178.got.cif
#   From: 2010.05.17/outbox.cif.g08.bks.cpg/sg10_42_cif.got.tgz:82178.got - 2010.06.03 11:33:40.
