data_PCOD9153479
_publ_section_title
;
Structure prediction by ZEFSAII (Michael W. Deem and Ramdas Pophale) SiO2 
 PCOD9153479
Probable space group: P 2/M
;
_chemical_formula_sum "Si O2"
_cell_formula_units_Z 28
_cell_length_a 9.593666
_cell_length_b 14.102441
_cell_length_c 12.019355
_cell_angle_alpha 90.000000
_cell_angle_beta 125.425520
_cell_angle_gamma 90.000000
_cell_volume 1325.098667
_symmetry_space_group_name_H-M "P 2/M"
_symmetry_group_IT_number 10
_symmetry_cell_setting 'monoclinic'
loop_
_space_group_symop_operation_xyz
x,y,z
-x,y,-z
-x,-y,-z
x,-y,z
loop_
_atom_site_type_symbol
_atom_site_label
_atom_site_fract_x
_atom_site_fract_y
_atom_site_fract_z
Si Si1 0.334295 0.610387 0.001377
Si Si2 0.314762 0.213304 0.400039
Si Si3 0.997450 0.114069 0.371126
Si Si4 0.747537 0.611569 0.477990
Si Si5 0.796297 0.240945 0.904180
Si Si6 0.847720 0.611437 0.290502
Si Si7 0.694661 0.114182 0.063126
O O1 0.314604 0.500000 0.019372
O O2 0.189016 0.647999 0.849168
O O3 0.500000 0.620619 0.000000
O O4 0.313851 0.670857 0.101417
O O5 0.500000 0.166263 0.500000
O O6 0.328088 0.314787 0.469930
O O7 0.264452 0.220509 0.248172
O O8 0.162111 0.157236 0.388334
O O9 0.826302 0.139861 0.223403
O O10 0.000000 0.147517 0.500000
O O11 0.007729 0.000000 0.375770
O O12 0.694997 0.500000 0.462736
O O13 0.737995 0.646394 0.344922
O O14 0.951859 0.614844 0.594267
O O15 0.756951 0.158668 0.975859
O O16 0.000000 0.260377 0.000000
O O17 0.800284 0.500000 0.263361
O O18 0.695073 0.000000 0.054553
O O19 0.500000 0.144918 0.000000
#
# Coordination Sequence:
#
# PCOD9153479 Si02
#       7
#     4   4   4   4   4   4   4
#     4  10  22  38  61  90 124 167 220 272 318 375
#     4  12  28  41  60 100 136 176 214 260 331 387
#     4  10  24  47  73  99 128 167 215 266 321 387
#     4   9  19  37  60  86 122 166 216 264 311 371
#     4  12  25  43  63  93 135 175 215 261 328 396
#     4   8  16  33  59  86 108 154 216 265 312 358
#     4  10  23  45  74 101 125 164 217 270 323 386
#
# _framework density 21.130500999999999
#
# number of rings (size 3 to 8) (size 9 to 14) (size 15 to 20)
#    0.000    1.857    1.429    2.143    6.000    2.286 
#    0.000    0.000    0.000    0.000    0.000    0.000 
#    0.000    0.000    0.000    0.000    0.000    0.000 
#
# Total GULP energy -156403.765031 kJ/mol
# GULP energy per Si atom -5585.848751 kJ/mol
# Density = 2.108241 g / cm^3
# Si number density = 21.130501 Si / 1000 Ang^3
#
#
#
# Elastic Constant Matrix: (Units=GPa)
#
#
# Indices 1 2 3 4 5 6 
#
# 1 137.4596 36.3408 82.2640 0.0000 -6.0902 0.0000
# 2 36.3408 69.5269 20.1708 0.0000 -6.4385 0.0000
# 3 82.2640 20.1708 119.7208 0.0000 -22.2170 0.0000
# 4 0.0000 0.0000 0.0000 38.0871 0.0000 -32.4494
# 5 -6.0902 -6.4385 -22.2170 0.0000 43.8765 0.0000
# 6 0.0000 0.0000 0.0000 -32.4494 0.0000 55.9939
#
#
#
# Elastic Compliance Matrix: (Units=1/GPa)
#
#
# Indices 1 2 3 4 5 6 
#
# 1 0.014140 -0.004954 -0.009549 0.000000 -0.003600 0.000000
# 2 -0.004954 0.016899 0.000981 0.000000 0.002289 0.000000
# 3 -0.009549 0.000981 0.016037 0.000000 0.006939 0.000000
# 4 0.000000 0.000000 0.000000 0.051862 0.000000 0.030055
# 5 -0.003600 0.002289 0.006939 0.000000 0.026141 0.000000
# 6 0.000000 0.000000 0.000000 0.030055 0.000000 0.035276
#
#
# Mechanical properties :
#
#
# Convention : Reuss Voigt Hill
#
# Bulk Modulus (GPa) = 49.91821 67.13982 58.52902
# Shear Modulus (GPa) = 25.76313 40.12028 32.94171
#
# Velocity S-wave (km/s) = 3.49555 4.36212 3.95266
# Velocity P-wave (km/s) = 6.32194 7.56397 6.97067
#
# Compressibility (1/GPa) = 0.02003277
#
# Stress axis : x y z
#
# Youngs Moduli (GPa) = 70.72173 59.17372 62.35673
#
# Poissons Ratio (x) = 0.29313 0.59547
# Poissons Ratio (y) = 0.35033 -0.06120
# Poissons Ratio (z) = 0.67535 -0.05807
#
# Static dielectric constant tensor:
#      x y z
#    x 1.744190 0.000000 0.020830 
#    y 0.000000 1.791750 0.000000 
#    z 0.020830 0.000000 1.817970 
# 
# From -- ./inp_files/42814.got.cif
#   From: 2010.05.17/outbox.cif.g08.bks.cpg/sg10_22_cif.got.tgz:42814.got - 2010.06.03 11:33:40.
