data_PCOD9153182
_publ_section_title
;
Structure prediction by ZEFSAII (Michael W. Deem and Ramdas Pophale) SiO2 
 PCOD9153182
Probable space group: P 2/M
;
_chemical_formula_sum "Si O2"
_cell_formula_units_Z 17
_cell_length_a 12.655493
_cell_length_b 11.103298
_cell_length_c 5.106183
_cell_angle_alpha 90.000000
_cell_angle_beta 97.994916
_cell_angle_gamma 90.000000
_cell_volume 710.535251
_symmetry_space_group_name_H-M "P 2/M"
_symmetry_group_IT_number 10
_symmetry_cell_setting 'monoclinic'
loop_
_space_group_symop_operation_xyz
x,y,z
-x,y,-z
-x,-y,-z
x,-y,z
loop_
_atom_site_type_symbol
_atom_site_label
_atom_site_fract_x
_atom_site_fract_y
_atom_site_fract_z
Si Si1 0.327223 0.720759 0.859297
Si Si2 0.077934 0.000000 0.275337
Si Si3 0.075346 0.500000 0.282734
Si Si4 0.622903 0.865219 0.620071
Si Si5 0.875405 0.257894 0.874611
Si Si6 0.500000 0.500000 0.000000
O O1 0.368063 0.822815 0.077774
O O2 0.204399 0.715355 0.913718
O O3 0.332055 0.766402 0.564747
O O4 0.405590 0.606349 0.927846
O O5 0.139698 0.872676 0.265421
O O6 0.000000 0.000000 0.500000
O O7 0.000000 0.000000 0.000000
O O8 0.139682 0.376530 0.304945
O O9 0.000000 0.500000 0.500000
O O10 0.000000 0.500000 0.000000
O O11 0.500000 0.868106 0.500000
O O12 0.664272 0.000000 0.593952
O O13 0.000000 0.255998 0.000000
#
# Coordination Sequence:
#
# PCOD9153182 Si02
#       6
#     4   2   2   4   4   1
#     4  12  26  44  75 104 147 192 233 312 357 442
#     4  10  22  40  66  95 144 183 232 288 337 414
#     4  10  21  40  66  87 134 182 238 286 335 416
#     4  11  24  46  72 104 141 188 246 298 365 436
#     4  10  24  45  68 107 144 195 240 290 359 432
#     4  12  26  50  72 110 144 180 256 298 384 414
#
# _framework density 23.925623999999999
#
# number of rings (size 3 to 8) (size 9 to 14) (size 15 to 20)
#    0.000    1.176    2.353    2.118    3.294   11.294 
#    0.000    0.000    0.000    0.000    0.000    0.000 
#    0.000    0.000    0.000    0.000    0.000    0.000 
#
# Total GULP energy -94710.858210 kJ/mol
# GULP energy per Si atom -5571.226954 kJ/mol
# Density = 2.387117 g / cm^3
# Si number density = 23.925624 Si / 1000 Ang^3
#
#
#
# Elastic Constant Matrix: (Units=GPa)
#
#
# Indices 1 2 3 4 5 6 
#
# 1 152.2566 66.3507 9.3192 0.0000 -7.8875 0.0000
# 2 66.3507 245.8302 36.2222 0.0000 -21.4716 0.0000
# 3 9.3192 36.2222 86.0626 0.0000 -10.5206 0.0000
# 4 0.0000 0.0000 0.0000 12.7249 0.0000 -7.7891
# 5 -7.8875 -21.4716 -10.5206 0.0000 44.2117 0.0000
# 6 0.0000 0.0000 0.0000 -7.7891 0.0000 49.0035
#
#
#
# Elastic Compliance Matrix: (Units=1/GPa)
#
#
# Indices 1 2 3 4 5 6 
#
# 1 0.007450 -0.001989 0.000077 0.000000 0.000382 0.000000
# 2 -0.001989 0.004999 -0.001684 0.000000 0.001672 0.000000
# 3 0.000077 -0.001684 0.012588 0.000000 0.002191 0.000000
# 4 0.000000 0.000000 0.000000 0.087056 0.000000 0.013838
# 5 0.000382 0.001672 0.002191 0.000000 0.024020 0.000000
# 6 0.000000 0.000000 0.000000 0.013838 0.000000 0.022606
#
#
# Mechanical properties :
#
#
# Convention : Reuss Voigt Hill
#
# Bulk Modulus (GPa) = 56.03991 78.65929 67.34960
# Shear Modulus (GPa) = 29.09370 46.00518 37.54944
#
# Velocity S-wave (km/s) = 3.49091 4.38978 3.96589
# Velocity P-wave (km/s) = 6.30254 7.65777 7.01297
#
# Compressibility (1/GPa) = 0.01784443
#
# Stress axis : x y z
#
# Youngs Moduli (GPa) = 134.23632 200.04760 79.44200
#
# Poissons Ratio (x) = 0.39783 -0.00612
# Poissons Ratio (y) = 0.26695 0.13379
# Poissons Ratio (z) = -0.01033 0.33691
#
# Static dielectric constant tensor:
#      x y z
#    x 3.851460 0.000000 -1.100070 
#    y 0.000000 1.836360 0.000000 
#    z -1.100070 0.000000 2.501830 
# 
# From -- ./inp_files/6280.got.cif
#   From: 2010.05.17/outbox.cif.g08.bks.cpg/sg10_4_cif.got.tgz:6280.got - 2010.06.03 11:33:40.
