data_PCOD9153046
_publ_section_title
;
Structure prediction by ZEFSAII (Michael W. Deem and Ramdas Pophale) SiO2 
 PCOD9153046
Probable space group: P 2/M
;
_chemical_formula_sum "Si O2"
_cell_formula_units_Z 28
_cell_length_a 11.992349
_cell_length_b 13.031412
_cell_length_c 8.449465
_cell_angle_alpha 90.000000
_cell_angle_beta 66.375677
_cell_angle_gamma 90.000000
_cell_volume 1209.794955
_symmetry_space_group_name_H-M "P 2/M"
_symmetry_group_IT_number 10
_symmetry_cell_setting 'monoclinic'
loop_
_space_group_symop_operation_xyz
x,y,z
-x,y,-z
-x,-y,-z
x,-y,z
loop_
_atom_site_type_symbol
_atom_site_label
_atom_site_fract_x
_atom_site_fract_y
_atom_site_fract_z
Si Si1 0.186920 0.616759 0.564076
Si Si2 0.472763 0.116701 0.823373
Si Si3 0.297006 0.216732 0.279009
Si Si4 0.049094 0.670118 0.145719
Si Si5 0.668433 0.611792 0.967940
Si Si6 0.388292 0.695950 0.687002
Si Si7 0.931795 0.884651 0.708905
O O1 0.225636 0.500000 0.506381
O O2 0.212537 0.703061 0.419139
O O3 0.267207 0.660825 0.664160
O O4 0.044640 0.616322 0.683140
O O5 0.603233 0.154782 0.680406
O O6 0.382000 0.195469 0.786378
O O7 0.442750 0.000000 0.801831
O O8 0.500000 0.118109 0.000000
O O9 0.366793 0.295133 0.124669
O O10 0.211086 0.135216 0.242506
O O11 0.187400 0.632581 0.083218
O O12 0.035921 0.791013 0.194639
O O13 0.000000 0.648551 0.000000
O O14 0.651860 0.500000 0.906709
O O15 0.598971 0.618933 0.173230
O O16 0.500000 0.692016 0.500000
O O17 0.000000 0.875138 0.500000
O O18 0.953933 0.000000 0.755079
#
# Coordination Sequence:
#
# PCOD9153046 Si02
#       7
#     4   4   4   4   4   4   4
#     4  12  25  42  65  95 133 176 211 259 321 374
#     4  11  24  46  69  90 123 170 217 267 323 376
#     4  11  22  44  65  95 127 164 219 267 309 391
#     4  11  23  41  64  93 135 168 215 259 310 393
#     4  11  24  41  66  96 130 173 215 263 319 377
#     4  12  25  44  64  97 133 160 217 267 318 384
#     4  10  21  39  64  93 126 164 208 265 320 368
#
# _framework density 23.144416
#
# number of rings (size 3 to 8) (size 9 to 14) (size 15 to 20)
#    0.000    0.857    5.714    1.714    0.000    2.286 
#    0.000    3.571    0.000    0.000    0.000    0.000 
#    0.000    0.000    0.000    0.000    0.000    0.000 
#
# Total GULP energy -156394.739001 kJ/mol
# GULP energy per Si atom -5585.526393 kJ/mol
# Density = 2.309174 g / cm^3
# Si number density = 23.144416 Si / 1000 Ang^3
#
#
#
# Elastic Constant Matrix: (Units=GPa)
#
#
# Indices 1 2 3 4 5 6 
#
# 1 63.5726 7.7171 -1.3046 0.0000 -12.9390 0.0000
# 2 7.7171 165.1574 14.1160 0.0000 -7.8926 0.0000
# 3 -1.3046 14.1160 94.1599 0.0000 -15.7252 0.0000
# 4 0.0000 0.0000 0.0000 7.5979 0.0000 -7.5301
# 5 -12.9390 -7.8926 -15.7252 0.0000 21.0501 0.0000
# 6 0.0000 0.0000 0.0000 -7.5301 0.0000 11.8237
#
#
#
# Elastic Compliance Matrix: (Units=1/GPa)
#
#
# Indices 1 2 3 4 5 6 
#
# 1 0.018497 -0.000454 0.002508 0.000000 0.013073 0.000000
# 2 -0.000454 0.006208 -0.000680 0.000000 0.001541 0.000000
# 3 0.002508 -0.000680 0.012536 0.000000 0.010651 0.000000
# 4 0.000000 0.000000 0.000000 0.356851 0.000000 0.227265
# 5 0.013073 0.001541 0.010651 0.000000 0.064076 0.000000
# 6 0.000000 0.000000 0.000000 0.227265 0.000000 0.229312
#
#
# Mechanical properties :
#
#
# Convention : Reuss Voigt Hill
#
# Bulk Modulus (GPa) = 25.00692 40.43855 32.72273
# Shear Modulus (GPa) = 7.16270 28.25179 17.70725
#
# Velocity S-wave (km/s) = 1.76111 3.49761 2.76900
# Velocity P-wave (km/s) = 3.86827 5.81560 4.93886
#
# Compressibility (1/GPa) = 0.03998893
#
# Stress axis : x y z
#
# Youngs Moduli (GPa) = 54.06180 161.08867 79.77259
#
# Poissons Ratio (x) = 0.07312 -0.20004
# Poissons Ratio (y) = 0.02454 0.05421
# Poissons Ratio (z) = -0.13556 0.10947
#
# Static dielectric constant tensor:
#      x y z
#    x 1.862570 0.000000 -0.013120 
#    y 0.000000 1.821090 0.000000 
#    z -0.013120 0.000000 1.974560 
# 
# From -- ./inp_files/28478.got.cif
#   From: 2010.05.17/outbox.cif.g08.bks.cpg/sg10_15_cif.got.tgz:28478.got - 2010.06.03 11:33:40.
