data_PCOD9153751
_publ_section_title
;
Structure prediction by ZEFSAII (Michael W. Deem and Ramdas Pophale) SiO2 
 PCOD9153751
Probable space group: P 2/M
;
_chemical_formula_sum "Si O2"
_cell_formula_units_Z 28
_cell_length_a 15.194726
_cell_length_b 20.197271
_cell_length_c 8.590003
_cell_angle_alpha 90.000000
_cell_angle_beta 149.293279
_cell_angle_gamma 90.000000
_cell_volume 1346.160757
_symmetry_space_group_name_H-M "P 2/M"
_symmetry_group_IT_number 10
_symmetry_cell_setting 'monoclinic'
loop_
_space_group_symop_operation_xyz
x,y,z
-x,y,-z
-x,-y,-z
x,-y,z
loop_
_atom_site_type_symbol
_atom_site_label
_atom_site_fract_x
_atom_site_fract_y
_atom_site_fract_z
Si Si1 0.483997 0.074925 0.646637
Si Si2 0.157334 0.644152 0.849657
Si Si3 0.072181 0.500000 0.869056
Si Si4 0.683762 0.172448 0.370977
Si Si5 0.286725 0.500000 0.516613
Si Si6 0.178849 0.708969 0.204566
Si Si7 0.505625 0.366390 0.182391
Si Si8 0.841502 0.074597 0.374053
O O1 0.500000 0.105062 0.500000
O O2 0.369022 0.117077 0.585243
O O3 0.416914 0.000000 0.528037
O O4 0.670184 0.072366 0.008861
O O5 0.121263 0.569619 0.861494
O O6 0.000000 0.661769 0.500000
O O7 0.164249 0.699916 0.996005
O O8 0.327955 0.639132 0.003802
O O9 0.865792 0.500000 0.587072
O O10 0.180096 0.500000 0.193369
O O11 0.781238 0.227432 0.624133
O O12 0.810832 0.135244 0.444557
O O13 0.500000 0.189300 0.000000
O O14 0.413708 0.438478 0.716446
O O15 0.349440 0.668044 0.496255
O O16 0.000000 0.679582 0.000000
O O17 0.500000 0.337081 0.000000
O O18 0.000000 0.084847 0.500000
O O19 0.858278 0.000000 0.471576
#
# Coordination Sequence:
#
# PCOD9153751 Si02
#       8
#     4   4   2   4   2   4   4   4
#     4   9  18  34  59  92 127 164 208 258 314 378
#     4  12  26  45  71  98 130 170 220 275 335 400
#     4  11  22  41  70 104 135 169 209 269 342 398
#     4  10  22  41  65  91 126 172 218 264 319 388
#     4  11  22  39  70 102 139 167 205 265 332 402
#     4  12  26  45  64  90 128 171 223 273 323 388
#     4  12  25  44  69  98 131 170 215 266 331 395
#     4   9  18  36  64  98 133 166 207 265 328 386
#
# _framework density 20.799893999999998
#
# number of rings (size 3 to 8) (size 9 to 14) (size 15 to 20)
#    0.000    1.286    1.429    4.714    0.000    4.571 
#    0.000    6.429    0.000    4.286    0.000    0.000 
#    0.000    1.714    0.000    0.000    0.000    0.000 
#
# Total GULP energy -156185.818329 kJ/mol
# GULP energy per Si atom -5578.064940 kJ/mol
# Density = 2.075255 g / cm^3
# Si number density = 20.799894 Si / 1000 Ang^3
#
#
#
# Elastic Constant Matrix: (Units=GPa)
#
#
# Indices 1 2 3 4 5 6 
#
# 1 152.6385 51.6865 66.2696 0.0000 13.3222 0.0000
# 2 51.6865 85.0323 35.6083 0.0000 -5.0529 0.0000
# 3 66.2696 35.6083 113.1491 0.0000 3.3815 0.0000
# 4 0.0000 0.0000 0.0000 -1.4376 0.0000 -70.1722
# 5 13.3222 -5.0529 3.3815 0.0000 52.5338 0.0000
# 6 0.0000 0.0000 0.0000 -70.1722 0.0000 45.0075
#
#
#
# Elastic Compliance Matrix: (Units=1/GPa)
#
#
# Indices 1 2 3 4 5 6 
#
# 1 0.010285 -0.004523 -0.004518 0.000000 -0.002752 0.000000
# 2 -0.004523 0.015667 -0.002365 0.000000 0.002806 0.000000
# 3 -0.004518 -0.002365 0.012224 0.000000 0.000131 0.000000
# 4 0.000000 0.000000 0.000000 -0.009022 0.000000 -0.014066
# 5 -0.002752 0.002806 0.000131 0.000000 0.019995 0.000000
# 6 0.000000 0.000000 0.000000 -0.014066 0.000000 0.000288
#
#
# Mechanical properties :
#
#
# Convention : Reuss Voigt Hill
#
# Bulk Modulus (GPa) = 65.08915 73.10542 69.09728
# Shear Modulus (GPa) = 64.62377 32.37111 48.49744
#
# Velocity S-wave (km/s) = 5.58003 3.94929 4.83392
# Velocity P-wave (km/s) = 8.53678 7.48460 8.02794
#
# Compressibility (1/GPa) = 0.01536354
#
# Stress axis : x y z
#
# Youngs Moduli (GPa) = 97.23069 63.82925 81.80397
#
# Poissons Ratio (x) = 0.28871 0.36959
# Poissons Ratio (y) = 0.43979 0.19347
# Poissons Ratio (z) = 0.43928 0.15096
#
# Static dielectric constant tensor:
#      x y z
#    x 1.641590 0.000000 0.005870 
#    y 0.000000 3.709580 0.000000 
#    z 0.005870 0.000000 1.700760 
# 
# From -- ./inp_files/30520.got.cif
#   From: 2010.05.17/outbox.cif.g08.bks.cpg/sg10_16_cif.got.tgz:30520.got - 2010.06.03 11:33:40.
