data_PCOD9153328
_publ_section_title
;
Structure prediction by ZEFSAII (Michael W. Deem and Ramdas Pophale) SiO2 
 PCOD9153328
Probable space group: P 2/M
;
_chemical_formula_sum "Si O2"
_cell_formula_units_Z 17
_cell_length_a 5.146888
_cell_length_b 24.103344
_cell_length_c 5.068090
_cell_angle_alpha 90.000000
_cell_angle_beta 86.880174
_cell_angle_gamma 90.000000
_cell_volume 627.801269
_symmetry_space_group_name_H-M "P 2/M"
_symmetry_group_IT_number 10
_symmetry_cell_setting 'monoclinic'
loop_
_space_group_symop_operation_xyz
x,y,z
-x,y,-z
-x,-y,-z
x,-y,z
loop_
_atom_site_type_symbol
_atom_site_label
_atom_site_fract_x
_atom_site_fract_y
_atom_site_fract_z
Si Si1 0.178432 0.621720 0.723346
Si Si2 0.259513 0.500000 0.813339
Si Si3 0.500000 0.700787 0.000000
Si Si4 0.235802 0.215263 0.687231
Si Si5 0.000000 0.000000 0.500000
Si Si6 0.683485 0.912017 0.233866
O O1 0.249823 0.557884 0.660553
O O2 0.436341 0.656470 0.773989
O O3 0.000000 0.644427 0.500000
O O4 0.000000 0.623362 0.000000
O O5 0.500000 0.500000 0.000000
O O6 0.000000 0.500000 0.000000
O O7 0.273058 0.744231 0.934952
O O8 0.500000 0.222469 0.500000
O O9 0.231964 0.151925 0.785922
O O10 0.000000 0.225063 0.500000
O O11 0.080534 0.048314 0.710597
O O12 0.500000 0.918896 0.500000
O O13 0.500000 0.927088 0.000000
#
# Coordination Sequence:
#
# PCOD9153328 Si02
#       6
#     4   2   2   4   1   4
#     4  11  26  46  72 106 146 190 245 301 367 432
#     4  10  21  48  72 105 145 191 238 304 366 435
#     4  12  26  43  74 103 150 190 246 302 358 438
#     4  11  26  48  72 104 147 196 242 298 365 436
#     4  12  24  46  76 104 140 186 240 304 354 430
#     4  11  25  47  70 105 142 185 239 296 361 431
#
# _framework density 27.078634000000001
#
# number of rings (size 3 to 8) (size 9 to 14) (size 15 to 20)
#    0.000    0.941    3.529    1.765    6.588    1.882 
#    0.000    2.353    0.000    0.000    0.000    0.000 
#    0.000    0.000    0.000    0.000    0.000    0.000 
#
# Total GULP energy -94986.842126 kJ/mol
# GULP energy per Si atom -5587.461302 kJ/mol
# Density = 2.701700 g / cm^3
# Si number density = 27.078634 Si / 1000 Ang^3
#
#
#
# Elastic Constant Matrix: (Units=GPa)
#
#
# Indices 1 2 3 4 5 6 
#
# 1 180.6706 27.9017 84.7846 0.0000 44.5165 0.0000
# 2 27.9017 222.3335 48.6267 0.0000 52.1721 0.0000
# 3 84.7846 48.6267 215.1699 0.0000 62.1963 0.0000
# 4 0.0000 0.0000 0.0000 34.8162 0.0000 40.9981
# 5 44.5165 52.1721 62.1963 0.0000 94.0236 0.0000
# 6 0.0000 0.0000 0.0000 40.9981 0.0000 22.6513
#
#
#
# Elastic Compliance Matrix: (Units=1/GPa)
#
#
# Indices 1 2 3 4 5 6 
#
# 1 0.007043 0.000047 -0.002243 0.000000 -0.001877 0.000000
# 2 0.000047 0.005202 -0.000437 0.000000 -0.002620 0.000000
# 3 -0.002243 -0.000437 0.006495 0.000000 -0.002992 0.000000
# 4 0.000000 0.000000 0.000000 -0.025388 0.000000 0.045951
# 5 -0.001877 -0.002620 -0.002992 0.000000 0.014957 0.000000
# 6 0.000000 0.000000 0.000000 0.045951 0.000000 -0.039022
#
#
# Mechanical properties :
#
#
# Convention : Reuss Voigt Hill
#
# Bulk Modulus (GPa) = 74.21784 104.53336 89.37560
# Shear Modulus (GPa) = -238.59571 60.75562 -88.92004
#
# Velocity S-wave (km/s) = -9.39699 4.74188 -5.73664
# Velocity P-wave (km/s) = 9.50106 8.28662 3.28650
#
# Compressibility (1/GPa) = 0.01347385
#
# Stress axis : x y z
#
# Youngs Moduli (GPa) = 141.98910 192.22759 153.96496
#
# Poissons Ratio (x) = -0.00907 0.34539
# Poissons Ratio (y) = -0.00670 0.06727
# Poissons Ratio (z) = 0.31852 0.08399
#
# Static dielectric constant tensor:
#      x y z
#    x 1.985170 0.000000 -0.533930 
#    y 0.000000 2.085550 0.000000 
#    z -0.533930 0.000000 1.708390 
# 
# From -- ./inp_files/1808.got.cif
#   From: 2010.05.17/outbox.cif.g08.bks.cpg/sg10_1_cif.got.tgz:1808.got - 2010.06.03 11:33:40.
