data_PCOD9153601
_publ_section_title
;
Structure prediction by ZEFSAII (Michael W. Deem and Ramdas Pophale) SiO2 
 PCOD9153601
Probable space group: P 2/M
;
_chemical_formula_sum "Si O2"
_cell_formula_units_Z 20
_cell_length_a 18.913465
_cell_length_b 11.534281
_cell_length_c 9.306304
_cell_angle_alpha 90.000000
_cell_angle_beta 29.528027
_cell_angle_gamma 90.000000
_cell_volume 1000.582633
_symmetry_space_group_name_H-M "P 2/M"
_symmetry_group_IT_number 10
_symmetry_cell_setting 'monoclinic'
loop_
_space_group_symop_operation_xyz
x,y,z
-x,y,-z
-x,-y,-z
x,-y,z
loop_
_atom_site_type_symbol
_atom_site_label
_atom_site_fract_x
_atom_site_fract_y
_atom_site_fract_z
Si Si1 0.157752 0.000000 0.651057
Si Si2 0.132278 0.251123 0.656816
Si Si3 0.432405 0.223640 0.773608
Si Si4 0.604987 0.371285 0.677164
Si Si5 0.535501 0.000000 0.768431
Si Si6 0.148726 0.635970 0.322799
O O1 0.160439 0.119013 0.558356
O O2 0.288966 0.000000 0.534723
O O3 0.000000 0.000000 0.000000
O O4 0.268872 0.285386 0.508612
O O5 0.122377 0.333683 0.536979
O O6 0.000000 0.257675 0.000000
O O7 0.500000 0.197321 0.500000
O O8 0.518650 0.329373 0.693180
O O9 0.467045 0.112920 0.813474
O O10 0.270226 0.272952 0.055619
O O11 0.663238 0.500000 0.555344
O O12 0.500000 0.370628 0.000000
O O13 0.500000 0.000000 0.000000
O O14 0.193922 0.500000 0.230070
O O15 0.000000 0.649730 0.500000
#
# Coordination Sequence:
#
# PCOD9153601 Si02
#       6
#     2   4   4   4   2   4
#     4  10  22  39  67  96 133 167 210 274 334 385
#     4  11  23  42  67  99 128 171 229 278 332 399
#     4  12  26  43  66 101 136 175 225 275 339 402
#     4  11  22  40  66  95 131 173 226 283 331 393
#     4  12  23  45  73 100 132 176 223 282 331 390
#     4  11  26  46  65  93 138 181 219 277 343 401
#
# _framework density 19.988354999999999
#
# number of rings (size 3 to 8) (size 9 to 14) (size 15 to 20)
#    0.000    0.800    4.000    3.300    2.800    3.200 
#    0.000    2.000    0.000    0.000    0.000    0.000 
#    0.000    0.000    0.000    0.000    0.000    0.000 
#
# Total GULP energy -111694.698848 kJ/mol
# GULP energy per Si atom -5584.734942 kJ/mol
# Density = 1.994286 g / cm^3
# Si number density = 19.988355 Si / 1000 Ang^3
#
#
#
# Elastic Constant Matrix: (Units=GPa)
#
#
# Indices 1 2 3 4 5 6 
#
# 1 94.5822 27.5532 47.4030 0.0000 -3.6119 0.0000
# 2 27.5532 111.7122 45.7794 0.0000 -7.1705 0.0000
# 3 47.4030 45.7794 114.1143 0.0000 -9.9447 0.0000
# 4 0.0000 0.0000 0.0000 32.5879 0.0000 15.4911
# 5 -3.6119 -7.1705 -9.9447 0.0000 41.9351 0.0000
# 6 0.0000 0.0000 0.0000 15.4911 0.0000 76.2623
#
#
#
# Elastic Compliance Matrix: (Units=1/GPa)
#
#
# Indices 1 2 3 4 5 6 
#
# 1 0.013496 -0.001243 -0.005131 0.000000 -0.000267 0.000000
# 2 -0.001243 0.010856 -0.003764 0.000000 0.000857 0.000000
# 3 -0.005131 -0.003764 0.012570 0.000000 0.001895 0.000000
# 4 0.000000 0.000000 0.000000 0.033966 0.000000 -0.006899
# 5 -0.000267 0.000857 0.001895 0.000000 0.024419 0.000000
# 6 0.000000 0.000000 0.000000 -0.006899 0.000000 0.014514
#
#
# Mechanical properties :
#
#
# Convention : Reuss Voigt Hill
#
# Bulk Modulus (GPa) = 60.07616 62.43110 61.25363
# Shear Modulus (GPa) = 36.86081 43.46861 40.16471
#
# Velocity S-wave (km/s) = 4.29897 4.66842 4.48750
# Velocity P-wave (km/s) = 7.40016 7.76920 7.58692
#
# Compressibility (1/GPa) = 0.01664554
#
# Stress axis : x y z
#
# Youngs Moduli (GPa) = 74.09442 92.11810 79.55696
#
# Poissons Ratio (x) = 0.11453 0.40819
# Poissons Ratio (y) = 0.09212 0.29944
# Poissons Ratio (z) = 0.38017 0.34672
#
# Static dielectric constant tensor:
#      x y z
#    x 1.647450 0.000000 -0.049290 
#    y 0.000000 1.722850 0.000000 
#    z -0.049290 0.000000 1.606330 
# 
# From -- ./inp_files/32386.got.cif
#   From: 2010.05.17/outbox.cif.g08.bks.cpg/sg10_17_cif.got.tgz:32386.got - 2010.06.03 11:33:40.
