data_PCOD9153154
_publ_section_title
;
Structure prediction by ZEFSAII (Michael W. Deem and Ramdas Pophale) SiO2 
 PCOD9153154
Probable space group: P 2/M
;
_chemical_formula_sum "Si O2"
_cell_formula_units_Z 21
_cell_length_a 16.506663
_cell_length_b 7.426988
_cell_length_c 24.969924
_cell_angle_alpha 90.000000
_cell_angle_beta 162.798529
_cell_angle_gamma 90.000000
_cell_volume 905.291397
_symmetry_space_group_name_H-M "P 2/M"
_symmetry_group_IT_number 10
_symmetry_cell_setting 'monoclinic'
loop_
_space_group_symop_operation_xyz
x,y,z
-x,y,-z
-x,-y,-z
x,-y,z
loop_
_atom_site_type_symbol
_atom_site_label
_atom_site_fract_x
_atom_site_fract_y
_atom_site_fract_z
Si Si1 0.297621 0.294541 0.174902
Si Si2 0.796689 0.220631 0.665635
Si Si3 0.851902 0.205332 0.580243
Si Si4 0.679213 0.783814 0.933234
Si Si5 0.500000 0.500000 0.000000
Si Si6 0.636453 0.783644 0.164881
O O1 0.294317 0.500000 0.192556
O O2 0.553233 0.206192 0.365515
O O3 0.340084 0.291843 0.138146
O O4 0.000000 0.214313 0.000000
O O5 0.500000 0.275754 0.500000
O O6 0.832590 0.284958 0.627257
O O7 0.044575 0.273569 0.861296
O O8 0.798253 0.000000 0.665672
O O9 0.072074 0.278247 0.676254
O O10 0.942585 0.000000 0.645164
O O11 0.691572 0.000000 0.935055
O O12 0.424445 0.744142 0.811671
O O13 0.564151 0.660580 0.996393
O O14 0.593967 0.000000 0.131632
#
# Coordination Sequence:
#
# PCOD9153154 Si02
#       6
#     4   4   4   4   1   4
#     4  11  25  42  61  90 130 170 215 267 323 396
#     4   9  17  31  57  90 118 153 206 262 315 374
#     4  10  21  40  64  90 127 166 213 272 319 384
#     4  10  21  40  64  90 127 166 213 272 319 384
#     4  12  22  36  68  92 134 188 202 262 328 384
#     4  10  23  40  62  99 132 170 224 268 324 392
#
# _framework density 23.196950000000001
#
# number of rings (size 3 to 8) (size 9 to 14) (size 15 to 20)
#    0.000    1.905    0.000    3.143    2.667    6.857 
#    0.000    3.810    0.000    3.429    0.000    0.000 
#    0.000    0.000    0.000    0.000    0.000    0.000 
#
# Total GULP energy -117072.398729 kJ/mol
# GULP energy per Si atom -5574.876130 kJ/mol
# Density = 2.314415 g / cm^3
# Si number density = 23.196950 Si / 1000 Ang^3
#
#
#
# Elastic Constant Matrix: (Units=GPa)
#
#
# Indices 1 2 3 4 5 6 
#
# 1 120.4344 5.3052 39.7301 0.0000 10.7027 0.0000
# 2 5.3052 82.1585 -10.8446 0.0000 5.2134 0.0000
# 3 39.7301 -10.8446 102.8552 0.0000 19.1390 0.0000
# 4 0.0000 0.0000 0.0000 -65.3705 0.0000 10.7232
# 5 10.7027 5.2134 19.1390 0.0000 44.0488 0.0000
# 6 0.0000 0.0000 0.0000 10.7232 0.0000 18.5207
#
#
#
# Elastic Compliance Matrix: (Units=1/GPa)
#
#
# Indices 1 2 3 4 5 6 
#
# 1 0.009632 -0.001076 -0.003723 0.000000 -0.000595 0.000000
# 2 -0.001076 0.012663 0.002155 0.000000 -0.002174 0.000000
# 3 -0.003723 0.002155 0.012258 0.000000 -0.004676 0.000000
# 4 0.000000 0.000000 0.000000 -0.013971 0.000000 0.008089
# 5 -0.000595 -0.002174 -0.004676 0.000000 0.025136 0.000000
# 6 0.000000 0.000000 0.000000 0.008089 0.000000 0.049310
#
#
# Mechanical properties :
#
#
# Convention : Reuss Voigt Hill
#
# Bulk Modulus (GPa) = 34.16933 41.53664 37.85298
# Shear Modulus (GPa) = 45.42502 17.52362 31.47432
#
# Velocity S-wave (km/s) = 4.42999 2.75149 3.68751
# Velocity P-wave (km/s) = 6.39754 5.29520 5.87230
#
# Compressibility (1/GPa) = 0.02926601
#
# Stress axis : x y z
#
# Youngs Moduli (GPa) = 103.82294 78.96740 81.57970
#
# Poissons Ratio (x) = 0.08494 0.30373
# Poissons Ratio (y) = 0.11167 -0.17582
# Poissons Ratio (z) = 0.38655 -0.17019
#
# Static dielectric constant tensor:
#      x y z
#    x 1.862410 0.000000 0.035410 
#    y 0.000000 1.870420 0.000000 
#    z 0.035410 0.000000 1.919340 
# 
# From -- ./inp_files/89434.got.cif
#   From: 2010.05.17/outbox.cif.g08.bks.cpg/sg10_45_cif.got.tgz:89434.got - 2010.06.03 11:33:40.
