data_PCOD9153825
_publ_section_title
;
Structure prediction by ZEFSAII (Michael W. Deem and Ramdas Pophale) SiO2 
 PCOD9153825
Probable space group: P 2/M
;
_chemical_formula_sum "Si O2"
_cell_formula_units_Z 18
_cell_length_a 5.472793
_cell_length_b 21.326964
_cell_length_c 7.580182
_cell_angle_alpha 90.000000
_cell_angle_beta 106.020915
_cell_angle_gamma 90.000000
_cell_volume 850.381568
_symmetry_space_group_name_H-M "P 2/M"
_symmetry_group_IT_number 10
_symmetry_cell_setting 'monoclinic'
loop_
_space_group_symop_operation_xyz
x,y,z
-x,y,-z
-x,-y,-z
x,-y,z
loop_
_atom_site_type_symbol
_atom_site_label
_atom_site_fract_x
_atom_site_fract_y
_atom_site_fract_z
Si Si1 0.500000 0.718948 0.500000
Si Si2 0.327450 0.200673 0.796651
Si Si3 0.207518 0.431975 0.879000
Si Si4 0.983209 0.308555 0.785553
Si Si5 0.295680 0.929185 0.618884
O O1 0.570626 0.764885 0.355035
O O2 0.724967 0.679342 0.631003
O O3 0.060724 0.236809 0.760996
O O4 0.323840 0.126942 0.762731
O O5 0.500000 0.215962 0.000000
O O6 0.171990 0.500000 0.781498
O O7 0.163674 0.366606 0.768518
O O8 0.500000 0.430004 0.000000
O O9 0.000000 0.432472 0.000000
O O10 0.000000 0.309343 0.000000
O O11 0.500000 0.919986 0.500000
O O12 0.000000 0.926123 0.500000
O O13 0.339868 0.000000 0.695616
#
# Coordination Sequence:
#
# PCOD9153825 Si02
#       5
#     2   4   4   4   4
#     4  12  24  42  62  96 136 176 218 288 336 390
#     4  12  24  41  67  96 135 177 228 277 339 402
#     4   9  19  37  64  96 133 175 221 275 335 399
#     4  11  23  40  67  98 134 178 229 277 340 407
#     4  10  22  42  67  96 134 177 221 274 335 398
#
# _framework density 21.166969999999999
#
# number of rings (size 3 to 8) (size 9 to 14) (size 15 to 20)
#    0.000    1.333    3.333    2.667    3.111    0.444 
#    0.000    0.556    0.000    7.333    0.000    0.000 
#    0.000    0.000    0.000    0.000    0.000    0.000 
#
# Total GULP energy -100276.151458 kJ/mol
# GULP energy per Si atom -5570.897303 kJ/mol
# Density = 2.111879 g / cm^3
# Si number density = 21.166970 Si / 1000 Ang^3
#
#
#
# Elastic Constant Matrix: (Units=GPa)
#
#
# Indices 1 2 3 4 5 6 
#
# 1 96.6392 20.1408 40.8628 0.0000 20.9645 0.0000
# 2 20.1408 143.6910 28.1365 0.0000 8.8834 0.0000
# 3 40.8628 28.1365 119.9917 0.0000 12.6211 0.0000
# 4 0.0000 0.0000 0.0000 60.5915 0.0000 44.2967
# 5 20.9645 8.8834 12.6211 0.0000 33.2990 0.0000
# 6 0.0000 0.0000 0.0000 44.2967 0.0000 42.0936
#
#
#
# Elastic Compliance Matrix: (Units=1/GPa)
#
#
# Indices 1 2 3 4 5 6 
#
# 1 0.013582 -0.000746 -0.003720 0.000000 -0.006942 0.000000
# 2 -0.000746 0.007394 -0.001377 0.000000 -0.000981 0.000000
# 3 -0.003720 -0.001377 0.010039 0.000000 -0.001096 0.000000
# 4 0.000000 0.000000 0.000000 0.071549 0.000000 -0.075294
# 5 -0.006942 -0.000981 -0.001096 0.000000 0.035079 0.000000
# 6 0.000000 0.000000 0.000000 -0.075294 0.000000 0.102992
#
#
# Mechanical properties :
#
#
# Convention : Reuss Voigt Hill
#
# Bulk Modulus (GPa) = 51.73458 59.84467 55.78963
# Shear Modulus (GPa) = 19.32262 45.27561 32.29912
#
# Velocity S-wave (km/s) = 3.02465 4.62992 3.91054
# Velocity P-wave (km/s) = 6.05741 7.54424 6.84134
#
# Compressibility (1/GPa) = 0.01932943
#
# Stress axis : x y z
#
# Youngs Moduli (GPa) = 73.62508 135.24187 99.61309
#
# Poissons Ratio (x) = 0.10091 0.37059
# Poissons Ratio (y) = 0.05493 0.13712
# Poissons Ratio (z) = 0.27390 0.18617
#
# Static dielectric constant tensor:
#      x y z
#    x 2.276990 0.000000 -0.277930 
#    y 0.000000 1.784070 0.000000 
#    z -0.277930 0.000000 1.909730 
# 
# From -- ./inp_files/15346.got.cif
#   From: 2010.05.17/outbox.cif.g08.bks.cpg/sg10_8_cif.got.tgz:15346.got - 2010.06.03 11:33:40.
