data_PCOD9153118
_publ_section_title
;
Structure prediction by ZEFSAII (Michael W. Deem and Ramdas Pophale) SiO2 
 PCOD9153118
Probable space group: P 2/M
;
_chemical_formula_sum "Si O2"
_cell_formula_units_Z 32
_cell_length_a 23.011542
_cell_length_b 15.103165
_cell_length_c 12.353045
_cell_angle_alpha 90.000000
_cell_angle_beta 22.527247
_cell_angle_gamma 90.000000
_cell_volume 1644.847511
_symmetry_space_group_name_H-M "P 2/M"
_symmetry_group_IT_number 10
_symmetry_cell_setting 'monoclinic'
loop_
_space_group_symop_operation_xyz
x,y,z
-x,y,-z
-x,-y,-z
x,-y,z
loop_
_atom_site_type_symbol
_atom_site_label
_atom_site_fract_x
_atom_site_fract_y
_atom_site_fract_z
Si Si1 0.417216 0.600574 0.883204
Si Si2 0.750825 0.107287 0.115154
Si Si3 0.515267 0.843979 0.086258
Si Si4 0.430812 0.896635 0.771599
Si Si5 0.267314 0.678230 0.340708
Si Si6 0.703131 0.705499 0.468035
Si Si7 0.844438 0.605602 0.835221
Si Si8 0.922466 0.729604 0.897972
O O1 0.463751 0.500000 0.782232
O O2 0.327063 0.606552 0.152503
O O3 0.298993 0.628635 0.993883
O O4 0.564088 0.661708 0.641794
O O5 0.706429 0.134501 0.068274
O O6 0.596548 0.134051 0.445640
O O7 0.776766 0.000000 0.079667
O O8 0.883323 0.169640 0.931293
O O9 0.620225 0.760466 0.874577
O O10 0.500000 0.896019 0.000000
O O11 0.585106 0.884757 0.073653
O O12 0.353594 0.803553 0.400716
O O13 0.436494 0.000000 0.737163
O O14 0.276278 0.655689 0.452541
O O15 0.099219 0.708485 0.600880
O O16 0.846918 0.710094 0.143996
O O17 0.836590 0.500000 0.872967
O O18 0.850854 0.664648 0.931130
O O19 0.000000 0.619971 0.500000
#
# Coordination Sequence:
#
# PCOD9153118 Si02
#       8
#     4   4   4   4   4   4   4   4
#     4  10  21  40  62  84 118 157 193 241 299 359
#     4   9  20  34  55  87 120 154 197 250 305 360
#     4   9  18  35  54  78 111 147 191 242 287 348
#     4   9  17  33  55  82 113 146 193 249 297 350
#     4  10  22  37  56  83 116 155 198 239 296 355
#     4  10  22  37  56  86 113 146 205 252 279 344
#     4  10  22  39  58  88 124 154 192 236 296 374
#     4  12  22  36  64  85 118 165 195 243 310 347
#
# _framework density 19.454691
#
# number of rings (size 3 to 8) (size 9 to 14) (size 15 to 20)
#    0.000    2.125    2.500    2.250    3.500    2.250 
#    0.000    1.875    0.000    6.375    0.000    0.000 
#    0.000    0.000    0.000    0.000    0.000    0.000 
#
# Total GULP energy -178372.453322 kJ/mol
# GULP energy per Si atom -5574.139166 kJ/mol
# Density = 1.941041 g / cm^3
# Si number density = 19.454691 Si / 1000 Ang^3
#
#
#
# Elastic Constant Matrix: (Units=GPa)
#
#
# Indices 1 2 3 4 5 6 
#
# 1 100.9237 11.0749 8.6902 0.0000 10.4605 0.0000
# 2 11.0749 40.3992 6.1940 0.0000 -0.4534 0.0000
# 3 8.6902 6.1940 40.2389 0.0000 3.9647 0.0000
# 4 0.0000 0.0000 0.0000 12.0807 0.0000 2.2488
# 5 10.4605 -0.4534 3.9647 0.0000 37.4535 0.0000
# 6 0.0000 0.0000 0.0000 2.2488 0.0000 3.8495
#
#
#
# Elastic Compliance Matrix: (Units=1/GPa)
#
#
# Indices 1 2 3 4 5 6 
#
# 1 0.010637 -0.002702 -0.001602 0.000000 -0.002834 0.000000
# 2 -0.002702 0.026057 -0.003570 0.000000 0.001448 0.000000
# 3 -0.001602 -0.003570 0.025978 0.000000 -0.002346 0.000000
# 4 0.000000 0.000000 0.000000 0.092877 0.000000 -0.054256
# 5 -0.002834 0.001448 -0.002346 0.000000 0.027757 0.000000
# 6 0.000000 0.000000 0.000000 -0.054256 0.000000 0.291468
#
#
# Mechanical properties :
#
#
# Convention : Reuss Voigt Hill
#
# Bulk Modulus (GPa) = 21.31114 25.94222 23.62668
# Shear Modulus (GPa) = 9.87823 21.05025 15.46424
#
# Velocity S-wave (km/s) = 2.25579 3.29297 2.82243
# Velocity P-wave (km/s) = 4.21459 5.27464 4.77413
#
# Compressibility (1/GPa) = 0.04692382
#
# Stress axis : x y z
#
# Youngs Moduli (GPa) = 94.01454 38.37697 38.49375
#
# Poissons Ratio (x) = 0.10370 0.06167
# Poissons Ratio (y) = 0.25403 0.13743
# Poissons Ratio (z) = 0.15061 0.13701
#
# Static dielectric constant tensor:
#      x y z
#    x 1.738090 0.000000 0.020940 
#    y 0.000000 1.683540 0.000000 
#    z 0.020940 0.000000 1.667010 
# 
# From -- ./inp_files/57082.got.cif
#   From: 2010.05.17/outbox.cif.g08.bks.cpg/sg10_29_cif.got.tgz:57082.got - 2010.06.03 11:33:40.
