data_PCOD9153667
_publ_section_title
;
Structure prediction by ZEFSAII (Michael W. Deem and Ramdas Pophale) SiO2 
 PCOD9153667
Probable space group: P 2/M
;
_chemical_formula_sum "Si O2"
_cell_formula_units_Z 24
_cell_length_a 23.424214
_cell_length_b 8.579552
_cell_length_c 12.278486
_cell_angle_alpha 90.000000
_cell_angle_beta 26.853127
_cell_angle_gamma 90.000000
_cell_volume 1114.626450
_symmetry_space_group_name_H-M "P 2/M"
_symmetry_group_IT_number 10
_symmetry_cell_setting 'monoclinic'
loop_
_space_group_symop_operation_xyz
x,y,z
-x,y,-z
-x,-y,-z
x,-y,z
loop_
_atom_site_type_symbol
_atom_site_label
_atom_site_fract_x
_atom_site_fract_y
_atom_site_fract_z
Si Si1 0.851421 0.177512 0.720413
Si Si2 0.814859 0.187879 0.021950
Si Si3 0.690304 0.180129 0.646158
Si Si4 0.525624 0.680082 0.114403
Si Si5 0.540987 0.186227 0.552616
Si Si6 0.911589 0.317333 0.391245
O O1 0.791108 0.235135 0.935840
O O2 0.848377 0.277804 0.616549
O O3 0.000000 0.169617 0.500000
O O4 0.808744 0.000000 0.769324
O O5 0.943668 0.262142 0.845629
O O6 0.831666 0.000000 0.989743
O O7 0.690523 0.222275 0.302530
O O8 0.617287 0.284642 0.682570
O O9 0.831995 0.228676 0.434769
O O10 0.682058 0.000000 0.628771
O O11 0.611253 0.212509 0.891562
O O12 0.557648 0.500000 0.040727
O O13 0.533210 0.726224 0.226849
O O14 0.500000 0.224165 0.500000
O O15 0.524362 0.000000 0.595613
O O16 0.904688 0.500000 0.383903
#
# Coordination Sequence:
#
# PCOD9153667 Si02
#       6
#     4   4   4   4   4   4
#     4   8  15  29  49  75 109 152 193 234 282 339
#     4   9  19  36  55  81 117 158 203 245 284 346
#     4  11  22  40  66  89 115 156 202 246 294 355
#     4  11  23  41  62  91 125 153 192 249 303 351
#     4  10  22  40  63  89 119 163 209 241 283 352
#     4  11  21  33  54  87 120 152 192 247 307 354
#
# _framework density 21.531877000000001
#
# number of rings (size 3 to 8) (size 9 to 14) (size 15 to 20)
#    0.000    2.000    0.000    6.500    2.333    4.000 
#    0.000    0.833    0.000    5.000    0.000    0.000 
#    0.000    0.000    0.000    0.000    0.000    0.000 
#
# Total GULP energy -134150.850432 kJ/mol
# GULP energy per Si atom -5589.618768 kJ/mol
# Density = 2.148287 g / cm^3
# Si number density = 21.531877 Si / 1000 Ang^3
#
#
#
# Elastic Constant Matrix: (Units=GPa)
#
#
# Indices 1 2 3 4 5 6 
#
# 1 70.8841 0.2449 6.6578 0.0000 -15.7357 0.0000
# 2 0.2449 45.6790 -0.2819 0.0000 -6.1478 0.0000
# 3 6.6578 -0.2819 50.3415 0.0000 -2.0009 0.0000
# 4 0.0000 0.0000 0.0000 4.2585 0.0000 -3.6937
# 5 -15.7357 -6.1478 -2.0009 0.0000 29.8796 0.0000
# 6 0.0000 0.0000 0.0000 -3.6937 0.0000 38.1068
#
#
#
# Elastic Compliance Matrix: (Units=1/GPa)
#
#
# Indices 1 2 3 4 5 6 
#
# 1 0.016186 0.001063 -0.001792 0.000000 0.008623 0.000000
# 2 0.001063 0.022590 0.000193 0.000000 0.005221 0.000000
# 3 -0.001792 0.000193 0.020120 0.000000 0.000443 0.000000
# 4 0.000000 0.000000 0.000000 0.256378 0.000000 0.024850
# 5 0.008623 0.005221 0.000443 0.000000 0.039113 0.000000
# 6 0.000000 0.000000 0.000000 0.024850 0.000000 0.028651
#
#
# Mechanical properties :
#
#
# Convention : Reuss Voigt Hill
#
# Bulk Modulus (GPa) = 17.29365 20.01626 18.65495
# Shear Modulus (GPa) = 12.39513 25.13458 18.76486
#
# Velocity S-wave (km/s) = 2.40190 3.42031 2.95531
# Velocity P-wave (km/s) = 3.96753 4.99143 4.50864
#
# Compressibility (1/GPa) = 0.05782469
#
# Stress axis : x y z
#
# Youngs Moduli (GPa) = 61.78022 44.26732 49.70169
#
# Poissons Ratio (x) = -0.04704 0.08907
# Poissons Ratio (y) = -0.06565 -0.00961
# Poissons Ratio (z) = 0.11071 -0.00856
#
# Static dielectric constant tensor:
#      x y z
#    x 1.809350 0.000000 -0.025770 
#    y 0.000000 1.730570 0.000000 
#    z -0.025770 0.000000 1.818040 
# 
# From -- ./inp_files/56552.got.cif
#   From: 2010.05.17/outbox.cif.g08.bks.cpg/sg10_29_cif.got.tgz:56552.got - 2010.06.03 11:33:40.
