data_PCOD9153045
_publ_section_title
;
Structure prediction by ZEFSAII (Michael W. Deem and Ramdas Pophale) SiO2 
 PCOD9153045
Probable space group: P 2/M
;
_chemical_formula_sum "Si O2"
_cell_formula_units_Z 17
_cell_length_a 8.466728
_cell_length_b 10.665339
_cell_length_c 11.543231
_cell_angle_alpha 90.000000
_cell_angle_beta 47.784287
_cell_angle_gamma 90.000000
_cell_volume 771.992892
_symmetry_space_group_name_H-M "P 2/M"
_symmetry_group_IT_number 10
_symmetry_cell_setting 'monoclinic'
loop_
_space_group_symop_operation_xyz
x,y,z
-x,y,-z
-x,-y,-z
x,-y,z
loop_
_atom_site_type_symbol
_atom_site_label
_atom_site_fract_x
_atom_site_fract_y
_atom_site_fract_z
Si Si1 0.064001 0.141946 0.261902
Si Si2 0.767063 0.857455 0.072414
Si Si3 0.740194 0.363598 0.429512
Si Si4 0.500000 0.500000 0.000000
Si Si5 0.637885 0.299696 0.733319
O O1 0.202092 0.193094 0.300031
O O2 0.881280 0.244105 0.326891
O O3 0.984389 0.000000 0.318515
O O4 0.216898 0.139836 0.074459
O O5 0.581137 0.765458 0.198758
O O6 0.732051 0.000000 0.131987
O O7 0.000000 0.817199 0.000000
O O8 0.500000 0.354234 0.500000
O O9 0.829075 0.500000 0.346375
O O10 0.732352 0.362905 0.572762
O O11 0.415007 0.391567 0.134498
#
# Coordination Sequence:
#
# PCOD9153045 Si02
#       5
#     4   4   4   1   4
#     4  11  24  41  65  96 128 166 212 261 315 374
#     4  10  21  39  64  93 126 164 205 258 316 370
#     4  11  26  44  64  93 128 168 210 259 316 375
#     4  12  24  40  64 100 118 172 206 264 310 372
#     4  12  23  42  66  92 128 162 215 259 310 374
#
# _framework density 22.020927
#
# number of rings (size 3 to 8) (size 9 to 14) (size 15 to 20)
#    0.000    0.941    3.529    2.824    1.647    6.118 
#    0.000    0.588    0.000    0.000    0.000    0.000 
#    0.000    0.000    0.000    0.000    0.000    0.000 
#
# Total GULP energy -94797.671180 kJ/mol
# GULP energy per Si atom -5576.333599 kJ/mol
# Density = 2.197081 g / cm^3
# Si number density = 22.020927 Si / 1000 Ang^3
#
#
#
# Elastic Constant Matrix: (Units=GPa)
#
#
# Indices 1 2 3 4 5 6 
#
# 1 64.7353 36.7195 -23.9310 0.0000 -2.6663 0.0000
# 2 36.7195 175.1613 16.9174 0.0000 -28.0679 0.0000
# 3 -23.9310 16.9174 50.0683 0.0000 13.6096 0.0000
# 4 0.0000 0.0000 0.0000 18.5556 0.0000 7.4475
# 5 -2.6663 -28.0679 13.6096 0.0000 34.5975 0.0000
# 6 0.0000 0.0000 0.0000 7.4475 0.0000 -6.6909
#
#
#
# Elastic Compliance Matrix: (Units=1/GPa)
#
#
# Indices 1 2 3 4 5 6 
#
# 1 0.028472 -0.010313 0.021018 0.000000 -0.014440 0.000000
# 2 -0.010313 0.011148 -0.012247 0.000000 0.013067 0.000000
# 3 0.021018 -0.012247 0.040778 0.000000 -0.024357 0.000000
# 4 0.000000 0.000000 0.000000 0.037250 0.000000 0.041463
# 5 -0.014440 0.013067 -0.024357 0.000000 0.047973 0.000000
# 6 0.000000 0.000000 0.000000 0.041463 0.000000 -0.103305
#
#
# Mechanical properties :
#
#
# Convention : Reuss Voigt Hill
#
# Bulk Modulus (GPa) = 12.93424 38.81963 25.87694
# Shear Modulus (GPa) = 54.84264 26.64305 40.74284
#
# Velocity S-wave (km/s) = 4.99588 3.48213 4.30605
# Velocity P-wave (km/s) = 6.25818 5.81668 6.04146
#
# Compressibility (1/GPa) = 0.07731418
#
# Stress axis : x y z
#
# Youngs Moduli (GPa) = 35.12192 89.70572 24.52319
#
# Poissons Ratio (x) = 0.92510 -0.51544
# Poissons Ratio (y) = 0.36220 0.30035
# Poissons Ratio (z) = -0.73820 1.09867
#
# Static dielectric constant tensor:
#      x y z
#    x 1.812010 0.000000 0.011570 
#    y 0.000000 1.815480 0.000000 
#    z 0.011570 0.000000 1.786110 
# 
# From -- ./inp_files/22571.got.cif
#   From: 2010.05.17/outbox.cif.g08.bks.cpg/sg10_12_cif.got.tgz:22571.got - 2010.06.03 11:33:40.
