data_PCOD9153506
_publ_section_title
;
Structure prediction by ZEFSAII (Michael W. Deem and Ramdas Pophale) SiO2 
 PCOD9153506
Probable space group: P 2/M
;
_chemical_formula_sum "Si O2"
_cell_formula_units_Z 32
_cell_length_a 15.708233
_cell_length_b 8.081751
_cell_length_c 23.662654
_cell_angle_alpha 90.000000
_cell_angle_beta 151.399285
_cell_angle_gamma 90.000000
_cell_volume 1438.011087
_symmetry_space_group_name_H-M "P 2/M"
_symmetry_group_IT_number 10
_symmetry_cell_setting 'monoclinic'
loop_
_space_group_symop_operation_xyz
x,y,z
-x,y,-z
-x,-y,-z
x,-y,z
loop_
_atom_site_type_symbol
_atom_site_label
_atom_site_fract_x
_atom_site_fract_y
_atom_site_fract_z
Si Si1 0.275378 0.198686 0.633120
Si Si2 0.283113 0.698994 0.432114
Si Si3 0.931941 0.798144 0.374700
Si Si4 0.011015 0.804350 0.942730
Si Si5 0.896430 0.806889 0.231940
Si Si6 0.613686 0.695522 0.884815
Si Si7 0.328971 0.301835 0.325182
Si Si8 0.420225 0.692192 0.011732
O O1 0.181775 0.252871 0.637410
O O2 0.478179 0.252686 0.756361
O O3 0.136561 0.256100 0.504376
O O4 0.273339 0.000000 0.630559
O O5 0.266260 0.500000 0.429457
O O6 0.468486 0.753886 0.568552
O O7 0.297109 0.731140 0.373041
O O8 0.107050 0.786680 0.350476
O O9 0.851413 0.742670 0.268610
O O10 0.931816 0.000000 0.373147
O O11 0.828081 0.771170 0.803434
O O12 0.037928 0.000000 0.962180
O O13 0.000000 0.735243 0.000000
O O14 0.183971 0.737217 0.011527
O O15 0.790966 0.705654 0.123617
O O16 0.850368 0.000000 0.199139
O O17 0.600527 0.500000 0.882991
O O18 0.553648 0.769082 0.910963
O O19 0.325520 0.500000 0.316152
O O20 0.475212 0.500000 0.045098
O O21 0.500000 0.767649 0.000000
#
# Coordination Sequence:
#
# PCOD9153506 Si02
#       8
#     4   4   4   4   4   4   4   4
#     4   9  17  35  59  77 103 145 186 222 269 325
#     4   9  19  36  57  81 109 141 174 215 275 335
#     4   8  17  33  53  78 108 143 179 221 272 322
#     4  11  25  42  59  81 111 148 188 232 281 331
#     4  11  21  32  51  82 113 139 178 226 268 319
#     4  11  23  38  58  84 113 146 187 233 277 326
#     4   9  19  38  61  81 105 139 179 223 272 329
#     4  10  22  39  57  80 115 155 188 224 276 332
#
# _framework density 22.252956999999999
#
# number of rings (size 3 to 8) (size 9 to 14) (size 15 to 20)
#    0.000    2.250    0.000    4.125    0.000    7.250 
#    0.000    8.125    0.000    0.000    0.000    0.000 
#    0.000    0.000    0.000    0.000    0.000    0.000 
#
# Total GULP energy -178669.214591 kJ/mol
# GULP energy per Si atom -5583.412956 kJ/mol
# Density = 2.220231 g / cm^3
# Si number density = 22.252957 Si / 1000 Ang^3
#
#
#
# Elastic Constant Matrix: (Units=GPa)
#
#
# Indices 1 2 3 4 5 6 
#
# 1 38.7480 5.4010 6.8632 0.0000 0.7056 0.0000
# 2 5.4010 23.8646 2.0161 0.0000 -2.0000 0.0000
# 3 6.8632 2.0161 120.2664 0.0000 -5.0943 0.0000
# 4 0.0000 0.0000 0.0000 26.5578 0.0000 5.6555
# 5 0.7056 -2.0000 -5.0943 0.0000 32.7688 0.0000
# 6 0.0000 0.0000 0.0000 5.6555 0.0000 17.8322
#
#
#
# Elastic Compliance Matrix: (Units=1/GPa)
#
#
# Indices 1 2 3 4 5 6 
#
# 1 0.026939 -0.006070 -0.001486 0.000000 -0.001182 0.000000
# 2 -0.006070 0.043530 -0.000267 0.000000 0.002746 0.000000
# 3 -0.001486 -0.000267 0.008461 0.000000 0.001331 0.000000
# 4 0.000000 0.000000 0.000000 0.040381 0.000000 -0.012807
# 5 -0.001182 0.002746 0.001331 0.000000 0.030917 0.000000
# 6 0.000000 0.000000 0.000000 -0.012807 0.000000 0.060140
#
#
# Mechanical properties :
#
#
# Convention : Reuss Voigt Hill
#
# Bulk Modulus (GPa) = 15.80201 23.49329 19.64765
# Shear Modulus (GPa) = 20.23419 26.67167 23.45293
#
# Velocity S-wave (km/s) = 3.01870 3.46579 3.24994
# Velocity P-wave (km/s) = 4.38937 5.15712 4.78866
#
# Compressibility (1/GPa) = 0.06328308
#
# Stress axis : x y z
#
# Youngs Moduli (GPa) = 37.12151 22.97285 118.19622
#
# Poissons Ratio (x) = 0.13945 0.17559
# Poissons Ratio (y) = 0.22534 0.03156
# Poissons Ratio (z) = 0.05515 0.00613
#
# Static dielectric constant tensor:
#      x y z
#    x 1.830320 0.000000 0.071770 
#    y 0.000000 1.789180 0.000000 
#    z 0.071770 0.000000 1.741790 
# 
# From -- ./inp_files/89636.got.cif
#   From: 2010.05.17/outbox.cif.g08.bks.cpg/sg10_45_cif.got.tgz:89636.got - 2010.06.03 11:33:40.
