data_PCOD9153786
_publ_section_title
;
Structure prediction by ZEFSAII (Michael W. Deem and Ramdas Pophale) SiO2 
 PCOD9153786
Probable space group: P 2/M
;
_chemical_formula_sum "Si O2"
_cell_formula_units_Z 26
_cell_length_a 7.682339
_cell_length_b 22.761364
_cell_length_c 7.674810
_cell_angle_alpha 90.000000
_cell_angle_beta 54.138075
_cell_angle_gamma 90.000000
_cell_volume 1087.615772
_symmetry_space_group_name_H-M "P 2/M"
_symmetry_group_IT_number 10
_symmetry_cell_setting 'monoclinic'
loop_
_space_group_symop_operation_xyz
x,y,z
-x,y,-z
-x,-y,-z
x,-y,z
loop_
_atom_site_type_symbol
_atom_site_label
_atom_site_fract_x
_atom_site_fract_y
_atom_site_fract_z
Si Si1 0.331563 0.318370 0.735472
Si Si2 0.000000 0.387267 0.500000
Si Si3 0.542236 0.566374 0.764444
Si Si4 0.885625 0.712150 0.811252
Si Si5 0.294414 0.932348 0.389214
Si Si6 0.751362 0.165766 0.866600
Si Si7 0.222000 0.092474 0.825912
O O1 0.500000 0.293248 0.500000
O O2 0.404972 0.384259 0.743381
O O3 0.104261 0.309342 0.775065
O O4 0.303594 0.287254 0.936245
O O5 0.204059 0.426388 0.436920
O O6 0.141149 0.339962 0.307986
O O7 0.474563 0.500000 0.759593
O O8 0.500000 0.572230 0.000000
O O9 0.890196 0.777683 0.737060
O O10 0.219287 0.891296 0.274752
O O11 0.554808 0.934683 0.239149
O O12 0.238160 0.903097 0.608561
O O13 0.221760 0.000000 0.426091
O O14 0.500000 0.179488 0.000000
O O15 0.793752 0.149731 0.042920
O O16 0.000000 0.060784 0.000000
#
# Coordination Sequence:
#
# PCOD9153786 Si02
#       7
#     4   2   4   4   4   4   4
#     4  11  24  47  70 104 142 192 236 292 358 419
#     4  12  23  44  72 104 147 188 238 294 354 416
#     4  11  24  45  73 109 150 190 238 291 352 425
#     4  11  26  44  68 104 143 187 248 291 355 433
#     4  10  23  46  71 102 142 184 235 295 370 439
#     4  10  25  46  70 106 142 189 240 305 365 427
#     4  10  22  41  68 104 140 179 236 285 363 429
#
# _framework density 23.9055
#
# number of rings (size 3 to 8) (size 9 to 14) (size 15 to 20)
#    0.000    1.385    3.077    1.154    4.308    6.769 
#    5.538    3.846    0.000    0.000    0.000    0.000 
#    0.000    0.000    0.000    0.000    0.000    0.000 
#
# Total GULP energy -145116.035909 kJ/mol
# GULP energy per Si atom -5581.385997 kJ/mol
# Density = 2.385109 g / cm^3
# Si number density = 23.905500 Si / 1000 Ang^3
#
#
#
# Elastic Constant Matrix: (Units=GPa)
#
#
# Indices 1 2 3 4 5 6 
#
# 1 117.8976 62.1889 23.1878 0.0000 -15.0339 0.0000
# 2 62.1889 136.9723 41.8359 0.0000 11.3093 0.0000
# 3 23.1878 41.8359 143.9610 0.0000 -5.2304 0.0000
# 4 0.0000 0.0000 0.0000 -6.2055 0.0000 33.4116
# 5 -15.0339 11.3093 -5.2304 0.0000 28.6603 0.0000
# 6 0.0000 0.0000 0.0000 33.4116 0.0000 -85.5015
#
#
#
# Elastic Compliance Matrix: (Units=1/GPa)
#
#
# Indices 1 2 3 4 5 6 
#
# 1 0.013341 -0.006932 0.000221 0.000000 0.009774 0.000000
# 2 -0.006932 0.012002 -0.002694 0.000000 -0.008864 0.000000
# 3 0.000221 -0.002694 0.007788 0.000000 0.002600 0.000000
# 4 0.000000 0.000000 0.000000 0.145968 0.000000 0.057040
# 5 0.009774 -0.008864 0.002600 0.000000 0.043990 0.000000
# 6 0.000000 0.000000 0.000000 0.057040 0.000000 0.010594
#
#
# Mechanical properties :
#
#
# Convention : Reuss Voigt Hill
#
# Bulk Modulus (GPa) = 69.82010 72.58400 71.20205
# Shear Modulus (GPa) = 19.43505 5.49855 12.46680
#
# Velocity S-wave (km/s) = 2.85440 1.51826 2.28612
# Velocity P-wave (km/s) = 6.33511 5.78812 6.06778
#
# Compressibility (1/GPa) = 0.01432252
#
# Stress axis : x y z
#
# Youngs Moduli (GPa) = 74.95620 83.31680 128.40257
#
# Poissons Ratio (x) = 0.57751 -0.02832
# Poissons Ratio (y) = 0.51956 0.34586
# Poissons Ratio (z) = -0.01653 0.22442
#
# Static dielectric constant tensor:
#      x y z
#    x 2.036960 0.000000 -0.028270 
#    y 0.000000 1.876770 0.000000 
#    z -0.028270 0.000000 1.991490 
# 
# From -- ./inp_files/20444.got.cif
#   From: 2010.05.17/outbox.cif.g08.bks.cpg/sg10_11_cif.got.tgz:20444.got - 2010.06.03 11:33:40.
