data_PCOD9153257
_publ_section_title
;
Structure prediction by ZEFSAII (Michael W. Deem and Ramdas Pophale) SiO2 
 PCOD9153257
Probable space group: P 2/M
;
_chemical_formula_sum "Si O2"
_cell_formula_units_Z 20
_cell_length_a 33.593179
_cell_length_b 7.669292
_cell_length_c 10.458501
_cell_angle_alpha 90.000000
_cell_angle_beta 25.054510
_cell_angle_gamma 90.000000
_cell_volume 1141.061480
_symmetry_space_group_name_H-M "P 2/M"
_symmetry_group_IT_number 10
_symmetry_cell_setting 'monoclinic'
loop_
_space_group_symop_operation_xyz
x,y,z
-x,y,-z
-x,-y,-z
x,-y,z
loop_
_atom_site_type_symbol
_atom_site_label
_atom_site_fract_x
_atom_site_fract_y
_atom_site_fract_z
Si Si1 0.912576 0.795927 0.658896
Si Si2 0.277590 0.804309 0.372493
Si Si3 0.575949 0.000000 0.664972
Si Si4 0.288269 0.702724 0.637649
Si Si5 0.550438 0.000000 0.217642
Si Si6 0.150056 0.500000 0.637039
Si Si7 0.053541 0.500000 0.644741
O O1 0.925253 0.669439 0.502057
O O2 0.000000 0.768783 0.500000
O O3 0.909687 0.000000 0.631910
O O4 0.816790 0.745834 0.009921
O O5 0.294088 0.742807 0.469516
O O6 0.211890 0.668409 0.492313
O O7 0.234638 0.000000 0.503076
O O8 0.377855 0.837477 0.012073
O O9 0.640843 0.169199 0.496073
O O10 0.523306 0.000000 0.683415
O O11 0.500000 0.000000 0.000000
O O12 0.308624 0.500000 0.601148
O O13 0.500000 0.000000 0.500000
O O14 0.116400 0.500000 0.588988
O O15 0.055452 0.500000 0.996966
#
# Coordination Sequence:
#
# PCOD9153257 Si02
#       7
#     4   4   2   4   2   2   2
#     4  11  23  40  64  97 133 169 214 266 325 382
#     4  10  21  41  67  90 124 168 217 259 319 392
#     4  12  22  44  63  96 130 158 219 279 321 388
#     4  12  22  38  69  97 127 168 211 272 329 377
#     4  10  24  46  68  91 129 170 213 276 331 386
#     4  11  24  42  65  91 131 178 217 255 321 396
#     4  11  25  40  60  98 137 168 213 271 314 386
#
# _framework density 17.527538
#
# number of rings (size 3 to 8) (size 9 to 14) (size 15 to 20)
#    0.600    0.400    6.000    1.500    0.000    5.200 
#    1.800    2.500    0.000    0.000    0.000    0.000 
#    0.000    0.000    0.000    0.000    0.000    0.000 
#
# Total GULP energy -111674.626447 kJ/mol
# GULP energy per Si atom -5583.731322 kJ/mol
# Density = 1.748764 g / cm^3
# Si number density = 17.527538 Si / 1000 Ang^3
#
#
#
# Elastic Constant Matrix: (Units=GPa)
#
#
# Indices 1 2 3 4 5 6 
#
# 1 131.5576 72.5879 86.1713 0.0000 -0.3577 0.0000
# 2 72.5879 153.7078 57.9287 0.0000 -8.9426 0.0000
# 3 86.1713 57.9287 146.3938 0.0000 4.8286 0.0000
# 4 0.0000 0.0000 0.0000 17.4509 0.0000 12.7470
# 5 -0.3577 -8.9426 4.8286 0.0000 34.9207 0.0000
# 6 0.0000 0.0000 0.0000 12.7470 0.0000 -9.6683
#
#
#
# Elastic Compliance Matrix: (Units=1/GPa)
#
#
# Indices 1 2 3 4 5 6 
#
# 1 0.014387 -0.004234 -0.006793 0.000000 0.000002 0.000000
# 2 -0.004234 0.009095 -0.001188 0.000000 0.002450 0.000000
# 3 -0.006793 -0.001188 0.011364 0.000000 -0.001945 0.000000
# 4 0.000000 0.000000 0.000000 0.029191 0.000000 0.038486
# 5 0.000002 0.002450 -0.001945 0.000000 0.029533 0.000000
# 6 0.000000 0.000000 0.000000 0.038486 0.000000 -0.052689
#
#
# Mechanical properties :
#
#
# Convention : Reuss Voigt Hill
#
# Bulk Modulus (GPa) = 96.00254 96.11499 96.05876
# Shear Modulus (GPa) = 72.69221 22.87208 47.78214
#
# Velocity S-wave (km/s) = 6.44695 3.61629 5.22689
# Velocity P-wave (km/s) = 10.50280 8.50837 9.55775
#
# Compressibility (1/GPa) = 0.01041639
#
# Stress axis : x y z
#
# Youngs Moduli (GPa) = 69.50755 109.94525 87.99898
#
# Poissons Ratio (x) = 0.46549 0.59780
# Poissons Ratio (y) = 0.29428 0.10452
# Poissons Ratio (z) = 0.47218 0.13059
#
# Static dielectric constant tensor:
#      x y z
#    x 1.558090 0.000000 -0.005850 
#    y 0.000000 1.592830 0.000000 
#    z -0.005850 0.000000 1.587800 
# 
# From -- ./inp_files/37827.got.cif
#   From: 2010.05.17/outbox.cif.g08.bks.cpg/sg10_19_cif.got.tgz:37827.got - 2010.06.03 11:33:40.
