data_PCOD9153287
_publ_section_title
;
Structure prediction by ZEFSAII (Michael W. Deem and Ramdas Pophale) SiO2 
 PCOD9153287
Probable space group: P 2/M
;
_chemical_formula_sum "Si O2"
_cell_formula_units_Z 16
_cell_length_a 14.833961
_cell_length_b 7.853812
_cell_length_c 14.523106
_cell_angle_alpha 90.000000
_cell_angle_beta 158.747204
_cell_angle_gamma 90.000000
_cell_volume 613.317571
_symmetry_space_group_name_H-M "P 2/M"
_symmetry_group_IT_number 10
_symmetry_cell_setting 'monoclinic'
loop_
_space_group_symop_operation_xyz
x,y,z
-x,y,-z
-x,-y,-z
x,-y,z
loop_
_atom_site_type_symbol
_atom_site_label
_atom_site_fract_x
_atom_site_fract_y
_atom_site_fract_z
Si Si1 0.289251 0.303721 0.536173
Si Si2 0.444495 0.000000 0.099685
Si Si3 0.277404 0.500000 0.215622
Si Si4 0.158554 0.309876 0.744370
Si Si5 0.055671 0.814292 0.945129
O O1 0.375547 0.500000 0.623265
O O2 0.036559 0.301523 0.357485
O O3 0.183880 0.256314 0.335146
O O4 0.447159 0.152291 0.729363
O O5 0.335255 0.848765 0.927635
O O6 0.500000 0.500000 0.500000
O O7 0.267190 0.671112 0.145507
O O8 0.000000 0.500000 0.000000
O O9 0.274142 0.500000 0.854749
O O10 0.000000 0.292644 0.500000
O O11 0.118138 0.000000 0.964574
O O12 0.000000 0.836393 0.000000
#
# Coordination Sequence:
#
# PCOD9153287 Si02
#       5
#     4   2   2   4   4
#     4  11  23  42  66  96 135 172 222 279 335 409
#     4  12  23  41  68 102 126 177 223 281 337 409
#     4  10  22  44  66  98 133 181 231 289 348 416
#     4  10  24  45  65  95 136 175 220 277 342 413
#     4  10  21  42  67  94 132 174 226 279 340 414
#
# _framework density 26.087624999999999
#
# number of rings (size 3 to 8) (size 9 to 14) (size 15 to 20)
#    0.000    1.500    2.500    1.875    0.000    2.500 
#    9.000    3.750    0.000    0.000    0.000    0.000 
#    0.000    0.000    0.000    0.000    0.000    0.000 
#
# Total GULP energy -89141.424979 kJ/mol
# GULP energy per Si atom -5571.339061 kJ/mol
# Density = 2.602825 g / cm^3
# Si number density = 26.087625 Si / 1000 Ang^3
#
#
#
# Elastic Constant Matrix: (Units=GPa)
#
#
# Indices 1 2 3 4 5 6 
#
# 1 83.3020 31.5116 27.6793 0.0000 2.3458 0.0000
# 2 31.5116 382.2277 141.9300 0.0000 -11.9566 0.0000
# 3 27.6793 141.9300 196.4564 0.0000 -38.5911 0.0000
# 4 0.0000 0.0000 0.0000 62.9752 0.0000 -12.2909
# 5 2.3458 -11.9566 -38.5911 0.0000 38.5686 0.0000
# 6 0.0000 0.0000 0.0000 -12.2909 0.0000 27.6186
#
#
#
# Elastic Compliance Matrix: (Units=1/GPa)
#
#
# Indices 1 2 3 4 5 6 
#
# 1 0.012947 -0.000358 -0.002168 0.000000 -0.003068 0.000000
# 2 -0.000358 0.003693 -0.002973 0.000000 -0.001808 0.000000
# 3 -0.002168 -0.002973 0.009195 0.000000 0.008411 0.000000
# 4 0.000000 0.000000 0.000000 0.017390 0.000000 0.007739
# 5 -0.003068 -0.001808 0.008411 0.000000 0.033970 0.000000
# 6 0.000000 0.000000 0.000000 0.007739 0.000000 0.039651
#
#
# Mechanical properties :
#
#
# Convention : Reuss Voigt Hill
#
# Bulk Modulus (GPa) = 67.39610 118.24755 92.82183
# Shear Modulus (GPa) = 37.65349 56.55684 47.10516
#
# Velocity S-wave (km/s) = 3.80326 4.66118 4.25391
# Velocity P-wave (km/s) = 6.72138 8.62521 7.73212
#
# Compressibility (1/GPa) = 0.01483765
#
# Stress axis : x y z
#
# Youngs Moduli (GPa) = 77.23935 270.77857 108.74937
#
# Poissons Ratio (x) = 0.09704 0.23575
# Poissons Ratio (y) = 0.02768 0.32327
# Poissons Ratio (z) = 0.16744 0.80493
#
# Static dielectric constant tensor:
#      x y z
#    x 2.197590 0.000000 -0.041410 
#    y 0.000000 2.074180 0.000000 
#    z -0.041410 0.000000 1.689620 
# 
# From -- ./inp_files/68460.got.cif
#   From: 2010.05.17/outbox.cif.g08.bks.cpg/sg10_35_cif.got.tgz:68460.got - 2010.06.03 11:33:40.
