data_PCOD9153522
_publ_section_title
;
Structure prediction by ZEFSAII (Michael W. Deem and Ramdas Pophale) SiO2 
 PCOD9153522
Probable space group: P 2/M
;
_chemical_formula_sum "Si O2"
_cell_formula_units_Z 28
_cell_length_a 9.506052
_cell_length_b 15.174264
_cell_length_c 21.355264
_cell_angle_alpha 90.000000
_cell_angle_beta 150.367332
_cell_angle_gamma 90.000000
_cell_volume 1523.085220
_symmetry_space_group_name_H-M "P 2/M"
_symmetry_group_IT_number 10
_symmetry_cell_setting 'monoclinic'
loop_
_space_group_symop_operation_xyz
x,y,z
-x,y,-z
-x,-y,-z
x,-y,z
loop_
_atom_site_type_symbol
_atom_site_label
_atom_site_fract_x
_atom_site_fract_y
_atom_site_fract_z
Si Si1 0.666764 0.000000 0.630374
Si Si2 0.296352 0.268969 0.772618
Si Si3 0.349200 0.000000 0.638995
Si Si4 0.708000 0.853717 0.853971
Si Si5 0.224770 0.805917 0.348418
Si Si6 0.660253 0.401357 0.996271
Si Si7 0.763281 0.297820 0.775344
Si Si8 0.741280 0.599849 0.352592
O O1 0.500000 0.000000 0.500000
O O2 0.831301 0.907179 0.694310
O O3 0.458432 0.000000 0.609596
O O4 0.500354 0.193090 0.823827
O O5 0.185026 0.330079 0.672915
O O6 0.043396 0.230626 0.716809
O O7 0.488909 0.335546 0.886344
O O8 0.500832 0.081165 0.734450
O O9 0.000000 0.000000 0.500000
O O10 0.810191 0.778939 0.844707
O O11 0.000000 0.888829 0.000000
O O12 0.500000 0.804904 0.500000
O O13 0.289074 0.748182 0.311716
O O14 0.680128 0.500000 0.977593
O O15 0.965785 0.359753 0.125523
O O16 0.500000 0.405529 0.000000
O O17 0.515029 0.357890 0.707324
O O18 0.677433 0.500000 0.305111
O O19 0.000000 0.594066 0.500000
#
# Coordination Sequence:
#
# PCOD9153522 Si02
#       8
#     2   4   2   4   4   4   4   4
#     4  10  24  43  63  94 129 161 217 268 321 374
#     4  11  23  39  65  92 123 167 215 260 327 386
#     4  12  27  43  69  98 132 176 220 268 325 395
#     4  11  24  42  66  95 133 170 210 271 325 386
#     4  11  23  40  65  92 130 166 213 273 317 391
#     4  11  22  38  63  93 126 163 213 267 316 381
#     4  11  21  40  64  91 123 168 214 258 327 379
#     4  10  22  39  58  87 128 165 207 262 321 390
#
# _framework density 18.383738000000001
#
# number of rings (size 3 to 8) (size 9 to 14) (size 15 to 20)
#    0.000    1.143    4.286    1.929    4.000    2.286 
#    0.000    2.143    0.000    5.143    0.000    0.000 
#    0.000    0.000    0.000    0.000    0.000    0.000 
#
# Total GULP energy -156216.615807 kJ/mol
# GULP energy per Si atom -5579.164850 kJ/mol
# Density = 1.834190 g / cm^3
# Si number density = 18.383738 Si / 1000 Ang^3
#
#
#
# Elastic Constant Matrix: (Units=GPa)
#
#
# Indices 1 2 3 4 5 6 
#
# 1 77.6312 34.1544 11.8725 0.0000 2.7149 0.0000
# 2 34.1544 115.7286 34.9328 0.0000 13.2227 0.0000
# 3 11.8725 34.9328 82.5560 0.0000 -1.3131 0.0000
# 4 0.0000 0.0000 0.0000 31.9568 0.0000 -5.9212
# 5 2.7149 13.2227 -1.3131 0.0000 23.5532 0.0000
# 6 0.0000 0.0000 0.0000 -5.9212 0.0000 33.1427
#
#
#
# Elastic Compliance Matrix: (Units=1/GPa)
#
#
# Indices 1 2 3 4 5 6 
#
# 1 0.014823 -0.004378 -0.000268 0.000000 0.000734 0.000000
# 2 -0.004378 0.012059 -0.004577 0.000000 -0.006521 0.000000
# 3 -0.000268 -0.004577 0.014142 0.000000 0.003389 0.000000
# 4 0.000000 0.000000 0.000000 0.032364 0.000000 0.005782
# 5 0.000734 -0.006521 0.003389 0.000000 0.046222 0.000000
# 6 0.000000 0.000000 0.000000 0.005782 0.000000 0.031206
#
#
# Mechanical properties :
#
#
# Convention : Reuss Voigt Hill
#
# Bulk Modulus (GPa) = 44.28765 48.64836 46.46800
# Shear Modulus (GPa) = 28.28270 30.72762 29.50516
#
# Velocity S-wave (km/s) = 3.92658 4.09278 4.01054
# Velocity P-wave (km/s) = 6.68583 6.98961 6.83941
#
# Compressibility (1/GPa) = 0.02257966
#
# Stress axis : x y z
#
# Youngs Moduli (GPa) = 67.46438 82.92242 70.71080
#
# Poissons Ratio (x) = 0.36300 0.01892
# Poissons Ratio (y) = 0.29533 0.32365
# Poissons Ratio (z) = 0.01806 0.37954
#
# Static dielectric constant tensor:
#      x y z
#    x 1.618650 0.000000 -0.013120 
#    y 0.000000 1.655120 0.000000 
#    z -0.013120 0.000000 1.618260 
# 
# From -- ./inp_files/35275.got.cif
#   From: 2010.05.17/outbox.cif.g08.bks.cpg/sg10_18_cif.got.tgz:35275.got - 2010.06.03 11:33:40.
