data_PCOD9153713
_publ_section_title
;
Structure prediction by ZEFSAII (Michael W. Deem and Ramdas Pophale) SiO2 
 PCOD9153713
Probable space group: P 2/M
;
_chemical_formula_sum "Si O2"
_cell_formula_units_Z 19
_cell_length_a 9.529363
_cell_length_b 18.302558
_cell_length_c 5.285629
_cell_angle_alpha 90.000000
_cell_angle_beta 72.732652
_cell_angle_gamma 90.000000
_cell_volume 880.326810
_symmetry_space_group_name_H-M "P 2/M"
_symmetry_group_IT_number 10
_symmetry_cell_setting 'monoclinic'
loop_
_space_group_symop_operation_xyz
x,y,z
-x,y,-z
-x,-y,-z
x,-y,z
loop_
_atom_site_type_symbol
_atom_site_label
_atom_site_fract_x
_atom_site_fract_y
_atom_site_fract_z
Si Si1 0.346968 0.158614 0.234340
Si Si2 0.094820 0.741954 0.194689
Si Si3 0.500000 0.500000 0.000000
Si Si4 0.500000 0.729496 0.500000
Si Si5 0.398701 0.000000 0.305758
Si Si6 0.715730 0.617465 0.118075
Si Si7 0.896639 0.500000 0.303087
O O1 0.218307 0.195888 0.148034
O O2 0.384279 0.216791 0.430650
O O3 0.313043 0.076813 0.345443
O O4 0.500000 0.154810 0.000000
O O5 0.000000 0.741253 0.500000
O O6 0.166467 0.662722 0.105206
O O7 0.000000 0.757835 0.000000
O O8 0.623820 0.562134 0.999010
O O9 0.598013 0.676386 0.277972
O O10 0.500000 0.000000 0.500000
O O11 0.500000 0.000000 0.000000
O O12 0.791858 0.571142 0.307062
O O13 0.000000 0.500000 0.500000
O O14 0.000000 0.500000 0.000000
#
# Coordination Sequence:
#
# PCOD9153713 Si02
#       7
#     4   4   1   2   2   4   2
#     4  11  23  44  72 107 142 186 243 292 353 425
#     4  12  27  46  71 108 148 190 238 292 363 433
#     4  10  24  46  66 104 134 176 250 304 368 418
#     4  12  22  42  74 102 134 174 242 302 350 414
#     4  10  22  40  72 108 146 184 235 298 355 412
#     4  11  25  44  71 101 136 184 239 302 359 424
#     4  11  28  48  66  92 134 187 233 284 359 434
#
# _framework density 21.582892000000001
#
# number of rings (size 3 to 8) (size 9 to 14) (size 15 to 20)
#    0.000    0.842    3.158    3.158    0.000   11.789 
#    0.000    2.632    0.000    0.000    0.000    0.000 
#    0.000    0.000    0.000    0.000    0.000    0.000 
#
# Total GULP energy -106026.923844 kJ/mol
# GULP energy per Si atom -5580.364413 kJ/mol
# Density = 2.153377 g / cm^3
# Si number density = 21.582892 Si / 1000 Ang^3
#
#
#
# Elastic Constant Matrix: (Units=GPa)
#
#
# Indices 1 2 3 4 5 6 
#
# 1 169.7140 88.5879 55.0809 0.0000 36.3370 0.0000
# 2 88.5879 212.0995 44.4318 0.0000 17.3331 0.0000
# 3 55.0809 44.4318 105.5333 0.0000 9.1004 0.0000
# 4 0.0000 0.0000 0.0000 -10.8135 0.0000 21.3296
# 5 36.3370 17.3331 9.1004 0.0000 39.4708 0.0000
# 6 0.0000 0.0000 0.0000 21.3296 0.0000 -2.9952
#
#
#
# Elastic Compliance Matrix: (Units=1/GPa)
#
#
# Indices 1 2 3 4 5 6 
#
# 1 0.010050 -0.002896 -0.003405 0.000000 -0.007195 0.000000
# 2 -0.002896 0.006135 -0.001091 0.000000 0.000224 0.000000
# 3 -0.003405 -0.001091 0.011632 0.000000 0.000932 0.000000
# 4 0.000000 0.000000 0.000000 0.007088 0.000000 0.050477
# 5 -0.007195 0.000224 0.000932 0.000000 0.031646 0.000000
# 6 0.000000 0.000000 0.000000 0.050477 0.000000 0.025590
#
#
# Mechanical properties :
#
#
# Convention : Reuss Voigt Hill
#
# Bulk Modulus (GPa) = 76.73471 95.94980 86.34225
# Shear Modulus (GPa) = 44.93638 25.08217 35.00927
#
# Velocity S-wave (km/s) = 4.56788 3.41270 4.03188
# Velocity P-wave (km/s) = 7.96564 7.75124 7.85917
#
# Compressibility (1/GPa) = 0.01303191
#
# Stress axis : x y z
#
# Youngs Moduli (GPa) = 99.50543 163.01104 85.97086
#
# Poissons Ratio (x) = 0.47210 0.29277
# Poissons Ratio (y) = 0.28818 0.09375
# Poissons Ratio (z) = 0.33886 0.17777
#
# Static dielectric constant tensor:
#      x y z
#    x 1.623050 0.000000 -0.124590 
#    y 0.000000 1.795250 0.000000 
#    z -0.124590 0.000000 1.742380 
# 
# From -- ./inp_files/4091.got.cif
#   From: 2010.05.17/outbox.cif.g08.bks.cpg/sg10_3_cif.got.tgz:4091.got - 2010.06.03 11:33:40.
