data_PCOD9153464
_publ_section_title
;
Structure prediction by ZEFSAII (Michael W. Deem and Ramdas Pophale) SiO2 
 PCOD9153464
Probable space group: P 2/M
;
_chemical_formula_sum "Si O2"
_cell_formula_units_Z 30
_cell_length_a 5.072755
_cell_length_b 15.393565
_cell_length_c 19.628885
_cell_angle_alpha 90.000000
_cell_angle_beta 109.545418
_cell_angle_gamma 90.000000
_cell_volume 1444.452339
_symmetry_space_group_name_H-M "P 2/M"
_symmetry_group_IT_number 10
_symmetry_cell_setting 'monoclinic'
loop_
_space_group_symop_operation_xyz
x,y,z
-x,y,-z
-x,-y,-z
x,-y,z
loop_
_atom_site_type_symbol
_atom_site_label
_atom_site_fract_x
_atom_site_fract_y
_atom_site_fract_z
Si Si1 0.320375 0.500000 0.554006
Si Si2 0.014497 0.819460 0.420909
Si Si3 0.473376 0.358929 0.924016
Si Si4 0.584182 0.897664 0.647300
Si Si5 0.715503 0.236098 0.765743
Si Si6 0.941687 0.410286 0.223051
Si Si7 0.965202 0.756101 0.923818
Si Si8 0.762880 0.650027 0.347256
O O1 0.500000 0.500000 0.500000
O O2 0.361691 0.586355 0.605322
O O3 0.000000 0.500000 0.500000
O O4 0.741126 0.872658 0.372166
O O5 0.981548 0.718046 0.398254
O O6 0.000000 0.826550 0.500000
O O7 0.290558 0.859766 0.411839
O O8 0.327389 0.407368 0.849205
O O9 0.776946 0.328119 0.926449
O O10 0.267300 0.276302 0.923198
O O11 0.500000 0.403131 0.000000
O O12 0.755696 0.844010 0.718853
O O13 0.621614 0.000000 0.654284
O O14 0.774891 0.203311 0.847507
O O15 0.439627 0.284905 0.713338
O O16 0.918777 0.318198 0.777858
O O17 0.101086 0.500000 0.220229
O O18 0.884576 0.408889 0.298223
O O19 0.000000 0.802745 0.000000
#
# Coordination Sequence:
#
# PCOD9153464 Si02
#       8
#     2   4   4   4   4   4   4   4
#     4  12  30  44  62  88 120 160 210 254 294 352
#     4  11  24  42  64  89 121 152 191 243 309 366
#     4   9  18  33  51  81 117 155 197 242 289 339
#     4  11  24  41  65  92 119 154 193 244 302 363
#     4  10  22  38  60  86 124 154 203 242 295 348
#     4  11  21  35  59  85 119 161 203 243 289 346
#     4   9  17  32  56  82 115 157 197 237 289 342
#     4  11  23  39  62  84 119 159 201 250 293 347
#
# _framework density 20.769117000000001
#
# number of rings (size 3 to 8) (size 9 to 14) (size 15 to 20)
#    0.000    1.600    3.333    1.200    2.800    4.000 
#    0.000    0.000    0.000    4.800    0.000    0.000 
#    0.000   10.133    0.000    0.000    0.000    1.467 
#
# Total GULP energy -167112.825171 kJ/mol
# GULP energy per Si atom -5570.427506 kJ/mol
# Density = 2.072185 g / cm^3
# Si number density = 20.769117 Si / 1000 Ang^3
#
#
#
# Elastic Constant Matrix: (Units=GPa)
#
#
# Indices 1 2 3 4 5 6 
#
# 1 57.9507 3.0386 -1.6228 0.0000 -0.2722 0.0000
# 2 3.0386 105.0182 27.0850 0.0000 -1.4530 0.0000
# 3 -1.6228 27.0850 126.7640 0.0000 -7.8118 0.0000
# 4 0.0000 0.0000 0.0000 -4.6496 0.0000 2.9618
# 5 -0.2722 -1.4530 -7.8118 0.0000 30.4809 0.0000
# 6 0.0000 0.0000 0.0000 2.9618 0.0000 6.7233
#
#
#
# Elastic Compliance Matrix: (Units=1/GPa)
#
#
# Indices 1 2 3 4 5 6 
#
# 1 0.017298 -0.000591 0.000361 0.000000 0.000219 0.000000
# 2 -0.000591 0.010098 -0.002170 0.000000 -0.000080 0.000000
# 3 0.000361 -0.002170 0.008485 0.000000 0.002074 0.000000
# 4 0.000000 0.000000 0.000000 -0.167942 0.000000 0.073984
# 5 0.000219 -0.000080 0.002074 0.000000 0.033337 0.000000
# 6 0.000000 0.000000 0.000000 0.073984 0.000000 0.116144
#
#
# Mechanical properties :
#
#
# Convention : Reuss Voigt Hill
#
# Bulk Modulus (GPa) = 32.17330 38.52607 35.34968
# Shear Modulus (GPa) = 153.47307 23.92638 88.69973
#
# Velocity S-wave (km/s) = 8.60554 3.39782 6.54219
# Velocity P-wave (km/s) = 10.68948 5.82954 8.60954
#
# Compressibility (1/GPa) = 0.03108168
#
# Stress axis : x y z
#
# Youngs Moduli (GPa) = 57.80967 99.03132 117.85793
#
# Poissons Ratio (x) = 0.05849 -0.04256
# Poissons Ratio (y) = 0.03414 0.25576
# Poissons Ratio (z) = -0.02088 0.21490
#
# Static dielectric constant tensor:
#      x y z
#    x 1.810150 0.000000 0.024590 
#    y 0.000000 1.767230 0.000000 
#    z 0.024590 0.000000 1.875220 
# 
# From -- ./inp_files/11447.got.cif
#   From: 2010.05.17/outbox.cif.g08.bks.cpg/sg10_6_cif.got.tgz:11447.got - 2010.06.03 11:33:40.
