data_PCOD9153444
_publ_section_title
;
Structure prediction by ZEFSAII (Michael W. Deem and Ramdas Pophale) SiO2 
 PCOD9153444
Probable space group: P 2/M
;
_chemical_formula_sum "Si O2"
_cell_formula_units_Z 32
_cell_length_a 13.725082
_cell_length_b 22.567566
_cell_length_c 13.371203
_cell_angle_alpha 90.000000
_cell_angle_beta 21.475988
_cell_angle_gamma 90.000000
_cell_volume 1516.293405
_symmetry_space_group_name_H-M "P 2/M"
_symmetry_group_IT_number 10
_symmetry_cell_setting 'monoclinic'
loop_
_space_group_symop_operation_xyz
x,y,z
-x,y,-z
-x,-y,-z
x,-y,z
loop_
_atom_site_type_symbol
_atom_site_label
_atom_site_fract_x
_atom_site_fract_y
_atom_site_fract_z
Si Si1 0.031871 0.066562 0.589745
Si Si2 0.533116 0.857070 0.088327
Si Si3 0.051050 0.565016 0.571545
Si Si4 0.448318 0.257100 0.799495
Si Si5 0.544729 0.364965 0.073955
Si Si6 0.229215 0.755259 0.705962
Si Si7 0.521780 0.431914 0.599576
Si Si8 0.018093 0.351298 0.131001
O O1 0.260895 0.114494 0.388272
O O2 0.000000 0.062855 0.500000
O O3 0.089640 0.000000 0.570812
O O4 0.755319 0.092819 0.890888
O O5 0.613604 0.798614 0.071456
O O6 0.500000 0.845383 0.000000
O O7 0.984182 0.500000 0.674840
O O8 0.000000 0.563919 0.500000
O O9 0.361303 0.580076 0.278064
O O10 0.851077 0.616745 0.799885
O O11 0.556615 0.309054 0.767390
O O12 0.669403 0.237759 0.506944
O O13 0.184488 0.290578 0.007591
O O14 0.500000 0.352508 0.000000
O O15 0.500000 0.772774 0.500000
O O16 0.178199 0.684597 0.756915
O O17 0.000000 0.781035 0.000000
O O18 0.500000 0.434494 0.500000
O O19 0.512848 0.500000 0.642960
O O20 0.790235 0.399197 0.381101
O O21 0.266133 0.393544 0.873127
#
# Coordination Sequence:
#
# PCOD9153444 Si02
#       8
#     4   4   4   4   4   4   4   4
#     4   9  18  35  61  93 132 180 222 251 288 342
#     4  10  22  38  61  94 138 178 211 253 297 351
#     4   9  18  35  58  79 102 141 192 244 295 347
#     4  12  27  38  63  89 126 162 203 247 307 374
#     4  10  22  38  58  83 113 149 189 237 297 366
#     4  12  24  42  64  86 111 157 201 250 310 376
#     4  11  23  39  62  85 108 143 194 253 326 403
#     4  12  23  39  60  84 113 147 195 247 314 384
#
# _framework density 21.104095000000001
#
# number of rings (size 3 to 8) (size 9 to 14) (size 15 to 20)
#    0.000    1.375    2.500    3.000    3.500    4.000 
#    0.000    7.500    0.000    0.000    0.000    0.000 
#    0.000   10.000    0.000    0.000    0.000    0.000 
#
# Total GULP energy -178218.529999 kJ/mol
# GULP energy per Si atom -5569.329062 kJ/mol
# Density = 2.105606 g / cm^3
# Si number density = 21.104095 Si / 1000 Ang^3
#
#
#
# Elastic Constant Matrix: (Units=GPa)
#
#
# Indices 1 2 3 4 5 6 
#
# 1 68.0234 20.4114 34.4936 0.0000 12.7011 0.0000
# 2 20.4114 80.0788 6.9362 0.0000 10.0055 0.0000
# 3 34.4936 6.9362 118.0957 0.0000 -11.8111 0.0000
# 4 0.0000 0.0000 0.0000 1.9891 0.0000 -7.3815
# 5 12.7011 10.0055 -11.8111 0.0000 29.8341 0.0000
# 6 0.0000 0.0000 0.0000 -7.3815 0.0000 9.7836
#
#
#
# Elastic Compliance Matrix: (Units=1/GPa)
#
#
# Indices 1 2 3 4 5 6 
#
# 1 0.021355 -0.003486 -0.007106 0.000000 -0.010735 0.000000
# 2 -0.003486 0.013783 -0.000109 0.000000 -0.003182 0.000000
# 3 -0.007106 -0.000109 0.011304 0.000000 0.007537 0.000000
# 4 0.000000 0.000000 0.000000 -0.279320 0.000000 -0.210741
# 5 -0.010735 -0.003182 0.007537 0.000000 0.042140 0.000000
# 6 0.000000 0.000000 0.000000 -0.210741 0.000000 -0.056788
#
#
# Mechanical properties :
#
#
# Convention : Reuss Voigt Hill
#
# Bulk Modulus (GPa) = 39.93981 43.32005 41.62993
# Shear Modulus (GPa) = -22.95940 21.94513 -0.50713
#
# Velocity S-wave (km/s) = -3.30193 3.22817 -0.49074
# Velocity P-wave (km/s) = 2.10458 5.87079 4.40996
#
# Compressibility (1/GPa) = 0.02503767
#
# Stress axis : x y z
#
# Youngs Moduli (GPa) = 46.82755 72.55132 88.46772
#
# Poissons Ratio (x) = 0.25294 0.62868
# Poissons Ratio (y) = 0.16326 0.00968
# Poissons Ratio (z) = 0.33277 0.00794
#
# Static dielectric constant tensor:
#      x y z
#    x 2.154660 0.000000 0.079070 
#    y 0.000000 1.700750 0.000000 
#    z 0.079070 0.000000 1.845400 
# 
# From -- ./inp_files/67940.got.cif
#   From: 2010.05.17/outbox.cif.g08.bks.cpg/sg10_34_cif.got.tgz:67940.got - 2010.06.03 11:33:40.
