data_PCOD9153359
_publ_section_title
;
Structure prediction by ZEFSAII (Michael W. Deem and Ramdas Pophale) SiO2 
 PCOD9153359
Probable space group: P 2/M
;
_chemical_formula_sum "Si O2"
_cell_formula_units_Z 17
_cell_length_a 9.328297
_cell_length_b 10.074360
_cell_length_c 8.832635
_cell_angle_alpha 90.000000
_cell_angle_beta 64.993007
_cell_angle_gamma 90.000000
_cell_volume 752.248110
_symmetry_space_group_name_H-M "P 2/M"
_symmetry_group_IT_number 10
_symmetry_cell_setting 'monoclinic'
loop_
_space_group_symop_operation_xyz
x,y,z
-x,y,-z
-x,-y,-z
x,-y,z
loop_
_atom_site_type_symbol
_atom_site_label
_atom_site_fract_x
_atom_site_fract_y
_atom_site_fract_z
Si Si1 0.287214 0.705580 0.768361
Si Si2 0.097888 0.500000 0.687005
Si Si3 0.777729 0.000000 0.228729
Si Si4 0.324376 0.243930 0.098112
Si Si5 0.874182 0.000000 0.827557
Si Si6 0.500000 0.500000 0.500000
Si Si7 0.750445 0.500000 0.694451
O O1 0.132584 0.632115 0.767252
O O2 0.427883 0.615738 0.646424
O O3 0.303816 0.858459 0.710642
O O4 0.273957 0.704704 0.955240
O O5 0.235812 0.500000 0.494056
O O6 0.928695 0.500000 0.683955
O O7 0.938176 0.000000 0.254436
O O8 0.823420 0.000000 0.028723
O O9 0.328574 0.368133 0.207391
O O10 0.203222 0.131811 0.205696
O O11 0.500000 0.185571 0.000000
#
# Coordination Sequence:
#
# PCOD9153359 Si02
#       7
#     4   2   2   4   2   1   2
#     4  10  22  38  62  87 119 162 204 246 303 352
#     4  10  23  40  58  87 122 162 200 254 300 354
#     4   9  18  37  63  89 111 156 207 248 298 358
#     4  11  23  37  61  92 118 159 201 249 303 367
#     4   9  19  38  61  87 123 146 194 265 302 348
#     4  10  22  36  58  86 126 160 190 250 290 350
#     4  11  23  38  60  88 121 158 204 250 304 354
#
# _framework density 22.598927
#
# number of rings (size 3 to 8) (size 9 to 14) (size 15 to 20)
#    0.000    1.882    0.000    3.529    6.588    4.235 
#    0.000    1.176    0.000    4.235    0.000    0.000 
#    0.000    0.000    0.000    0.000    0.000    0.000 
#
# Total GULP energy -94868.546178 kJ/mol
# GULP energy per Si atom -5580.502716 kJ/mol
# Density = 2.254749 g / cm^3
# Si number density = 22.598927 Si / 1000 Ang^3
#
#
#
# Elastic Constant Matrix: (Units=GPa)
#
#
# Indices 1 2 3 4 5 6 
#
# 1 62.5157 33.6134 17.0793 0.0000 14.7439 0.0000
# 2 33.6134 194.5024 38.7311 0.0000 3.2909 0.0000
# 3 17.0793 38.7311 54.7767 0.0000 9.5540 0.0000
# 4 0.0000 0.0000 0.0000 -4.8964 0.0000 -19.3164
# 5 14.7439 3.2909 9.5540 0.0000 35.6595 0.0000
# 6 0.0000 0.0000 0.0000 -19.3164 0.0000 24.2414
#
#
#
# Elastic Compliance Matrix: (Units=1/GPa)
#
#
# Indices 1 2 3 4 5 6 
#
# 1 0.019993 -0.002726 -0.003051 0.000000 -0.007197 0.000000
# 2 -0.002726 0.006368 -0.003931 0.000000 0.001592 0.000000
# 3 -0.003051 -0.003931 0.022767 0.000000 -0.004476 0.000000
# 4 0.000000 0.000000 0.000000 -0.049289 0.000000 -0.039275
# 5 -0.007197 0.001592 -0.004476 0.000000 0.032071 0.000000
# 6 0.000000 0.000000 0.000000 -0.039275 0.000000 0.009956
#
#
# Mechanical properties :
#
#
# Convention : Reuss Voigt Hill
#
# Bulk Modulus (GPa) = 33.65531 54.51582 44.08556
# Shear Modulus (GPa) = 70.24056 25.82565 48.03310
#
# Velocity S-wave (km/s) = 5.58111 3.38417 4.61527
# Velocity P-wave (km/s) = 7.51376 6.28058 6.92468
#
# Compressibility (1/GPa) = 0.02971299
#
# Stress axis : x y z
#
# Youngs Moduli (GPa) = 50.01873 157.03205 43.92305
#
# Poissons Ratio (x) = 0.42803 0.13401
# Poissons Ratio (y) = 0.13634 0.17264
# Poissons Ratio (z) = 0.15261 0.61723
#
# Static dielectric constant tensor:
#      x y z
#    x 3.423290 0.000000 -0.269610 
#    y 0.000000 1.789500 0.000000 
#    z -0.269610 0.000000 1.839610 
# 
# From -- ./inp_files/22069.got.cif
#   From: 2010.05.17/outbox.cif.g08.bks.cpg/sg10_12_cif.got.tgz:22069.got - 2010.06.03 11:33:40.
