data_PCOD9153434
_publ_section_title
;
Structure prediction by ZEFSAII (Michael W. Deem and Ramdas Pophale) SiO2 
 PCOD9153434
Probable space group: P 2/M
;
_chemical_formula_sum "Si O2"
_cell_formula_units_Z 28
_cell_length_a 10.021833
_cell_length_b 19.537206
_cell_length_c 17.394382
_cell_angle_alpha 90.000000
_cell_angle_beta 26.944821
_cell_angle_gamma 90.000000
_cell_volume 1543.275800
_symmetry_space_group_name_H-M "P 2/M"
_symmetry_group_IT_number 10
_symmetry_cell_setting 'monoclinic'
loop_
_space_group_symop_operation_xyz
x,y,z
-x,y,-z
-x,-y,-z
x,-y,z
loop_
_atom_site_type_symbol
_atom_site_label
_atom_site_fract_x
_atom_site_fract_y
_atom_site_fract_z
Si Si1 0.136309 0.801338 0.345280
Si Si2 0.457030 0.920600 0.930799
Si Si3 0.202515 0.297323 0.821508
Si Si4 0.136668 0.424403 0.016864
Si Si5 0.536116 0.179596 0.570658
Si Si6 0.861643 0.079967 0.149787
Si Si7 0.319276 0.655789 0.308047
O O1 0.354127 0.862361 0.209043
O O2 0.285382 0.726135 0.276684
O O3 0.000000 0.814053 0.500000
O O4 0.863847 0.799093 0.426113
O O5 0.534746 0.000000 0.869646
O O6 0.500000 0.913563 0.000000
O O7 0.115416 0.911466 0.083299
O O8 0.296894 0.236281 0.718847
O O9 0.499946 0.323789 0.708541
O O10 0.000000 0.277843 0.000000
O O11 0.040651 0.359127 0.860331
O O12 0.101800 0.500000 0.068675
O O13 0.475542 0.400778 0.837252
O O14 0.000000 0.427819 0.000000
O O15 0.500000 0.164991 0.500000
O O16 0.437783 0.115049 0.671534
O O17 0.808391 0.000000 0.165516
O O18 0.000000 0.108336 0.000000
O O19 0.000000 0.632472 0.500000
#
# Coordination Sequence:
#
# PCOD9153434 Si02
#       7
#     4   4   4   4   4   4   4
#     4  11  21  35  54  78 108 141 176 220 270 324
#     4  10  22  39  55  75 106 141 180 227 274 316
#     4   9  18  33  55  75 106 145 177 217 255 320
#     4   8  16  29  51  82 108 139 178 218 261 312
#     4  12  23  34  53  82 110 139 179 224 273 317
#     4  10  22  38  57  78 102 141 187 223 266 326
#     4   9  16  30  51  77 110 136 173 217 265 305
#
# _framework density 18.143225000000001
#
# number of rings (size 3 to 8) (size 9 to 14) (size 15 to 20)
#    0.000    2.429    2.857    2.143    4.000    1.429 
#    0.000    0.000    0.000    0.429    0.000    1.000 
#    0.000    0.000    0.000    0.000    0.000    0.000 
#
# Total GULP energy -155997.888711 kJ/mol
# GULP energy per Si atom -5571.353168 kJ/mol
# Density = 1.810193 g / cm^3
# Si number density = 18.143225 Si / 1000 Ang^3
#
#
#
# Elastic Constant Matrix: (Units=GPa)
#
#
# Indices 1 2 3 4 5 6 
#
# 1 50.4997 -1.4818 6.1733 0.0000 -7.6069 0.0000
# 2 -1.4818 97.4142 28.2470 0.0000 -9.6055 0.0000
# 3 6.1733 28.2470 55.8382 0.0000 -17.9478 0.0000
# 4 0.0000 0.0000 0.0000 -11.0733 0.0000 -16.3002
# 5 -7.6069 -9.6055 -17.9478 0.0000 27.5377 0.0000
# 6 0.0000 0.0000 0.0000 -16.3002 0.0000 3.9643
#
#
#
# Elastic Compliance Matrix: (Units=1/GPa)
#
#
# Indices 1 2 3 4 5 6 
#
# 1 0.020792 0.001186 -0.001163 0.000000 0.005399 0.000000
# 2 0.001186 0.012100 -0.006059 0.000000 0.000599 0.000000
# 3 -0.001163 -0.006059 0.025705 0.000000 0.014319 0.000000
# 4 0.000000 0.000000 0.000000 -0.012805 0.000000 -0.052650
# 5 0.005399 0.000599 0.014319 0.000000 0.047346 0.000000
# 6 0.000000 0.000000 0.000000 -0.052650 0.000000 0.035767
#
#
# Mechanical properties :
#
#
# Convention : Reuss Voigt Hill
#
# Bulk Modulus (GPa) = 21.49447 29.95879 25.72663
# Shear Modulus (GPa) = 31.95149 15.47330 23.71240
#
# Velocity S-wave (km/s) = 4.20106 2.92351 3.61911
# Velocity P-wave (km/s) = 5.95019 5.28622 5.62800
#
# Compressibility (1/GPa) = 0.04652358
#
# Stress axis : x y z
#
# Youngs Moduli (GPa) = 48.09449 82.64745 38.90268
#
# Poissons Ratio (x) = -0.09802 0.04525
# Poissons Ratio (y) = -0.05704 0.23573
# Poissons Ratio (z) = 0.05595 0.50080
#
# Static dielectric constant tensor:
#      x y z
#    x 1.623010 0.000000 -0.010670 
#    y 0.000000 1.668720 0.000000 
#    z -0.010670 0.000000 1.637510 
# 
# From -- ./inp_files/62563.got.cif
#   From: 2010.05.17/outbox.cif.g08.bks.cpg/sg10_32_cif.got.tgz:62563.got - 2010.06.03 11:33:40.
