data_PCOD9153201
_publ_section_title
;
Structure prediction by ZEFSAII (Michael W. Deem and Ramdas Pophale) SiO2 
 PCOD9153201
Probable space group: P 2/M
;
_chemical_formula_sum "Si O2"
_cell_formula_units_Z 28
_cell_length_a 5.019107
_cell_length_b 15.994835
_cell_length_c 16.773963
_cell_angle_alpha 90.000000
_cell_angle_beta 118.945660
_cell_angle_gamma 90.000000
_cell_volume 1178.390458
_symmetry_space_group_name_H-M "P 2/M"
_symmetry_group_IT_number 10
_symmetry_cell_setting 'monoclinic'
loop_
_space_group_symop_operation_xyz
x,y,z
-x,y,-z
-x,-y,-z
x,-y,z
loop_
_atom_site_type_symbol
_atom_site_label
_atom_site_fract_x
_atom_site_fract_y
_atom_site_fract_z
Si Si1 0.367497 0.734562 0.394998
Si Si2 0.859280 0.667611 0.059150
Si Si3 0.098488 0.794703 0.789606
Si Si4 0.325150 0.911212 0.588143
Si Si5 0.084233 0.500000 0.725735
Si Si6 0.211780 0.500000 0.150971
Si Si7 0.427403 0.094746 0.210701
Si Si8 0.239782 0.405784 0.601999
O O1 0.500000 0.704484 0.500000
O O2 0.031982 0.755372 0.312082
O O3 0.514631 0.826267 0.411693
O O4 0.512476 0.666038 0.356738
O O5 0.051021 0.582646 0.096051
O O6 0.898487 0.723448 0.143231
O O7 0.500000 0.649810 0.000000
O O8 0.000000 0.709332 0.000000
O O9 0.865529 0.865806 0.788257
O O10 0.424906 0.838700 0.827416
O O11 0.317852 0.910932 0.682632
O O12 0.000000 0.910374 0.500000
O O13 0.481780 0.000000 0.589603
O O14 0.852078 0.500000 0.763498
O O15 0.074187 0.422943 0.662161
O O16 0.427091 0.500000 0.810806
O O17 0.373295 0.000000 0.173558
O O18 0.346613 0.500000 0.592827
O O19 0.000000 0.380705 0.500000
#
# Coordination Sequence:
#
# PCOD9153201 Si02
#       8
#     4   4   4   4   2   2   4   4
#     4  11  22  35  59  93 131 173 219 273 324 390
#     4  12  26  46  70  98 134 172 217 276 334 397
#     4  11  24  42  67 101 132 175 220 269 335 393
#     4   9  18  32  52  83 125 169 213 263 320 385
#     4  10  23  41  64  94 129 166 223 278 325 393
#     4  12  24  43  71 100 127 168 216 272 342 403
#     4  10  21  40  67  96 133 174 218 269 328 396
#     4   9  21  40  55  85 127 183 229 277 316 378
#
# _framework density 23.761223999999999
#
# number of rings (size 3 to 8) (size 9 to 14) (size 15 to 20)
#    0.429    1.143    0.000    4.714    0.000    6.857 
#    0.000    0.000    0.000    8.571    0.000    0.000 
#    0.000    0.000    0.000    0.000    0.000    0.000 
#
# Total GULP energy -156444.145861 kJ/mol
# GULP energy per Si atom -5587.290924 kJ/mol
# Density = 2.370714 g / cm^3
# Si number density = 23.761224 Si / 1000 Ang^3
#
#
#
# Elastic Constant Matrix: (Units=GPa)
#
#
# Indices 1 2 3 4 5 6 
#
# 1 64.8334 15.5549 -0.3326 0.0000 1.6454 0.0000
# 2 15.5549 111.9503 0.4616 0.0000 -0.5445 0.0000
# 3 -0.3326 0.4616 77.0817 0.0000 3.5493 0.0000
# 4 0.0000 0.0000 0.0000 22.4554 0.0000 -17.1064
# 5 1.6454 -0.5445 3.5493 0.0000 38.0570 0.0000
# 6 0.0000 0.0000 0.0000 -17.1064 0.0000 48.1912
#
#
#
# Elastic Compliance Matrix: (Units=1/GPa)
#
#
# Indices 1 2 3 4 5 6 
#
# 1 0.015977 -0.002224 0.000116 0.000000 -0.000733 0.000000
# 2 -0.002224 0.009243 -0.000076 0.000000 0.000235 0.000000
# 3 0.000116 -0.000076 0.013030 0.000000 -0.001221 0.000000
# 4 0.000000 0.000000 0.000000 0.061039 0.000000 0.021667
# 5 -0.000733 0.000235 -0.001221 0.000000 0.026425 0.000000
# 6 0.000000 0.000000 0.000000 0.021667 0.000000 0.028442
#
#
# Mechanical properties :
#
#
# Convention : Reuss Voigt Hill
#
# Bulk Modulus (GPa) = 29.51339 31.69259 30.60299
# Shear Modulus (GPa) = 29.44332 37.61947 33.53140
#
# Velocity S-wave (km/s) = 3.52395 3.98330 3.76064
# Velocity P-wave (km/s) = 5.38567 5.87558 5.63595
#
# Compressibility (1/GPa) = 0.03388293
#
# Stress axis : x y z
#
# Youngs Moduli (GPa) = 62.59020 108.18999 76.74337
#
# Poissons Ratio (x) = 0.24061 -0.00890
# Poissons Ratio (y) = 0.13920 0.00582
# Poissons Ratio (z) = -0.00726 0.00820
#
# Static dielectric constant tensor:
#      x y z
#    x 1.941690 0.000000 -0.040870 
#    y 0.000000 1.906860 0.000000 
#    z -0.040870 0.000000 1.948970 
# 
# From -- ./inp_files/73592.got.cif
#   From: 2010.05.17/outbox.cif.g08.bks.cpg/sg10_37_cif.got.tgz:73592.got - 2010.06.03 11:33:40.
