data_PCOD9153632
_publ_section_title
;
Structure prediction by ZEFSAII (Michael W. Deem and Ramdas Pophale) SiO2 
 PCOD9153632
Probable space group: P 2/M
;
_chemical_formula_sum "Si O2"
_cell_formula_units_Z 28
_cell_length_a 14.748933
_cell_length_b 13.857242
_cell_length_c 7.984693
_cell_angle_alpha 90.000000
_cell_angle_beta 54.032383
_cell_angle_gamma 90.000000
_cell_volume 1320.783096
_symmetry_space_group_name_H-M "P 2/M"
_symmetry_group_IT_number 10
_symmetry_cell_setting 'monoclinic'
loop_
_space_group_symop_operation_xyz
x,y,z
-x,y,-z
-x,-y,-z
x,-y,z
loop_
_atom_site_type_symbol
_atom_site_label
_atom_site_fract_x
_atom_site_fract_y
_atom_site_fract_z
Si Si1 0.234702 0.788716 0.629070
Si Si2 0.098087 0.393255 0.651949
Si Si3 0.175312 0.818041 0.191259
Si Si4 0.427595 0.887456 0.241384
Si Si5 0.355673 0.892437 0.784760
Si Si6 0.150461 0.393117 0.195764
Si Si7 0.053930 0.887507 0.660578
O O1 0.172318 0.687575 0.662700
O O2 0.325237 0.816478 0.387504
O O3 0.304512 0.811632 0.719495
O O4 0.134421 0.866097 0.726989
O O5 0.121785 0.500000 0.695007
O O6 0.123743 0.395187 0.424352
O O7 0.963362 0.380005 0.790393
O O8 0.213244 0.708326 0.117487
O O9 0.118361 0.836807 0.433932
O O10 0.068608 0.842888 0.190642
O O11 0.277644 0.886495 0.035139
O O12 0.517218 0.880197 0.295074
O O13 0.390921 0.000000 0.269694
O O14 0.500000 0.863822 0.000000
O O15 0.342822 0.000000 0.724643
O O16 0.196948 0.500000 0.104315
O O17 0.043979 0.000000 0.637159
#
# Coordination Sequence:
#
# PCOD9153632 Si02
#       7
#     4   4   4   4   4   4   4
#     4  12  21  36  57  82 114 147 187 230 285 340
#     4   9  17  33  58  86 112 145 189 236 282 328
#     4  11  19  35  53  81 115 148 188 235 272 330
#     4  10  22  40  61  82 105 144 196 238 272 327
#     4  11  24  38  54  80 118 157 187 225 279 340
#     4   9  16  32  57  84 112 146 194 238 273 323
#     4  11  20  31  52  80 111 149 186 228 276 332
#
# _framework density 21.199545000000001
#
# number of rings (size 3 to 8) (size 9 to 14) (size 15 to 20)
#    0.000    1.571    2.857    6.000    0.000    2.857 
#    0.000    2.143    0.000    4.714    0.000    0.000 
#    0.000    0.000    0.000    0.000    0.000    0.000 
#
# Total GULP energy -156270.188272 kJ/mol
# GULP energy per Si atom -5581.078153 kJ/mol
# Density = 2.115129 g / cm^3
# Si number density = 21.199545 Si / 1000 Ang^3
#
#
#
# Elastic Constant Matrix: (Units=GPa)
#
#
# Indices 1 2 3 4 5 6 
#
# 1 84.0963 28.9615 -2.5308 0.0000 3.7875 0.0000
# 2 28.9615 155.1899 1.5818 0.0000 5.4613 0.0000
# 3 -2.5308 1.5818 46.2251 0.0000 3.7558 0.0000
# 4 0.0000 0.0000 0.0000 15.1842 0.0000 2.8480
# 5 3.7875 5.4613 3.7558 0.0000 24.9622 0.0000
# 6 0.0000 0.0000 0.0000 2.8480 0.0000 32.3747
#
#
#
# Elastic Compliance Matrix: (Units=1/GPa)
#
#
# Indices 1 2 3 4 5 6 
#
# 1 0.012796 -0.002342 0.000908 0.000000 -0.001566 0.000000
# 2 -0.002342 0.006923 -0.000274 0.000000 -0.001118 0.000000
# 3 0.000908 -0.000274 0.021967 0.000000 -0.003383 0.000000
# 4 0.000000 0.000000 0.000000 0.066963 0.000000 -0.005891
# 5 -0.001566 -0.001118 -0.003383 0.000000 0.041052 0.000000
# 6 0.000000 0.000000 0.000000 -0.005891 0.000000 0.031407
#
#
# Mechanical properties :
#
#
# Convention : Reuss Voigt Hill
#
# Bulk Modulus (GPa) = 26.13096 37.94850 32.03973
# Shear Modulus (GPa) = 25.34467 31.67079 28.50773
#
# Velocity S-wave (km/s) = 3.46139 3.86934 3.67104
# Velocity P-wave (km/s) = 5.32240 6.15645 5.75456
#
# Compressibility (1/GPa) = 0.03826878
#
# Stress axis : x y z
#
# Youngs Moduli (GPa) = 78.15232 144.44750 45.52236
#
# Poissons Ratio (x) = 0.33830 -0.04133
# Poissons Ratio (y) = 0.18304 0.01249
# Poissons Ratio (z) = -0.07095 0.03962
#
# Static dielectric constant tensor:
#      x y z
#    x 1.804390 0.000000 0.088160 
#    y 0.000000 1.763410 0.000000 
#    z 0.088160 0.000000 1.856920 
# 
# From -- ./inp_files/28977.got.cif
#   From: 2010.05.17/outbox.cif.g08.bks.cpg/sg10_15_cif.got.tgz:28977.got - 2010.06.03 11:33:40.
