data_PCOD9153035
_publ_section_title
;
Structure prediction by ZEFSAII (Michael W. Deem and Ramdas Pophale) SiO2 
 PCOD9153035
Probable space group: P 2/M
;
_chemical_formula_sum "Si O2"
_cell_formula_units_Z 28
_cell_length_a 19.232603
_cell_length_b 9.024994
_cell_length_c 14.125054
_cell_angle_alpha 90.000000
_cell_angle_beta 145.693607
_cell_angle_gamma 90.000000
_cell_volume 1381.847541
_symmetry_space_group_name_H-M "P 2/M"
_symmetry_group_IT_number 10
_symmetry_cell_setting 'monoclinic'
loop_
_space_group_symop_operation_xyz
x,y,z
-x,y,-z
-x,-y,-z
x,-y,z
loop_
_atom_site_type_symbol
_atom_site_label
_atom_site_fract_x
_atom_site_fract_y
_atom_site_fract_z
Si Si1 0.115882 0.671085 0.058512
Si Si2 0.528701 0.674757 0.640862
Si Si3 0.712808 0.170399 0.602285
Si Si4 0.939853 0.179150 0.205321
Si Si5 0.209184 0.171340 0.519172
Si Si6 0.533630 0.670981 0.148204
Si Si7 0.674492 0.823963 0.958141
O O1 0.156981 0.500000 0.092803
O O2 0.217854 0.765255 0.229183
O O3 0.080301 0.741314 0.918223
O O4 0.000000 0.670806 0.000000
O O5 0.500000 0.712148 0.500000
O O6 0.548621 0.500000 0.671055
O O7 0.404225 0.727790 0.551859
O O8 0.637720 0.763030 0.813032
O O9 0.795228 0.174220 0.600716
O O10 0.674193 0.000000 0.573964
O O11 0.073185 0.223036 0.397244
O O12 0.943287 0.000000 0.194530
O O13 0.819245 0.211376 0.133269
O O14 0.330760 0.259002 0.685958
O O15 0.226310 0.000000 0.567316
O O16 0.536603 0.500000 0.182553
O O17 0.423644 0.751847 0.081257
O O18 0.500000 0.677685 0.000000
O O19 0.658826 0.000000 0.943270
#
# Coordination Sequence:
#
# PCOD9153035 Si02
#       7
#     4   4   4   4   4   4   4
#     4  11  22  33  50  81 122 169 216 255 301 359
#     4  11  23  37  55  82 122 166 208 255 305 360
#     4  11  21  34  56  82 114 158 209 257 302 353
#     4  10  22  40  61  88 125 165 208 255 308 364
#     4  10  21  39  64  92 120 156 202 252 305 364
#     4  11  25  45  70  97 124 158 201 255 319 381
#     4  11  23  40  64  93 124 163 206 256 313 369
#
# _framework density 20.262727000000002
#
# number of rings (size 3 to 8) (size 9 to 14) (size 15 to 20)
#    0.000    1.286    2.857    3.000    0.000    7.429 
#    0.000    0.714    0.000    4.286    0.000    0.000 
#    0.000    0.000    0.000    0.000    0.000    0.000 
#
# Total GULP energy -156420.228515 kJ/mol
# GULP energy per Si atom -5586.436733 kJ/mol
# Density = 2.021661 g / cm^3
# Si number density = 20.262727 Si / 1000 Ang^3
#
#
#
# Elastic Constant Matrix: (Units=GPa)
#
#
# Indices 1 2 3 4 5 6 
#
# 1 78.8881 44.4301 54.6952 0.0000 28.9253 0.0000
# 2 44.4301 78.4809 52.2933 0.0000 16.6057 0.0000
# 3 54.6952 52.2933 115.2284 0.0000 33.8849 0.0000
# 4 0.0000 0.0000 0.0000 23.3441 0.0000 -23.0833
# 5 28.9253 16.6057 33.8849 0.0000 38.5250 0.0000
# 6 0.0000 0.0000 0.0000 -23.0833 0.0000 -123.8269
#
#
#
# Elastic Compliance Matrix: (Units=1/GPa)
#
#
# Indices 1 2 3 4 5 6 
#
# 1 0.024683 -0.008600 -0.004659 0.000000 -0.010728 0.000000
# 2 -0.008600 0.021279 -0.006443 0.000000 0.002952 0.000000
# 3 -0.004659 -0.006443 0.016144 0.000000 -0.007925 0.000000
# 4 0.000000 0.000000 0.000000 0.036170 0.000000 -0.006743
# 5 -0.010728 0.002952 -0.007925 0.000000 0.039710 0.000000
# 6 0.000000 0.000000 0.000000 -0.006743 0.000000 -0.006819
#
#
# Mechanical properties :
#
#
# Convention : Reuss Voigt Hill
#
# Bulk Modulus (GPa) = 44.04580 63.93715 53.99148
# Shear Modulus (GPa) = 28.06816 -4.31297 11.87759
#
# Velocity S-wave (km/s) = 3.72588 -1.46053 2.42374
# Velocity P-wave (km/s) = 6.34776 5.36455 5.87675
#
# Compressibility (1/GPa) = 0.02270364
#
# Stress axis : x y z
#
# Youngs Moduli (GPa) = 40.51336 46.99496 61.94216
#
# Poissons Ratio (x) = 0.40414 0.28858
# Poissons Ratio (y) = 0.34840 0.39908
# Poissons Ratio (z) = 0.18875 0.30278
#
# Static dielectric constant tensor:
#      x y z
#    x 1.769620 0.000000 0.042270 
#    y 0.000000 1.684150 0.000000 
#    z 0.042270 0.000000 1.728230 
# 
# From -- ./inp_files/70291.got.cif
#   From: 2010.05.17/outbox.cif.g08.bks.cpg/sg10_36_cif.got.tgz:70291.got - 2010.06.03 11:33:40.
