data_PCOD9153040
_publ_section_title
;
Structure prediction by ZEFSAII (Michael W. Deem and Ramdas Pophale) SiO2 
 PCOD9153040
Probable space group: P 2/M
;
_chemical_formula_sum "Si O2"
_cell_formula_units_Z 22
_cell_length_a 7.734314
_cell_length_b 25.399066
_cell_length_c 5.488208
_cell_angle_alpha 90.000000
_cell_angle_beta 116.076227
_cell_angle_gamma 90.000000
_cell_volume 968.384908
_symmetry_space_group_name_H-M "P 2/M"
_symmetry_group_IT_number 10
_symmetry_cell_setting 'monoclinic'
loop_
_space_group_symop_operation_xyz
x,y,z
-x,y,-z
-x,-y,-z
x,-y,z
loop_
_atom_site_type_symbol
_atom_site_label
_atom_site_fract_x
_atom_site_fract_y
_atom_site_fract_z
Si Si1 0.621031 0.500000 0.323066
Si Si2 0.000000 0.170359 0.500000
Si Si3 0.783611 0.785285 0.756644
Si Si4 0.763291 0.329115 0.849042
Si Si5 0.299593 0.885928 0.022679
Si Si6 0.376127 0.000000 0.176422
Si Si7 0.227383 0.615966 0.642978
O O1 0.500000 0.500000 0.500000
O O2 0.736924 0.554301 0.377039
O O3 0.500000 0.500000 0.000000
O O4 0.835159 0.208891 0.505424
O O5 0.882555 0.131976 0.250010
O O6 0.695392 0.731476 0.798108
O O7 0.683261 0.838883 0.772951
O O8 0.000000 0.786429 0.000000
O O9 0.701732 0.354580 0.555047
O O10 0.704169 0.361886 0.052210
O O11 0.000000 0.328203 0.000000
O O12 0.500000 0.886790 0.000000
O O13 0.267074 0.944265 0.106074
O O14 0.500000 0.000000 0.500000
O O15 0.500000 0.000000 0.000000
O O16 0.000000 0.625091 0.500000
#
# Coordination Sequence:
#
# PCOD9153040 Si02
#       7
#     2   2   4   4   4   2   4
#     4  12  25  42  63  84 130 170 198 264 327 366
#     4  10  22  39  66  96 130 171 218 268 334 410
#     4   9  20  36  61  95 127 167 206 260 330 391
#     4   9  19  34  63  93 124 156 205 260 310 366
#     4  10  23  41  66  93 129 172 223 272 334 392
#     4  10  24  43  67  93 130 175 221 281 331 392
#     4  10  21  39  64  93 116 163 214 254 300 378
#
# _framework density 22.718240000000002
#
# number of rings (size 3 to 8) (size 9 to 14) (size 15 to 20)
#    0.000    2.182    0.000    1.364   14.000    0.364 
#    0.000   10.455    4.000    0.000    0.000    0.000 
#    0.000    0.000    0.000    0.000    0.000    0.000 
#
# Total GULP energy -122798.381327 kJ/mol
# GULP energy per Si atom -5581.744606 kJ/mol
# Density = 2.266653 g / cm^3
# Si number density = 22.718240 Si / 1000 Ang^3
#
#
#
# Elastic Constant Matrix: (Units=GPa)
#
#
# Indices 1 2 3 4 5 6 
#
# 1 81.4442 34.8796 25.9796 0.0000 -16.9212 0.0000
# 2 34.8796 207.5712 53.1747 0.0000 -37.4412 0.0000
# 3 25.9796 53.1747 129.4397 0.0000 -26.9456 0.0000
# 4 0.0000 0.0000 0.0000 64.8975 0.0000 24.9720
# 5 -16.9212 -37.4412 -26.9456 0.0000 32.5721 0.0000
# 6 0.0000 0.0000 0.0000 24.9720 0.0000 36.5290
#
#
#
# Elastic Compliance Matrix: (Units=1/GPa)
#
#
# Indices 1 2 3 4 5 6 
#
# 1 0.014232 -0.001152 -0.001353 0.000000 0.004950 0.000000
# 2 -0.001152 0.006346 -0.001186 0.000000 0.005715 0.000000
# 3 -0.001353 -0.001186 0.009730 0.000000 0.005983 0.000000
# 4 0.000000 0.000000 0.000000 0.020909 0.000000 -0.014294
# 5 0.004950 0.005715 0.005983 0.000000 0.044791 0.000000
# 6 0.000000 0.000000 0.000000 -0.014294 0.000000 0.037147
#
#
# Mechanical properties :
#
#
# Convention : Reuss Voigt Hill
#
# Bulk Modulus (GPa) = 43.61884 71.83586 57.72735
# Shear Modulus (GPa) = 33.74307 47.09446 40.41877
#
# Velocity S-wave (km/s) = 3.85812 4.55794 4.22255
# Velocity P-wave (km/s) = 6.25207 7.70641 7.01702
#
# Compressibility (1/GPa) = 0.02292587
#
# Stress axis : x y z
#
# Youngs Moduli (GPa) = 70.26591 157.58266 102.77677
#
# Poissons Ratio (x) = 0.18154 0.13902
# Poissons Ratio (y) = 0.08095 0.12190
# Poissons Ratio (z) = 0.09505 0.18690
#
# Static dielectric constant tensor:
#      x y z
#    x 1.948530 0.000000 -0.095210 
#    y 0.000000 1.985660 0.000000 
#    z -0.095210 0.000000 1.957620 
# 
# From -- ./inp_files/5215.got.cif
#   From: 2010.05.17/outbox.cif.g08.bks.cpg/sg10_3_cif.got.tgz:5215.got - 2010.06.03 11:33:40.
