data_PCOD9153394
_publ_section_title
;
Structure prediction by ZEFSAII (Michael W. Deem and Ramdas Pophale) SiO2 
 PCOD9153394
Probable space group: P 2/M
;
_chemical_formula_sum "Si O2"
_cell_formula_units_Z 24
_cell_length_a 14.661815
_cell_length_b 12.994487
_cell_length_c 9.906067
_cell_angle_alpha 90.000000
_cell_angle_beta 152.094553
_cell_angle_gamma 90.000000
_cell_volume 883.297136
_symmetry_space_group_name_H-M "P 2/M"
_symmetry_group_IT_number 10
_symmetry_cell_setting 'monoclinic'
loop_
_space_group_symop_operation_xyz
x,y,z
-x,y,-z
-x,-y,-z
x,-y,z
loop_
_atom_site_type_symbol
_atom_site_label
_atom_site_fract_x
_atom_site_fract_y
_atom_site_fract_z
Si Si1 0.547055 0.886296 0.892483
Si Si2 0.917599 0.385868 0.200208
Si Si3 0.604548 0.653760 0.999595
Si Si4 0.297519 0.113842 0.201515
Si Si5 0.122023 0.208726 0.328895
Si Si6 0.277449 0.617042 0.346346
O O1 0.617037 0.776820 0.038741
O O2 0.666998 0.890601 0.910538
O O3 0.311576 0.865843 0.580462
O O4 0.587960 0.000000 0.002258
O O5 0.003434 0.500000 0.296165
O O6 0.070890 0.293699 0.378254
O O7 0.236190 0.373512 0.130203
O O8 0.806063 0.381233 0.196403
O O9 0.468752 0.626885 0.691474
O O10 0.500000 0.613965 0.000000
O O11 0.500000 0.174034 0.500000
O O12 0.314853 0.000000 0.288735
O O13 0.079601 0.147872 0.945257
O O14 0.171739 0.286457 0.273758
O O15 0.211913 0.500000 0.287458
#
# Coordination Sequence:
#
# PCOD9153394 Si02
#       6
#     4   4   4   4   4   4
#     4  10  23  42  65  96 135 181 229 276 337 408
#     4  11  23  40  66  99 136 179 226 277 336 401
#     4  11  24  43  70 100 136 179 231 283 343 403
#     4  10  22  37  59  97 139 178 222 276 344 406
#     4  11  22  37  68  99 140 176 224 279 338 395
#     4  10  23  41  65  99 138 181 227 278 338 405
#
# _framework density 27.170925
#
# number of rings (size 3 to 8) (size 9 to 14) (size 15 to 20)
#    0.000    1.500    1.667    2.500    7.000    4.333 
#    0.000    5.833    0.000    8.500    0.000    0.000 
#    0.000    0.000    0.000    0.000    0.000    0.000 
#
# Total GULP energy -133749.505383 kJ/mol
# GULP energy per Si atom -5572.896058 kJ/mol
# Density = 2.710908 g / cm^3
# Si number density = 27.170925 Si / 1000 Ang^3
#
#
#
# Elastic Constant Matrix: (Units=GPa)
#
#
# Indices 1 2 3 4 5 6 
#
# 1 194.9110 15.7358 35.9647 0.0000 17.8891 0.0000
# 2 15.7358 161.7630 30.4405 0.0000 1.8060 0.0000
# 3 35.9647 30.4405 153.0010 0.0000 24.3083 0.0000
# 4 0.0000 0.0000 0.0000 -3.6259 0.0000 0.8776
# 5 17.8891 1.8060 24.3083 0.0000 43.6471 0.0000
# 6 0.0000 0.0000 0.0000 0.8776 0.0000 58.2733
#
#
#
# Elastic Compliance Matrix: (Units=1/GPa)
#
#
# Indices 1 2 3 4 5 6 
#
# 1 0.005490 -0.000336 -0.000953 0.000000 -0.001706 0.000000
# 2 -0.000336 0.006452 -0.001299 0.000000 0.000594 0.000000
# 3 -0.000953 -0.001299 0.007622 0.000000 -0.003801 0.000000
# 4 0.000000 0.000000 0.000000 -0.274790 0.000000 0.004138
# 5 -0.001706 0.000594 -0.003801 0.000000 0.025702 0.000000
# 6 0.000000 0.000000 0.000000 0.004138 0.000000 0.017098
#
#
# Mechanical properties :
#
#
# Convention : Reuss Voigt Hill
#
# Bulk Modulus (GPa) = 69.49632 74.88411 72.19022
# Shear Modulus (GPa) = -24.69712 48.16115 11.73202
#
# Velocity S-wave (km/s) = -3.01816 4.21470 2.08020
# Velocity P-wave (km/s) = 3.67250 7.16276 5.69177
#
# Compressibility (1/GPa) = 0.01438925
#
# Stress axis : x y z
#
# Youngs Moduli (GPa) = 182.14975 154.98114 131.19576
#
# Poissons Ratio (x) = 0.05203 0.12499
# Poissons Ratio (y) = 0.06115 0.17045
# Poissons Ratio (z) = 0.17354 0.20136
#
# Static dielectric constant tensor:
#      x y z
#    x 2.583180 0.000000 0.107770 
#    y 0.000000 2.210860 0.000000 
#    z 0.107770 0.000000 2.408800 
# 
# From -- ./inp_files/51441.got.cif
#   From: 2010.05.17/outbox.cif.g08.bks.cpg/sg10_26_cif.got.tgz:51441.got - 2010.06.03 11:33:40.
