data_PCOD9153541
_publ_section_title
;
Structure prediction by ZEFSAII (Michael W. Deem and Ramdas Pophale) SiO2 
 PCOD9153541
Probable space group: P 2/M
;
_chemical_formula_sum "Si O2"
_cell_formula_units_Z 20
_cell_length_a 10.338310
_cell_length_b 7.761215
_cell_length_c 29.422853
_cell_angle_alpha 90.000000
_cell_angle_beta 26.551330
_cell_angle_gamma 90.000000
_cell_volume 1055.287935
_symmetry_space_group_name_H-M "P 2/M"
_symmetry_group_IT_number 10
_symmetry_cell_setting 'monoclinic'
loop_
_space_group_symop_operation_xyz
x,y,z
-x,y,-z
-x,-y,-z
x,-y,z
loop_
_atom_site_type_symbol
_atom_site_label
_atom_site_fract_x
_atom_site_fract_y
_atom_site_fract_z
Si Si1 0.886666 0.203770 0.233257
Si Si2 0.228142 0.207974 0.466335
Si Si3 0.815621 0.298424 0.416163
Si Si4 0.270166 0.500000 0.948422
Si Si5 0.720607 0.193607 0.800595
Si Si6 0.831074 0.500000 0.913394
O O1 0.555913 0.250629 0.348994
O O2 0.079025 0.227004 0.218178
O O3 0.013189 0.330907 0.155780
O O4 0.897512 0.000000 0.217576
O O5 0.160546 0.279133 0.537384
O O6 0.000000 0.265485 0.500000
O O7 0.212496 0.000000 0.474401
O O8 0.500000 0.231350 0.500000
O O9 0.828689 0.500000 0.399395
O O10 0.069449 0.207745 0.308778
O O11 0.471332 0.334003 0.877058
O O12 0.170200 0.500000 0.032061
O O13 0.000000 0.500000 0.000000
O O14 0.604634 0.000000 0.840723
O O15 0.500000 0.500000 0.000000
#
# Coordination Sequence:
#
# PCOD9153541 Si02
#       6
#     4   4   4   2   4   2
#     4  10  22  40  67  97 125 163 213 259 306 371
#     4  10  22  39  59  92 134 168 203 251 306 370
#     4  11  22  35  63  96 129 169 210 252 304 376
#     4  12  28  48  64  95 129 158 210 273 331 373
#     4  11  22  41  69  95 125 166 214 260 313 379
#     4  12  24  42  70  90 121 162 213 271 314 373
#
# _framework density 18.952172999999998
#
# number of rings (size 3 to 8) (size 9 to 14) (size 15 to 20)
#    0.000    1.200    5.000    0.600    1.400    4.400 
#    0.000    2.000    0.000    0.000    0.000    0.000 
#    0.000    0.000    0.000    0.000    0.000    0.000 
#
# Total GULP energy -111831.956468 kJ/mol
# GULP energy per Si atom -5591.597823 kJ/mol
# Density = 1.890904 g / cm^3
# Si number density = 18.952173 Si / 1000 Ang^3
#
#
#
# Elastic Constant Matrix: (Units=GPa)
#
#
# Indices 1 2 3 4 5 6 
#
# 1 144.3755 53.9173 75.8634 0.0000 -0.9463 0.0000
# 2 53.9173 99.6111 76.9032 0.0000 -9.1451 0.0000
# 3 75.8634 76.9032 133.2857 0.0000 6.5741 0.0000
# 4 0.0000 0.0000 0.0000 66.6991 0.0000 98.4721
# 5 -0.9463 -9.1451 6.5741 0.0000 37.8804 0.0000
# 6 0.0000 0.0000 0.0000 98.4721 0.0000 158.4398
#
#
#
# Elastic Compliance Matrix: (Units=1/GPa)
#
#
# Indices 1 2 3 4 5 6 
#
# 1 0.010083 -0.001694 -0.004795 0.000000 0.000675 0.000000
# 2 -0.001694 0.019976 -0.010891 0.000000 0.006671 0.000000
# 3 -0.004795 -0.010891 0.016795 0.000000 -0.005664 0.000000
# 4 0.000000 0.000000 0.000000 0.181897 0.000000 -0.113051
# 5 0.000675 0.006671 -0.005664 0.000000 0.029009 0.000000
# 6 0.000000 0.000000 0.000000 -0.113051 0.000000 0.076574
#
#
# Mechanical properties :
#
#
# Convention : Reuss Voigt Hill
#
# Bulk Modulus (GPa) = 82.67879 87.84893 85.26386
# Shear Modulus (GPa) = 13.40030 63.97642 38.68836
#
# Velocity S-wave (km/s) = 2.66194 5.81636 4.52305
# Velocity P-wave (km/s) = 7.29161 9.56872 8.50670
#
# Compressibility (1/GPa) = 0.01209500
#
# Stress axis : x y z
#
# Youngs Moduli (GPa) = 99.17739 50.05893 59.54099
#
# Poissons Ratio (x) = 0.08479 0.28550
# Poissons Ratio (y) = 0.16798 0.64846
# Poissons Ratio (z) = 0.47556 0.54519
#
# Static dielectric constant tensor:
#      x y z
#    x 1.627060 0.000000 -0.005360 
#    y 0.000000 1.671090 0.000000 
#    z -0.005360 0.000000 1.623090 
# 
# From -- ./inp_files/91760.got.cif
#   From: 2010.05.17/outbox.cif.g08.bks.cpg/sg10_46_cif.got.tgz:91760.got - 2010.06.03 11:33:40.
