data_PCOD9153033
_publ_section_title
;
Structure prediction by ZEFSAII (Michael W. Deem and Ramdas Pophale) SiO2 
 PCOD9153033
Probable space group: P 2/M
;
_chemical_formula_sum "Si O2"
_cell_formula_units_Z 32
_cell_length_a 11.705076
_cell_length_b 13.576026
_cell_length_c 9.081749
_cell_angle_alpha 90.000000
_cell_angle_beta 90.837325
_cell_angle_gamma 90.000000
_cell_volume 1443.012242
_symmetry_space_group_name_H-M "P 2/M"
_symmetry_group_IT_number 10
_symmetry_cell_setting 'monoclinic'
loop_
_space_group_symop_operation_xyz
x,y,z
-x,y,-z
-x,-y,-z
x,-y,z
loop_
_atom_site_type_symbol
_atom_site_label
_atom_site_fract_x
_atom_site_fract_y
_atom_site_fract_z
Si Si1 0.916066 0.251785 0.885682
Si Si2 0.616114 0.882719 0.938248
Si Si3 0.078285 0.382220 0.362957
Si Si4 0.413895 0.616294 0.714527
Si Si5 0.115841 0.883786 0.601656
Si Si6 0.767969 0.883659 0.686376
Si Si7 0.230274 0.760524 0.858002
Si Si8 0.341735 0.385121 0.370830
O O1 0.968422 0.338842 0.789775
O O2 0.867469 0.171944 0.774278
O O3 0.825015 0.293626 0.000968
O O4 0.000000 0.199587 0.000000
O O5 0.711093 0.852610 0.058070
O O6 0.605258 0.000000 0.932714
O O7 0.500000 0.839137 0.000000
O O8 0.655280 0.852863 0.774569
O O9 0.078241 0.500000 0.365102
O O10 0.211303 0.346384 0.362907
O O11 0.000000 0.350933 0.500000
O O12 0.405238 0.500000 0.758921
O O13 0.325338 0.688137 0.792971
O O14 0.547634 0.648446 0.720633
O O15 0.377986 0.619848 0.541962
O O16 0.219223 0.868030 0.486314
O O17 0.145922 0.808179 0.733469
O O18 0.000000 0.869890 0.500000
O O19 0.114362 0.000000 0.646981
O O20 0.783160 0.000000 0.707842
O O21 0.330925 0.500000 0.330708
#
# Coordination Sequence:
#
# PCOD9153033 Si02
#       8
#     4   4   4   4   4   4   4   4
#     4  11  25  38  56  88 125 160 199 251 306 375
#     4   9  19  39  61  83 121 164 201 250 313 381
#     4  10  23  42  66  90 118 163 209 254 308 367
#     4   9  19  36  60  89 122 158 198 252 311 367
#     4  10  21  39  64  91 121 161 212 267 316 371
#     4   9  20  39  61  83 113 157 204 251 302 360
#     4  11  23  37  59  94 124 162 207 257 319 381
#     4   8  17  38  62  86 113 153 209 254 299 360
#
# _framework density 22.175836
#
# number of rings (size 3 to 8) (size 9 to 14) (size 15 to 20)
#    0.000    2.375    0.000    1.875    3.500    4.000 
#    2.250    0.000    0.000    6.000    0.000    0.000 
#    0.000    0.000    0.000    0.000    0.000    0.000 
#
# Total GULP energy -178331.796991 kJ/mol
# GULP energy per Si atom -5572.868656 kJ/mol
# Density = 2.212536 g / cm^3
# Si number density = 22.175836 Si / 1000 Ang^3
#
#
#
# Elastic Constant Matrix: (Units=GPa)
#
#
# Indices 1 2 3 4 5 6 
#
# 1 90.1836 27.7679 51.3970 0.0000 -18.4597 0.0000
# 2 27.7679 83.1965 35.7044 0.0000 -8.2614 0.0000
# 3 51.3970 35.7044 115.8433 0.0000 -32.2607 0.0000
# 4 0.0000 0.0000 0.0000 20.0202 0.0000 -4.6363
# 5 -18.4597 -8.2614 -32.2607 0.0000 39.7639 0.0000
# 6 0.0000 0.0000 0.0000 -4.6363 0.0000 28.5432
#
#
#
# Elastic Compliance Matrix: (Units=1/GPa)
#
#
# Indices 1 2 3 4 5 6 
#
# 1 0.015439 -0.002602 -0.005429 0.000000 0.002222 0.000000
# 2 -0.002602 0.014308 -0.003571 0.000000 -0.001132 0.000000
# 3 -0.005429 -0.003571 0.014512 0.000000 0.008511 0.000000
# 4 0.000000 0.000000 0.000000 0.051902 0.000000 0.008431
# 5 0.002222 -0.001132 0.008511 0.000000 0.032850 0.000000
# 6 0.000000 0.000000 0.000000 0.008431 0.000000 0.036404
#
#
# Mechanical properties :
#
#
# Convention : Reuss Voigt Hill
#
# Bulk Modulus (GPa) = 47.49512 57.66246 52.57879
# Shear Modulus (GPa) = 25.55755 29.28907 27.42331
#
# Velocity S-wave (km/s) = 3.39853 3.63818 3.52039
# Velocity P-wave (km/s) = 6.07157 6.61115 6.34710
#
# Compressibility (1/GPa) = 0.02105479
#
# Stress axis : x y z
#
# Youngs Moduli (GPa) = 64.77283 69.88970 68.90895
#
# Poissons Ratio (x) = 0.18188 0.37410
# Poissons Ratio (y) = 0.16856 0.24606
# Poissons Ratio (z) = 0.35164 0.24956
#
# Static dielectric constant tensor:
#      x y z
#    x 2.000300 0.000000 -0.041150 
#    y 0.000000 1.793890 0.000000 
#    z -0.041150 0.000000 1.800630 
# 
# From -- ./inp_files/25326.got.cif
#   From: 2010.05.17/outbox.cif.g08.bks.cpg/sg10_13_cif.got.tgz:25326.got - 2010.06.03 11:33:40.
