data_PCOD9153019
_publ_section_title
;
Structure prediction by ZEFSAII (Michael W. Deem and Ramdas Pophale) SiO2 
 PCOD9153019
Probable space group: P 2/M
;
_chemical_formula_sum "Si O2"
_cell_formula_units_Z 30
_cell_length_a 29.538403
_cell_length_b 12.013542
_cell_length_c 23.563767
_cell_angle_alpha 90.000000
_cell_angle_beta 169.811726
_cell_angle_gamma 90.000000
_cell_volume 1479.073200
_symmetry_space_group_name_H-M "P 2/M"
_symmetry_group_IT_number 10
_symmetry_cell_setting 'monoclinic'
loop_
_space_group_symop_operation_xyz
x,y,z
-x,y,-z
-x,-y,-z
x,-y,z
loop_
_atom_site_type_symbol
_atom_site_label
_atom_site_fract_x
_atom_site_fract_y
_atom_site_fract_z
Si Si1 0.255626 0.772641 0.776612
Si Si2 0.843011 0.869893 0.865108
Si Si3 0.301717 0.372252 0.624401
Si Si4 0.670387 0.176250 0.959136
Si Si5 0.125802 0.207067 0.322426
Si Si6 0.898241 0.000000 0.463243
Si Si7 0.653966 0.870188 0.807752
Si Si8 0.009904 0.373125 0.381837
O O1 0.215286 0.690050 0.674056
O O2 0.000000 0.771269 0.500000
O O3 0.279088 0.899685 0.784106
O O4 0.485413 0.718802 0.095481
O O5 0.560364 0.826824 0.500294
O O6 0.831134 0.000000 0.870360
O O7 0.000000 0.868803 0.000000
O O8 0.986692 0.800250 0.090292
O O9 0.395770 0.500000 0.737004
O O10 0.175634 0.327997 0.411029
O O11 0.100098 0.368702 0.427904
O O12 0.400648 0.148428 0.654524
O O13 0.635337 0.172395 0.848437
O O14 0.754893 0.302129 0.076297
O O15 0.900987 0.096748 0.264053
O O16 0.935834 0.147636 0.131718
O O17 0.594896 0.000000 0.739000
O O18 0.985449 0.500000 0.369497
#
# Coordination Sequence:
#
# PCOD9153019 Si02
#       8
#     4   4   4   4   4   2   4   4
#     4  11  23  41  61  91 127 173 214 265 323 389
#     4  10  21  39  63  95 134 178 213 260 314 383
#     4  11  24  43  66  93 124 167 224 277 325 382
#     4  11  22  39  63  95 130 171 211 266 320 377
#     4  12  24  38  66  98 127 172 221 271 321 377
#     4  10  23  40  61  89 139 171 206 261 327 390
#     4  11  22  39  62  93 137 172 215 254 317 393
#     4  10  22  43  66  88 123 167 220 276 325 378
#
# _framework density 20.282972999999998
#
# number of rings (size 3 to 8) (size 9 to 14) (size 15 to 20)
#    0.000    1.200    3.333    3.400    1.867    4.800 
#    2.400    5.333    0.000    2.800    0.000    0.000 
#    0.000    0.000    0.000    0.000    0.000    0.000 
#
# Total GULP energy -167070.002331 kJ/mol
# GULP energy per Si atom -5569.000078 kJ/mol
# Density = 2.023681 g / cm^3
# Si number density = 20.282973 Si / 1000 Ang^3
#
#
#
# Elastic Constant Matrix: (Units=GPa)
#
#
# Indices 1 2 3 4 5 6 
#
# 1 93.7037 36.1029 29.6995 0.0000 -17.7266 0.0000
# 2 36.1029 152.0911 45.1942 0.0000 -28.2529 0.0000
# 3 29.6995 45.1942 88.2809 0.0000 -19.8504 0.0000
# 4 0.0000 0.0000 0.0000 16.8463 0.0000 -8.2218
# 5 -17.7266 -28.2529 -19.8504 0.0000 32.4158 0.0000
# 6 0.0000 0.0000 0.0000 -8.2218 0.0000 0.8538
#
#
#
# Elastic Compliance Matrix: (Units=1/GPa)
#
#
# Indices 1 2 3 4 5 6 
#
# 1 0.012865 -0.001508 -0.002632 0.000000 0.004109 0.000000
# 2 -0.001508 0.008706 -0.002817 0.000000 0.005038 0.000000
# 3 -0.002632 -0.002817 0.014820 0.000000 0.005181 0.000000
# 4 0.000000 0.000000 0.000000 -0.016044 0.000000 -0.154502
# 5 0.004109 0.005038 0.005181 0.000000 0.040660 0.000000
# 6 0.000000 0.000000 0.000000 -0.154502 0.000000 -0.316568
#
#
# Mechanical properties :
#
#
# Convention : Reuss Voigt Hill
#
# Bulk Modulus (GPa) = 44.49068 61.78542 53.13805
# Shear Modulus (GPa) = -21.35323 24.89511 1.77094
#
# Velocity S-wave (km/s) = -3.24816 3.50721 0.93542
# Velocity P-wave (km/s) = 2.81341 6.85044 5.23659
#
# Compressibility (1/GPa) = 0.02247662
#
# Stress axis : x y z
#
# Youngs Moduli (GPa) = 77.73306 114.86414 67.47744
#
# Poissons Ratio (x) = 0.17327 0.17759
# Poissons Ratio (y) = 0.11726 0.19005
# Poissons Ratio (z) = 0.20458 0.32352
#
# Static dielectric constant tensor:
#      x y z
#    x 1.779800 0.000000 0.017440 
#    y 0.000000 1.694780 0.000000 
#    z 0.017440 0.000000 1.784030 
# 
# From -- ./inp_files/91477.got.cif
#   From: 2010.05.17/outbox.cif.g08.bks.cpg/sg10_46_cif.got.tgz:91477.got - 2010.06.03 11:33:40.
