data_PCOD9153936
_publ_section_title
;
Structure prediction by ZEFSAII (Michael W. Deem and Ramdas Pophale) SiO2 
 PCOD9153936
Probable space group: P 2/M
;
_chemical_formula_sum "Si O2"
_cell_formula_units_Z 28
_cell_length_a 21.965216
_cell_length_b 8.857790
_cell_length_c 14.900948
_cell_angle_alpha 90.000000
_cell_angle_beta 29.215674
_cell_angle_gamma 90.000000
_cell_volume 1415.083858
_symmetry_space_group_name_H-M "P 2/M"
_symmetry_group_IT_number 10
_symmetry_cell_setting 'monoclinic'
loop_
_space_group_symop_operation_xyz
x,y,z
-x,y,-z
-x,-y,-z
x,-y,z
loop_
_atom_site_type_symbol
_atom_site_label
_atom_site_fract_x
_atom_site_fract_y
_atom_site_fract_z
Si Si1 0.659505 0.318971 0.384862
Si Si2 0.366866 0.681359 0.783525
Si Si3 0.835398 0.180305 0.469708
Si Si4 0.338533 0.821090 0.004912
Si Si5 0.437086 0.676997 0.179116
Si Si6 0.118094 0.181951 0.790219
Si Si7 0.124863 0.674153 0.397626
O O1 0.670570 0.500000 0.376612
O O2 0.684241 0.275949 0.248994
O O3 0.515070 0.282548 0.590941
O O4 0.755583 0.243615 0.328524
O O5 0.354714 0.500000 0.809079
O O6 0.308314 0.763689 0.943797
O O7 0.690983 0.231354 0.654729
O O8 0.891501 0.225775 0.301532
O O9 0.896544 0.261309 0.475915
O O10 0.843678 0.000000 0.469050
O O11 0.231244 0.769549 0.211304
O O12 0.353628 0.000000 0.987345
O O13 0.465219 0.741031 0.874927
O O14 0.412881 0.500000 0.227322
O O15 0.500000 0.690998 0.000000
O O16 0.122364 0.000000 0.787889
O O17 0.000000 0.234427 0.000000
O O18 0.167754 0.500000 0.348577
O O19 0.000000 0.680021 0.500000
#
# Coordination Sequence:
#
# PCOD9153936 Si02
#       7
#     4   4   4   4   4   4   4
#     4   9  19  37  61  88 116 153 199 246 293 348
#     4   9  19  37  60  87 122 155 190 242 301 354
#     4  11  23  40  64  92 122 157 200 251 302 355
#     4  12  24  37  59  91 123 156 198 244 296 359
#     4  11  22  37  61  89 122 160 196 242 301 357
#     4  10  23  41  59  84 121 160 197 244 299 352
#     4  11  25  44  63  84 116 158 201 245 295 354
#
# _framework density 19.786815000000001
#
# number of rings (size 3 to 8) (size 9 to 14) (size 15 to 20)
#    0.000    1.571    1.429    4.286    0.000    7.714 
#    0.000    4.286    0.000    0.000    0.000    0.000 
#    0.000    0.000    0.000    0.000    0.000    0.000 
#
# Total GULP energy -156568.235502 kJ/mol
# GULP energy per Si atom -5591.722697 kJ/mol
# Density = 1.974178 g / cm^3
# Si number density = 19.786815 Si / 1000 Ang^3
#
#
#
# Elastic Constant Matrix: (Units=GPa)
#
#
# Indices 1 2 3 4 5 6 
#
# 1 124.1365 31.6269 31.0967 0.0000 29.5566 0.0000
# 2 31.6269 37.1127 8.2268 0.0000 15.0972 0.0000
# 3 31.0967 8.2268 45.7691 0.0000 21.6116 0.0000
# 4 0.0000 0.0000 0.0000 161.2626 0.0000 -62.8744
# 5 29.5566 15.0972 21.6116 0.0000 33.3400 0.0000
# 6 0.0000 0.0000 0.0000 -62.8744 0.0000 54.7910
#
#
#
# Elastic Compliance Matrix: (Units=1/GPa)
#
#
# Indices 1 2 3 4 5 6 
#
# 1 0.012239 -0.007631 -0.004975 0.000000 -0.004170 0.000000
# 2 -0.007631 0.037870 0.004728 0.000000 -0.013448 0.000000
# 3 -0.004975 0.004728 0.033588 0.000000 -0.019503 0.000000
# 4 0.000000 0.000000 0.000000 0.011222 0.000000 0.012877
# 5 -0.004170 -0.013448 -0.019503 0.000000 0.052423 0.000000
# 6 0.000000 0.000000 0.000000 0.012877 0.000000 0.033028
#
#
# Mechanical properties :
#
#
# Convention : Reuss Voigt Hill
#
# Bulk Modulus (GPa) = 14.71853 38.76879 26.74366
# Shear Modulus (GPa) = 22.85474 58.94992 40.90233
#
# Velocity S-wave (km/s) = 3.40229 5.46417 4.55153
# Velocity P-wave (km/s) = 4.78422 7.71008 6.41616
#
# Compressibility (1/GPa) = 0.06794156
#
# Stress axis : x y z
#
# Youngs Moduli (GPa) = 81.70741 26.40580 29.77247
#
# Poissons Ratio (x) = 0.20150 0.14811
# Poissons Ratio (y) = 0.62349 -0.14075
# Poissons Ratio (z) = 0.40648 -0.12484
#
# Static dielectric constant tensor:
#      x y z
#    x 1.696510 0.000000 0.023600 
#    y 0.000000 1.658470 0.000000 
#    z 0.023600 0.000000 1.688510 
# 
# From -- ./inp_files/69913.got.cif
#   From: 2010.05.17/outbox.cif.g08.bks.cpg/sg10_35_cif.got.tgz:69913.got - 2010.06.03 11:33:40.
