data_PCOD9153544
_publ_section_title
;
Structure prediction by ZEFSAII (Michael W. Deem and Ramdas Pophale) SiO2 
 PCOD9153544
Probable space group: P 2/M
;
_chemical_formula_sum "Si O2"
_cell_formula_units_Z 28
_cell_length_a 9.049031
_cell_length_b 19.600513
_cell_length_c 15.221731
_cell_angle_alpha 90.000000
_cell_angle_beta 29.374627
_cell_angle_gamma 90.000000
_cell_volume 1324.306202
_symmetry_space_group_name_H-M "P 2/M"
_symmetry_group_IT_number 10
_symmetry_cell_setting 'monoclinic'
loop_
_space_group_symop_operation_xyz
x,y,z
-x,y,-z
-x,-y,-z
x,-y,z
loop_
_atom_site_type_symbol
_atom_site_label
_atom_site_fract_x
_atom_site_fract_y
_atom_site_fract_z
Si Si1 0.593714 0.845199 0.539131
Si Si2 0.634570 0.077876 0.696941
Si Si3 0.787614 0.287822 0.230529
Si Si4 0.559034 0.701789 0.160496
Si Si5 0.144722 0.574616 0.694950
Si Si6 0.199729 0.421420 0.310813
Si Si7 0.699610 0.182190 0.809548
O O1 0.500000 0.885547 0.500000
O O2 0.526073 0.882726 0.666057
O O3 0.397614 0.775841 0.637776
O O4 0.950830 0.830671 0.350388
O O5 0.570422 0.119461 0.819040
O O6 0.000000 0.077209 0.500000
O O7 0.528650 0.000000 0.754571
O O8 0.593215 0.309234 0.246279
O O9 0.863409 0.354694 0.247922
O O10 0.122946 0.265196 0.030500
O O11 0.481466 0.628857 0.159774
O O12 0.313649 0.753516 0.250010
O O13 0.500000 0.566826 0.500000
O O14 0.034289 0.500000 0.788166
O O15 0.988262 0.583904 0.681481
O O16 0.289335 0.500000 0.276219
O O17 0.000000 0.402346 0.500000
O O18 0.500000 0.194477 0.000000
#
# Coordination Sequence:
#
# PCOD9153544 Si02
#       7
#     4   4   4   4   4   4   4
#     4  11  23  40  66  97 134 175 216 264 322 387
#     4   9  20  42  69  97 133 176 217 260 319 387
#     4  11  24  41  60  90 126 169 213 272 326 386
#     4  11  25  39  62  90 126 165 216 271 325 382
#     4  10  22  39  60  88 122 164 213 267 324 385
#     4  10  23  40  61  90 125 168 219 270 330 397
#     4  11  24  41  66 100 133 170 217 267 321 388
#
# _framework density 21.143146000000002
#
# number of rings (size 3 to 8) (size 9 to 14) (size 15 to 20)
#    0.000    1.571    1.429    2.143    8.000    2.857 
#    0.000    2.857    0.000    6.000    0.000    0.000 
#    0.000    0.000    0.000    0.000    0.000    0.000 
#
# Total GULP energy -156232.620989 kJ/mol
# GULP energy per Si atom -5579.736464 kJ/mol
# Density = 2.109502 g / cm^3
# Si number density = 21.143146 Si / 1000 Ang^3
#
#
#
# Elastic Constant Matrix: (Units=GPa)
#
#
# Indices 1 2 3 4 5 6 
#
# 1 138.8712 53.0188 18.4864 0.0000 5.6666 0.0000
# 2 53.0188 113.1712 19.2571 0.0000 9.8286 0.0000
# 3 18.4864 19.2571 42.3141 0.0000 -2.4703 0.0000
# 4 0.0000 0.0000 0.0000 15.7152 0.0000 17.2421
# 5 5.6666 9.8286 -2.4703 0.0000 23.8539 0.0000
# 6 0.0000 0.0000 0.0000 17.2421 0.0000 -11.0516
#
#
#
# Elastic Compliance Matrix: (Units=1/GPa)
#
#
# Indices 1 2 3 4 5 6 
#
# 1 0.008965 -0.003744 -0.002261 0.000000 -0.000821 0.000000
# 2 -0.003744 0.011629 -0.003908 0.000000 -0.004307 0.000000
# 3 -0.002261 -0.003908 0.026686 0.000000 0.004911 0.000000
# 4 0.000000 0.000000 0.000000 0.023466 0.000000 0.036610
# 5 -0.000821 -0.004307 0.004911 0.000000 0.044400 0.000000
# 6 0.000000 0.000000 0.000000 0.036610 0.000000 -0.033368
#
#
# Mechanical properties :
#
#
# Convention : Reuss Voigt Hill
#
# Bulk Modulus (GPa) = 36.42437 52.87567 44.65002
# Shear Modulus (GPa) = 45.14490 19.27644 32.21067
#
# Velocity S-wave (km/s) = 4.62584 3.02273 3.90738
# Velocity P-wave (km/s) = 6.76728 6.10289 6.44365
#
# Compressibility (1/GPa) = 0.02745415
#
# Stress axis : x y z
#
# Youngs Moduli (GPa) = 111.54877 85.99070 37.47322
#
# Poissons Ratio (x) = 0.32193 0.08471
# Poissons Ratio (y) = 0.41762 0.14645
# Poissons Ratio (z) = 0.25217 0.33607
#
# Static dielectric constant tensor:
#      x y z
#    x 1.819790 0.000000 0.081510 
#    y 0.000000 1.800550 0.000000 
#    z 0.081510 0.000000 1.829790 
# 
# From -- ./inp_files/62544.got.cif
#   From: 2010.05.17/outbox.cif.g08.bks.cpg/sg10_32_cif.got.tgz:62544.got - 2010.06.03 11:33:40.
