data_PCOD9153708
_publ_section_title
;
Structure prediction by ZEFSAII (Michael W. Deem and Ramdas Pophale) SiO2 
 PCOD9153708
Probable space group: P 2/M
;
_chemical_formula_sum "Si O2"
_cell_formula_units_Z 28
_cell_length_a 21.964947
_cell_length_b 7.826214
_cell_length_c 15.052140
_cell_angle_alpha 90.000000
_cell_angle_beta 28.223138
_cell_angle_gamma 90.000000
_cell_volume 1223.645247
_symmetry_space_group_name_H-M "P 2/M"
_symmetry_group_IT_number 10
_symmetry_cell_setting 'monoclinic'
loop_
_space_group_symop_operation_xyz
x,y,z
-x,y,-z
-x,-y,-z
x,-y,z
loop_
_atom_site_type_symbol
_atom_site_label
_atom_site_fract_x
_atom_site_fract_y
_atom_site_fract_z
Si Si1 0.489808 0.299064 0.914013
Si Si2 0.861629 0.500000 0.536819
Si Si3 0.622756 0.703659 0.395602
Si Si4 0.000000 0.254356 0.500000
Si Si5 0.817259 0.206020 0.996037
Si Si6 0.268974 0.188601 0.077915
Si Si7 0.687006 0.708499 0.509833
Si Si8 0.882095 0.198787 0.389963
O O1 0.515963 0.500000 0.888975
O O2 0.585809 0.231918 0.715119
O O3 0.500000 0.223098 0.000000
O O4 0.348550 0.284214 0.051291
O O5 0.931290 0.642677 0.510625
O O6 0.808983 0.344453 0.540245
O O7 0.500000 0.775514 0.500000
O O8 0.603432 0.500000 0.428488
O O9 0.746570 0.735538 0.175262
O O10 0.643147 0.768413 0.469087
O O11 0.121314 0.170012 0.296953
O O12 0.813356 0.000000 0.995747
O O13 0.740928 0.272553 0.006823
O O14 0.967685 0.253545 0.800964
O O15 0.327180 0.000000 0.995616
O O16 0.691537 0.500000 0.502149
O O17 0.823114 0.781705 0.367552
O O18 0.870833 0.000000 0.433934
#
# Coordination Sequence:
#
# PCOD9153708 Si02
#       8
#     4   2   4   2   4   4   4   4
#     4  10  24  40  63  90 126 171 218 267 324 396
#     4  11  24  42  66  98 133 180 222 261 337 398
#     4  10  22  40  66  95 126 170 221 273 330 393
#     4  11  25  38  67  98 127 171 220 266 328 396
#     4  10  23  41  62  94 128 165 212 271 332 389
#     4  11  24  41  63  93 130 167 217 274 329 393
#     4  10  22  42  63  95 133 173 221 273 332 397
#     4  11  24  42  68  98 135 173 218 274 328 396
#
# _framework density 22.882449000000001
#
# number of rings (size 3 to 8) (size 9 to 14) (size 15 to 20)
#    0.000    1.571    2.143    1.071    5.000    4.571 
#    0.000    3.929    0.000    0.000    0.000    0.000 
#    0.000    0.000    0.000    0.000    0.000    0.000 
#
# Total GULP energy -155875.039674 kJ/mol
# GULP energy per Si atom -5566.965703 kJ/mol
# Density = 2.283037 g / cm^3
# Si number density = 22.882449 Si / 1000 Ang^3
#
#
#
# Elastic Constant Matrix: (Units=GPa)
#
#
# Indices 1 2 3 4 5 6 
#
# 1 213.3343 22.9957 56.4814 0.0000 15.6667 0.0000
# 2 22.9957 66.7381 2.5737 0.0000 4.3366 0.0000
# 3 56.4814 2.5737 75.4537 0.0000 10.1519 0.0000
# 4 0.0000 0.0000 0.0000 26.9160 0.0000 -2.1452
# 5 15.6667 4.3366 10.1519 0.0000 36.7581 0.0000
# 6 0.0000 0.0000 0.0000 -2.1452 0.0000 8.2500
#
#
#
# Elastic Compliance Matrix: (Units=1/GPa)
#
#
# Indices 1 2 3 4 5 6 
#
# 1 0.006132 -0.001867 -0.004367 0.000000 -0.001187 0.000000
# 2 -0.001867 0.015674 0.001044 0.000000 -0.001342 0.000000
# 3 -0.004367 0.001044 0.016880 0.000000 -0.002924 0.000000
# 4 0.000000 0.000000 0.000000 0.037939 0.000000 0.009865
# 5 -0.001187 -0.001342 -0.002924 0.000000 0.028677 0.000000
# 6 0.000000 0.000000 0.000000 0.009865 0.000000 0.123777
#
#
# Mechanical properties :
#
#
# Convention : Reuss Voigt Hill
#
# Bulk Modulus (GPa) = 35.32919 57.73641 46.53280
# Shear Modulus (GPa) = 20.08883 32.61650 26.35267
#
# Velocity S-wave (km/s) = 2.96618 3.77953 3.39728
# Velocity P-wave (km/s) = 5.21573 6.65831 5.98067
#
# Compressibility (1/GPa) = 0.02830520
#
# Stress axis : x y z
#
# Youngs Moduli (GPa) = 163.07677 63.79869 59.24265
#
# Poissons Ratio (x) = 0.11914 0.25870
# Poissons Ratio (y) = 0.30452 -0.06183
# Poissons Ratio (z) = 0.71212 -0.06659
#
# Static dielectric constant tensor:
#      x y z
#    x 1.897500 0.000000 0.001040 
#    y 0.000000 1.869740 0.000000 
#    z 0.001040 0.000000 1.888110 
# 
# From -- ./inp_files/70229.got.cif
#   From: 2010.05.17/outbox.cif.g08.bks.cpg/sg10_36_cif.got.tgz:70229.got - 2010.06.03 11:33:40.
