data_PCOD9153902
_publ_section_title
;
Structure prediction by ZEFSAII (Michael W. Deem and Ramdas Pophale) SiO2 
 PCOD9153902
Probable space group: P 2/M
;
_chemical_formula_sum "Si O2"
_cell_formula_units_Z 22
_cell_length_a 10.030926
_cell_length_b 19.154005
_cell_length_c 5.467005
_cell_angle_alpha 90.000000
_cell_angle_beta 108.416918
_cell_angle_gamma 90.000000
_cell_volume 996.590819
_symmetry_space_group_name_H-M "P 2/M"
_symmetry_group_IT_number 10
_symmetry_cell_setting 'monoclinic'
loop_
_space_group_symop_operation_xyz
x,y,z
-x,y,-z
-x,-y,-z
x,-y,z
loop_
_atom_site_type_symbol
_atom_site_label
_atom_site_fract_x
_atom_site_fract_y
_atom_site_fract_z
Si Si1 0.862405 0.078905 0.592208
Si Si2 0.337608 0.135097 0.923953
Si Si3 0.670469 0.419887 0.091443
Si Si4 0.330648 0.660083 0.411416
Si Si5 0.410406 0.000000 0.202917
Si Si6 0.850165 0.220297 0.871759
O O1 0.726770 0.096925 0.348036
O O2 0.884864 0.146375 0.769095
O O3 0.000000 0.076843 0.500000
O O4 0.851951 0.000000 0.688180
O O5 0.500000 0.157231 0.000000
O O6 0.334362 0.074511 0.129803
O O7 0.238705 0.199088 0.940533
O O8 0.719969 0.500000 0.120015
O O9 0.710022 0.380396 0.364523
O O10 0.500000 0.421606 0.000000
O O11 0.709248 0.381307 0.861232
O O12 0.500000 0.669092 0.500000
O O13 0.251912 0.733546 0.351927
O O14 0.500000 0.000000 0.500000
O O15 0.500000 0.000000 0.000000
O O16 0.000000 0.256238 0.000000
#
# Coordination Sequence:
#
# PCOD9153902 Si02
#       6
#     4   4   4   4   2   4
#     4  11  25  45  66  93 129 175 238 297 357 417
#     4  11  26  41  65  93 124 168 223 291 349 415
#     4   9  18  38  69 106 141 174 219 274 329 391
#     4  10  23  39  67 103 138 180 225 274 331 404
#     4  10  24  42  62  94 126 156 207 284 359 404
#     4  12  28  43  64  93 135 184 227 285 355 415
#
# _framework density 22.07526
#
# number of rings (size 3 to 8) (size 9 to 14) (size 15 to 20)
#    0.000    1.455    2.727    0.545   11.455    3.273 
#    0.000    0.000    0.000    3.273    0.000    0.000 
#    0.000    0.000    0.000    0.000    0.000    0.000 
#
# Total GULP energy -122954.724423 kJ/mol
# GULP energy per Si atom -5588.851110 kJ/mol
# Density = 2.202502 g / cm^3
# Si number density = 22.075260 Si / 1000 Ang^3
#
#
#
# Elastic Constant Matrix: (Units=GPa)
#
#
# Indices 1 2 3 4 5 6 
#
# 1 94.3255 30.3621 25.7040 0.0000 3.3233 0.0000
# 2 30.3621 118.3607 54.3991 0.0000 -8.5938 0.0000
# 3 25.7040 54.3991 137.8433 0.0000 -3.9607 0.0000
# 4 0.0000 0.0000 0.0000 18.7718 0.0000 5.9423
# 5 3.3233 -8.5938 -3.9607 0.0000 28.5623 0.0000
# 6 0.0000 0.0000 0.0000 5.9423 0.0000 -0.6295
#
#
#
# Elastic Compliance Matrix: (Units=1/GPa)
#
#
# Indices 1 2 3 4 5 6 
#
# 1 0.011874 -0.002648 -0.001237 0.000000 -0.002350 0.000000
# 2 -0.002648 0.011100 -0.003797 0.000000 0.003121 0.000000
# 3 -0.001237 -0.003797 0.008991 0.000000 0.000248 0.000000
# 4 0.000000 0.000000 0.000000 0.013357 0.000000 0.126089
# 5 -0.002350 0.003121 0.000248 0.000000 0.036258 0.000000
# 6 0.000000 0.000000 0.000000 0.126089 0.000000 -0.398322
#
#
# Mechanical properties :
#
#
# Convention : Reuss Voigt Hill
#
# Bulk Modulus (GPa) = 60.23758 63.49554 61.86656
# Shear Modulus (GPa) = -16.90075 25.34521 4.22223
#
# Velocity S-wave (km/s) = -2.76994 3.39208 1.38449
# Velocity P-wave (km/s) = 4.13721 6.64585 5.53551
#
# Compressibility (1/GPa) = 0.01660093
#
# Stress axis : x y z
#
# Youngs Moduli (GPa) = 84.21941 90.09171 111.22492
#
# Poissons Ratio (x) = 0.23858 0.13754
# Poissons Ratio (y) = 0.22303 0.42232
# Poissons Ratio (z) = 0.10414 0.34208
#
# Static dielectric constant tensor:
#      x y z
#    x 1.894480 0.000000 -0.049530 
#    y 0.000000 1.810160 0.000000 
#    z -0.049530 0.000000 1.827780 
# 
# From -- ./inp_files/7298.got.cif
#   From: 2010.05.17/outbox.cif.g08.bks.cpg/sg10_4_cif.got.tgz:7298.got - 2010.06.03 11:33:40.
