data_PCOD9153695
_publ_section_title
;
Structure prediction by ZEFSAII (Michael W. Deem and Ramdas Pophale) SiO2 
 PCOD9153695
Probable space group: P 2/M
;
_chemical_formula_sum "Si O2"
_cell_formula_units_Z 28
_cell_length_a 15.625808
_cell_length_b 19.715485
_cell_length_c 9.198958
_cell_angle_alpha 90.000000
_cell_angle_beta 151.897547
_cell_angle_gamma 90.000000
_cell_volume 1334.920086
_symmetry_space_group_name_H-M "P 2/M"
_symmetry_group_IT_number 10
_symmetry_cell_setting 'monoclinic'
loop_
_space_group_symop_operation_xyz
x,y,z
-x,y,-z
-x,-y,-z
x,-y,z
loop_
_atom_site_type_symbol
_atom_site_label
_atom_site_fract_x
_atom_site_fract_y
_atom_site_fract_z
Si Si1 0.677572 0.670592 0.347907
Si Si2 0.985269 0.577146 0.154709
Si Si3 0.937441 0.795001 0.261550
Si Si4 0.687869 0.072868 0.579629
Si Si5 0.294689 0.828987 0.646781
Si Si6 0.739676 0.073268 0.993326
Si Si7 0.301088 0.686511 0.270268
O O1 0.697721 0.748069 0.330604
O O2 0.674391 0.679121 0.518573
O O3 0.844999 0.624274 0.551083
O O4 0.500000 0.643545 0.000000
O O5 0.992738 0.500000 0.218836
O O6 0.804159 0.617260 0.928643
O O7 0.000000 0.574852 0.000000
O O8 0.000000 0.754051 0.500000
O O9 0.103225 0.837951 0.441000
O O10 0.809702 0.853075 0.138461
O O11 0.828553 0.747820 0.983428
O O12 0.735767 0.136904 0.554965
O O13 0.764314 0.073760 0.856057
O O14 0.471745 0.073197 0.281916
O O15 0.737236 0.000000 0.583329
O O16 0.500000 0.853481 0.000000
O O17 0.810835 0.000000 0.154024
O O18 0.500000 0.694617 0.500000
#
# Coordination Sequence:
#
# PCOD9153695 Si02
#       7
#     4   4   4   4   4   4   4
#     4  10  22  40  64  96 129 168 212 263 312 378
#     4   9  19  41  67  96 133 170 209 253 310 377
#     4  12  26  40  62  92 127 169 214 272 326 382
#     4   9  19  37  61  87 122 164 212 265 322 383
#     4  11  23  38  59  87 123 164 213 268 318 379
#     4   9  20  38  60  88 122 165 211 263 325 385
#     4  11  25  39  65  97 129 169 209 260 319 374
#
# _framework density 20.975038000000001
#
# number of rings (size 3 to 8) (size 9 to 14) (size 15 to 20)
#    0.000    1.857    1.429    2.571    8.000    3.429 
#    0.000    1.429    0.000    3.000    0.000    0.000 
#    0.000    0.000    0.000    0.000    0.000    0.000 
#
# Total GULP energy -155919.905401 kJ/mol
# GULP energy per Si atom -5568.568050 kJ/mol
# Density = 2.092730 g / cm^3
# Si number density = 20.975038 Si / 1000 Ang^3
#
#
#
# Elastic Constant Matrix: (Units=GPa)
#
#
# Indices 1 2 3 4 5 6 
#
# 1 48.8056 2.2324 30.3778 0.0000 0.7501 0.0000
# 2 2.2324 90.5508 29.9709 0.0000 -0.2059 0.0000
# 3 30.3778 29.9709 107.4053 0.0000 2.0116 0.0000
# 4 0.0000 0.0000 0.0000 32.2807 0.0000 22.7320
# 5 0.7501 -0.2059 2.0116 0.0000 24.4721 0.0000
# 6 0.0000 0.0000 0.0000 22.7320 0.0000 -35.2288
#
#
#
# Elastic Compliance Matrix: (Units=1/GPa)
#
#
# Indices 1 2 3 4 5 6 
#
# 1 0.025164 0.001911 -0.007648 0.000000 -0.000127 0.000000
# 2 0.001911 0.012316 -0.003984 0.000000 0.000373 0.000000
# 3 -0.007648 -0.003984 0.012601 0.000000 -0.000835 0.000000
# 4 0.000000 0.000000 0.000000 0.021300 0.000000 0.013744
# 5 -0.000127 0.000373 -0.000835 0.000000 0.040938 0.000000
# 6 0.000000 0.000000 0.000000 0.013744 0.000000 -0.019517
#
#
# Mechanical properties :
#
#
# Convention : Reuss Voigt Hill
#
# Bulk Modulus (GPa) = 32.63880 41.32488 36.98184
# Shear Modulus (GPa) = 40.83031 16.58351 28.70691
#
# Velocity S-wave (km/s) = 4.41683 2.81487 3.70350
# Velocity P-wave (km/s) = 6.45025 5.50539 5.99646
#
# Compressibility (1/GPa) = 0.03063838
#
# Stress axis : x y z
#
# Youngs Moduli (GPa) = 39.73868 81.19564 79.35850
#
# Poissons Ratio (x) = -0.15514 0.60694
# Poissons Ratio (y) = -0.07593 0.31617
# Poissons Ratio (z) = 0.30393 0.32349
#
# Static dielectric constant tensor:
#      x y z
#    x 1.768960 0.000000 0.009340 
#    y 0.000000 1.759790 0.000000 
#    z 0.009340 0.000000 1.847990 
# 
# From -- ./inp_files/30473.got.cif
#   From: 2010.05.17/outbox.cif.g08.bks.cpg/sg10_16_cif.got.tgz:30473.got - 2010.06.03 11:33:40.
