data_PCOD9153185
_publ_section_title
;
Structure prediction by ZEFSAII (Michael W. Deem and Ramdas Pophale) SiO2 
 PCOD9153185
Probable space group: P 2/M
;
_chemical_formula_sum "Si O2"
_cell_formula_units_Z 32
_cell_length_a 22.503159
_cell_length_b 9.109470
_cell_length_c 15.103716
_cell_angle_alpha 90.000000
_cell_angle_beta 148.414989
_cell_angle_gamma 90.000000
_cell_volume 1621.643117
_symmetry_space_group_name_H-M "P 2/M"
_symmetry_group_IT_number 10
_symmetry_cell_setting 'monoclinic'
loop_
_space_group_symop_operation_xyz
x,y,z
-x,y,-z
-x,-y,-z
x,-y,z
loop_
_atom_site_type_symbol
_atom_site_label
_atom_site_fract_x
_atom_site_fract_y
_atom_site_fract_z
Si Si1 0.515896 0.826950 0.257939
Si Si2 0.863586 0.329455 0.829329
Si Si3 0.563889 0.670984 0.674358
Si Si4 0.845909 0.674196 0.452631
Si Si5 0.924027 0.827605 0.266409
Si Si6 0.227736 0.173337 0.462006
Si Si7 0.284161 0.174633 0.864663
Si Si8 0.204382 0.173853 0.075210
O O1 0.511400 0.732587 0.341434
O O2 0.636029 0.808446 0.362812
O O3 0.504513 0.000000 0.266623
O O4 0.406874 0.787687 0.060319
O O5 0.827787 0.500000 0.779528
O O6 0.815634 0.240890 0.685038
O O7 0.823104 0.258355 0.869695
O O8 0.000000 0.323865 0.000000
O O9 0.500000 0.684276 0.500000
O O10 0.591388 0.500000 0.723777
O O11 0.677483 0.766491 0.813062
O O12 0.843517 0.500000 0.453884
O O13 0.827183 0.744166 0.525209
O O14 0.750549 0.736135 0.265741
O O15 0.967643 0.731333 0.572783
O O16 0.813637 0.798359 0.186194
O O17 0.953035 0.000000 0.314243
O O18 0.888663 0.802254 0.119499
O O19 0.201364 0.000000 0.432281
O O20 0.283402 0.000000 0.844146
O O21 0.211876 0.000000 0.101292
#
# Coordination Sequence:
#
# PCOD9153185 Si02
#       8
#     4   4   4   4   4   4   4   4
#     4  10  22  42  66  92 121 159 209 261 309 364
#     4  11  24  41  61  90 128 167 207 257 314 370
#     4  11  23  37  57  88 125 163 200 245 306 368
#     4  12  26  41  61  92 128 164 206 258 315 376
#     4  10  21  40  66  93 124 162 207 260 312 368
#     4  11  24  43  67  92 122 165 214 261 308 368
#     4  10  21  42  67  92 123 160 206 259 315 371
#     4  11  22  38  62  91 121 160 208 253 301 364
#
# _framework density 19.733073000000001
#
# number of rings (size 3 to 8) (size 9 to 14) (size 15 to 20)
#    0.000    1.250    1.250    4.500    0.000   11.000 
#    0.000    2.500    0.000    0.000    0.000    0.000 
#    0.000    0.000    0.000    0.000    0.000    0.000 
#
# Total GULP energy -179034.643967 kJ/mol
# GULP energy per Si atom -5594.832624 kJ/mol
# Density = 1.968816 g / cm^3
# Si number density = 19.733073 Si / 1000 Ang^3
#
#
#
# Elastic Constant Matrix: (Units=GPa)
#
#
# Indices 1 2 3 4 5 6 
#
# 1 54.0388 28.7366 10.2024 0.0000 -5.9159 0.0000
# 2 28.7366 78.1992 47.6665 0.0000 -3.1703 0.0000
# 3 10.2024 47.6665 76.3249 0.0000 1.2846 0.0000
# 4 0.0000 0.0000 0.0000 23.6728 0.0000 -21.7849
# 5 -5.9159 -3.1703 1.2846 0.0000 29.6899 0.0000
# 6 0.0000 0.0000 0.0000 -21.7849 0.0000 80.5192
#
#
#
# Elastic Compliance Matrix: (Units=1/GPa)
#
#
# Indices 1 2 3 4 5 6 
#
# 1 0.023963 -0.010781 0.003471 0.000000 0.003473 0.000000
# 2 -0.010781 0.025728 -0.014647 0.000000 0.001233 0.000000
# 3 0.003471 -0.014647 0.021816 0.000000 -0.001816 0.000000
# 4 0.000000 0.000000 0.000000 0.056247 0.000000 0.015218
# 5 0.003473 0.001233 -0.001816 0.000000 0.034584 0.000000
# 6 0.000000 0.000000 0.000000 0.015218 0.000000 0.016537
#
#
# Mechanical properties :
#
#
# Convention : Reuss Voigt Hill
#
# Bulk Modulus (GPa) = 36.24093 42.41931 39.33012
# Shear Modulus (GPa) = 21.55299 34.90686 28.22993
#
# Velocity S-wave (km/s) = 3.30847 4.21045 3.78642
# Velocity P-wave (km/s) = 5.74457 6.72164 6.25222
#
# Compressibility (1/GPa) = 0.02759311
#
# Stress axis : x y z
#
# Youngs Moduli (GPa) = 41.73056 38.86819 45.83806
#
# Poissons Ratio (x) = 0.41905 -0.15912
# Poissons Ratio (y) = 0.44991 0.67140
# Poissons Ratio (z) = -0.14487 0.56931
#
# Static dielectric constant tensor:
#      x y z
#    x 1.682920 0.000000 0.010730 
#    y 0.000000 1.656250 0.000000 
#    z 0.010730 0.000000 1.687360 
# 
# From -- ./inp_files/71687.got.cif
#   From: 2010.05.17/outbox.cif.g08.bks.cpg/sg10_36_cif.got.tgz:71687.got - 2010.06.03 11:33:40.
