data_PCOD9153284
_publ_section_title
;
Structure prediction by ZEFSAII (Michael W. Deem and Ramdas Pophale) SiO2 
 PCOD9153284
Probable space group: P 2/M
;
_chemical_formula_sum "Si O2"
_cell_formula_units_Z 15
_cell_length_a 5.293777
_cell_length_b 20.752059
_cell_length_c 5.350820
_cell_angle_alpha 90.000000
_cell_angle_beta 94.289426
_cell_angle_gamma 90.000000
_cell_volume 586.177295
_symmetry_space_group_name_H-M "P 2/M"
_symmetry_group_IT_number 10
_symmetry_cell_setting 'monoclinic'
loop_
_space_group_symop_operation_xyz
x,y,z
-x,y,-z
-x,-y,-z
x,-y,z
loop_
_atom_site_type_symbol
_atom_site_label
_atom_site_fract_x
_atom_site_fract_y
_atom_site_fract_z
Si Si1 0.500000 0.500000 0.000000
Si Si2 0.240113 0.411760 0.350075
Si Si3 0.266126 0.000000 0.168522
Si Si4 0.729470 0.275619 0.841711
Si Si5 0.836795 0.860420 0.731572
O O1 0.706738 0.443684 0.916150
O O2 0.500000 0.433234 0.500000
O O3 0.238903 0.334280 0.344684
O O4 0.000000 0.431551 0.500000
O O5 0.275166 0.931898 0.310666
O O6 0.500000 0.000000 0.000000
O O7 0.000000 0.000000 0.000000
O O8 0.667033 0.203070 0.748538
O O9 0.500000 0.295363 0.000000
O O10 0.000000 0.271844 0.000000
O O11 0.000000 0.847002 0.500000
O O12 0.000000 0.864246 0.000000
#
# Coordination Sequence:
#
# PCOD9153284 Si02
#       5
#     1   4   2   4   4
#     4  12  28  50  72 104 146 178 230 294 366 418
#     4  12  27  47  74 105 137 185 236 289 355 431
#     4  10  21  42  66 100 140 186 236 294 356 422
#     4  11  23  45  71 102 138 182 231 291 352 419
#     4  10  22  42  68 102 140 188 237 296 355 425
#
# _framework density 25.589528000000001
#
# number of rings (size 3 to 8) (size 9 to 14) (size 15 to 20)
#    0.000    1.067    1.333    4.400    0.000    3.200 
#    0.000   21.333    0.000    0.000    0.000    0.000 
#    0.000    0.000    0.000    0.000    0.000    0.000 
#
# Total GULP energy -83620.312941 kJ/mol
# GULP energy per Si atom -5574.687529 kJ/mol
# Density = 2.553129 g / cm^3
# Si number density = 25.589528 Si / 1000 Ang^3
#
#
#
# Elastic Constant Matrix: (Units=GPa)
#
#
# Indices 1 2 3 4 5 6 
#
# 1 177.4979 12.5868 54.8685 0.0000 -33.2285 0.0000
# 2 12.5868 250.2795 4.1183 0.0000 -12.0761 0.0000
# 3 54.8685 4.1183 100.1868 0.0000 -30.7122 0.0000
# 4 0.0000 0.0000 0.0000 49.3997 0.0000 -41.0096
# 5 -33.2285 -12.0761 -30.7122 0.0000 75.9563 0.0000
# 6 0.0000 0.0000 0.0000 -41.0096 0.0000 27.7046
#
#
#
# Elastic Compliance Matrix: (Units=1/GPa)
#
#
# Indices 1 2 3 4 5 6 
#
# 1 0.006985 -0.000216 -0.003299 0.000000 0.001687 0.000000
# 2 -0.000216 0.004033 0.000137 0.000000 0.000602 0.000000
# 3 -0.003299 0.000137 0.012952 0.000000 0.003816 0.000000
# 4 0.000000 0.000000 0.000000 -0.088461 0.000000 -0.130944
# 5 0.001687 0.000602 0.003816 0.000000 0.015542 0.000000
# 6 0.000000 0.000000 0.000000 -0.130944 0.000000 -0.157734
#
#
# Mechanical properties :
#
#
# Convention : Reuss Voigt Hill
#
# Bulk Modulus (GPa) = 58.09048 74.56793 66.32920
# Shear Modulus (GPa) = -25.74820 61.03818 17.64499
#
# Velocity S-wave (km/s) = -3.17551 4.88923 2.62876
# Velocity P-wave (km/s) = 3.05041 7.81512 5.93216
#
# Compressibility (1/GPa) = 0.01721453
#
# Stress axis : x y z
#
# Youngs Moduli (GPa) = 143.16571 247.94324 77.20659
#
# Poissons Ratio (x) = 0.05345 0.25472
# Poissons Ratio (y) = 0.03086 -0.01057
# Poissons Ratio (z) = 0.47234 -0.03394
#
# Static dielectric constant tensor:
#      x y z
#    x 1.959490 0.000000 0.128880 
#    y 0.000000 1.108090 0.000000 
#    z 0.128880 0.000000 2.184860 
# 
# From -- ./inp_files/1174.got.cif
#   From: 2010.05.17/outbox.cif.g08.bks.cpg/sg10_1_cif.got.tgz:1174.got - 2010.06.03 11:33:40.
