data_PCOD9153459
_publ_section_title
;
Structure prediction by ZEFSAII (Michael W. Deem and Ramdas Pophale) SiO2 
 PCOD9153459
Probable space group: P 2/M
;
_chemical_formula_sum "Si O2"
_cell_formula_units_Z 20
_cell_length_a 8.497905
_cell_length_b 24.128961
_cell_length_c 9.646263
_cell_angle_alpha 90.000000
_cell_angle_beta 29.668678
_cell_angle_gamma 90.000000
_cell_volume 979.040196
_symmetry_space_group_name_H-M "P 2/M"
_symmetry_group_IT_number 10
_symmetry_cell_setting 'monoclinic'
loop_
_space_group_symop_operation_xyz
x,y,z
-x,y,-z
-x,-y,-z
x,-y,z
loop_
_atom_site_type_symbol
_atom_site_label
_atom_site_fract_x
_atom_site_fract_y
_atom_site_fract_z
Si Si1 0.500000 0.703070 0.000000
Si Si2 0.000829 0.563392 0.160985
Si Si3 0.000000 0.221222 0.500000
Si Si4 0.295368 0.886931 0.363674
Si Si5 0.675432 0.394859 0.667998
Si Si6 0.033380 0.066116 0.136939
O O1 0.446726 0.663014 0.173067
O O2 0.189252 0.741577 0.244957
O O3 0.885795 0.500000 0.262633
O O4 0.786736 0.601664 0.423472
O O5 0.370016 0.566634 0.922706
O O6 0.000000 0.579062 0.000000
O O7 0.250955 0.178878 0.377426
O O8 0.637470 0.908352 0.059355
O O9 0.000000 0.910924 0.500000
O O10 0.239008 0.906754 0.562621
O O11 0.000000 0.410364 0.500000
O O12 0.029618 0.000000 0.157626
O O13 0.000000 0.077991 0.000000
#
# Coordination Sequence:
#
# PCOD9153459 Si02
#       6
#     2   4   2   4   4   4
#     4  12  20  42  63  92 115 152 204 268 318 348
#     4  11  24  41  61  90 134 171 192 232 304 372
#     4  10  22  38  65  86 115 152 204 260 320 346
#     4  10  22  38  59  93 110 161 202 251 286 353
#     4  12  22  40  63  98 114 163 207 256 293 353
#     4  11  22  37  58  88 130 165 189 232 302 364
#
# _framework density 20.428170000000001
#
# number of rings (size 3 to 8) (size 9 to 14) (size 15 to 20)
#    0.600    0.400    3.000    4.200    0.000    8.000 
#    0.000    0.000    0.000   18.000    0.000    0.000 
#    0.000    0.000    0.000    0.000    0.000    0.000 
#
# Total GULP energy -111597.623168 kJ/mol
# GULP energy per Si atom -5579.881158 kJ/mol
# Density = 2.038167 g / cm^3
# Si number density = 20.428170 Si / 1000 Ang^3
#
#
#
# Elastic Constant Matrix: (Units=GPa)
#
#
# Indices 1 2 3 4 5 6 
#
# 1 64.2753 31.4259 30.0382 0.0000 6.6272 0.0000
# 2 31.4259 79.5864 43.8664 0.0000 17.8807 0.0000
# 3 30.0382 43.8664 144.9154 0.0000 13.3466 0.0000
# 4 0.0000 0.0000 0.0000 -26.9985 0.0000 49.9541
# 5 6.6272 17.8807 13.3466 0.0000 42.9526 0.0000
# 6 0.0000 0.0000 0.0000 49.9541 0.0000 -15.7482
#
#
#
# Elastic Compliance Matrix: (Units=1/GPa)
#
#
# Indices 1 2 3 4 5 6 
#
# 1 0.019798 -0.006753 -0.002097 0.000000 0.000408 0.000000
# 2 -0.006753 0.018507 -0.003694 0.000000 -0.005514 0.000000
# 3 -0.002097 -0.003694 0.008526 0.000000 -0.000788 0.000000
# 4 0.000000 0.000000 0.000000 0.007607 0.000000 0.024130
# 5 0.000408 -0.005514 -0.000788 0.000000 0.025759 0.000000
# 6 0.000000 0.000000 0.000000 0.024130 0.000000 0.013041
#
#
# Mechanical properties :
#
#
# Convention : Reuss Voigt Hill
#
# Bulk Modulus (GPa) = 45.99567 55.49313 50.74440
# Shear Modulus (GPa) = 39.81696 12.27095 26.04396
#
# Velocity S-wave (km/s) = 4.41967 2.45355 3.57445
# Velocity P-wave (km/s) = 6.97204 5.93722 6.47533
#
# Compressibility (1/GPa) = 0.02174118
#
# Stress axis : x y z
#
# Youngs Moduli (GPa) = 50.51033 54.03414 117.28676
#
# Poissons Ratio (x) = 0.36492 0.24596
# Poissons Ratio (y) = 0.34112 0.43330
# Poissons Ratio (z) = 0.10592 0.19962
#
# Static dielectric constant tensor:
#      x y z
#    x 1.768920 0.000000 -0.000120 
#    y 0.000000 1.714530 0.000000 
#    z -0.000120 0.000000 1.695360 
# 
# From -- ./inp_files/20730.got.cif
#   From: 2010.05.17/outbox.cif.g08.bks.cpg/sg10_11_cif.got.tgz:20730.got - 2010.06.03 11:33:40.
