data_PCOD9153887
_publ_section_title
;
Structure prediction by ZEFSAII (Michael W. Deem and Ramdas Pophale) SiO2 
 PCOD9153887
Probable space group: P 2/M
;
_chemical_formula_sum "Si O2"
_cell_formula_units_Z 21
_cell_length_a 9.792635
_cell_length_b 10.561983
_cell_length_c 13.574024
_cell_angle_alpha 90.000000
_cell_angle_beta 53.524025
_cell_angle_gamma 90.000000
_cell_volume 1128.930118
_symmetry_space_group_name_H-M "P 2/M"
_symmetry_group_IT_number 10
_symmetry_cell_setting 'monoclinic'
loop_
_space_group_symop_operation_xyz
x,y,z
-x,y,-z
-x,-y,-z
x,-y,z
loop_
_atom_site_type_symbol
_atom_site_label
_atom_site_fract_x
_atom_site_fract_y
_atom_site_fract_z
Si Si1 0.000000 0.500000 0.000000
Si Si2 0.502164 0.000000 0.267110
Si Si3 0.000000 0.211217 0.500000
Si Si4 0.874662 0.000000 0.196731
Si Si5 0.809180 0.000000 0.458334
Si Si6 0.472189 0.787757 0.901475
Si Si7 0.800450 0.646281 0.746047
Si Si8 0.083162 0.258894 0.097140
O O1 0.005890 0.385154 0.081953
O O2 0.698035 0.000000 0.214296
O O3 0.470176 0.118612 0.209139
O O4 0.379558 0.000000 0.414042
O O5 0.131572 0.296505 0.384073
O O6 0.096196 0.120990 0.535717
O O7 0.979872 0.128270 0.127918
O O8 0.827900 0.000000 0.333121
O O9 0.598789 0.669174 0.842814
O O10 0.500000 0.842917 0.000000
O O11 0.274972 0.756250 0.973429
O O12 0.840564 0.500000 0.736142
O O13 0.888588 0.718741 0.798771
#
# Coordination Sequence:
#
# PCOD9153887 Si02
#       8
#     1   2   2   2   2   4   4   4
#     4  12  24  42  62  90 130 176 212 244 306 396
#     4  12  22  41  61  91 128 170 206 262 322 373
#     4  11  21  40  68  92 121 161 214 272 324 366
#     4  12  25  44  64  92 133 171 217 256 313 386
#     4  11  23  39  68  92 119 165 215 268 321 367
#     4  10  23  37  63  93 125 159 212 266 321 374
#     4  11  22  40  65  94 125 165 210 269 322 374
#     4  11  24  41  65  93 128 171 213 257 313 382
#
# _framework density 18.601682
#
# number of rings (size 3 to 8) (size 9 to 14) (size 15 to 20)
#    0.000    0.952    4.762    2.571    1.333    4.571 
#    0.000    0.000    0.000    0.000    0.000    6.667 
#    0.000    0.000    0.000    0.000    0.000    0.000 
#
# Total GULP energy -117000.538065 kJ/mol
# GULP energy per Si atom -5571.454194 kJ/mol
# Density = 1.855934 g / cm^3
# Si number density = 18.601682 Si / 1000 Ang^3
#
#
#
# Elastic Constant Matrix: (Units=GPa)
#
#
# Indices 1 2 3 4 5 6 
#
# 1 68.9073 30.5892 24.9923 0.0000 -2.3252 0.0000
# 2 30.5892 124.1291 35.7429 0.0000 -10.4963 0.0000
# 3 24.9923 35.7429 107.7246 0.0000 0.9560 0.0000
# 4 0.0000 0.0000 0.0000 -73.2122 0.0000 1.6549
# 5 -2.3252 -10.4963 0.9560 0.0000 34.3747 0.0000
# 6 0.0000 0.0000 0.0000 1.6549 0.0000 12.2021
#
#
#
# Elastic Compliance Matrix: (Units=1/GPa)
#
#
# Indices 1 2 3 4 5 6 
#
# 1 0.017043 -0.003365 -0.002839 0.000000 0.000204 0.000000
# 2 -0.003365 0.009850 -0.002513 0.000000 0.002850 0.000000
# 3 -0.002839 -0.002513 0.010787 0.000000 -0.001259 0.000000
# 4 0.000000 0.000000 0.000000 -0.013617 0.000000 0.001847
# 5 0.000204 0.002850 -0.001259 0.000000 0.030010 0.000000
# 6 0.000000 0.000000 0.000000 0.001847 0.000000 0.081703
#
#
# Mechanical properties :
#
#
# Convention : Reuss Voigt Hill
#
# Bulk Modulus (GPa) = 49.39471 53.71220 51.55346
# Shear Modulus (GPa) = 31.25834 8.63537 19.94686
#
# Velocity S-wave (km/s) = 4.10372 2.15693 3.27817
# Velocity P-wave (km/s) = 7.00468 5.92796 6.48869
#
# Compressibility (1/GPa) = 0.02024508
#
# Stress axis : x y z
#
# Youngs Moduli (GPa) = 58.67615 101.52368 92.70795
#
# Poissons Ratio (x) = 0.34163 0.26322
# Poissons Ratio (y) = 0.19745 0.23296
# Poissons Ratio (z) = 0.16660 0.25511
#
# Static dielectric constant tensor:
#      x y z
#    x 1.640590 0.000000 -0.000810 
#    y 0.000000 1.620720 0.000000 
#    z -0.000810 0.000000 1.643490 
# 
# From -- ./inp_files/60649.got.cif
#   From: 2010.05.17/outbox.cif.g08.bks.cpg/sg10_31_cif.got.tgz:60649.got - 2010.06.03 11:33:40.
