data_PCOD9153676
_publ_section_title
;
Structure prediction by ZEFSAII (Michael W. Deem and Ramdas Pophale) SiO2 
 PCOD9153676
Probable space group: P 2/M
;
_chemical_formula_sum "Si O2"
_cell_formula_units_Z 28
_cell_length_a 13.167035
_cell_length_b 13.607246
_cell_length_c 8.853873
_cell_angle_alpha 90.000000
_cell_angle_beta 71.165549
_cell_angle_gamma 90.000000
_cell_volume 1501.383468
_symmetry_space_group_name_H-M "P 2/M"
_symmetry_group_IT_number 10
_symmetry_cell_setting 'monoclinic'
loop_
_space_group_symop_operation_xyz
x,y,z
-x,y,-z
-x,-y,-z
x,-y,z
loop_
_atom_site_type_symbol
_atom_site_label
_atom_site_fract_x
_atom_site_fract_y
_atom_site_fract_z
Si Si1 0.696719 0.611123 0.273194
Si Si2 0.277558 0.292135 0.424282
Si Si3 0.903737 0.612384 0.655303
Si Si4 0.519880 0.615119 0.812415
Si Si5 0.880136 0.893622 0.123395
Si Si6 0.117597 0.885443 0.516589
Si Si7 0.120553 0.693172 0.006442
O O1 0.689501 0.500000 0.338075
O O2 0.708776 0.686718 0.404846
O O3 0.590054 0.629254 0.227124
O O4 0.799234 0.619099 0.114398
O O5 0.201907 0.376945 0.392956
O O6 0.391085 0.309380 0.290062
O O7 0.210153 0.192129 0.426892
O O8 0.924167 0.500000 0.691731
O O9 0.888796 0.675807 0.811921
O O10 0.000000 0.643975 0.500000
O O11 0.552651 0.500000 0.773163
O O12 0.500000 0.627484 0.000000
O O13 0.890102 0.876200 0.297668
O O14 0.827143 0.000000 0.124640
O O15 0.833210 0.800132 0.060351
O O16 0.000000 0.899865 0.000000
O O17 0.000000 0.866703 0.500000
O O18 0.144013 0.000000 0.469208
O O19 0.000000 0.684441 0.000000
#
# Coordination Sequence:
#
# PCOD9153676 Si02
#       7
#     4   4   4   4   4   4   4
#     4  11  22  37  59  87 118 157 202 249 299 360
#     4  12  22  37  61  87 115 154 202 253 302 357
#     4  11  24  37  52  80 121 161 195 239 299 363
#     4  10  22  41  62  85 117 160 207 252 298 357
#     4   9  19  36  57  83 117 154 197 245 296 355
#     4  10  22  40  63  92 125 160 201 251 309 370
#     4  11  22  36  56  84 118 158 197 246 302 367
#
# _framework density 18.649464999999999
#
# number of rings (size 3 to 8) (size 9 to 14) (size 15 to 20)
#    0.000    1.429    1.429    4.286    6.000    4.571 
#    0.000    0.000    0.000    3.429    0.000    0.000 
#    0.000    0.000    0.000    0.000    0.000    0.000 
#
# Total GULP energy -156284.670482 kJ/mol
# GULP energy per Si atom -5581.595374 kJ/mol
# Density = 1.860702 g / cm^3
# Si number density = 18.649465 Si / 1000 Ang^3
#
#
#
# Elastic Constant Matrix: (Units=GPa)
#
#
# Indices 1 2 3 4 5 6 
#
# 1 105.5281 47.8432 49.4430 0.0000 -3.7032 0.0000
# 2 47.8432 122.9450 48.5200 0.0000 2.0847 0.0000
# 3 49.4430 48.5200 116.0986 0.0000 3.7313 0.0000
# 4 0.0000 0.0000 0.0000 30.0026 0.0000 -2.1012
# 5 -3.7032 2.0847 3.7313 0.0000 33.5796 0.0000
# 6 0.0000 0.0000 0.0000 -2.1012 0.0000 26.1392
#
#
#
# Elastic Compliance Matrix: (Units=1/GPa)
#
#
# Indices 1 2 3 4 5 6 
#
# 1 0.013090 -0.003476 -0.004190 0.000000 0.002125 0.000000
# 2 -0.003476 0.010664 -0.002953 0.000000 -0.000717 0.000000
# 3 -0.004190 -0.002953 0.011683 0.000000 -0.001577 0.000000
# 4 0.000000 0.000000 0.000000 0.033519 0.000000 0.002694
# 5 0.002125 -0.000717 -0.001577 0.000000 0.030234 0.000000
# 6 0.000000 0.000000 0.000000 0.002694 0.000000 0.038473
#
#
# Mechanical properties :
#
#
# Convention : Reuss Voigt Hill
#
# Bulk Modulus (GPa) = 70.43493 70.68714 70.56104
# Shear Modulus (GPa) = 30.55577 31.19531 30.87554
#
# Velocity S-wave (km/s) = 4.05214 4.09433 4.07329
# Velocity P-wave (km/s) = 7.72935 7.76767 7.74853
#
# Compressibility (1/GPa) = 0.01419750
#
# Stress axis : x y z
#
# Youngs Moduli (GPa) = 76.39454 93.77207 85.59644
#
# Poissons Ratio (x) = 0.32598 0.35866
# Poissons Ratio (y) = 0.26557 0.25279
# Poissons Ratio (z) = 0.32010 0.27694
#
# Static dielectric constant tensor:
#      x y z
#    x 1.672550 0.000000 -0.088470 
#    y 0.000000 1.724040 0.000000 
#    z -0.088470 0.000000 1.817450 
# 
# From -- ./inp_files/24871.got.cif
#   From: 2010.05.17/outbox.cif.g08.bks.cpg/sg10_13_cif.got.tgz:24871.got - 2010.06.03 11:33:40.
