data_PCOD9153981
_publ_section_title
;
Structure prediction by ZEFSAII (Michael W. Deem and Ramdas Pophale) SiO2 
 PCOD9153981
Probable space group: P 2/M
;
_chemical_formula_sum "Si O2"
_cell_formula_units_Z 26
_cell_length_a 21.220982
_cell_length_b 8.537984
_cell_length_c 8.181761
_cell_angle_alpha 90.000000
_cell_angle_beta 128.549144
_cell_angle_gamma 90.000000
_cell_volume 1159.352246
_symmetry_space_group_name_H-M "P 2/M"
_symmetry_group_IT_number 10
_symmetry_cell_setting 'monoclinic'
loop_
_space_group_symop_operation_xyz
x,y,z
-x,y,-z
-x,-y,-z
x,-y,z
loop_
_atom_site_type_symbol
_atom_site_label
_atom_site_fract_x
_atom_site_fract_y
_atom_site_fract_z
Si Si1 0.311848 0.177782 0.512293
Si Si2 0.209868 0.186312 0.868153
Si Si3 0.000000 0.744911 0.000000
Si Si4 0.935176 0.320227 0.532696
Si Si5 0.466052 0.677879 0.627534
Si Si6 0.375763 0.183157 0.982825
Si Si7 0.842939 0.318105 0.873720
O O1 0.388801 0.213988 0.524937
O O2 0.343755 0.193410 0.747251
O O3 0.238735 0.292274 0.357010
O O4 0.284068 0.000000 0.439474
O O5 0.146493 0.222143 0.620959
O O6 0.300704 0.237481 0.972365
O O7 0.211337 0.000000 0.899696
O O8 0.177104 0.276790 0.972589
O O9 0.970906 0.681074 0.773349
O O10 0.912039 0.798507 0.919101
O O11 0.915904 0.500000 0.460553
O O12 0.000000 0.265452 0.500000
O O13 0.500000 0.687541 0.500000
O O14 0.441159 0.500000 0.623148
O O15 0.541428 0.726313 0.860592
O O16 0.391441 0.000000 0.045194
O O17 0.870498 0.500000 0.901382
#
# Coordination Sequence:
#
# PCOD9153981 Si02
#       7
#     4   4   2   4   4   4   4
#     4  11  24  43  65  94 130 168 213 264 326 390
#     4  11  24  43  65  95 134 173 217 269 329 390
#     4  12  25  44  69  98 131 174 223 278 337 394
#     4  11  22  41  67  93 127 171 221 271 328 393
#     4  11  24  41  64  96 129 165 214 265 317 383
#     4  10  23  42  64  91 129 172 212 262 325 390
#     4  12  24  42  67  95 129 170 220 271 328 392
#
# _framework density 22.426317999999998
#
# number of rings (size 3 to 8) (size 9 to 14) (size 15 to 20)
#    0.000    0.923    1.538    5.538    0.000    8.308 
#    0.000    2.692    0.000    0.000    0.000    0.000 
#    0.000    0.000    0.000    0.000    0.000    0.000 
#
# Total GULP energy -145231.771328 kJ/mol
# GULP energy per Si atom -5585.837359 kJ/mol
# Density = 2.237527 g / cm^3
# Si number density = 22.426318 Si / 1000 Ang^3
#
#
#
# Elastic Constant Matrix: (Units=GPa)
#
#
# Indices 1 2 3 4 5 6 
#
# 1 76.2281 1.9187 4.9564 0.0000 1.1242 0.0000
# 2 1.9187 35.2531 17.1510 0.0000 -6.9559 0.0000
# 3 4.9564 17.1510 70.0931 0.0000 6.4975 0.0000
# 4 0.0000 0.0000 0.0000 51.5243 0.0000 14.5744
# 5 1.1242 -6.9559 6.4975 0.0000 35.6124 0.0000
# 6 0.0000 0.0000 0.0000 14.5744 0.0000 22.9332
#
#
#
# Elastic Compliance Matrix: (Units=1/GPa)
#
#
# Indices 1 2 3 4 5 6 
#
# 1 0.013186 -0.000395 -0.000804 0.000000 -0.000347 0.000000
# 2 -0.000395 0.034530 -0.009203 0.000000 0.008436 0.000000
# 3 -0.000804 -0.009203 0.017028 0.000000 -0.004879 0.000000
# 4 0.000000 0.000000 0.000000 0.023662 0.000000 -0.015037
# 5 -0.000347 0.008436 -0.004879 0.000000 0.030629 0.000000
# 6 0.000000 0.000000 0.000000 -0.015037 0.000000 0.053161
#
#
# Mechanical properties :
#
#
# Convention : Reuss Voigt Hill
#
# Bulk Modulus (GPa) = 22.75847 25.51405 24.13626
# Shear Modulus (GPa) = 24.07948 32.51720 28.29834
#
# Velocity S-wave (km/s) = 3.28031 3.81196 3.55609
# Velocity P-wave (km/s) = 4.95151 5.54764 5.25803
#
# Compressibility (1/GPa) = 0.04393969
#
# Stress axis : x y z
#
# Youngs Moduli (GPa) = 75.83897 28.96053 58.72771
#
# Poissons Ratio (x) = 0.01144 0.04719
# Poissons Ratio (y) = 0.02997 0.54048
# Poissons Ratio (z) = 0.06094 0.26653
#
# Static dielectric constant tensor:
#      x y z
#    x 1.817370 0.000000 -0.018080 
#    y 0.000000 1.808980 0.000000 
#    z -0.018080 0.000000 1.813100 
# 
# From -- ./inp_files/34275.got.cif
#   From: 2010.05.17/outbox.cif.g08.bks.cpg/sg10_18_cif.got.tgz:34275.got - 2010.06.03 11:33:40.
