data_PCOD9153664
_publ_section_title
;
Structure prediction by ZEFSAII (Michael W. Deem and Ramdas Pophale) SiO2 
 PCOD9153664
Probable space group: P 2/M
;
_chemical_formula_sum "Si O2"
_cell_formula_units_Z 21
_cell_length_a 12.449152
_cell_length_b 11.556124
_cell_length_c 14.155498
_cell_angle_alpha 90.000000
_cell_angle_beta 149.532223
_cell_angle_gamma 90.000000
_cell_volume 1032.597515
_symmetry_space_group_name_H-M "P 2/M"
_symmetry_group_IT_number 10
_symmetry_cell_setting 'monoclinic'
loop_
_space_group_symop_operation_xyz
x,y,z
-x,y,-z
-x,-y,-z
x,-y,z
loop_
_atom_site_type_symbol
_atom_site_label
_atom_site_fract_x
_atom_site_fract_y
_atom_site_fract_z
Si Si1 0.440910 0.749279 0.177248
Si Si2 0.030851 0.252219 0.736030
Si Si3 0.050529 0.000000 0.266598
Si Si4 0.593884 0.362178 0.472907
Si Si5 0.500000 0.000000 0.500000
Si Si6 0.348737 0.000000 0.173806
Si Si7 0.708628 0.366593 0.225710
O O1 0.440810 0.675249 0.272454
O O2 0.634810 0.705741 0.260173
O O3 0.457500 0.883046 0.218153
O O4 0.226539 0.729881 0.956348
O O5 0.105967 0.309023 0.695017
O O6 0.991564 0.115145 0.704599
O O7 0.821332 0.309953 0.619841
O O8 0.286286 0.000000 0.404350
O O9 0.882196 0.000000 0.051938
O O10 0.500000 0.314754 0.500000
O O11 0.610512 0.500000 0.491528
O O12 0.353020 0.000000 0.290119
O O13 0.754578 0.500000 0.284897
O O14 0.500000 0.367329 0.000000
#
# Coordination Sequence:
#
# PCOD9153664 Si02
#       7
#     4   4   2   4   1   2   4
#     4  10  22  40  62  92 125 159 204 255 306 367
#     4  10  22  40  62  92 125 159 204 255 306 367
#     4  10  23  38  61  94 122 163 205 246 312 369
#     4  11  25  41  59  87 119 162 212 254 310 366
#     4  12  22  40  60  80 126 164 202 260 286 356
#     4  10  23  38  61  94 122 163 205 246 312 369
#     4   9  18  36  64  91 121 165 206 248 306 364
#
# _framework density 20.337063000000001
#
# number of rings (size 3 to 8) (size 9 to 14) (size 15 to 20)
#    0.000    1.905    0.000    2.571    5.333    4.571 
#    0.000    7.619    0.000    3.429    0.000    0.000 
#    0.000    0.000    0.000    0.000    0.000    0.000 
#
# Total GULP energy -117137.759811 kJ/mol
# GULP energy per Si atom -5577.988562 kJ/mol
# Density = 2.029077 g / cm^3
# Si number density = 20.337063 Si / 1000 Ang^3
#
#
#
# Elastic Constant Matrix: (Units=GPa)
#
#
# Indices 1 2 3 4 5 6 
#
# 1 131.0699 55.0090 10.8201 0.0000 15.6977 0.0000
# 2 55.0090 109.9828 20.3063 0.0000 15.3497 0.0000
# 3 10.8201 20.3063 57.2636 0.0000 16.7331 0.0000
# 4 0.0000 0.0000 0.0000 28.0563 0.0000 15.7448
# 5 15.6977 15.3497 16.7331 0.0000 35.1923 0.0000
# 6 0.0000 0.0000 0.0000 15.7448 0.0000 31.6159
#
#
#
# Elastic Compliance Matrix: (Units=1/GPa)
#
#
# Indices 1 2 3 4 5 6 
#
# 1 0.009856 -0.004667 0.000560 0.000000 -0.002628 0.000000
# 2 -0.004667 0.012224 -0.002907 0.000000 -0.001868 0.000000
# 3 0.000560 -0.002907 0.021010 0.000000 -0.008972 0.000000
# 4 0.000000 0.000000 0.000000 0.049467 0.000000 -0.024635
# 5 -0.002628 -0.001868 -0.008972 0.000000 0.034668 0.000000
# 6 0.000000 0.000000 0.000000 -0.024635 0.000000 0.043898
#
#
# Mechanical properties :
#
#
# Convention : Reuss Voigt Hill
#
# Bulk Modulus (GPa) = 34.40802 52.28745 43.34773
# Shear Modulus (GPa) = 25.66242 33.11830 29.39036
#
# Velocity S-wave (km/s) = 3.55611 4.03981 3.80565
# Velocity P-wave (km/s) = 5.81523 6.89393 6.37743
#
# Compressibility (1/GPa) = 0.02906299
#
# Stress axis : x y z
#
# Youngs Moduli (GPa) = 101.45630 81.80792 47.59702
#
# Poissons Ratio (x) = 0.38176 -0.02666
# Poissons Ratio (y) = 0.47345 0.13837
# Poissons Ratio (z) = -0.05683 0.23783
#
# Static dielectric constant tensor:
#      x y z
#    x 1.673550 0.000000 -0.017300 
#    y 0.000000 15.322830 0.000000 
#    z -0.017300 0.000000 1.746040 
# 
# From -- ./inp_files/64749.got.cif
#   From: 2010.05.17/outbox.cif.g08.bks.cpg/sg10_33_cif.got.tgz:64749.got - 2010.06.03 11:33:40.
