data_PCOD9153792
_publ_section_title
;
Structure prediction by ZEFSAII (Michael W. Deem and Ramdas Pophale) SiO2 
 PCOD9153792
Probable space group: P 2/M
;
_chemical_formula_sum "Si O2"
_cell_formula_units_Z 19
_cell_length_a 16.758427
_cell_length_b 9.801161
_cell_length_c 10.626616
_cell_angle_alpha 90.000000
_cell_angle_beta 33.154121
_cell_angle_gamma 90.000000
_cell_volume 954.570791
_symmetry_space_group_name_H-M "P 2/M"
_symmetry_group_IT_number 10
_symmetry_cell_setting 'monoclinic'
loop_
_space_group_symop_operation_xyz
x,y,z
-x,y,-z
-x,-y,-z
x,-y,z
loop_
_atom_site_type_symbol
_atom_site_label
_atom_site_fract_x
_atom_site_fract_y
_atom_site_fract_z
Si Si1 0.896388 0.500000 0.451140
Si Si2 0.701715 0.774332 0.373835
Si Si3 0.372163 0.500000 0.388143
Si Si4 0.061591 0.000000 0.279090
Si Si5 0.305261 0.500000 0.040270
Si Si6 0.122877 0.000000 0.728018
Si Si7 0.500000 0.000000 0.500000
Si Si8 0.154335 0.713078 0.074691
O O1 0.765646 0.500000 0.523365
O O2 0.818687 0.500000 0.689173
O O3 0.003322 0.630515 0.294004
O O4 0.637857 0.636718 0.515612
O O5 0.785469 0.863295 0.367994
O O6 0.588935 0.879630 0.460580
O O7 0.811033 0.729228 0.117677
O O8 0.533721 0.500000 0.115671
O O9 0.000000 0.000000 0.500000
O O10 0.151311 0.136821 0.136928
O O11 0.943253 0.000000 0.323353
O O12 0.276125 0.627708 0.987451
O O13 0.000000 0.000000 0.000000
#
# Coordination Sequence:
#
# PCOD9153792 Si02
#       8
#     2   4   2   2   2   2   1   4
#     4  11  24  41  60  87 126 171 208 267 331 381
#     4  11  23  39  66  96 127 167 209 272 329 382
#     4  12  25  38  64  92 125 166 220 265 318 399
#     4  12  22  36  62  96 125 164 210 260 319 391
#     4  11  24  43  58  85 130 173 209 260 329 391
#     4  11  21  41  62  93 137 162 206 269 338 375
#     4  10  22  42  58  92 136 168 200 248 346 402
#     4  11  22  39  65  91 123 160 216 272 318 382
#
# _framework density 19.904235
#
# number of rings (size 3 to 8) (size 9 to 14) (size 15 to 20)
#    0.000    0.842    2.105    7.263    0.000    2.105 
#    0.000    0.000    0.000    0.000    0.000   14.737 
#    0.000    0.000    0.000    0.000    0.000    0.000 
#
# Total GULP energy -105961.940781 kJ/mol
# GULP energy per Si atom -5576.944252 kJ/mol
# Density = 1.985893 g / cm^3
# Si number density = 19.904235 Si / 1000 Ang^3
#
#
#
# Elastic Constant Matrix: (Units=GPa)
#
#
# Indices 1 2 3 4 5 6 
#
# 1 101.6036 42.6814 27.9004 0.0000 -3.2394 0.0000
# 2 42.6814 174.6556 33.2842 0.0000 -9.0873 0.0000
# 3 27.9004 33.2842 58.0964 0.0000 2.6605 0.0000
# 4 0.0000 0.0000 0.0000 22.0074 0.0000 -6.0777
# 5 -3.2394 -9.0873 2.6605 0.0000 39.7495 0.0000
# 6 0.0000 0.0000 0.0000 -6.0777 0.0000 22.2248
#
#
#
# Elastic Compliance Matrix: (Units=1/GPa)
#
#
# Indices 1 2 3 4 5 6 
#
# 1 0.011985 -0.002000 -0.004648 0.000000 0.000831 0.000000
# 2 -0.002000 0.006881 -0.003055 0.000000 0.001615 0.000000
# 3 -0.004648 -0.003055 0.021310 0.000000 -0.002504 0.000000
# 4 0.000000 0.000000 0.000000 0.049151 0.000000 0.013441
# 5 0.000831 0.001615 -0.002504 0.000000 0.025762 0.000000
# 6 0.000000 0.000000 0.000000 0.013441 0.000000 0.048670
#
#
# Mechanical properties :
#
#
# Convention : Reuss Voigt Hill
#
# Bulk Modulus (GPa) = 48.14864 60.23195 54.19029
# Shear Modulus (GPa) = 26.30344 32.16231 29.23287
#
# Velocity S-wave (km/s) = 3.63919 4.02413 3.83649
# Velocity P-wave (km/s) = 6.47309 7.20542 6.84905
#
# Compressibility (1/GPa) = 0.02076902
#
# Stress axis : x y z
#
# Youngs Moduli (GPa) = 83.43683 145.33706 46.92597
#
# Poissons Ratio (x) = 0.29065 0.21811
# Poissons Ratio (y) = 0.16686 0.14338
# Poissons Ratio (z) = 0.38782 0.44408
#
# Static dielectric constant tensor:
#      x y z
#    x 1.787350 0.000000 0.105820 
#    y 0.000000 1.705110 0.000000 
#    z 0.105820 0.000000 1.872180 
# 
# From -- ./inp_files/53033.got.cif
#   From: 2010.05.17/outbox.cif.g08.bks.cpg/sg10_27_cif.got.tgz:53033.got - 2010.06.03 11:33:40.
