data_PCOD9153731
_publ_section_title
;
Structure prediction by ZEFSAII (Michael W. Deem and Ramdas Pophale) SiO2 
 PCOD9153731
Probable space group: P 2/M
;
_chemical_formula_sum "Si O2"
_cell_formula_units_Z 28
_cell_length_a 21.849234
_cell_length_b 9.264994
_cell_length_c 9.390503
_cell_angle_alpha 90.000000
_cell_angle_beta 45.895393
_cell_angle_gamma 90.000000
_cell_volume 1365.014303
_symmetry_space_group_name_H-M "P 2/M"
_symmetry_group_IT_number 10
_symmetry_cell_setting 'monoclinic'
loop_
_space_group_symop_operation_xyz
x,y,z
-x,y,-z
-x,-y,-z
x,-y,z
loop_
_atom_site_type_symbol
_atom_site_label
_atom_site_fract_x
_atom_site_fract_y
_atom_site_fract_z
Si Si1 0.653752 0.832804 0.721846
Si Si2 0.609776 0.835204 0.125747
Si Si3 0.556670 0.332147 0.643112
Si Si4 0.832577 0.328534 0.436352
Si Si5 0.031609 0.828236 0.608658
Si Si6 0.712584 0.335628 0.169209
Si Si7 0.895998 0.331731 0.018896
O O1 0.582854 0.758413 0.739144
O O2 0.741346 0.745440 0.563361
O O3 0.664615 0.000000 0.661549
O O4 0.628159 0.829037 0.928234
O O5 0.528324 0.734903 0.285483
O O6 0.690304 0.775202 0.081442
O O7 0.591630 0.000000 0.195805
O O8 0.543073 0.500000 0.699312
O O9 0.636929 0.322016 0.406993
O O10 0.822837 0.500000 0.472215
O O11 0.885574 0.306234 0.204135
O O12 0.882926 0.255172 0.484270
O O13 0.000000 0.795279 0.500000
O O14 0.044213 0.000000 0.600079
O O15 0.960365 0.772186 0.833976
O O16 0.710744 0.500000 0.116291
O O17 0.802634 0.313995 0.100040
O O18 0.922397 0.500000 0.956430
#
# Coordination Sequence:
#
# PCOD9153731 Si02
#       7
#     4   4   4   4   4   4   4
#     4  11  24  41  62  91 129 166 206 258 313 369
#     4  11  25  40  58  90 129 167 209 259 315 369
#     4  11  22  41  65  91 122 163 214 261 310 369
#     4  11  23  43  69  95 124 162 211 258 305 366
#     4  11  26  44  64  96 134 165 200 249 307 369
#     4  10  22  41  63  91 125 162 209 261 310 365
#     4  10  22  43  67  94 125 161 209 259 306 365
#
# _framework density 20.512605000000001
#
# number of rings (size 3 to 8) (size 9 to 14) (size 15 to 20)
#    0.000    1.286    1.429    3.429    2.000   11.429 
#    0.000    0.000    0.000    0.000    0.000    0.000 
#    0.000    0.000    0.000    0.000    0.000    0.000 
#
# Total GULP energy -156680.560857 kJ/mol
# GULP energy per Si atom -5595.734316 kJ/mol
# Density = 2.046592 g / cm^3
# Si number density = 20.512605 Si / 1000 Ang^3
#
#
#
# Elastic Constant Matrix: (Units=GPa)
#
#
# Indices 1 2 3 4 5 6 
#
# 1 103.1805 57.4251 6.7889 0.0000 15.5767 0.0000
# 2 57.4251 118.4079 31.7869 0.0000 10.8884 0.0000
# 3 6.7889 31.7869 33.0268 0.0000 -4.2550 0.0000
# 4 0.0000 0.0000 0.0000 224.3057 0.0000 -102.1690
# 5 15.5767 10.8884 -4.2550 0.0000 26.5277 0.0000
# 6 0.0000 0.0000 0.0000 -102.1690 0.0000 121.5583
#
#
#
# Elastic Compliance Matrix: (Units=1/GPa)
#
#
# Indices 1 2 3 4 5 6 
#
# 1 0.014344 -0.007501 0.003658 0.000000 -0.004757 0.000000
# 2 -0.007501 0.016553 -0.015008 0.000000 -0.004797 0.000000
# 3 0.003658 -0.015008 0.045427 0.000000 0.011299 0.000000
# 4 0.000000 0.000000 0.000000 0.007224 0.000000 0.006071
# 5 -0.004757 -0.004797 0.011299 0.000000 0.044271 0.000000
# 6 0.000000 0.000000 0.000000 0.006071 0.000000 0.013330
#
#
# Mechanical properties :
#
#
# Convention : Reuss Voigt Hill
#
# Bulk Modulus (GPa) = 25.89194 49.62411 37.75803
# Shear Modulus (GPa) = 26.07913 85.05261 55.56587
#
# Velocity S-wave (km/s) = 3.56950 6.44621 5.21032
# Velocity P-wave (km/s) = 5.44410 8.92465 7.39214
#
# Compressibility (1/GPa) = 0.03862206
#
# Stress axis : x y z
#
# Youngs Moduli (GPa) = 69.71590 60.41093 22.01345
#
# Poissons Ratio (x) = 0.45315 -0.08053
# Poissons Ratio (y) = 0.52294 0.33038
# Poissons Ratio (z) = -0.25503 0.90665
#
# Static dielectric constant tensor:
#      x y z
#    x 1.716270 0.000000 0.003350 
#    y 0.000000 1.691100 0.000000 
#    z 0.003350 0.000000 1.721360 
# 
# From -- ./inp_files/34212.got.cif
#   From: 2010.05.17/outbox.cif.g08.bks.cpg/sg10_18_cif.got.tgz:34212.got - 2010.06.03 11:33:40.
