data_PCOD9153447
_publ_section_title
;
Structure prediction by ZEFSAII (Michael W. Deem and Ramdas Pophale) SiO2 
 PCOD9153447
Probable space group: P 2/M
;
_chemical_formula_sum "Si O2"
_cell_formula_units_Z 18
_cell_length_a 5.629457
_cell_length_b 9.932630
_cell_length_c 15.751672
_cell_angle_alpha 90.000000
_cell_angle_beta 67.943572
_cell_angle_gamma 90.000000
_cell_volume 816.300816
_symmetry_space_group_name_H-M "P 2/M"
_symmetry_group_IT_number 10
_symmetry_cell_setting 'monoclinic'
loop_
_space_group_symop_operation_xyz
x,y,z
-x,y,-z
-x,-y,-z
x,-y,z
loop_
_atom_site_type_symbol
_atom_site_label
_atom_site_fract_x
_atom_site_fract_y
_atom_site_fract_z
Si Si1 0.052370 0.652806 0.178598
Si Si2 0.693199 0.652930 0.555654
Si Si3 0.496602 0.855401 0.118241
Si Si4 0.000000 0.258336 0.000000
Si Si5 0.356676 0.848658 0.704812
O O1 0.054567 0.500000 0.207842
O O2 0.325495 0.723633 0.136830
O O3 0.884464 0.747413 0.262667
O O4 0.962973 0.659332 0.091836
O O5 0.500000 0.659900 0.500000
O O6 0.659939 0.500000 0.595093
O O7 0.589254 0.770521 0.629744
O O8 0.000000 0.669073 0.500000
O O9 0.586402 0.862438 0.203418
O O10 0.367772 0.000000 0.117888
O O11 0.747914 0.833490 0.027896
O O12 0.311219 0.000000 0.676666
#
# Coordination Sequence:
#
# PCOD9153447 Si02
#       5
#     4   4   4   2   4
#     4  11  23  38  60  87 121 162 207 260 316 377
#     4  10  23  43  68 100 135 172 214 264 325 392
#     4  10  22  39  60  87 121 161 206 258 315 376
#     4  10  22  38  58  86 118 160 210 258 310 376
#     4  10  23  42  63  90 124 163 210 259 314 380
#
# _framework density 22.050695000000001
#
# number of rings (size 3 to 8) (size 9 to 14) (size 15 to 20)
#    0.000    1.778    0.000    2.667    3.111   10.667 
#    0.000    0.000    0.000    0.000    0.000    0.000 
#    0.000    0.000    0.000    0.000    0.000    0.000 
#
# Total GULP energy -100450.142633 kJ/mol
# GULP energy per Si atom -5580.563480 kJ/mol
# Density = 2.200051 g / cm^3
# Si number density = 22.050695 Si / 1000 Ang^3
#
#
#
# Elastic Constant Matrix: (Units=GPa)
#
#
# Indices 1 2 3 4 5 6 
#
# 1 76.5062 45.2275 12.7156 0.0000 -28.7966 0.0000
# 2 45.2275 221.6204 61.9418 0.0000 -34.5196 0.0000
# 3 12.7156 61.9418 66.4129 0.0000 -32.2734 0.0000
# 4 0.0000 0.0000 0.0000 49.9954 0.0000 -19.0908
# 5 -28.7966 -34.5196 -32.2734 0.0000 32.1228 0.0000
# 6 0.0000 0.0000 0.0000 -19.0908 0.0000 22.2832
#
#
#
# Elastic Compliance Matrix: (Units=1/GPa)
#
#
# Indices 1 2 3 4 5 6 
#
# 1 0.026058 -0.004371 0.015938 0.000000 0.034675 0.000000
# 2 -0.004371 0.006881 -0.007605 0.000000 -0.004165 0.000000
# 3 0.015938 -0.007605 0.043126 0.000000 0.049444 0.000000
# 4 0.000000 0.000000 0.000000 0.029727 0.000000 0.025468
# 5 0.034675 -0.004165 0.049444 0.000000 0.107415 0.000000
# 6 0.000000 0.000000 0.000000 0.025468 0.000000 0.066696
#
#
# Mechanical properties :
#
#
# Convention : Reuss Voigt Hill
#
# Bulk Modulus (GPa) = 11.90635 67.14548 39.52592
# Shear Modulus (GPa) = 16.66810 37.19059 26.92934
#
# Velocity S-wave (km/s) = 2.75234 4.11127 3.49843
# Velocity P-wave (km/s) = 3.93850 7.28377 5.85513
#
# Compressibility (1/GPa) = 0.08398877
#
# Stress axis : x y z
#
# Youngs Moduli (GPa) = 38.37663 145.32496 23.18803
#
# Poissons Ratio (x) = 0.63529 -0.36958
# Poissons Ratio (y) = 0.16776 0.17634
# Poissons Ratio (z) = -0.61166 1.10515
#
# Static dielectric constant tensor:
#      x y z
#    x 1.879140 0.000000 0.036230 
#    y 0.000000 1.810010 0.000000 
#    z 0.036230 0.000000 1.820410 
# 
# From -- ./inp_files/10650.got.cif
#   From: 2010.05.17/outbox.cif.g08.bks.cpg/sg10_6_cif.got.tgz:10650.got - 2010.06.03 11:33:40.
