data_PCOD9153209
_publ_section_title
;
Structure prediction by ZEFSAII (Michael W. Deem and Ramdas Pophale) SiO2 
 PCOD9153209
Probable space group: P 2/M
;
_chemical_formula_sum "Si O2"
_cell_formula_units_Z 24
_cell_length_a 8.571385
_cell_length_b 20.978203
_cell_length_c 8.416923
_cell_angle_alpha 90.000000
_cell_angle_beta 53.233173
_cell_angle_gamma 90.000000
_cell_volume 1212.404325
_symmetry_space_group_name_H-M "P 2/M"
_symmetry_group_IT_number 10
_symmetry_cell_setting 'monoclinic'
loop_
_space_group_symop_operation_xyz
x,y,z
-x,y,-z
-x,-y,-z
x,-y,z
loop_
_atom_site_type_symbol
_atom_site_label
_atom_site_fract_x
_atom_site_fract_y
_atom_site_fract_z
Si Si1 0.950918 0.325916 0.344038
Si Si2 0.351641 0.771031 0.368956
Si Si3 0.638710 0.665844 0.051998
Si Si4 0.715880 0.427168 0.294271
Si Si5 0.000000 0.149932 0.500000
Si Si6 0.924036 0.073756 0.218677
Si Si7 0.500000 0.878962 0.500000
O O1 0.783790 0.271766 0.430863
O O2 0.861500 0.389315 0.321140
O O3 0.000000 0.334942 0.500000
O O4 0.155214 0.309593 0.138401
O O5 0.505396 0.722876 0.200325
O O6 0.461135 0.829810 0.381154
O O7 0.187586 0.804870 0.362602
O O8 0.693255 0.613832 0.149150
O O9 0.500000 0.636716 0.000000
O O10 0.500000 0.427518 0.500000
O O11 0.776938 0.500000 0.230676
O O12 0.019391 0.110158 0.652192
O O13 0.690931 0.079994 0.355282
O O14 0.985738 0.000000 0.194502
O O15 0.000000 0.098356 0.000000
#
# Coordination Sequence:
#
# PCOD9153209 Si02
#       7
#     4   4   4   4   2   4   2
#     4  12  23  42  64  89 125 163 205 256 325 377
#     4  11  21  40  59  94 128 156 208 255 312 381
#     4  12  23  40  66  88 125 168 199 262 322 380
#     4  11  24  43  65  90 121 160 213 264 312 382
#     4  10  21  40  68  94 131 166 212 268 308 378
#     4  10  22  42  64  93 130 171 215 259 313 370
#     4  10  23  36  64  92 127 164 208 260 310 368
#
# _framework density 19.795376000000001
#
# number of rings (size 3 to 8) (size 9 to 14) (size 15 to 20)
#    0.000    1.000    4.167    2.000    0.000    6.000 
#    0.000    2.500    0.000    9.000    0.000    0.000 
#    0.000    0.000    0.000    0.000    0.000    0.000 
#
# Total GULP energy -133976.394981 kJ/mol
# GULP energy per Si atom -5582.349791 kJ/mol
# Density = 1.975032 g / cm^3
# Si number density = 19.795376 Si / 1000 Ang^3
#
#
#
# Elastic Constant Matrix: (Units=GPa)
#
#
# Indices 1 2 3 4 5 6 
#
# 1 80.6699 35.1005 30.8950 0.0000 -1.1600 0.0000
# 2 35.1005 97.7862 37.0814 0.0000 8.2101 0.0000
# 3 30.8950 37.0814 123.7560 0.0000 -12.8063 0.0000
# 4 0.0000 0.0000 0.0000 30.0043 0.0000 -0.1461
# 5 -1.1600 8.2101 -12.8063 0.0000 40.7946 0.0000
# 6 0.0000 0.0000 0.0000 -0.1461 0.0000 32.1181
#
#
#
# Elastic Compliance Matrix: (Units=1/GPa)
#
#
# Indices 1 2 3 4 5 6 
#
# 1 0.015340 -0.004662 -0.002368 0.000000 0.000631 0.000000
# 2 -0.004662 0.013465 -0.003271 0.000000 -0.003869 0.000000
# 3 -0.002368 -0.003271 0.010039 0.000000 0.003742 0.000000
# 4 0.000000 0.000000 0.000000 0.033329 0.000000 0.000152
# 5 0.000631 -0.003869 0.003742 0.000000 0.026485 0.000000
# 6 0.000000 0.000000 0.000000 0.000152 0.000000 0.031136
#
#
# Mechanical properties :
#
#
# Convention : Reuss Voigt Hill
#
# Bulk Modulus (GPa) = 54.81412 56.48511 55.64962
# Shear Modulus (GPa) = 31.95382 33.85909 32.90646
#
# Velocity S-wave (km/s) = 4.02208 4.14025 4.08159
# Velocity P-wave (km/s) = 7.02282 7.17301 7.09831
#
# Compressibility (1/GPa) = 0.01824347
#
# Stress axis : x y z
#
# Youngs Moduli (GPa) = 65.18770 74.26648 99.61252
#
# Poissons Ratio (x) = 0.34620 0.23584
# Poissons Ratio (y) = 0.30388 0.32585
# Poissons Ratio (z) = 0.15433 0.24294
#
# Static dielectric constant tensor:
#      x y z
#    x 1.768290 0.000000 0.033910 
#    y 0.000000 1.682340 0.000000 
#    z 0.033910 0.000000 1.727420 
# 
# From -- ./inp_files/20152.got.cif
#   From: 2010.05.17/outbox.cif.g08.bks.cpg/sg10_11_cif.got.tgz:20152.got - 2010.06.03 11:33:40.
