data_PCOD9153454
_publ_section_title
;
Structure prediction by ZEFSAII (Michael W. Deem and Ramdas Pophale) SiO2 
 PCOD9153454
Probable space group: P 2/M
;
_chemical_formula_sum "Si O2"
_cell_formula_units_Z 32
_cell_length_a 14.080145
_cell_length_b 21.195602
_cell_length_c 14.008158
_cell_angle_alpha 90.000000
_cell_angle_beta 159.244053
_cell_angle_gamma 90.000000
_cell_volume 1481.538845
_symmetry_space_group_name_H-M "P 2/M"
_symmetry_group_IT_number 10
_symmetry_cell_setting 'monoclinic'
loop_
_space_group_symop_operation_xyz
x,y,z
-x,y,-z
-x,-y,-z
x,-y,z
loop_
_atom_site_type_symbol
_atom_site_label
_atom_site_fract_x
_atom_site_fract_y
_atom_site_fract_z
Si Si1 0.118082 0.170560 0.503933
Si Si2 0.398195 0.930131 0.514142
Si Si3 0.283264 0.698185 0.722118
Si Si4 0.329706 0.136498 0.067665
Si Si5 0.955927 0.190709 0.845569
Si Si6 0.572901 0.429855 0.236490
Si Si7 0.222392 0.321692 0.290381
Si Si8 0.012952 0.431022 0.803522
O O1 0.188662 0.245808 0.562284
O O2 0.398772 0.140166 0.737633
O O3 0.000000 0.163264 0.500000
O O4 0.899796 0.141160 0.227841
O O5 0.500000 0.927533 0.500000
O O6 0.620452 0.917597 0.805167
O O7 0.196971 0.871639 0.332786
O O8 0.282353 0.000000 0.419299
O O9 0.426992 0.635016 0.820976
O O10 0.000000 0.677464 0.500000
O O11 0.500000 0.727611 0.000000
O O12 0.233509 0.193460 0.048102
O O13 0.781725 0.252973 0.665234
O O14 0.000000 0.183102 0.000000
O O15 0.537169 0.500000 0.157321
O O16 0.858689 0.431012 0.557784
O O17 0.328522 0.424036 0.081977
O O18 0.500000 0.335359 0.500000
O O19 0.122499 0.375891 0.265421
O O20 0.000000 0.316688 0.000000
O O21 0.965948 0.500000 0.804160
#
# Coordination Sequence:
#
# PCOD9153454 Si02
#       8
#     4   4   4   4   4   4   4   4
#     4  11  25  44  66 100 136 172 236 296 335 397
#     4  11  24  44  72 108 150 187 225 277 333 418
#     4  11  23  40  63  93 126 164 216 280 347 412
#     4  12  24  42  72 101 132 191 219 270 353 402
#     4  11  24  41  66 103 149 173 229 280 343 427
#     4  10  22  38  59  88 124 163 211 270 333 411
#     4  11  25  39  60  90 126 170 216 280 335 391
#     4  10  22  40  60  86 122 170 226 274 324 400
#
# _framework density 21.599163999999998
#
# number of rings (size 3 to 8) (size 9 to 14) (size 15 to 20)
#    0.000    1.125    2.500    3.750    5.250    1.750 
#    0.000    0.000    0.000    2.250    0.000    0.000 
#    0.000    0.000    0.000    0.000    0.000    0.000 
#
# Total GULP energy -178441.968154 kJ/mol
# GULP energy per Si atom -5576.311505 kJ/mol
# Density = 2.155000 g / cm^3
# Si number density = 21.599164 Si / 1000 Ang^3
#
#
#
# Elastic Constant Matrix: (Units=GPa)
#
#
# Indices 1 2 3 4 5 6 
#
# 1 92.0465 22.8052 27.6559 0.0000 0.2381 0.0000
# 2 22.8052 126.0236 23.8342 0.0000 -9.3750 0.0000
# 3 27.6559 23.8342 115.5416 0.0000 3.4097 0.0000
# 4 0.0000 0.0000 0.0000 27.4446 0.0000 5.9742
# 5 0.2381 -9.3750 3.4097 0.0000 31.9978 0.0000
# 6 0.0000 0.0000 0.0000 5.9742 0.0000 22.3959
#
#
#
# Elastic Compliance Matrix: (Units=1/GPa)
#
#
# Indices 1 2 3 4 5 6 
#
# 1 0.012050 -0.001729 -0.002518 0.000000 -0.000328 0.000000
# 2 -0.001729 0.008728 -0.001467 0.000000 0.002726 0.000000
# 3 -0.002518 -0.001467 0.009603 0.000000 -0.001434 0.000000
# 4 0.000000 0.000000 0.000000 0.038683 0.000000 -0.010319
# 5 -0.000328 0.002726 -0.001434 0.000000 0.032206 0.000000
# 6 0.000000 0.000000 0.000000 -0.010319 0.000000 0.047404
#
#
# Mechanical properties :
#
#
# Convention : Reuss Voigt Hill
#
# Bulk Modulus (GPa) = 52.76244 53.57806 53.17025
# Shear Modulus (GPa) = 30.04469 33.65542 31.85006
#
# Velocity S-wave (km/s) = 3.73367 3.95166 3.84421
# Velocity P-wave (km/s) = 6.56263 6.75872 6.66140
#
# Compressibility (1/GPa) = 0.01895288
#
# Stress axis : x y z
#
# Youngs Moduli (GPa) = 82.98929 114.57190 104.13894
#
# Poissons Ratio (x) = 0.19806 0.26222
# Poissons Ratio (y) = 0.14346 0.15279
# Poissons Ratio (z) = 0.20896 0.16809
#
# Static dielectric constant tensor:
#      x y z
#    x 1.820410 0.000000 -0.012380 
#    y 0.000000 1.819960 0.000000 
#    z -0.012380 0.000000 1.828020 
# 
# From -- ./inp_files/67961.got.cif
#   From: 2010.05.17/outbox.cif.g08.bks.cpg/sg10_34_cif.got.tgz:67961.got - 2010.06.03 11:33:40.
