data_PCOD9153968
_publ_section_title
;
Structure prediction by ZEFSAII (Michael W. Deem and Ramdas Pophale) SiO2 
 PCOD9153968
Probable space group: P 2/M
;
_chemical_formula_sum "Si O2"
_cell_formula_units_Z 24
_cell_length_a 10.725990
_cell_length_b 14.922997
_cell_length_c 13.984231
_cell_angle_alpha 90.000000
_cell_angle_beta 148.080607
_cell_angle_gamma 90.000000
_cell_volume 1183.484064
_symmetry_space_group_name_H-M "P 2/M"
_symmetry_group_IT_number 10
_symmetry_cell_setting 'monoclinic'
loop_
_space_group_symop_operation_xyz
x,y,z
-x,y,-z
-x,-y,-z
x,-y,z
loop_
_atom_site_type_symbol
_atom_site_label
_atom_site_fract_x
_atom_site_fract_y
_atom_site_fract_z
Si Si1 0.628210 0.904043 0.324570
Si Si2 0.498386 0.286308 0.232424
Si Si3 0.213735 0.605648 0.433271
Si Si4 0.048241 0.603063 0.919147
Si Si5 0.254659 0.298413 0.802421
Si Si6 0.155088 0.901293 0.746552
O O1 0.471492 0.817741 0.239619
O O2 0.708005 0.905895 0.265516
O O3 0.876270 0.895844 0.542558
O O4 0.519597 0.000000 0.277530
O O5 0.585196 0.340624 0.381032
O O6 0.701600 0.289932 0.283102
O O7 0.262499 0.330418 0.038866
O O8 0.247584 0.500000 0.470988
O O9 0.173620 0.621497 0.294091
O O10 0.967809 0.641060 0.318158
O O11 0.119000 0.500000 0.944179
O O12 0.000000 0.609472 0.000000
O O13 0.224499 0.197740 0.828314
O O14 0.500000 0.337269 0.000000
O O15 0.199305 0.000000 0.822579
#
# Coordination Sequence:
#
# PCOD9153968 Si02
#       6
#     4   4   4   4   4   4
#     4   8  14  26  48  76 108 144 178 213 256 311
#     4  11  20  35  59  81 112 148 178 216 270 324
#     4  11  23  37  55  81 110 142 181 219 269 332
#     4  10  23  42  60  80 104 134 183 239 277 312
#     4  11  20  32  50  81 119 148 176 215 266 328
#     4   8  14  26  44  71 110 147 179 215 254 307
#
# _framework density 20.279105999999999
#
# number of rings (size 3 to 8) (size 9 to 14) (size 15 to 20)
#    0.000    2.167    3.333    2.000    0.000    3.333 
#    0.000    2.500    0.000    1.500    0.000    1.167 
#    0.000    0.000    0.000    0.000    0.000    0.000 
#
# Total GULP energy -133846.193414 kJ/mol
# GULP energy per Si atom -5576.924726 kJ/mol
# Density = 2.023295 g / cm^3
# Si number density = 20.279106 Si / 1000 Ang^3
#
#
#
# Elastic Constant Matrix: (Units=GPa)
#
#
# Indices 1 2 3 4 5 6 
#
# 1 31.1956 24.4753 -0.1284 0.0000 -13.4123 0.0000
# 2 24.4753 110.3887 30.7435 0.0000 -11.0554 0.0000
# 3 -0.1284 30.7435 61.2158 0.0000 -14.6400 0.0000
# 4 0.0000 0.0000 0.0000 27.3467 0.0000 -5.0911
# 5 -13.4123 -11.0554 -14.6400 0.0000 20.5372 0.0000
# 6 0.0000 0.0000 0.0000 -5.0911 0.0000 8.6013
#
#
#
# Elastic Compliance Matrix: (Units=1/GPa)
#
#
# Indices 1 2 3 4 5 6 
#
# 1 0.064005 -0.014697 0.018830 0.000000 0.047311 0.000000
# 2 -0.014697 0.013997 -0.009106 0.000000 -0.008555 0.000000
# 3 0.018830 -0.009106 0.027386 0.000000 0.026917 0.000000
# 4 0.000000 0.000000 0.000000 0.041096 0.000000 0.024325
# 5 0.047311 -0.008555 0.026917 0.000000 0.094172 0.000000
# 6 0.000000 0.000000 0.000000 0.024325 0.000000 0.130659
#
#
# Mechanical properties :
#
#
# Convention : Reuss Voigt Hill
#
# Bulk Modulus (GPa) = 10.47765 34.77567 22.62666
# Shear Modulus (GPa) = 12.10430 21.14437 16.62433
#
# Velocity S-wave (km/s) = 2.44577 3.23254 2.86628
# Velocity P-wave (km/s) = 3.62680 5.57837 4.70488
#
# Compressibility (1/GPa) = 0.09544129
#
# Stress axis : x y z
#
# Youngs Moduli (GPa) = 15.62369 71.44462 36.51531
#
# Poissons Ratio (x) = 1.05003 -0.68758
# Poissons Ratio (y) = 0.22962 0.33252
# Poissons Ratio (z) = -0.29419 0.65059
#
# Static dielectric constant tensor:
#      x y z
#    x 1.728350 0.000000 -0.046950 
#    y 0.000000 1.752050 0.000000 
#    z -0.046950 0.000000 1.754210 
# 
# From -- ./inp_files/51554.got.cif
#   From: 2010.05.17/outbox.cif.g08.bks.cpg/sg10_26_cif.got.tgz:51554.got - 2010.06.03 11:33:40.
