data_PCOD9153055
_publ_section_title
;
Structure prediction by ZEFSAII (Michael W. Deem and Ramdas Pophale) SiO2 
 PCOD9153055
Probable space group: P 2/M
;
_chemical_formula_sum "Si O2"
_cell_formula_units_Z 28
_cell_length_a 9.223482
_cell_length_b 9.387565
_cell_length_c 27.069000
_cell_angle_alpha 90.000000
_cell_angle_beta 141.859436
_cell_angle_gamma 90.000000
_cell_volume 1447.512537
_symmetry_space_group_name_H-M "P 2/M"
_symmetry_group_IT_number 10
_symmetry_cell_setting 'monoclinic'
loop_
_space_group_symop_operation_xyz
x,y,z
-x,y,-z
-x,-y,-z
x,-y,z
loop_
_atom_site_type_symbol
_atom_site_label
_atom_site_fract_x
_atom_site_fract_y
_atom_site_fract_z
Si Si1 0.851572 0.169623 0.291944
Si Si2 0.282442 0.336083 0.574232
Si Si3 0.710158 0.329721 0.160199
Si Si4 0.718622 0.160564 0.522115
Si Si5 0.520220 0.832398 0.726700
Si Si6 0.231651 0.166584 0.029487
Si Si7 0.075806 0.833935 0.874239
O O1 0.862023 0.260970 0.245218
O O2 0.607088 0.194904 0.255227
O O3 0.055592 0.207098 0.385704
O O4 0.873020 0.000000 0.286798
O O5 0.354837 0.500000 0.593800
O O6 0.346375 0.259473 0.540638
O O7 0.395105 0.257146 0.650767
O O8 0.000000 0.328570 0.500000
O O9 0.717409 0.500000 0.162686
O O10 0.448238 0.269029 0.098542
O O11 0.801040 0.266584 0.132586
O O12 0.500000 0.154625 0.500000
O O13 0.769623 0.000000 0.517230
O O14 0.797316 0.805505 0.801712
O O15 0.484163 0.000000 0.706586
O O16 0.296927 0.000000 0.056363
O O17 0.172890 0.181101 0.955683
O O18 0.000000 0.195800 0.000000
O O19 0.111432 0.000000 0.868986
#
# Coordination Sequence:
#
# PCOD9153055 Si02
#       7
#     4   4   4   4   4   4   4
#     4  10  21  40  63  87 118 157 206 258 302 352
#     4  11  23  38  58  87 124 162 198 243 305 370
#     4  12  26  40  59  90 130 166 196 238 297 363
#     4  10  22  39  62  89 116 154 207 261 305 351
#     4  10  21  39  65  90 114 152 206 258 302 350
#     4  10  21  42  71  96 120 154 202 251 296 347
#     4  10  22  40  64  92 120 155 200 251 299 350
#
# _framework density 19.343527999999999
#
# number of rings (size 3 to 8) (size 9 to 14) (size 15 to 20)
#    0.000    1.571    1.429    3.000    2.000    7.429 
#    0.000    1.429    0.000    0.000    0.000    0.000 
#    0.000    0.000    0.000    0.000    0.000    0.000 
#
# Total GULP energy -156512.115777 kJ/mol
# GULP energy per Si atom -5589.718421 kJ/mol
# Density = 1.929950 g / cm^3
# Si number density = 19.343528 Si / 1000 Ang^3
#
#
#
# Elastic Constant Matrix: (Units=GPa)
#
#
# Indices 1 2 3 4 5 6 
#
# 1 78.4753 41.8991 6.2114 0.0000 -11.7688 0.0000
# 2 41.8991 71.4226 38.2180 0.0000 -12.3108 0.0000
# 3 6.2114 38.2180 60.4842 0.0000 -10.5827 0.0000
# 4 0.0000 0.0000 0.0000 33.5165 0.0000 12.5998
# 5 -11.7688 -12.3108 -10.5827 0.0000 29.9688 0.0000
# 6 0.0000 0.0000 0.0000 12.5998 0.0000 -1.7651
#
#
#
# Elastic Compliance Matrix: (Units=1/GPa)
#
#
# Indices 1 2 3 4 5 6 
#
# 1 0.021763 -0.016901 0.009299 0.000000 0.004888 0.000000
# 2 -0.016901 0.034793 -0.020155 0.000000 0.000539 0.000000
# 3 0.009299 -0.020155 0.029315 0.000000 0.005724 0.000000
# 4 0.000000 0.000000 0.000000 0.008100 0.000000 0.057820
# 5 0.004888 0.000539 0.005724 0.000000 0.037530 0.000000
# 6 0.000000 0.000000 0.000000 0.057820 0.000000 -0.153807
#
#
# Mechanical properties :
#
#
# Convention : Reuss Voigt Hill
#
# Bulk Modulus (GPa) = 32.93926 42.55991 37.74958
# Shear Modulus (GPa) = 115.39966 20.61429 68.00698
#
# Velocity S-wave (km/s) = 7.73224 3.26804 5.93581
# Velocity P-wave (km/s) = 9.83780 6.02412 8.15697
#
# Compressibility (1/GPa) = 0.03035891
#
# Stress axis : x y z
#
# Youngs Moduli (GPa) = 45.94892 28.74109 34.11206
#
# Poissons Ratio (x) = 0.48574 -0.31721
# Poissons Ratio (y) = 0.77657 0.68753
# Poissons Ratio (z) = -0.42729 0.57928
#
# Static dielectric constant tensor:
#      x y z
#    x 1.678590 0.000000 0.003630 
#    y 0.000000 1.648050 0.000000 
#    z 0.003630 0.000000 1.675360 
# 
# From -- ./inp_files/37027.got.cif
#   From: 2010.05.17/outbox.cif.g08.bks.cpg/sg10_19_cif.got.tgz:37027.got - 2010.06.03 11:33:40.
