data_PCOD9153937
_publ_section_title
;
Structure prediction by ZEFSAII (Michael W. Deem and Ramdas Pophale) SiO2 
 PCOD9153937
Probable space group: P 2/M
;
_chemical_formula_sum "Si O2"
_cell_formula_units_Z 32
_cell_length_a 15.535491
_cell_length_b 8.451264
_cell_length_c 11.643811
_cell_angle_alpha 90.000000
_cell_angle_beta 84.586296
_cell_angle_gamma 90.000000
_cell_volume 1521.949576
_symmetry_space_group_name_H-M "P 2/M"
_symmetry_group_IT_number 10
_symmetry_cell_setting 'monoclinic'
loop_
_space_group_symop_operation_xyz
x,y,z
-x,y,-z
-x,-y,-z
x,-y,z
loop_
_atom_site_type_symbol
_atom_site_label
_atom_site_fract_x
_atom_site_fract_y
_atom_site_fract_z
Si Si1 0.728620 0.686074 0.040288
Si Si2 0.961658 0.190584 0.325618
Si Si3 0.083046 0.309110 0.918444
Si Si4 0.867631 0.809287 0.575694
Si Si5 0.696606 0.312063 0.515909
Si Si6 0.339491 0.182135 0.717366
Si Si7 0.527211 0.316198 0.674204
Si Si8 0.580538 0.816779 0.903170
O O1 0.726879 0.500000 0.012417
O O2 0.827191 0.744221 0.035992
O O3 0.689672 0.711798 0.172430
O O4 0.667775 0.777481 0.959726
O O5 0.925048 0.257415 0.212488
O O6 0.908027 0.235912 0.446296
O O7 0.061191 0.238980 0.338892
O O8 0.959700 0.000000 0.320402
O O9 0.084031 0.500000 0.920547
O O10 0.000000 0.252479 0.000000
O O11 0.773078 0.735250 0.592612
O O12 0.860790 0.000000 0.579582
O O13 0.697468 0.500000 0.497666
O O14 0.709673 0.225283 0.393237
O O15 0.602913 0.268175 0.577861
O O16 0.440288 0.215374 0.680967
O O17 0.325595 0.000000 0.750243
O O18 0.505027 0.500000 0.655666
O O19 0.566062 0.293893 0.796114
O O20 0.579790 0.000000 0.865683
O O21 0.500000 0.794698 0.000000
#
# Coordination Sequence:
#
# PCOD9153937 Si02
#       8
#     4   4   4   4   4   4   4   4
#     4  11  23  40  65  91 119 160 202 246 301 355
#     4   9  19  37  61  87 116 152 195 240 293 353
#     4  10  23  41  59  85 121 157 197 245 295 349
#     4   9  19  37  60  87 118 152 191 241 297 352
#     4  11  24  39  57  87 122 156 198 242 294 357
#     4  12  24  39  61  88 119 155 198 247 297 352
#     4  11  24  41  61  85 118 159 198 243 296 354
#     4  11  23  40  63  91 120 153 199 251 297 350
#
# _framework density 21.025662000000001
#
# number of rings (size 3 to 8) (size 9 to 14) (size 15 to 20)
#    0.000    1.500    1.250    4.500    0.000    9.250 
#    0.000    5.000    0.000    0.000    0.000    0.000 
#    0.000    0.000    0.000    0.000    0.000    0.000 
#
# Total GULP energy -178970.079758 kJ/mol
# GULP energy per Si atom -5592.814992 kJ/mol
# Density = 2.097781 g / cm^3
# Si number density = 21.025662 Si / 1000 Ang^3
#
#
#
# Elastic Constant Matrix: (Units=GPa)
#
#
# Indices 1 2 3 4 5 6 
#
# 1 121.4958 11.3342 4.6267 0.0000 18.4711 0.0000
# 2 11.3342 19.3608 1.1893 0.0000 -0.7837 0.0000
# 3 4.6267 1.1893 35.2129 0.0000 14.5352 0.0000
# 4 0.0000 0.0000 0.0000 9.4189 0.0000 6.4239
# 5 18.4711 -0.7837 14.5352 0.0000 31.2208 0.0000
# 6 0.0000 0.0000 0.0000 6.4239 0.0000 21.3251
#
#
#
# Elastic Compliance Matrix: (Units=1/GPa)
#
#
# Indices 1 2 3 4 5 6 
#
# 1 0.009755 -0.006086 0.001695 0.000000 -0.006713 0.000000
# 2 -0.006086 0.055729 -0.003895 0.000000 0.006813 0.000000
# 3 0.001695 -0.003895 0.035604 0.000000 -0.017676 0.000000
# 4 0.000000 0.000000 0.000000 0.133623 0.000000 -0.040252
# 5 -0.006713 0.006813 -0.017676 0.000000 0.044402 0.000000
# 6 0.000000 0.000000 0.000000 -0.040252 0.000000 0.059019
#
#
# Mechanical properties :
#
#
# Convention : Reuss Voigt Hill
#
# Bulk Modulus (GPa) = 11.83226 23.37445 17.60335
# Shear Modulus (GPa) = 13.05910 22.98759 18.02334
#
# Velocity S-wave (km/s) = 2.49490 3.31011 2.93099
# Velocity P-wave (km/s) = 3.73351 5.07448 4.45474
#
# Compressibility (1/GPa) = 0.08451474
#
# Stress axis : x y z
#
# Youngs Moduli (GPa) = 102.51621 17.94404 28.08680
#
# Poissons Ratio (x) = 0.10921 -0.04760
# Poissons Ratio (y) = 0.62395 0.10939
# Poissons Ratio (z) = -0.17375 0.06989
#
# Static dielectric constant tensor:
#      x y z
#    x 1.781710 0.000000 0.006760 
#    y 0.000000 1.711620 0.000000 
#    z 0.006760 0.000000 1.738760 
# 
# From -- ./inp_files/49949.got.cif
#   From: 2010.05.17/outbox.cif.g08.bks.cpg/sg10_25_cif.got.tgz:49949.got - 2010.06.03 11:33:40.
