data_PCOD9153742
_publ_section_title
;
Structure prediction by ZEFSAII (Michael W. Deem and Ramdas Pophale) SiO2 
 PCOD9153742
Probable space group: P 2/M
;
_chemical_formula_sum "Si O2"
_cell_formula_units_Z 28
_cell_length_a 12.148735
_cell_length_b 11.381169
_cell_length_c 22.824036
_cell_angle_alpha 90.000000
_cell_angle_beta 28.262617
_cell_angle_gamma 90.000000
_cell_volume 1494.317437
_symmetry_space_group_name_H-M "P 2/M"
_symmetry_group_IT_number 10
_symmetry_cell_setting 'monoclinic'
loop_
_space_group_symop_operation_xyz
x,y,z
-x,y,-z
-x,-y,-z
x,-y,z
loop_
_atom_site_type_symbol
_atom_site_label
_atom_site_fract_x
_atom_site_fract_y
_atom_site_fract_z
Si Si1 0.994191 0.000000 0.903178
Si Si2 0.169134 0.638590 0.972403
Si Si3 0.607764 0.000000 0.183827
Si Si4 0.610094 0.749147 0.713348
Si Si5 0.238584 0.361031 0.144953
Si Si6 0.067244 0.248095 0.806933
Si Si7 0.463552 0.361557 0.380232
Si Si8 0.935922 0.636282 0.644553
O O1 0.021263 0.116384 0.851163
O O2 0.200966 0.000000 0.854173
O O3 0.756649 0.000000 0.053232
O O4 0.194502 0.500000 0.953661
O O5 0.415272 0.697817 0.848441
O O6 0.000000 0.684125 0.000000
O O7 0.054093 0.669628 0.087354
O O8 0.449668 0.885239 0.264049
O O9 0.568689 0.683302 0.671338
O O10 0.850691 0.717961 0.631769
O O11 0.189725 0.500000 0.156774
O O12 0.205134 0.342068 0.229764
O O13 0.057798 0.280831 0.194593
O O14 0.500000 0.337969 0.000000
O O15 0.336976 0.284938 0.682802
O O16 0.528548 0.500000 0.349362
O O17 0.209835 0.349927 0.527868
O O18 0.898049 0.500000 0.644409
#
# Coordination Sequence:
#
# PCOD9153742 Si02
#       8
#     2   4   2   4   4   4   4   4
#     4  11  22  40  57  89 128 160 200 256 307 351
#     4  11  19  29  52  88 118 141 186 252 307 356
#     4  11  22  38  59  88 125 166 201 249 309 360
#     4  12  21  37  59  88 124 163 202 249 305 364
#     4  10  22  41  64  92 123 157 198 251 312 368
#     4  12  22  38  61  88 121 161 208 251 299 363
#     4  11  22  37  61  92 123 160 204 252 311 370
#     4  10  23  41  61  89 128 163 198 251 310 367
#
# _framework density 18.737652000000001
#
# number of rings (size 3 to 8) (size 9 to 14) (size 15 to 20)
#    0.000    1.000    4.286    3.857    0.000    2.857 
#    0.000    5.357    0.000    0.857    0.000    0.000 
#    0.000    0.000    0.000    0.000    0.000    0.000 
#
# Total GULP energy -156496.485915 kJ/mol
# GULP energy per Si atom -5589.160211 kJ/mol
# Density = 1.869500 g / cm^3
# Si number density = 18.737652 Si / 1000 Ang^3
#
#
#
# Elastic Constant Matrix: (Units=GPa)
#
#
# Indices 1 2 3 4 5 6 
#
# 1 84.2768 41.0996 12.1163 0.0000 -6.2030 0.0000
# 2 41.0996 84.9313 17.5092 0.0000 -1.9384 0.0000
# 3 12.1163 17.5092 67.2158 0.0000 -2.9588 0.0000
# 4 0.0000 0.0000 0.0000 33.0108 0.0000 -5.9359
# 5 -6.2030 -1.9384 -2.9588 0.0000 17.7959 0.0000
# 6 0.0000 0.0000 0.0000 -5.9359 0.0000 19.0348
#
#
#
# Elastic Compliance Matrix: (Units=1/GPa)
#
#
# Indices 1 2 3 4 5 6 
#
# 1 0.015950 -0.007463 -0.000728 0.000000 0.004626 0.000000
# 2 -0.007463 0.015946 -0.002868 0.000000 -0.001341 0.000000
# 3 -0.000728 -0.002868 0.015847 0.000000 0.002069 0.000000
# 4 0.000000 0.000000 0.000000 0.032093 0.000000 0.010008
# 5 0.004626 -0.001341 0.002069 0.000000 0.058003 0.000000
# 6 0.000000 0.000000 0.000000 0.010008 0.000000 0.055656
#
#
# Mechanical properties :
#
#
# Convention : Reuss Voigt Hill
#
# Bulk Modulus (GPa) = 39.02157 41.98601 40.50379
# Shear Modulus (GPa) = 22.30611 25.01488 23.66049
#
# Velocity S-wave (km/s) = 3.45402 3.65774 3.55734
# Velocity P-wave (km/s) = 6.06444 6.34781 6.20774
#
# Compressibility (1/GPa) = 0.02562685
#
# Stress axis : x y z
#
# Youngs Moduli (GPa) = 62.69497 62.71060 63.10485
#
# Poissons Ratio (x) = 0.46801 0.04591
# Poissons Ratio (y) = 0.46789 0.18096
# Poissons Ratio (z) = 0.04561 0.17983
#
# Static dielectric constant tensor:
#      x y z
#    x 1.677930 0.000000 -0.024510 
#    y 0.000000 1.629410 0.000000 
#    z -0.024510 0.000000 1.669020 
# 
# From -- ./inp_files/83970.got.cif
#   From: 2010.05.17/outbox.cif.g08.bks.cpg/sg10_42_cif.got.tgz:83970.got - 2010.06.03 11:33:40.
