data_PCOD9153403
_publ_section_title
;
Structure prediction by ZEFSAII (Michael W. Deem and Ramdas Pophale) SiO2 
 PCOD9153403
Probable space group: P 2/M
;
_chemical_formula_sum "Si O2"
_cell_formula_units_Z 32
_cell_length_a 29.951569
_cell_length_b 8.639474
_cell_length_c 12.625284
_cell_angle_alpha 90.000000
_cell_angle_beta 146.165797
_cell_angle_gamma 90.000000
_cell_volume 1819.033479
_symmetry_space_group_name_H-M "P 2/M"
_symmetry_group_IT_number 10
_symmetry_cell_setting 'monoclinic'
loop_
_space_group_symop_operation_xyz
x,y,z
-x,y,-z
-x,-y,-z
x,-y,z
loop_
_atom_site_type_symbol
_atom_site_label
_atom_site_fract_x
_atom_site_fract_y
_atom_site_fract_z
Si Si1 0.960748 0.314819 0.812477
Si Si2 0.130798 0.813370 0.744696
Si Si3 0.986016 0.186338 0.300786
Si Si4 0.372233 0.187949 0.761053
Si Si5 0.484670 0.813083 0.798356
Si Si6 0.783565 0.185929 0.427914
Si Si7 0.538839 0.686709 0.686435
Si Si8 0.722603 0.314724 0.083693
O O1 0.958507 0.500000 0.807704
O O2 0.870742 0.251877 0.623563
O O3 0.009507 0.258302 0.805865
O O4 0.000000 0.261605 0.000000
O O5 0.089119 0.769049 0.773407
O O6 0.214824 0.736599 0.882963
O O7 0.066185 0.772072 0.525561
O O8 0.138786 0.000000 0.758742
O O9 0.985864 0.000000 0.291777
O O10 0.409150 0.237287 0.721445
O O11 0.283914 0.238246 0.620619
O O12 0.372194 0.000000 0.759944
O O13 0.436154 0.232934 0.978044
O O14 0.491111 0.745582 0.694629
O O15 0.484271 0.000000 0.791815
O O16 0.753122 0.240072 0.253058
O O17 0.787700 0.000000 0.436129
O O18 0.500000 0.740548 0.500000
O O19 0.537637 0.500000 0.684617
O O20 0.631712 0.735713 0.880598
O O21 0.723910 0.500000 0.096981
#
# Coordination Sequence:
#
# PCOD9153403 Si02
#       8
#     4   4   4   4   4   4   4   4
#     4  11  24  39  54  78 113 147 180 219 263 316
#     4   9  18  33  55  83 110 135 173 225 272 314
#     4   9  18  34  56  81 108 140 177 219 267 320
#     4   8  16  30  53  82 108 133 167 223 274 310
#     4   9  16  32  55  79 106 136 176 219 265 316
#     4  11  20  34  57  82 108 139 178 223 271 318
#     4  10  22  38  52  73 111 151 181 215 263 318
#     4  11  21  33  53  81 109 140 182 225 266 316
#
# _framework density 17.591761000000002
#
# number of rings (size 3 to 8) (size 9 to 14) (size 15 to 20)
#    0.000    2.250    2.500    2.625    0.000    2.250 
#    0.000    5.000    0.000    6.000    0.000    0.000 
#    0.000    0.000    0.000    0.000    0.000    0.000 
#
# Total GULP energy -178525.185911 kJ/mol
# GULP energy per Si atom -5578.912060 kJ/mol
# Density = 1.755172 g / cm^3
# Si number density = 17.591761 Si / 1000 Ang^3
#
#
#
# Elastic Constant Matrix: (Units=GPa)
#
#
# Indices 1 2 3 4 5 6 
#
# 1 175.9540 28.9633 79.8524 0.0000 -9.5253 0.0000
# 2 28.9633 18.6966 24.0695 0.0000 -3.8186 0.0000
# 3 79.8524 24.0695 106.2026 0.0000 -12.1950 0.0000
# 4 0.0000 0.0000 0.0000 162.1032 0.0000 270.9525
# 5 -9.5253 -3.8186 -12.1950 0.0000 26.7519 0.0000
# 6 0.0000 0.0000 0.0000 270.9525 0.0000 508.7282
#
#
#
# Elastic Compliance Matrix: (Units=1/GPa)
#
#
# Indices 1 2 3 4 5 6 
#
# 1 0.009347 -0.007685 -0.005308 0.000000 -0.000188 0.000000
# 2 -0.007685 0.082089 -0.012447 0.000000 0.003307 0.000000
# 3 -0.005308 -0.012447 0.016680 0.000000 0.003937 0.000000
# 4 0.000000 0.000000 0.000000 0.056205 0.000000 -0.029935
# 5 -0.000188 0.003307 0.003937 0.000000 0.039580 0.000000
# 6 0.000000 0.000000 0.000000 -0.029935 0.000000 0.017910
#
#
# Mechanical properties :
#
#
# Convention : Reuss Voigt Hill
#
# Bulk Modulus (GPa) = 17.47103 62.95818 40.21460
# Shear Modulus (GPa) = 17.13685 150.71454 83.92569
#
# Velocity S-wave (km/s) = 3.12451 9.26603 6.91455
# Velocity P-wave (km/s) = 4.79267 12.26154 9.30900
#
# Compressibility (1/GPa) = 0.05723761
#
# Stress axis : x y z
#
# Youngs Moduli (GPa) = 106.98748 12.18183 59.95294
#
# Poissons Ratio (x) = 0.09362 0.31822
# Poissons Ratio (y) = 0.82219 0.74621
# Poissons Ratio (z) = 0.56786 0.15162
#
# Static dielectric constant tensor:
#      x y z
#    x 1.613610 0.000000 0.009960 
#    y 0.000000 1.595930 0.000000 
#    z 0.009960 0.000000 1.575570 
# 
# From -- ./inp_files/58353.got.cif
#   From: 2010.05.17/outbox.cif.g08.bks.cpg/sg10_30_cif.got.tgz:58353.got - 2010.06.03 11:33:40.
