data_PCOD9153068
_publ_section_title
;
Structure prediction by ZEFSAII (Michael W. Deem and Ramdas Pophale) SiO2 
 PCOD9153068
Probable space group: P 2/M
;
_chemical_formula_sum "Si O2"
_cell_formula_units_Z 28
_cell_length_a 15.570914
_cell_length_b 17.284002
_cell_length_c 5.955304
_cell_angle_alpha 90.000000
_cell_angle_beta 58.029795
_cell_angle_gamma 90.000000
_cell_volume 1359.639814
_symmetry_space_group_name_H-M "P 2/M"
_symmetry_group_IT_number 10
_symmetry_cell_setting 'monoclinic'
loop_
_space_group_symop_operation_xyz
x,y,z
-x,y,-z
-x,-y,-z
x,-y,z
loop_
_atom_site_type_symbol
_atom_site_label
_atom_site_fract_x
_atom_site_fract_y
_atom_site_fract_z
Si Si1 0.905169 0.247585 0.755132
Si Si2 0.447518 0.000000 0.321050
Si Si3 0.909147 0.914012 0.945532
Si Si4 0.608533 0.718182 0.237830
Si Si5 0.060130 0.500000 0.165784
Si Si6 0.723814 0.287581 0.678667
Si Si7 0.690501 0.854997 0.390915
Si Si8 0.802479 0.359856 0.176255
O O1 0.808377 0.261806 0.737208
O O2 0.000000 0.284660 0.500000
O O3 0.923381 0.157715 0.763092
O O4 0.876549 0.286234 0.031315
O O5 0.500000 0.000000 0.500000
O O6 0.382908 0.921113 0.419344
O O7 0.500000 0.000000 0.000000
O O8 0.797977 0.895921 0.198909
O O9 0.908552 0.000000 0.845692
O O10 0.000000 0.911211 0.000000
O O11 0.500000 0.707116 0.500000
O O12 0.643573 0.807091 0.244399
O O13 0.693053 0.660163 0.222882
O O14 0.620439 0.701496 0.958127
O O15 0.000000 0.500000 0.500000
O O16 0.135860 0.427003 0.031056
O O17 0.000000 0.500000 0.000000
O O18 0.706010 0.215545 0.540254
O O19 0.772973 0.359954 0.478390
#
# Coordination Sequence:
#
# PCOD9153068 Si02
#       8
#     4   2   4   4   2   4   4   4
#     4  11  22  37  64  89 129 176 236 284 350 418
#     4  12  30  44  65  98 133 184 234 306 382 436
#     4  11  22  39  57  86 130 176 233 290 363 421
#     4  10  22  41  70  97 134 173 238 294 353 417
#     4  12  30  48  79 117 159 195 228 286 350 427
#     4  10  21  39  65  95 128 181 230 291 347 429
#     4  11  22  42  61  92 129 175 233 298 355 426
#     4  10  24  43  67 106 138 180 232 279 351 426
#
# _framework density 20.593689000000001
#
# number of rings (size 3 to 8) (size 9 to 14) (size 15 to 20)
#    0.000    1.286    5.000    1.714   10.000    2.000 
#    1.286    0.357    0.000    0.857    0.000    0.000 
#    0.000    0.000    0.000    0.000    0.000    0.000 
#
# Total GULP energy -155870.904219 kJ/mol
# GULP energy per Si atom -5566.818008 kJ/mol
# Density = 2.054682 g / cm^3
# Si number density = 20.593689 Si / 1000 Ang^3
#
#
#
# Elastic Constant Matrix: (Units=GPa)
#
#
# Indices 1 2 3 4 5 6 
#
# 1 62.3948 23.3891 44.3697 0.0000 -24.4286 0.0000
# 2 23.3891 96.2807 53.7634 0.0000 -16.4997 0.0000
# 3 44.3697 53.7634 192.5869 0.0000 -33.5998 0.0000
# 4 0.0000 0.0000 0.0000 30.6043 0.0000 -7.7982
# 5 -24.4286 -16.4997 -33.5998 0.0000 34.7309 0.0000
# 6 0.0000 0.0000 0.0000 -7.7982 0.0000 19.8588
#
#
#
# Elastic Compliance Matrix: (Units=1/GPa)
#
#
# Indices 1 2 3 4 5 6 
#
# 1 0.023849 -0.002066 -0.002602 0.000000 0.013277 0.000000
# 2 -0.002066 0.012755 -0.002744 0.000000 0.001952 0.000000
# 3 -0.002602 -0.002744 0.007232 0.000000 0.003863 0.000000
# 4 0.000000 0.000000 0.000000 0.036308 0.000000 0.014258
# 5 0.013277 0.001952 0.003863 0.000000 0.042795 0.000000
# 6 0.000000 0.000000 0.000000 0.014258 0.000000 0.055954
#
#
# Mechanical properties :
#
#
# Convention : Reuss Voigt Hill
#
# Bulk Modulus (GPa) = 34.46724 66.03407 50.25066
# Shear Modulus (GPa) = 24.58354 32.35482 28.46918
#
# Velocity S-wave (km/s) = 3.45880 3.96801 3.72213
# Velocity P-wave (km/s) = 5.72051 7.28892 6.55182
#
# Compressibility (1/GPa) = 0.02901305
#
# Stress axis : x y z
#
# Youngs Moduli (GPa) = 41.92973 78.40060 138.27682
#
# Poissons Ratio (x) = 0.16195 0.35975
# Poissons Ratio (y) = 0.08661 0.37948
# Poissons Ratio (z) = 0.10909 0.21516
#
# Static dielectric constant tensor:
#      x y z
#    x 1.820440 0.000000 0.081120 
#    y 0.000000 1.739810 0.000000 
#    z 0.081120 0.000000 1.920500 
# 
# From -- ./inp_files/9778.got.cif
#   From: 2010.05.17/outbox.cif.g08.bks.cpg/sg10_5_cif.got.tgz:9778.got - 2010.06.03 11:33:40.
