data_PCOD9153211
_publ_section_title
;
Structure prediction by ZEFSAII (Michael W. Deem and Ramdas Pophale) SiO2 
 PCOD9153211
Probable space group: P 2/M
;
_chemical_formula_sum "Si O2"
_cell_formula_units_Z 28
_cell_length_a 19.118082
_cell_length_b 7.820451
_cell_length_c 14.225614
_cell_angle_alpha 90.000000
_cell_angle_beta 31.208845
_cell_angle_gamma 90.000000
_cell_volume 1102.072656
_symmetry_space_group_name_H-M "P 2/M"
_symmetry_group_IT_number 10
_symmetry_cell_setting 'monoclinic'
loop_
_space_group_symop_operation_xyz
x,y,z
-x,y,-z
-x,-y,-z
x,-y,z
loop_
_atom_site_type_symbol
_atom_site_label
_atom_site_fract_x
_atom_site_fract_y
_atom_site_fract_z
Si Si1 0.792012 0.707259 0.602933
Si Si2 0.090962 0.798979 0.250762
Si Si3 0.779322 0.293087 0.399538
Si Si4 0.926701 0.294832 0.949061
Si Si5 0.356249 0.695560 0.051922
Si Si6 0.640446 0.695073 0.307103
Si Si7 0.515691 0.808390 0.277919
O O1 0.792494 0.500000 0.605208
O O2 0.775166 0.759151 0.514187
O O3 0.676236 0.766991 0.807447
O O4 0.940443 0.768796 0.462810
O O5 0.082408 0.738520 0.152268
O O6 0.209475 0.704505 0.169887
O O7 0.122810 0.000000 0.216284
O O8 0.777671 0.500000 0.397706
O O9 0.639582 0.228042 0.518628
O O10 0.924150 0.234834 0.193174
O O11 0.924157 0.500000 0.966981
O O12 0.787640 0.226913 0.152826
O O13 0.401860 0.500000 0.008566
O O14 0.457510 0.782409 0.863051
O O15 0.500000 0.779285 0.500000
O O16 0.642162 0.500000 0.342365
O O17 0.614119 0.689612 0.225064
O O18 0.553657 0.000000 0.258696
#
# Coordination Sequence:
#
# PCOD9153211 Si02
#       7
#     4   4   4   4   4   4   4
#     4   9  20  36  55  79 109 154 205 246 286 333
#     4  11  20  30  50  82 118 153 191 239 293 346
#     4   9  19  38  60  82 113 156 201 240 281 338
#     4   9  18  36  62  87 114 152 195 237 284 343
#     4  11  21  35  55  78 111 154 201 248 288 337
#     4  10  21  40  68  96 117 144 187 239 291 346
#     4  12  25  39  57  86 120 156 191 235 299 354
#
# _framework density 25.406673000000001
#
# number of rings (size 3 to 8) (size 9 to 14) (size 15 to 20)
#    0.000    1.857    1.429    4.286    0.000    6.000 
#    0.000    3.571    0.000    4.286    0.000    0.000 
#    0.000    0.000    0.000    0.000    0.000    0.000 
#
# Total GULP energy -156630.297805 kJ/mol
# GULP energy per Si atom -5593.939207 kJ/mol
# Density = 2.534885 g / cm^3
# Si number density = 25.406673 Si / 1000 Ang^3
#
#
#
# Elastic Constant Matrix: (Units=GPa)
#
#
# Indices 1 2 3 4 5 6 
#
# 1 98.1257 4.3628 34.4475 0.0000 -7.6312 0.0000
# 2 4.3628 52.3560 16.5249 0.0000 -9.1536 0.0000
# 3 34.4475 16.5249 196.4522 0.0000 -12.9275 0.0000
# 4 0.0000 0.0000 0.0000 -489.6381 0.0000 269.0585
# 5 -7.6312 -9.1536 -12.9275 0.0000 29.4982 0.0000
# 6 0.0000 0.0000 0.0000 269.0585 0.0000 -157.6631
#
#
#
# Elastic Compliance Matrix: (Units=1/GPa)
#
#
# Indices 1 2 3 4 5 6 
#
# 1 0.010979 0.000010 -0.001791 0.000000 0.002059 0.000000
# 2 0.000010 0.020536 -0.001349 0.000000 0.005784 0.000000
# 3 -0.001791 -0.001349 0.005622 0.000000 0.001582 0.000000
# 4 0.000000 0.000000 0.000000 -0.032810 0.000000 -0.055992
# 5 0.002059 0.005784 0.001582 0.000000 0.036921 0.000000
# 6 0.000000 0.000000 0.000000 -0.055992 0.000000 -0.101894
#
#
# Mechanical properties :
#
#
# Convention : Reuss Voigt Hill
#
# Bulk Modulus (GPa) = 32.38424 50.84492 41.61458
# Shear Modulus (GPa) = -113.39147 -104.12069 -108.75608
#
# Velocity S-wave (km/s) = -6.68786 -6.40863 -6.54974
# Velocity P-wave (km/s) = 6.84563 5.89109 6.38622
#
# Compressibility (1/GPa) = 0.03087922
#
# Stress axis : x y z
#
# Youngs Moduli (GPa) = 91.08087 48.69483 177.87855
#
# Poissons Ratio (x) = -0.00050 0.31850
# Poissons Ratio (y) = -0.00093 0.23988
# Poissons Ratio (z) = 0.16309 0.06567
#
# Static dielectric constant tensor:
#      x y z
#    x 2.017130 0.000000 0.047500 
#    y 0.000000 1.910090 0.000000 
#    z 0.047500 0.000000 2.052070 
# 
# From -- ./inp_files/70171.got.cif
#   From: 2010.05.17/outbox.cif.g08.bks.cpg/sg10_36_cif.got.tgz:70171.got - 2010.06.03 11:33:40.
