data_PCOD9153778
_publ_section_title
;
Structure prediction by ZEFSAII (Michael W. Deem and Ramdas Pophale) SiO2 
 PCOD9153778
Probable space group: P 2/M
;
_chemical_formula_sum "Si O2"
_cell_formula_units_Z 24
_cell_length_a 21.308868
_cell_length_b 11.823360
_cell_length_c 15.025515
_cell_angle_alpha 90.000000
_cell_angle_beta 162.681080
_cell_angle_gamma 90.000000
_cell_volume 1126.925231
_symmetry_space_group_name_H-M "P 2/M"
_symmetry_group_IT_number 10
_symmetry_cell_setting 'monoclinic'
loop_
_space_group_symop_operation_xyz
x,y,z
-x,y,-z
-x,-y,-z
x,-y,z
loop_
_atom_site_type_symbol
_atom_site_label
_atom_site_fract_x
_atom_site_fract_y
_atom_site_fract_z
Si Si1 0.529378 0.000000 0.183022
Si Si2 0.178112 0.863151 0.121616
Si Si3 0.362878 0.632799 0.039691
Si Si4 0.731726 0.365922 0.290437
Si Si5 0.116973 0.223687 0.852114
Si Si6 0.132969 0.000000 0.521273
Si Si7 0.698228 0.797309 0.520186
O O1 0.554627 0.109942 0.277493
O O2 0.722750 0.000000 0.373370
O O3 0.307296 0.000000 0.833482
O O4 0.230830 0.809369 0.097923
O O5 0.935250 0.826988 0.811149
O O6 0.191421 0.000000 0.136871
O O7 0.304082 0.817210 0.376981
O O8 0.350098 0.500000 0.042809
O O9 0.604023 0.676934 0.364026
O O10 0.251583 0.649934 0.793427
O O11 0.255872 0.708954 0.969791
O O12 0.736935 0.500000 0.315512
O O13 0.912517 0.303289 0.588465
O O14 0.500000 0.320757 0.000000
O O15 0.015654 0.108647 0.677897
#
# Coordination Sequence:
#
# PCOD9153778 Si02
#       7
#     2   4   4   4   4   2   4
#     4  11  20  37  66  97 130 159 204 275 326 372
#     4  11  21  41  67  96 127 166 210 265 317 381
#     4  11  26  44  63  92 130 169 211 263 316 375
#     4  10  22  41  67  92 121 167 217 262 314 375
#     4  12  22  40  61  92 133 168 206 257 319 379
#     4  11  24  34  61 102 133 163 207 263 324 385
#     4  11  20  41  67  93 125 169 214 261 323 370
#
# _framework density 21.296889
#
# number of rings (size 3 to 8) (size 9 to 14) (size 15 to 20)
#    0.000    1.000    4.167    3.500    2.333    2.667 
#    0.000    8.333    0.000    0.000    0.000    0.000 
#    0.000    0.000    0.000    0.000    0.000    0.000 
#
# Total GULP energy -134300.414972 kJ/mol
# GULP energy per Si atom -5595.850624 kJ/mol
# Density = 2.124842 g / cm^3
# Si number density = 21.296889 Si / 1000 Ang^3
#
#
#
# Elastic Constant Matrix: (Units=GPa)
#
#
# Indices 1 2 3 4 5 6 
#
# 1 89.5076 42.0070 31.8762 0.0000 -15.7894 0.0000
# 2 42.0070 98.8573 27.5434 0.0000 -12.1976 0.0000
# 3 31.8762 27.5434 58.7571 0.0000 -26.3901 0.0000
# 4 0.0000 0.0000 0.0000 8.6079 0.0000 21.5086
# 5 -15.7894 -12.1976 -26.3901 0.0000 38.7326 0.0000
# 6 0.0000 0.0000 0.0000 21.5086 0.0000 21.9220
#
#
#
# Elastic Compliance Matrix: (Units=1/GPa)
#
#
# Indices 1 2 3 4 5 6 
#
# 1 0.015722 -0.004953 -0.005806 0.000000 0.000893 0.000000
# 2 -0.004953 0.013196 -0.003659 0.000000 -0.000356 0.000000
# 3 -0.005806 -0.003659 0.029257 0.000000 0.016415 0.000000
# 4 0.000000 0.000000 0.000000 -0.080031 0.000000 0.078522
# 5 0.000893 -0.000356 0.016415 0.000000 0.037254 0.000000
# 6 0.000000 0.000000 0.000000 0.078522 0.000000 -0.031425
#
#
# Mechanical properties :
#
#
# Convention : Reuss Voigt Hill
#
# Bulk Modulus (GPa) = 34.08495 49.99724 42.04110
# Shear Modulus (GPa) = 221.36258 23.56553 122.46406
#
# Velocity S-wave (km/s) = 10.20622 3.33005 7.59132
# Velocity P-wave (km/s) = 12.44703 6.18975 9.82959
#
# Compressibility (1/GPa) = 0.02933846
#
# Stress axis : x y z
#
# Youngs Moduli (GPa) = 63.60512 75.78305 34.18002
#
# Poissons Ratio (x) = 0.37533 0.19847
# Poissons Ratio (y) = 0.31502 0.12506
# Poissons Ratio (z) = 0.36932 0.27728
#
# Static dielectric constant tensor:
#      x y z
#    x 1.832010 0.000000 0.062400 
#    y 0.000000 1.731670 0.000000 
#    z 0.062400 0.000000 1.787060 
# 
# From -- ./inp_files/70594.got.cif
#   From: 2010.05.17/outbox.cif.g08.bks.cpg/sg10_36_cif.got.tgz:70594.got - 2010.06.03 11:33:40.
