data_PCOD9153241
_publ_section_title
;
Structure prediction by ZEFSAII (Michael W. Deem and Ramdas Pophale) SiO2 
 PCOD9153241
Probable space group: P 2/M
;
_chemical_formula_sum "Si O2"
_cell_formula_units_Z 32
_cell_length_a 21.060306
_cell_length_b 13.826895
_cell_length_c 7.724910
_cell_angle_alpha 90.000000
_cell_angle_beta 145.172131
_cell_angle_gamma 90.000000
_cell_volume 1284.708949
_symmetry_space_group_name_H-M "P 2/M"
_symmetry_group_IT_number 10
_symmetry_cell_setting 'monoclinic'
loop_
_space_group_symop_operation_xyz
x,y,z
-x,y,-z
-x,-y,-z
x,-y,z
loop_
_atom_site_type_symbol
_atom_site_label
_atom_site_fract_x
_atom_site_fract_y
_atom_site_fract_z
Si Si1 0.843102 0.189475 0.603664
Si Si2 0.237202 0.392106 0.544101
Si Si3 0.773582 0.800078 0.952783
Si Si4 0.362519 0.114904 0.035198
Si Si5 0.305821 0.613577 0.085651
Si Si6 0.580231 0.113318 0.346183
Si Si7 0.574194 0.389531 0.313557
Si Si8 0.974001 0.111478 0.213234
O O1 0.846059 0.302598 0.654341
O O2 0.897040 0.123137 0.869982
O O3 0.717110 0.159984 0.287742
O O4 0.916624 0.169683 0.597620
O O5 0.189005 0.500000 0.457273
O O6 0.310033 0.393692 0.532742
O O7 0.309295 0.374795 0.884563
O O8 0.700964 0.854599 0.934560
O O9 0.783142 0.690173 0.039978
O O10 0.687528 0.817789 0.599366
O O11 0.891191 0.846736 0.171619
O O12 0.489753 0.142045 0.289867
O O13 0.359606 0.000000 0.013254
O O14 0.283273 0.500000 0.066153
O O15 0.407112 0.639095 0.444810
O O16 0.615596 0.000000 0.446140
O O17 0.500000 0.115470 0.000000
O O18 0.529314 0.500000 0.230274
O O19 0.500000 0.337841 0.000000
O O20 0.001802 0.000000 0.304452
#
# Coordination Sequence:
#
# PCOD9153241 Si02
#       8
#     4   4   4   4   4   4   4   4
#     4  11  22  42  64  93 127 169 219 268 330 399
#     4  10  21  41  65  91 131 178 224 276 333 394
#     4  12  23  40  63  93 127 166 217 262 330 400
#     4  11  22  38  61  89 126 165 209 266 320 391
#     4  10  22  41  62  90 131 174 219 275 329 386
#     4  10  22  40  63  91 126 169 213 263 327 396
#     4   9  19  36  60  91 126 171 224 276 331 388
#     4  11  24  42  68  97 129 166 211 277 345 404
#
# _framework density 24.908363999999999
#
# number of rings (size 3 to 8) (size 9 to 14) (size 15 to 20)
#    0.000    1.500    1.250    4.500    0.000    4.500 
#    2.250    5.625    0.000    1.500    0.000    0.000 
#    0.000    0.000    0.000    0.000    0.000    0.000 
#
# Total GULP energy -178828.022450 kJ/mol
# GULP energy per Si atom -5588.375702 kJ/mol
# Density = 2.485167 g / cm^3
# Si number density = 24.908364 Si / 1000 Ang^3
#
#
#
# Elastic Constant Matrix: (Units=GPa)
#
#
# Indices 1 2 3 4 5 6 
#
# 1 123.6476 19.5830 13.3400 0.0000 -3.9319 0.0000
# 2 19.5830 149.7746 12.0964 0.0000 20.4969 0.0000
# 3 13.3400 12.0964 61.1994 0.0000 4.4584 0.0000
# 4 0.0000 0.0000 0.0000 14.0411 0.0000 -1.7488
# 5 -3.9319 20.4969 4.4584 0.0000 54.3575 0.0000
# 6 0.0000 0.0000 0.0000 -1.7488 0.0000 31.2553
#
#
#
# Elastic Compliance Matrix: (Units=1/GPa)
#
#
# Indices 1 2 3 4 5 6 
#
# 1 0.008489 -0.001133 -0.001713 0.000000 0.001182 0.000000
# 2 -0.001133 0.007281 -0.000992 0.000000 -0.002746 0.000000
# 3 -0.001713 -0.000992 0.016993 0.000000 -0.001144 0.000000
# 4 0.000000 0.000000 0.000000 0.071719 0.000000 0.004013
# 5 0.001182 -0.002746 -0.001144 0.000000 0.019611 0.000000
# 6 0.000000 0.000000 0.000000 0.004013 0.000000 0.032219
#
#
# Mechanical properties :
#
#
# Convention : Reuss Voigt Hill
#
# Bulk Modulus (GPa) = 39.86134 47.18447 43.52290
# Shear Modulus (GPa) = 29.01059 39.23760 34.12410
#
# Velocity S-wave (km/s) = 3.41646 3.97328 3.70535
# Velocity P-wave (km/s) = 5.62147 6.32722 5.98475
#
# Compressibility (1/GPa) = 0.02508697
#
# Stress axis : x y z
#
# Youngs Moduli (GPa) = 117.79457 137.34735 58.84878
#
# Poissons Ratio (x) = 0.15567 0.10078
# Poissons Ratio (y) = 0.13351 0.05838
# Poissons Ratio (z) = 0.20173 0.13625
#
# Static dielectric constant tensor:
#      x y z
#    x 2.233370 0.000000 -0.236840 
#    y 0.000000 1.939100 0.000000 
#    z -0.236840 0.000000 2.161980 
# 
# From -- ./inp_files/36383.got.cif
#   From: 2010.05.17/outbox.cif.g08.bks.cpg/sg10_19_cif.got.tgz:36383.got - 2010.06.03 11:33:40.
