data_PCOD9153744
_publ_section_title
;
Structure prediction by ZEFSAII (Michael W. Deem and Ramdas Pophale) SiO2 
 PCOD9153744
Probable space group: P 2/M
;
_chemical_formula_sum "Si O2"
_cell_formula_units_Z 28
_cell_length_a 11.306477
_cell_length_b 14.245804
_cell_length_c 9.054385
_cell_angle_alpha 90.000000
_cell_angle_beta 59.521484
_cell_angle_gamma 90.000000
_cell_volume 1256.867500
_symmetry_space_group_name_H-M "P 2/M"
_symmetry_group_IT_number 10
_symmetry_cell_setting 'monoclinic'
loop_
_space_group_symop_operation_xyz
x,y,z
-x,y,-z
-x,-y,-z
x,-y,z
loop_
_atom_site_type_symbol
_atom_site_label
_atom_site_fract_x
_atom_site_fract_y
_atom_site_fract_z
Si Si1 0.636011 0.294652 0.830521
Si Si2 0.845367 0.847695 0.143542
Si Si3 0.625358 0.605581 0.532448
Si Si4 0.920515 0.391836 0.703963
Si Si5 0.036709 0.892689 0.631958
Si Si6 0.277367 0.103304 0.067031
Si Si7 0.891844 0.646301 0.178272
O O1 0.625720 0.316499 0.661416
O O2 0.767956 0.355106 0.791859
O O3 0.659903 0.188595 0.877336
O O4 0.500000 0.328878 0.000000
O O5 0.851192 0.861582 0.317147
O O6 0.838758 0.736234 0.124961
O O7 0.728756 0.886625 0.108643
O O8 0.000000 0.880483 0.000000
O O9 0.500000 0.620380 0.500000
O O10 0.613252 0.500000 0.606999
O O11 0.763014 0.603841 0.345073
O O12 0.925002 0.500000 0.754532
O O13 0.000000 0.392396 0.500000
O O14 0.007530 0.324482 0.753168
O O15 0.000000 0.842175 0.500000
O O16 0.885098 0.895128 0.796693
O O17 0.080288 0.000000 0.569191
O O18 0.331285 0.000000 0.072559
O O19 0.000000 0.597373 0.000000
#
# Coordination Sequence:
#
# PCOD9153744 Si02
#       7
#     4   4   4   4   4   4   4
#     4  12  27  45  71 100 137 189 243 296 357 427
#     4   9  18  33  58  91 134 177 219 274 345 407
#     4  11  27  48  69 100 143 185 228 286 353 430
#     4  11  23  42  68 102 140 180 230 291 350 407
#     4   9  17  29  53  92 131 171 220 277 344 410
#     4  10  22  41  64  93 130 180 240 297 351 410
#     4  11  23  40  68 104 138 179 227 277 343 411
#
# _framework density 22.277605999999999
#
# number of rings (size 3 to 8) (size 9 to 14) (size 15 to 20)
#    0.000    1.571    1.429    3.857    6.000    5.429 
#    0.000    0.000    0.000    0.429    0.000    0.000 
#    0.000    0.000    0.000    0.000    0.000    0.000 
#
# Total GULP energy -155973.933343 kJ/mol
# GULP energy per Si atom -5570.497619 kJ/mol
# Density = 2.222690 g / cm^3
# Si number density = 22.277606 Si / 1000 Ang^3
#
#
#
# Elastic Constant Matrix: (Units=GPa)
#
#
# Indices 1 2 3 4 5 6 
#
# 1 105.5865 36.7596 59.9684 0.0000 3.5641 0.0000
# 2 36.7596 110.7119 36.1825 0.0000 14.0390 0.0000
# 3 59.9684 36.1825 121.8231 0.0000 9.6321 0.0000
# 4 0.0000 0.0000 0.0000 23.4666 0.0000 1.8104
# 5 3.5641 14.0390 9.6321 0.0000 45.4005 0.0000
# 6 0.0000 0.0000 0.0000 1.8104 0.0000 31.9789
#
#
#
# Elastic Compliance Matrix: (Units=1/GPa)
#
#
# Indices 1 2 3 4 5 6 
#
# 1 0.013846 -0.002742 -0.006084 0.000000 0.001052 0.000000
# 2 -0.002742 0.010835 -0.001648 0.000000 -0.002785 0.000000
# 3 -0.006084 -0.001648 0.011813 0.000000 -0.001519 0.000000
# 4 0.000000 0.000000 0.000000 0.042801 0.000000 -0.002423
# 5 0.001052 -0.002785 -0.001519 0.000000 0.023127 0.000000
# 6 0.000000 0.000000 0.000000 -0.002423 0.000000 0.031408
#
#
# Mechanical properties :
#
#
# Convention : Reuss Voigt Hill
#
# Bulk Modulus (GPa) = 64.33010 67.10472 65.71741
# Shear Modulus (GPa) = 31.25783 33.84994 32.55388
#
# Velocity S-wave (km/s) = 3.74987 3.90225 3.82682
# Velocity P-wave (km/s) = 6.90565 7.10569 7.00638
#
# Compressibility (1/GPa) = 0.01554482
#
# Stress axis : x y z
#
# Youngs Moduli (GPa) = 72.22444 92.29607 84.65042
#
# Poissons Ratio (x) = 0.25308 0.51505
# Poissons Ratio (y) = 0.19805 0.13950
# Poissons Ratio (z) = 0.43944 0.15210
#
# Static dielectric constant tensor:
#      x y z
#    x 1.810320 0.000000 0.076020 
#    y 0.000000 1.882930 0.000000 
#    z 0.076020 0.000000 1.914970 
# 
# From -- ./inp_files/25207.got.cif
#   From: 2010.05.17/outbox.cif.g08.bks.cpg/sg10_13_cif.got.tgz:25207.got - 2010.06.03 11:33:40.
