data_PCOD9153633
_publ_section_title
;
Structure prediction by ZEFSAII (Michael W. Deem and Ramdas Pophale) SiO2 
 PCOD9153633
Probable space group: P 2/M
;
_chemical_formula_sum "Si O2"
_cell_formula_units_Z 24
_cell_length_a 24.208868
_cell_length_b 10.301854
_cell_length_c 26.623024
_cell_angle_alpha 90.000000
_cell_angle_beta 169.521197
_cell_angle_gamma 90.000000
_cell_volume 1207.570524
_symmetry_space_group_name_H-M "P 2/M"
_symmetry_group_IT_number 10
_symmetry_cell_setting 'monoclinic'
loop_
_space_group_symop_operation_xyz
x,y,z
-x,y,-z
-x,-y,-z
x,-y,z
loop_
_atom_site_type_symbol
_atom_site_label
_atom_site_fract_x
_atom_site_fract_y
_atom_site_fract_z
Si Si1 0.492714 0.352193 0.635717
Si Si2 0.812118 0.652022 0.485268
Si Si3 0.533421 0.854984 0.470958
Si Si4 0.209808 0.136336 0.034210
Si Si5 0.849628 0.658083 0.313764
Si Si6 0.109634 0.719412 0.853701
O O1 0.603741 0.500000 0.732549
O O2 0.572957 0.264922 0.658661
O O3 0.623390 0.264020 0.797297
O O4 0.133489 0.354797 0.327803
O O5 0.886885 0.500000 0.560805
O O6 0.968060 0.696569 0.573023
O O7 0.958153 0.724792 0.663556
O O8 0.448546 0.662163 0.154408
O O9 0.500000 0.829979 0.500000
O O10 0.399301 0.000000 0.340228
O O11 0.887574 0.864384 0.773789
O O12 0.371077 0.000000 0.190128
O O13 0.151620 0.149191 0.922963
O O14 0.855969 0.500000 0.319731
O O15 0.000000 0.702430 0.500000
O O16 0.500000 0.698432 0.000000
#
# Coordination Sequence:
#
# PCOD9153633 Si02
#       6
#     4   4   4   4   4   4
#     4  11  22  36  58  86 121 156 193 247 305 358
#     4  11  20  32  53  81 119 159 197 241 294 354
#     4   9  20  39  60  82 111 155 206 249 295 357
#     4  10  22  40  61  83 115 156 196 245 300 354
#     4   9  17  29  45  71 110 158 199 233 281 345
#     4  11  22  36  54  84 114 157 200 239 294 356
#
# _framework density 19.874616
#
# number of rings (size 3 to 8) (size 9 to 14) (size 15 to 20)
#    0.000    1.833    1.667    3.000    0.000    7.667 
#    0.000    3.333    0.000    0.000    0.000    0.000 
#    0.000   13.333    0.000    0.000    0.000    0.000 
#
# Total GULP energy -133769.429323 kJ/mol
# GULP energy per Si atom -5573.726222 kJ/mol
# Density = 1.982938 g / cm^3
# Si number density = 19.874616 Si / 1000 Ang^3
#
#
#
# Elastic Constant Matrix: (Units=GPa)
#
#
# Indices 1 2 3 4 5 6 
#
# 1 176.1311 43.0825 49.2160 0.0000 -8.9873 0.0000
# 2 43.0825 121.1872 23.5331 0.0000 -12.6394 0.0000
# 3 49.2160 23.5331 74.7769 0.0000 -15.0919 0.0000
# 4 0.0000 0.0000 0.0000 19.8811 0.0000 3.5949
# 5 -8.9873 -12.6394 -15.0919 0.0000 32.4303 0.0000
# 6 0.0000 0.0000 0.0000 3.5949 0.0000 39.4206
#
#
#
# Elastic Compliance Matrix: (Units=1/GPa)
#
#
# Indices 1 2 3 4 5 6 
#
# 1 0.007312 -0.001824 -0.004385 0.000000 -0.000725 0.000000
# 2 -0.001824 0.009410 -0.001240 0.000000 0.002585 0.000000
# 3 -0.004385 -0.001240 0.017997 0.000000 0.006677 0.000000
# 4 0.000000 0.000000 0.000000 0.051142 0.000000 -0.004664
# 5 -0.000725 0.002585 0.006677 0.000000 0.034749 0.000000
# 6 0.000000 0.000000 0.000000 -0.004664 0.000000 0.025793
#
#
# Mechanical properties :
#
#
# Convention : Reuss Voigt Hill
#
# Bulk Modulus (GPa) = 50.44635 67.08427 58.76531
# Shear Modulus (GPa) = 29.77838 35.43064 32.60451
#
# Velocity S-wave (km/s) = 3.87500 4.22679 4.05472
# Velocity P-wave (km/s) = 6.74227 7.59263 7.18005
#
# Compressibility (1/GPa) = 0.01982304
#
# Stress axis : x y z
#
# Youngs Moduli (GPa) = 136.76324 106.26632 55.56551
#
# Poissons Ratio (x) = 0.19378 0.24365
# Poissons Ratio (y) = 0.24939 0.06888
# Poissons Ratio (z) = 0.59970 0.13172
#
# Static dielectric constant tensor:
#      x y z
#    x 1.747230 0.000000 -0.073980 
#    y 0.000000 1.822500 0.000000 
#    z -0.073980 0.000000 1.798420 
# 
# From -- ./inp_files/93899.got.cif
#   From: 2010.05.17/outbox.cif.g08.bks.cpg/sg10_47_cif.got.tgz:93899.got - 2010.06.03 11:33:40.
