data_PCOD9153912
_publ_section_title
;
Structure prediction by ZEFSAII (Michael W. Deem and Ramdas Pophale) SiO2 
 PCOD9153912
Probable space group: P 2/M
;
_chemical_formula_sum "Si O2"
_cell_formula_units_Z 32
_cell_length_a 19.636950
_cell_length_b 15.365514
_cell_length_c 6.781892
_cell_angle_alpha 90.000000
_cell_angle_beta 48.007083
_cell_angle_gamma 90.000000
_cell_volume 1520.875941
_symmetry_space_group_name_H-M "P 2/M"
_symmetry_group_IT_number 10
_symmetry_cell_setting 'monoclinic'
loop_
_space_group_symop_operation_xyz
x,y,z
-x,y,-z
-x,-y,-z
x,-y,z
loop_
_atom_site_type_symbol
_atom_site_label
_atom_site_fract_x
_atom_site_fract_y
_atom_site_fract_z
Si Si1 0.904720 0.344200 0.606398
Si Si2 0.080759 0.810762 0.722464
Si Si3 0.576963 0.099893 0.705591
Si Si4 0.335619 0.791366 0.774150
Si Si5 0.729857 0.098701 0.736966
Si Si6 0.740932 0.596718 0.636605
Si Si7 0.807090 0.283912 0.180445
Si Si8 0.609102 0.403332 0.252267
O O1 0.931897 0.252202 0.444782
O O2 0.832040 0.387716 0.595682
O O3 0.000000 0.385086 0.500000
O O4 0.846506 0.334872 0.918767
O O5 0.166718 0.871756 0.505916
O O6 0.111500 0.745065 0.836296
O O7 0.000000 0.858702 0.000000
O O8 0.588200 0.155687 0.489155
O O9 0.668854 0.099450 0.658548
O O10 0.552982 0.000000 0.702980
O O11 0.500000 0.135968 0.000000
O O12 0.243551 0.797109 0.821872
O O13 0.356531 0.688777 0.731610
O O14 0.313985 0.832272 0.026565
O O15 0.726327 0.000000 0.824662
O O16 0.746972 0.500000 0.541749
O O17 0.741704 0.665160 0.458527
O O18 0.651217 0.601553 0.949040
O O19 0.500000 0.403011 0.500000
O O20 0.641009 0.500000 0.263271
#
# Coordination Sequence:
#
# PCOD9153912 Si02
#       8
#     4   4   4   4   4   4   4   4
#     4  11  21  38  63  91 120 162 210 263 312 377
#     4  11  21  37  63  89 123 163 210 255 310 373
#     4  10  24  42  62  94 131 165 208 261 316 376
#     4  12  22  39  70  90 123 171 217 252 323 377
#     4  11  24  41  62  95 132 164 211 266 313 375
#     4  10  23  40  59  89 126 162 208 265 325 383
#     4  11  21  37  62  89 119 164 214 257 311 374
#     4  10  23  42  64  93 130 166 209 266 316 372
#
# _framework density 21.040507000000002
#
# number of rings (size 3 to 8) (size 9 to 14) (size 15 to 20)
#    0.000    1.250    5.000    1.125    1.750    1.500 
#    0.000    2.500    0.000    3.750    0.000    0.000 
#    0.000    0.000    0.000    0.000    0.000    0.000 
#
# Total GULP energy -178304.914234 kJ/mol
# GULP energy per Si atom -5572.028570 kJ/mol
# Density = 2.099262 g / cm^3
# Si number density = 21.040507 Si / 1000 Ang^3
#
#
#
# Elastic Constant Matrix: (Units=GPa)
#
#
# Indices 1 2 3 4 5 6 
#
# 1 42.8490 14.9564 20.0820 0.0000 3.5602 0.0000
# 2 14.9564 72.5652 40.2368 0.0000 2.4413 0.0000
# 3 20.0820 40.2368 120.7776 0.0000 -16.8992 0.0000
# 4 0.0000 0.0000 0.0000 26.3359 0.0000 25.6186
# 5 3.5602 2.4413 -16.8992 0.0000 38.1593 0.0000
# 6 0.0000 0.0000 0.0000 25.6186 0.0000 -2.4415
#
#
#
# Elastic Compliance Matrix: (Units=1/GPa)
#
#
# Indices 1 2 3 4 5 6 
#
# 1 0.026622 -0.003171 -0.003933 0.000000 -0.004023 0.000000
# 2 -0.003171 0.017817 -0.005892 0.000000 -0.003453 0.000000
# 3 -0.003933 -0.005892 0.011727 0.000000 0.005937 0.000000
# 4 0.000000 0.000000 0.000000 0.003388 0.000000 0.035551
# 5 -0.004023 -0.003453 0.005937 0.000000 0.029432 0.000000
# 6 0.000000 0.000000 0.000000 0.035551 0.000000 -0.036546
#
#
# Mechanical properties :
#
#
# Convention : Reuss Voigt Hill
#
# Bulk Modulus (GPa) = 33.13966 42.97137 38.05551
# Shear Modulus (GPa) = 56.50369 23.13850 39.82110
#
# Velocity S-wave (km/s) = 5.18778 3.31979 4.35511
# Velocity P-wave (km/s) = 7.18809 5.92977 6.58904
#
# Compressibility (1/GPa) = 0.03017533
#
# Stress axis : x y z
#
# Youngs Moduli (GPa) = 37.56275 56.12496 85.27165
#
# Poissons Ratio (x) = 0.17797 0.33537
# Poissons Ratio (y) = 0.11911 0.50240
# Poissons Ratio (z) = 0.14773 0.33068
#
# Static dielectric constant tensor:
#      x y z
#    x 1.825560 0.000000 -0.060160 
#    y 0.000000 1.776140 0.000000 
#    z -0.060160 0.000000 1.765190 
# 
# From -- ./inp_files/12846.got.cif
#   From: 2010.05.17/outbox.cif.g08.bks.cpg/sg10_7_cif.got.tgz:12846.got - 2010.06.03 11:33:40.
