data_PCOD9153721
_publ_section_title
;
Structure prediction by ZEFSAII (Michael W. Deem and Ramdas Pophale) SiO2 
 PCOD9153721
Probable space group: P 2/M
;
_chemical_formula_sum "Si O2"
_cell_formula_units_Z 16
_cell_length_a 5.306640
_cell_length_b 24.885963
_cell_length_c 4.796098
_cell_angle_alpha 90.000000
_cell_angle_beta 92.356272
_cell_angle_gamma 90.000000
_cell_volume 632.841242
_symmetry_space_group_name_H-M "P 2/M"
_symmetry_group_IT_number 10
_symmetry_cell_setting 'monoclinic'
loop_
_space_group_symop_operation_xyz
x,y,z
-x,y,-z
-x,-y,-z
x,-y,z
loop_
_atom_site_type_symbol
_atom_site_label
_atom_site_fract_x
_atom_site_fract_y
_atom_site_fract_z
Si Si1 0.756210 0.500000 0.692940
Si Si2 0.000000 0.097675 0.500000
Si Si3 0.243838 0.614450 0.310143
Si Si4 0.000000 0.179306 0.000000
Si Si5 0.311787 0.000000 0.739461
Si Si6 0.752534 0.732519 0.695490
O O1 0.500000 0.500000 0.500000
O O2 0.757863 0.557357 0.849898
O O3 0.000000 0.500000 0.500000
O O4 0.063180 0.139627 0.258884
O O5 0.158802 0.054469 0.689168
O O6 0.500000 0.614209 0.500000
O O7 0.243974 0.672770 0.170270
O O8 0.000000 0.614317 0.500000
O O9 0.221581 0.222805 0.063947
O O10 0.500000 0.000000 0.500000
O O11 0.500000 0.000000 0.000000
O O12 0.500000 0.738554 0.500000
O O13 0.000000 0.737691 0.500000
#
# Coordination Sequence:
#
# PCOD9153721 Si02
#       6
#     2   2   4   2   2   4
#     4   8  12  20  40  73 106 150 207 273 335 402
#     4  11  26  46  70 108 138 179 230 272 338 403
#     4   8  14  26  47  75 114 159 214 273 340 404
#     4  12  24  45  66 101 140 186 232 286 334 410
#     4  11  24  47  76 106 142 181 218 277 335 398
#     4  10  22  41  62  92 133 183 230 285 347 410
#
# _framework density 25.282803999999999
#
# number of rings (size 3 to 8) (size 9 to 14) (size 15 to 20)
#    0.000    2.250    1.250    1.500    0.000    6.000 
#    4.500    0.000    0.000    0.750    0.000    0.000 
#    0.000   30.000    0.000    0.000    0.000   14.000 
#
# Total GULP energy -89151.243772 kJ/mol
# GULP energy per Si atom -5571.952736 kJ/mol
# Density = 2.522526 g / cm^3
# Si number density = 25.282804 Si / 1000 Ang^3
#
#
#
# Elastic Constant Matrix: (Units=GPa)
#
#
# Indices 1 2 3 4 5 6 
#
# 1 170.8987 31.6424 43.4739 0.0000 29.4313 0.0000
# 2 31.6424 295.4733 49.3277 0.0000 24.6001 0.0000
# 3 43.4739 49.3277 112.7330 0.0000 36.3111 0.0000
# 4 0.0000 0.0000 0.0000 -87.2201 0.0000 41.8590
# 5 29.4313 24.6001 36.3111 0.0000 63.8729 0.0000
# 6 0.0000 0.0000 0.0000 41.8590 0.0000 43.0617
#
#
#
# Elastic Compliance Matrix: (Units=1/GPa)
#
#
# Indices 1 2 3 4 5 6 
#
# 1 0.006702 -0.000247 -0.001851 0.000000 -0.001941 0.000000
# 2 -0.000247 0.003680 -0.001340 0.000000 -0.000541 0.000000
# 3 -0.001851 -0.001340 0.011911 0.000000 -0.005402 0.000000
# 4 0.000000 0.000000 0.000000 -0.007818 0.000000 0.007600
# 5 -0.001941 -0.000541 -0.005402 0.000000 0.019830 0.000000
# 6 0.000000 0.000000 0.000000 0.007600 0.000000 0.015835
#
#
# Mechanical properties :
#
#
# Convention : Reuss Voigt Hill
#
# Bulk Modulus (GPa) = 64.87200 91.99921 78.43560
# Shear Modulus (GPa) = 80.44247 34.25365 57.34806
#
# Velocity S-wave (km/s) = 5.64678 3.68478 4.76780
# Velocity P-wave (km/s) = 8.26009 7.38719 7.83580
#
# Compressibility (1/GPa) = 0.01541497
#
# Stress axis : x y z
#
# Youngs Moduli (GPa) = 149.20120 271.76036 83.95614
#
# Poissons Ratio (x) = 0.06715 0.15544
# Poissons Ratio (y) = 0.03687 0.11254
# Poissons Ratio (z) = 0.27624 0.36428
#
# Static dielectric constant tensor:
#      x y z
#    x 2.024710 0.000000 -0.099380 
#    y 0.000000 1.953710 0.000000 
#    z -0.099380 0.000000 1.765850 
# 
# From -- ./inp_files/1824.got.cif
#   From: 2010.05.17/outbox.cif.g08.bks.cpg/sg10_1_cif.got.tgz:1824.got - 2010.06.03 11:33:40.
