data_PCOD9153322
_publ_section_title
;
Structure prediction by ZEFSAII (Michael W. Deem and Ramdas Pophale) SiO2 
 PCOD9153322
Probable space group: P 2/M
;
_chemical_formula_sum "Si O2"
_cell_formula_units_Z 18
_cell_length_a 12.121407
_cell_length_b 7.657406
_cell_length_c 9.612014
_cell_angle_alpha 90.000000
_cell_angle_beta 123.879364
_cell_angle_gamma 90.000000
_cell_volume 740.693768
_symmetry_space_group_name_H-M "P 2/M"
_symmetry_group_IT_number 10
_symmetry_cell_setting 'monoclinic'
loop_
_space_group_symop_operation_xyz
x,y,z
-x,y,-z
-x,-y,-z
x,-y,z
loop_
_atom_site_type_symbol
_atom_site_label
_atom_site_fract_x
_atom_site_fract_y
_atom_site_fract_z
Si Si1 0.670855 0.206150 0.011445
Si Si2 0.000000 0.000000 0.500000
Si Si3 0.544533 0.791486 0.379917
Si Si4 0.500000 0.500000 0.000000
Si Si5 0.167995 0.687440 0.518867
Si Si6 0.973474 0.206308 0.144953
O O1 0.574687 0.239223 0.811240
O O2 0.614736 0.344558 0.080136
O O3 0.658174 0.000000 0.040022
O O4 0.820943 0.244041 0.071267
O O5 0.115297 0.153791 0.574213
O O6 0.500000 0.728412 0.500000
O O7 0.681701 0.710627 0.426355
O O8 0.566532 0.000000 0.404012
O O9 0.148486 0.500000 0.572317
O O10 0.077014 0.697884 0.315657
O O11 0.993828 0.000000 0.196845
O O12 0.000000 0.229017 0.000000
#
# Coordination Sequence:
#
# PCOD9153322 Si02
#       6
#     4   1   4   1   4   4
#     4  10  24  44  67 100 130 176 221 272 331 393
#     4  12  26  52  64  92 144 184 230 276 328 406
#     4  10  21  45  74 101 135 173 220 280 343 397
#     4  12  26  44  64  92 144 176 222 268 328 390
#     4  12  26  44  69 104 134 180 225 280 339 396
#     4  10  21  45  74 101 135 173 220 280 343 397
#
# _framework density 24.301541
#
# number of rings (size 3 to 8) (size 9 to 14) (size 15 to 20)
#    0.000    1.333    2.222    2.000    3.111    6.222 
#    4.000    0.000    0.000    0.000    0.000    0.000 
#    0.000    0.000    0.000    0.000    0.000    0.000 
#
# Total GULP energy -100429.546528 kJ/mol
# GULP energy per Si atom -5579.419252 kJ/mol
# Density = 2.424623 g / cm^3
# Si number density = 24.301541 Si / 1000 Ang^3
#
#
#
# Elastic Constant Matrix: (Units=GPa)
#
#
# Indices 1 2 3 4 5 6 
#
# 1 166.2763 64.2643 65.7714 0.0000 37.5569 0.0000
# 2 64.2643 118.6503 76.5386 0.0000 5.4142 0.0000
# 3 65.7714 76.5386 131.7665 0.0000 27.9741 0.0000
# 4 0.0000 0.0000 0.0000 2.6581 0.0000 -18.3757
# 5 37.5569 5.4142 27.9741 0.0000 30.2493 0.0000
# 6 0.0000 0.0000 0.0000 -18.3757 0.0000 -627.4556
#
#
#
# Elastic Compliance Matrix: (Units=1/GPa)
#
#
# Indices 1 2 3 4 5 6 
#
# 1 0.010957 -0.005778 0.000691 0.000000 -0.013210 0.000000
# 2 -0.005778 0.017464 -0.010103 0.000000 0.013391 0.000000
# 3 0.000691 -0.010103 0.016065 0.000000 -0.013907 0.000000
# 4 0.000000 0.000000 0.000000 0.312868 0.000000 -0.009163
# 5 -0.013210 0.013391 -0.013907 0.000000 0.059923 0.000000
# 6 0.000000 0.000000 0.000000 -0.009163 0.000000 -0.001325
#
#
# Mechanical properties :
#
#
# Convention : Reuss Voigt Hill
#
# Bulk Modulus (GPa) = 70.88801 92.20463 81.54632
# Shear Modulus (GPa) = 11.08566 -104.90172 -46.90803
#
# Velocity S-wave (km/s) = 2.13813 -6.57726 -4.39823
# Velocity P-wave (km/s) = 5.94382 4.43354 2.79935
#
# Compressibility (1/GPa) = 0.01410676
#
# Stress axis : x y z
#
# Youngs Moduli (GPa) = 91.26191 57.26135 62.24712
#
# Poissons Ratio (x) = 0.33085 -0.04302
# Poissons Ratio (y) = 0.52731 0.62888
# Poissons Ratio (z) = -0.06308 0.57851
#
# Static dielectric constant tensor:
#      x y z
#    x 1.936380 0.000000 -0.094690 
#    y 0.000000 2.013840 0.000000 
#    z -0.094690 0.000000 2.056710 
# 
# From -- ./inp_files/44807.got.cif
#   From: 2010.05.17/outbox.cif.g08.bks.cpg/sg10_23_cif.got.tgz:44807.got - 2010.06.03 11:33:40.
