data_PCOD9153634
_publ_section_title
;
Structure prediction by ZEFSAII (Michael W. Deem and Ramdas Pophale) SiO2 
 PCOD9153634
Probable space group: P 2/M
;
_chemical_formula_sum "Si O2"
_cell_formula_units_Z 32
_cell_length_a 25.275066
_cell_length_b 7.786101
_cell_length_c 15.273603
_cell_angle_alpha 90.000000
_cell_angle_beta 26.789841
_cell_angle_gamma 90.000000
_cell_volume 1354.752486
_symmetry_space_group_name_H-M "P 2/M"
_symmetry_group_IT_number 10
_symmetry_cell_setting 'monoclinic'
loop_
_space_group_symop_operation_xyz
x,y,z
-x,y,-z
-x,-y,-z
x,-y,z
loop_
_atom_site_type_symbol
_atom_site_label
_atom_site_fract_x
_atom_site_fract_y
_atom_site_fract_z
Si Si1 0.515798 0.802939 0.249738
Si Si2 0.811833 0.800354 0.483888
Si Si3 0.963762 0.295082 0.957795
Si Si4 0.139202 0.706608 0.395468
Si Si5 0.556125 0.211358 0.825033
Si Si6 0.863599 0.292528 0.793770
Si Si7 0.300461 0.300166 0.668054
Si Si8 0.346858 0.801667 0.789134
O O1 0.516992 0.727206 0.151034
O O2 0.380710 0.798728 0.480702
O O3 0.585454 0.721251 0.227830
O O4 0.556974 0.000000 0.183162
O O5 0.805611 0.778892 0.598062
O O6 0.691159 0.727513 0.622614
O O7 0.812786 0.000000 0.461584
O O8 0.933110 0.732078 0.264796
O O9 0.952310 0.500000 0.981830
O O10 0.832828 0.232655 0.128962
O O11 0.000000 0.227166 0.000000
O O12 0.148671 0.500000 0.384917
O O13 0.180922 0.761923 0.237260
O O14 0.000419 0.749772 0.601089
O O15 0.556528 0.000000 0.821486
O O16 0.500000 0.261601 0.000000
O O17 0.854575 0.500000 0.812609
O O18 0.787521 0.210422 0.981709
O O19 0.299971 0.500000 0.643091
O O20 0.357622 0.284117 0.679568
O O21 0.382594 0.000000 0.726465
#
# Coordination Sequence:
#
# PCOD9153634 Si02
#       8
#     4   4   4   4   4   4   4   4
#     4  10  22  40  61  84 114 155 197 242 294 343
#     4  11  22  34  58  90 114 144 190 238 286 341
#     4  10  22  40  61  84 115 155 192 234 293 351
#     4   9  19  36  56  78 112 153 189 232 285 342
#     4   9  20  39  61  84 116 155 193 236 290 349
#     4   9  19  36  56  79 110 153 196 231 280 341
#     4  11  23  39  61  87 117 156 195 237 290 350
#     4  11  23  36  57  87 118 152 193 241 292 343
#
# _framework density 23.620550999999999
#
# number of rings (size 3 to 8) (size 9 to 14) (size 15 to 20)
#    0.000    2.000    0.000    3.750    1.750    7.750 
#    0.000    1.875    0.000    1.875    0.000    0.000 
#    0.000    0.000    0.000    0.000    0.000    0.000 
#
# Total GULP energy -178880.737053 kJ/mol
# GULP energy per Si atom -5590.023033 kJ/mol
# Density = 2.356679 g / cm^3
# Si number density = 23.620551 Si / 1000 Ang^3
#
#
#
# Elastic Constant Matrix: (Units=GPa)
#
#
# Indices 1 2 3 4 5 6 
#
# 1 124.8934 -2.8791 4.3608 0.0000 6.3931 0.0000
# 2 -2.8791 36.3851 -2.9957 0.0000 -3.0251 0.0000
# 3 4.3608 -2.9957 59.1850 0.0000 11.5062 0.0000
# 4 0.0000 0.0000 0.0000 7.2654 0.0000 1.3144
# 5 6.3931 -3.0251 11.5062 0.0000 38.7357 0.0000
# 6 0.0000 0.0000 0.0000 1.3144 0.0000 16.9167
#
#
#
# Elastic Compliance Matrix: (Units=1/GPa)
#
#
# Indices 1 2 3 4 5 6 
#
# 1 0.008092 0.000513 -0.000338 0.000000 -0.001195 0.000000
# 2 0.000513 0.027756 0.001021 0.000000 0.001780 0.000000
# 3 -0.000338 0.001021 0.017985 0.000000 -0.005207 0.000000
# 4 0.000000 0.000000 0.000000 0.139600 0.000000 -0.010847
# 5 -0.001195 0.001780 -0.005207 0.000000 0.027699 0.000000
# 6 0.000000 0.000000 0.000000 -0.010847 0.000000 0.059956
#
#
# Mechanical properties :
#
#
# Convention : Reuss Voigt Hill
#
# Bulk Modulus (GPa) = 17.78543 24.15948 20.97245
# Shear Modulus (GPa) = 16.81026 27.38207 22.09616
#
# Velocity S-wave (km/s) = 2.67063 3.40847 3.06185
# Velocity P-wave (km/s) = 4.12985 5.07351 4.62581
#
# Compressibility (1/GPa) = 0.05622580
#
# Stress axis : x y z
#
# Youngs Moduli (GPa) = 123.58452 36.02769 55.60180
#
# Poissons Ratio (x) = -0.01849 0.01879
# Poissons Ratio (y) = -0.06341 -0.05678
# Poissons Ratio (z) = 0.04176 -0.03679
#
# Static dielectric constant tensor:
#      x y z
#    x 1.911800 0.000000 -0.033920 
#    y 0.000000 1.858360 0.000000 
#    z -0.033920 0.000000 1.900750 
# 
# From -- ./inp_files/71537.got.cif
#   From: 2010.05.17/outbox.cif.g08.bks.cpg/sg10_36_cif.got.tgz:71537.got - 2010.06.03 11:33:40.
