data_PCOD9153352
_publ_section_title
;
Structure prediction by ZEFSAII (Michael W. Deem and Ramdas Pophale) SiO2 
 PCOD9153352
Probable space group: P 2/M
;
_chemical_formula_sum "Si O2"
_cell_formula_units_Z 20
_cell_length_a 12.391447
_cell_length_b 10.911858
_cell_length_c 15.827095
_cell_angle_alpha 90.000000
_cell_angle_beta 153.181072
_cell_angle_gamma 90.000000
_cell_volume 965.527061
_symmetry_space_group_name_H-M "P 2/M"
_symmetry_group_IT_number 10
_symmetry_cell_setting 'monoclinic'
loop_
_space_group_symop_operation_xyz
x,y,z
-x,y,-z
-x,-y,-z
x,-y,z
loop_
_atom_site_type_symbol
_atom_site_label
_atom_site_fract_x
_atom_site_fract_y
_atom_site_fract_z
Si Si1 0.023359 0.149410 0.374255
Si Si2 0.645344 0.858801 0.243772
Si Si3 0.885094 0.786852 0.100957
Si Si4 0.321889 0.136238 0.295902
Si Si5 0.736544 0.632155 0.855866
O O1 0.778351 0.185630 0.252264
O O2 0.031262 0.214554 0.289657
O O3 0.229809 0.189603 0.583851
O O4 0.033260 0.000000 0.366011
O O5 0.717138 0.000000 0.294994
O O6 0.362082 0.852944 0.048899
O O7 0.055786 0.849518 0.150114
O O8 0.789619 0.663446 0.990440
O O9 0.500000 0.143939 0.500000
O O10 0.367380 0.248362 0.264120
O O11 0.349144 0.000000 0.276521
O O12 0.614442 0.500000 0.759106
O O13 0.000000 0.622086 0.000000
#
# Coordination Sequence:
#
# PCOD9153352 Si02
#       5
#     4   4   4   4   4
#     4   9  18  31  49  81 116 147 183 225 278 339
#     4   9  18  31  50  79 117 149 181 226 278 338
#     4  11  20  32  57  78 110 150 188 226 279 326
#     4  10  22  36  54  86 120 147 186 235 280 330
#     4   9  21  40  57  77 110 149 193 234 276 334
#
# _framework density 20.714077
#
# number of rings (size 3 to 8) (size 9 to 14) (size 15 to 20)
#    0.000    2.400    0.000    3.600    2.800    7.200 
#    0.000    0.000    0.000    2.400    0.000    2.800 
#    0.000    0.000    0.000    0.000    0.000    0.000 
#
# Total GULP energy -111457.002077 kJ/mol
# GULP energy per Si atom -5572.850104 kJ/mol
# Density = 2.066693 g / cm^3
# Si number density = 20.714077 Si / 1000 Ang^3
#
#
#
# Elastic Constant Matrix: (Units=GPa)
#
#
# Indices 1 2 3 4 5 6 
#
# 1 92.9606 27.7128 16.0934 0.0000 -12.7425 0.0000
# 2 27.7128 118.2725 21.6797 0.0000 -25.1321 0.0000
# 3 16.0934 21.6797 71.5710 0.0000 -5.7585 0.0000
# 4 0.0000 0.0000 0.0000 -2.4475 0.0000 -4.0551
# 5 -12.7425 -25.1321 -5.7585 0.0000 49.3005 0.0000
# 6 0.0000 0.0000 0.0000 -4.0551 0.0000 10.6934
#
#
#
# Elastic Compliance Matrix: (Units=1/GPa)
#
#
# Indices 1 2 3 4 5 6 
#
# 1 0.011953 -0.002064 -0.001917 0.000000 0.001813 0.000000
# 2 -0.002064 0.010306 -0.002300 0.000000 0.004452 0.000000
# 3 -0.001917 -0.002300 0.015107 0.000000 0.000097 0.000000
# 4 0.000000 0.000000 0.000000 -0.250926 0.000000 -0.095155
# 5 0.001813 0.004452 0.000097 0.000000 0.023033 0.000000
# 6 0.000000 0.000000 0.000000 -0.095155 0.000000 0.057431
#
#
# Mechanical properties :
#
#
# Convention : Reuss Voigt Hill
#
# Bulk Modulus (GPa) = 40.31266 45.97510 43.14388
# Shear Modulus (GPa) = -44.53728 25.99716 -9.27006
#
# Velocity S-wave (km/s) = -4.64194 3.54651 -2.11777
# Velocity P-wave (km/s) = 3.03751 6.24609 3.85922
#
# Compressibility (1/GPa) = 0.02480610
#
# Stress axis : x y z
#
# Youngs Moduli (GPa) = 83.66141 97.02919 66.19242
#
# Poissons Ratio (x) = 0.20028 0.12686
# Poissons Ratio (y) = 0.17268 0.15221
# Poissons Ratio (z) = 0.16034 0.22312
#
# Static dielectric constant tensor:
#      x y z
#    x 1.793550 0.000000 -0.005930 
#    y 0.000000 1.764880 0.000000 
#    z -0.005930 0.000000 1.770640 
# 
# From -- ./inp_files/50959.got.cif
#   From: 2010.05.17/outbox.cif.g08.bks.cpg/sg10_26_cif.got.tgz:50959.got - 2010.06.03 11:33:40.
