data_PCOD9153286
_publ_section_title
;
Structure prediction by ZEFSAII (Michael W. Deem and Ramdas Pophale) SiO2 
 PCOD9153286
Probable space group: P 2/M
;
_chemical_formula_sum "Si O2"
_cell_formula_units_Z 19
_cell_length_a 5.348911
_cell_length_b 26.662832
_cell_length_c 5.468820
_cell_angle_alpha 90.000000
_cell_angle_beta 92.036412
_cell_angle_gamma 90.000000
_cell_volume 779.454754
_symmetry_space_group_name_H-M "P 2/M"
_symmetry_group_IT_number 10
_symmetry_cell_setting 'monoclinic'
loop_
_space_group_symop_operation_xyz
x,y,z
-x,y,-z
-x,-y,-z
x,-y,z
loop_
_atom_site_type_symbol
_atom_site_label
_atom_site_fract_x
_atom_site_fract_y
_atom_site_fract_z
Si Si1 0.737534 0.891128 0.841523
Si Si2 0.251420 0.569158 0.143915
Si Si3 0.157663 0.000000 0.260934
Si Si4 0.000000 0.500000 0.500000
Si Si5 0.152216 0.216541 0.258631
Si Si6 0.252115 0.674427 0.343078
O O1 0.706165 0.946316 0.725903
O O2 0.736651 0.839045 0.694925
O O3 0.500000 0.885140 0.000000
O O4 0.000000 0.893060 0.000000
O O5 0.237274 0.629289 0.153327
O O6 0.200096 0.543918 0.405555
O O7 0.500000 0.555391 0.000000
O O8 0.000000 0.551333 0.000000
O O9 0.000000 0.000000 0.500000
O O10 0.000000 0.000000 0.000000
O O11 0.296254 0.269232 0.241280
O O12 0.000000 0.224193 0.500000
O O13 0.000000 0.212922 0.000000
O O14 0.500000 0.662125 0.500000
O O15 0.000000 0.672832 0.500000
#
# Coordination Sequence:
#
# PCOD9153286 Si02
#       6
#     4   4   2   1   4   4
#     4  10  22  41  66  98 138 182 235 292 355 424
#     4  12  27  47  76 108 143 192 240 293 361 432
#     4  10  21  42  66  96 136 182 234 288 356 424
#     4  12  28  50  76 104 158 176 250 288 370 410
#     4  10  23  44  71 104 143 187 240 297 362 426
#     4  11  24  46  73 103 142 184 232 297 358 424
#
# _framework density 24.376014999999999
#
# number of rings (size 3 to 8) (size 9 to 14) (size 15 to 20)
#    0.000    1.263    1.053    3.474    0.000   10.105 
#    0.000   16.842    0.000    0.000    0.000    0.000 
#    0.000    0.000    0.000    0.000    0.000    0.000 
#
# Total GULP energy -105768.839928 kJ/mol
# GULP energy per Si atom -5566.781049 kJ/mol
# Density = 2.432053 g / cm^3
# Si number density = 24.376015 Si / 1000 Ang^3
#
#
#
# Elastic Constant Matrix: (Units=GPa)
#
#
# Indices 1 2 3 4 5 6 
#
# 1 156.3802 19.4696 43.9011 0.0000 -19.8876 0.0000
# 2 19.4696 253.3978 16.7412 0.0000 -16.9930 0.0000
# 3 43.9011 16.7412 93.7818 0.0000 -20.7881 0.0000
# 4 0.0000 0.0000 0.0000 55.7953 0.0000 -26.3738
# 5 -19.8876 -16.9930 -20.7881 0.0000 59.1780 0.0000
# 6 0.0000 0.0000 0.0000 -26.3738 0.0000 -2.3764
#
#
#
# Elastic Compliance Matrix: (Units=1/GPa)
#
#
# Indices 1 2 3 4 5 6 
#
# 1 0.007485 -0.000277 -0.003161 0.000000 0.001326 0.000000
# 2 -0.000277 0.004056 -0.000387 0.000000 0.000936 0.000000
# 3 -0.003161 -0.000387 0.012961 0.000000 0.003380 0.000000
# 4 0.000000 0.000000 0.000000 0.002869 0.000000 -0.031846
# 5 0.001326 0.000936 0.003380 0.000000 0.018799 0.000000
# 6 0.000000 0.000000 0.000000 -0.031846 0.000000 -0.067372
#
#
# Mechanical properties :
#
#
# Convention : Reuss Voigt Hill
#
# Bulk Modulus (GPa) = 59.33916 73.75373 66.54645
# Shear Modulus (GPa) = -630.19110 50.74924 -289.72093
#
# Velocity S-wave (km/s) = -16.09629 4.56777 -10.91389
# Velocity P-wave (km/s) = 17.91809 7.62507 11.46551
#
# Compressibility (1/GPa) = 0.01685228
#
# Stress axis : x y z
#
# Youngs Moduli (GPa) = 133.59951 246.54993 77.15599
#
# Poissons Ratio (x) = 0.06839 0.24386
# Poissons Ratio (y) = 0.03706 0.02984
# Poissons Ratio (z) = 0.42225 0.09537
#
# Static dielectric constant tensor:
#      x y z
#    x 1.917080 0.000000 0.125170 
#    y 0.000000 1.884710 0.000000 
#    z 0.125170 0.000000 2.103220 
# 
# From -- ./inp_files/2076.got.cif
#   From: 2010.05.17/outbox.cif.g08.bks.cpg/sg10_2_cif.got.tgz:2076.got - 2010.06.03 11:33:40.
