data_PCOD9153672
_publ_section_title
;
Structure prediction by ZEFSAII (Michael W. Deem and Ramdas Pophale) SiO2 
 PCOD9153672
Probable space group: P 2/M
;
_chemical_formula_sum "Si O2"
_cell_formula_units_Z 28
_cell_length_a 11.999133
_cell_length_b 9.021390
_cell_length_c 15.915296
_cell_angle_alpha 90.000000
_cell_angle_beta 55.840404
_cell_angle_gamma 90.000000
_cell_volume 1425.587374
_symmetry_space_group_name_H-M "P 2/M"
_symmetry_group_IT_number 10
_symmetry_cell_setting 'monoclinic'
loop_
_space_group_symop_operation_xyz
x,y,z
-x,y,-z
-x,-y,-z
x,-y,z
loop_
_atom_site_type_symbol
_atom_site_label
_atom_site_fract_x
_atom_site_fract_y
_atom_site_fract_z
Si Si1 0.143694 0.822811 0.479064
Si Si2 0.154567 0.324477 0.140720
Si Si3 0.156551 0.171864 0.960474
Si Si4 0.321421 0.677098 0.741419
Si Si5 0.144097 0.676137 0.659902
Si Si6 0.596761 0.176222 0.880009
Si Si7 0.405317 0.676072 0.291749
O O1 0.150572 0.765605 0.571357
O O2 0.265658 0.750117 0.376529
O O3 0.000000 0.779983 0.500000
O O4 0.155246 0.000000 0.470872
O O5 0.181793 0.500000 0.131672
O O6 0.256997 0.239836 0.158280
O O7 0.000713 0.300383 0.234647
O O8 0.174223 0.262221 0.038779
O O9 0.242344 0.239596 0.848565
O O10 0.193302 0.000000 0.959480
O O11 0.000000 0.178640 0.000000
O O12 0.298735 0.500000 0.761171
O O13 0.259062 0.718625 0.678122
O O14 0.479323 0.704973 0.687922
O O15 0.156785 0.500000 0.636417
O O16 0.547597 0.255900 0.816639
O O17 0.602267 0.000000 0.864758
O O18 0.500000 0.206908 0.000000
O O19 0.388870 0.500000 0.290226
#
# Coordination Sequence:
#
# PCOD9153672 Si02
#       7
#     4   4   4   4   4   4   4
#     4  11  25  44  66  91 121 159 201 252 312 369
#     4  11  22  37  62  90 121 162 208 257 305 361
#     4  11  22  35  56  89 128 168 206 249 303 361
#     4  10  22  41  63  90 125 164 206 252 304 366
#     4  10  22  40  63  91 121 156 201 253 305 360
#     4  11  24  41  61  88 126 164 202 252 308 365
#     4  11  24  42  66  92 122 162 206 253 305 364
#
# _framework density 19.641027999999999
#
# number of rings (size 3 to 8) (size 9 to 14) (size 15 to 20)
#    0.000    1.286    1.429    3.857    0.000   10.857 
#    0.000    2.857    0.000    0.000    0.000    0.000 
#    0.000    0.000    0.000    0.000    0.000    0.000 
#
# Total GULP energy -156646.125155 kJ/mol
# GULP energy per Si atom -5594.504470 kJ/mol
# Density = 1.959632 g / cm^3
# Si number density = 19.641028 Si / 1000 Ang^3
#
#
#
# Elastic Constant Matrix: (Units=GPa)
#
#
# Indices 1 2 3 4 5 6 
#
# 1 133.9598 58.4434 47.7541 0.0000 5.6212 0.0000
# 2 58.4434 64.5531 53.3790 0.0000 -3.8346 0.0000
# 3 47.7541 53.3790 93.1243 0.0000 7.8903 0.0000
# 4 0.0000 0.0000 0.0000 33.7648 0.0000 7.9173
# 5 5.6212 -3.8346 7.8903 0.0000 32.0388 0.0000
# 6 0.0000 0.0000 0.0000 7.9173 0.0000 119.4007
#
#
#
# Elastic Compliance Matrix: (Units=1/GPa)
#
#
# Indices 1 2 3 4 5 6 
#
# 1 0.012798 -0.012701 0.001059 0.000000 -0.004026 0.000000
# 2 -0.012701 0.044121 -0.019827 0.000000 0.012392 0.000000
# 3 0.001059 -0.019827 0.022241 0.000000 -0.008036 0.000000
# 4 0.000000 0.000000 0.000000 0.030084 0.000000 -0.001995
# 5 -0.004026 0.012392 -0.008036 0.000000 0.035381 0.000000
# 6 0.000000 0.000000 0.000000 -0.001995 0.000000 0.008507
#
#
# Mechanical properties :
#
#
# Convention : Reuss Voigt Hill
#
# Bulk Modulus (GPa) = 61.64777 67.86557 64.75667
# Shear Modulus (GPa) = 22.57549 45.84492 34.21020
#
# Velocity S-wave (km/s) = 3.39396 4.83654 4.17798
# Velocity P-wave (km/s) = 6.84208 8.11279 7.50438
#
# Compressibility (1/GPa) = 0.01622119
#
# Stress axis : x y z
#
# Youngs Moduli (GPa) = 78.13986 22.66475 44.96125
#
# Poissons Ratio (x) = 0.28786 -0.04760
# Poissons Ratio (y) = 0.99245 0.89146
# Poissons Ratio (z) = -0.08273 0.44938
#
# Static dielectric constant tensor:
#      x y z
#    x 1.696710 0.000000 -0.003760 
#    y 0.000000 1.653840 0.000000 
#    z -0.003760 0.000000 1.656720 
# 
# From -- ./inp_files/50068.got.cif
#   From: 2010.05.17/outbox.cif.g08.bks.cpg/sg10_26_cif.got.tgz:50068.got - 2010.06.03 11:33:40.
