data_PCOD9153429
_publ_section_title
;
Structure prediction by ZEFSAII (Michael W. Deem and Ramdas Pophale) SiO2 
 PCOD9153429
Probable space group: P 2/M
;
_chemical_formula_sum "Si O2"
_cell_formula_units_Z 20
_cell_length_a 15.388690
_cell_length_b 11.395025
_cell_length_c 19.499135
_cell_angle_alpha 90.000000
_cell_angle_beta 160.467018
_cell_angle_gamma 90.000000
_cell_volume 1143.228038
_symmetry_space_group_name_H-M "P 2/M"
_symmetry_group_IT_number 10
_symmetry_cell_setting 'monoclinic'
loop_
_space_group_symop_operation_xyz
x,y,z
-x,y,-z
-x,-y,-z
x,-y,z
loop_
_atom_site_type_symbol
_atom_site_label
_atom_site_fract_x
_atom_site_fract_y
_atom_site_fract_z
Si Si1 0.724322 0.741889 0.972076
Si Si2 0.139496 0.500000 0.710927
Si Si3 0.430528 0.500000 0.779429
Si Si4 0.250298 0.138736 0.362493
Si Si5 0.306457 0.861709 0.564591
Si Si6 0.238686 0.756930 0.842501
O O1 0.610446 0.611291 0.896290
O O2 0.529355 0.803976 0.775249
O O3 0.724018 0.787032 0.050165
O O4 0.017945 0.773804 0.168169
O O5 0.314061 0.500000 0.770840
O O6 0.198810 0.618026 0.797500
O O7 0.835517 0.500000 0.463195
O O8 0.500000 0.150952 0.500000
O O9 0.324563 0.165517 0.496761
O O10 0.166859 0.000000 0.297622
O O11 0.024226 0.817171 0.378472
O O12 0.322534 0.000000 0.584038
O O13 0.500000 0.794923 0.000000
#
# Coordination Sequence:
#
# PCOD9153429 Si02
#       6
#     4   2   2   4   4   4
#     4  11  21  36  58  87 114 150 188 237 283 333
#     4  11  20  37  58  84 111 152 203 242 265 327
#     4  11  21  34  62  83 113 152 198 235 281 324
#     4   9  20  40  65  88 110 143 188 236 289 346
#     4  10  22  38  56  84 117 148 187 234 285 338
#     4  11  21  35  57  81 115 152 194 235 277 325
#
# _framework density 17.494323000000001
#
# number of rings (size 3 to 8) (size 9 to 14) (size 15 to 20)
#    0.000    1.600    4.000    1.500    0.000    2.800 
#    0.000    4.500    0.000    1.200    0.000    0.000 
#    0.000    0.000    0.000    0.000    0.000    0.000 
#
# Total GULP energy -111521.898820 kJ/mol
# GULP energy per Si atom -5576.094941 kJ/mol
# Density = 1.745451 g / cm^3
# Si number density = 17.494323 Si / 1000 Ang^3
#
#
#
# Elastic Constant Matrix: (Units=GPa)
#
#
# Indices 1 2 3 4 5 6 
#
# 1 71.2271 33.2955 54.4229 0.0000 17.6932 0.0000
# 2 33.2955 70.4963 58.9758 0.0000 4.0846 0.0000
# 3 54.4229 58.9758 151.3892 0.0000 3.7670 0.0000
# 4 0.0000 0.0000 0.0000 71.8394 0.0000 -13.7516
# 5 17.6932 4.0846 3.7670 0.0000 29.9729 0.0000
# 6 0.0000 0.0000 0.0000 -13.7516 0.0000 30.6077
#
#
#
# Elastic Compliance Matrix: (Units=1/GPa)
#
#
# Indices 1 2 3 4 5 6 
#
# 1 0.024799 -0.005592 -0.006412 0.000000 -0.013071 0.000000
# 2 -0.005592 0.022406 -0.006746 0.000000 0.001095 0.000000
# 3 -0.006412 -0.006746 0.011457 0.000000 0.003264 0.000000
# 4 0.000000 0.000000 0.000000 0.015230 0.000000 0.006843
# 5 -0.013071 0.001095 0.003264 0.000000 0.040520 0.000000
# 6 0.000000 0.000000 0.000000 0.006843 0.000000 0.035746
#
#
# Mechanical properties :
#
#
# Convention : Reuss Voigt Hill
#
# Bulk Modulus (GPa) = 47.24871 65.16677 56.20774
# Shear Modulus (GPa) = 25.67914 36.24521 30.96218
#
# Velocity S-wave (km/s) = 3.83542 4.55667 4.21151
# Velocity P-wave (km/s) = 6.83232 8.06322 7.47315
#
# Compressibility (1/GPa) = 0.02116460
#
# Stress axis : x y z
#
# Youngs Moduli (GPa) = 40.32363 44.63108 87.28259
#
# Poissons Ratio (x) = 0.24956 0.55962
# Poissons Ratio (y) = 0.22547 0.58878
# Poissons Ratio (z) = 0.25854 0.30107
#
# Static dielectric constant tensor:
#      x y z
#    x 1.590930 0.000000 -0.003420 
#    y 0.000000 1.597800 0.000000 
#    z -0.003420 0.000000 1.602400 
# 
# From -- ./inp_files/69114.got.cif
#   From: 2010.05.17/outbox.cif.g08.bks.cpg/sg10_35_cif.got.tgz:69114.got - 2010.06.03 11:33:40.
