data_PCOD9153064
_publ_section_title
;
Structure prediction by ZEFSAII (Michael W. Deem and Ramdas Pophale) SiO2 
 PCOD9153064
Probable space group: P 2/M
;
_chemical_formula_sum "Si O2"
_cell_formula_units_Z 28
_cell_length_a 18.813576
_cell_length_b 16.777083
_cell_length_c 10.686345
_cell_angle_alpha 90.000000
_cell_angle_beta 155.640426
_cell_angle_gamma 90.000000
_cell_volume 1391.235678
_symmetry_space_group_name_H-M "P 2/M"
_symmetry_group_IT_number 10
_symmetry_cell_setting 'monoclinic'
loop_
_space_group_symop_operation_xyz
x,y,z
-x,y,-z
-x,-y,-z
x,-y,z
loop_
_atom_site_type_symbol
_atom_site_label
_atom_site_fract_x
_atom_site_fract_y
_atom_site_fract_z
Si Si1 0.865072 0.595441 0.175056
Si Si2 0.470710 0.694659 0.308808
Si Si3 0.127629 0.332726 0.088356
Si Si4 0.858265 0.149657 0.859452
Si Si5 0.269992 0.843256 0.875960
Si Si6 0.571947 0.911578 0.248441
Si Si7 0.043143 0.092357 0.735607
O O1 0.867433 0.500000 0.175168
O O2 0.000000 0.622344 0.500000
O O3 0.673654 0.626269 0.903809
O O4 0.909530 0.627351 0.106432
O O5 0.500000 0.726067 0.500000
O O6 0.658974 0.665504 0.559039
O O7 0.372441 0.761568 0.067658
O O8 0.092275 0.238405 0.022131
O O9 0.000000 0.360064 0.000000
O O10 0.696442 0.150885 0.510726
O O11 0.845094 0.098143 0.960787
O O12 0.000000 0.110970 0.000000
O O13 0.158069 0.866448 0.815307
O O14 0.132571 0.855083 0.542419
O O15 0.409615 0.911215 0.078572
O O16 0.647975 0.000000 0.357623
O O17 0.500000 0.885746 0.000000
O O18 0.000297 0.000000 0.641977
#
# Coordination Sequence:
#
# PCOD9153064 Si02
#       7
#     4   4   4   4   4   4   4
#     4  10  23  43  70 103 134 169 209 255 315 390
#     4  10  21  39  65  94 127 168 212 257 315 390
#     4  10  22  42  66  97 131 171 217 263 322 382
#     4  11  23  40  59  84 119 162 212 258 310 382
#     4  11  22  37  58  84 119 156 206 262 315 376
#     4  11  23  39  58  82 118 163 210 263 320 370
#     4  11  23  37  57  84 116 160 210 269 329 376
#
# _framework density 20.125993000000001
#
# number of rings (size 3 to 8) (size 9 to 14) (size 15 to 20)
#    0.000    1.429    1.429    4.714    4.000    5.143 
#    0.000    2.143    0.000    1.714    0.000    0.000 
#    0.000    0.000    0.000    0.000    0.000    0.000 
#
# Total GULP energy -155883.255356 kJ/mol
# GULP energy per Si atom -5567.259120 kJ/mol
# Density = 2.008019 g / cm^3
# Si number density = 20.125993 Si / 1000 Ang^3
#
#
#
# Elastic Constant Matrix: (Units=GPa)
#
#
# Indices 1 2 3 4 5 6 
#
# 1 102.1869 32.3443 58.2314 0.0000 7.9452 0.0000
# 2 32.3443 65.3848 42.1098 0.0000 -17.1731 0.0000
# 3 58.2314 42.1098 102.7474 0.0000 2.2902 0.0000
# 4 0.0000 0.0000 0.0000 38.3160 0.0000 -12.5012
# 5 7.9452 -17.1731 2.2902 0.0000 39.1360 0.0000
# 6 0.0000 0.0000 0.0000 -12.5012 0.0000 17.2737
#
#
#
# Elastic Compliance Matrix: (Units=1/GPa)
#
#
# Indices 1 2 3 4 5 6 
#
# 1 0.015458 -0.004497 -0.006813 0.000000 -0.004713 0.000000
# 2 -0.004497 0.026476 -0.008593 0.000000 0.013034 0.000000
# 3 -0.006813 -0.008593 0.017191 0.000000 -0.003393 0.000000
# 4 0.000000 0.000000 0.000000 0.034166 0.000000 0.024726
# 5 -0.004713 0.013034 -0.003393 0.000000 0.032426 0.000000
# 6 0.000000 0.000000 0.000000 0.024726 0.000000 0.075786
#
#
# Mechanical properties :
#
#
# Convention : Reuss Voigt Hill
#
# Bulk Modulus (GPa) = 51.75959 59.52111 55.64035
# Shear Modulus (GPa) = 20.18178 28.12070 24.15124
#
# Velocity S-wave (km/s) = 3.17009 3.74201 3.46786
# Velocity P-wave (km/s) = 6.25883 6.95044 6.61368
#
# Compressibility (1/GPa) = 0.01932009
#
# Stress axis : x y z
#
# Youngs Moduli (GPa) = 64.69135 37.77038 58.17043
#
# Poissons Ratio (x) = 0.16985 0.39629
# Poissons Ratio (y) = 0.29092 0.49984
# Poissons Ratio (z) = 0.44072 0.32455
#
# Static dielectric constant tensor:
#      x y z
#    x 1.683090 0.000000 -0.182500 
#    y 0.000000 1.681890 0.000000 
#    z -0.182500 0.000000 1.716630 
# 
# From -- ./inp_files/56107.got.cif
#   From: 2010.05.17/outbox.cif.g08.bks.cpg/sg10_29_cif.got.tgz:56107.got - 2010.06.03 11:33:40.
