data_PCOD9153491
_publ_section_title
;
Structure prediction by ZEFSAII (Michael W. Deem and Ramdas Pophale) SiO2 
 PCOD9153491
Probable space group: P 2/M
;
_chemical_formula_sum "Si O2"
_cell_formula_units_Z 24
_cell_length_a 12.973116
_cell_length_b 19.127306
_cell_length_c 5.260205
_cell_angle_alpha 90.000000
_cell_angle_beta 100.159405
_cell_angle_gamma 90.000000
_cell_volume 1284.805692
_symmetry_space_group_name_H-M "P 2/M"
_symmetry_group_IT_number 10
_symmetry_cell_setting 'monoclinic'
loop_
_space_group_symop_operation_xyz
x,y,z
-x,y,-z
-x,-y,-z
x,-y,z
loop_
_atom_site_type_symbol
_atom_site_label
_atom_site_fract_x
_atom_site_fract_y
_atom_site_fract_z
Si Si1 0.068709 0.298826 0.276725
Si Si2 0.206497 0.617058 0.019760
Si Si3 0.270027 0.719001 0.650740
Si Si4 0.930045 0.500000 0.225857
Si Si5 0.427344 0.000000 0.718029
Si Si6 0.375016 0.421060 0.468869
Si Si7 0.572615 0.152942 0.280948
O O1 0.173574 0.260460 0.424638
O O2 0.000000 0.306024 0.500000
O O3 0.122284 0.370747 0.207153
O O4 0.000000 0.274951 0.000000
O O5 0.226205 0.692287 0.901614
O O6 0.146898 0.566330 0.806421
O O7 0.312678 0.584937 0.174935
O O8 0.330018 0.647728 0.589225
O O9 0.348093 0.783132 0.696726
O O10 0.000000 0.500000 0.500000
O O11 0.000000 0.500000 0.000000
O O12 0.500000 0.000000 0.500000
O O13 0.373215 0.924082 0.691803
O O14 0.500000 0.000000 0.000000
O O15 0.500000 0.414267 0.500000
O O16 0.354311 0.500000 0.561550
O O17 0.500000 0.159088 0.500000
O O18 0.500000 0.155800 0.000000
#
# Coordination Sequence:
#
# PCOD9153491 Si02
#       7
#     4   4   4   2   2   4   4
#     4  11  23  41  60  81 115 149 189 252 305 354
#     4  11  25  40  58  87 109 149 207 249 311 363
#     4  11  25  36  61  86 120 151 209 242 305 356
#     4  12  30  40  63  81 107 149 198 266 323 351
#     4   8  16  36  60  92 126 161 190 231 288 352
#     4  10  23  41  56  77 117 162 203 249 296 351
#     4  10  22  38  64  94 130 161 195 237 291 354
#
# _framework density 18.679867000000002
#
# number of rings (size 3 to 8) (size 9 to 14) (size 15 to 20)
#    0.000    1.500    2.500    1.000   15.167    0.000 
#    0.000    1.667    0.000    0.000    0.000    1.167 
#    0.000    0.167    0.000    0.000    0.000    0.000 
#
# Total GULP energy -133771.110149 kJ/mol
# GULP energy per Si atom -5573.796256 kJ/mol
# Density = 1.863735 g / cm^3
# Si number density = 18.679867 Si / 1000 Ang^3
#
#
#
# Elastic Constant Matrix: (Units=GPa)
#
#
# Indices 1 2 3 4 5 6 
#
# 1 111.1989 62.7352 56.8948 0.0000 18.8375 0.0000
# 2 62.7352 149.6556 39.0189 0.0000 4.1776 0.0000
# 3 56.8948 39.0189 128.8569 0.0000 5.9751 0.0000
# 4 0.0000 0.0000 0.0000 19.1148 0.0000 -0.1511
# 5 18.8375 4.1776 5.9751 0.0000 30.9575 0.0000
# 6 0.0000 0.0000 0.0000 -0.1511 0.0000 13.1013
#
#
#
# Elastic Compliance Matrix: (Units=1/GPa)
#
#
# Indices 1 2 3 4 5 6 
#
# 1 0.015799 -0.005079 -0.005069 0.000000 -0.007950 0.000000
# 2 -0.005079 0.008897 -0.000544 0.000000 0.001995 0.000000
# 3 -0.005069 -0.000544 0.010107 0.000000 0.001207 0.000000
# 4 0.000000 0.000000 0.000000 0.052320 0.000000 0.000604
# 5 -0.007950 0.001995 0.001207 0.000000 0.036637 0.000000
# 6 0.000000 0.000000 0.000000 0.000604 0.000000 0.076335
#
#
# Mechanical properties :
#
#
# Convention : Reuss Voigt Hill
#
# Bulk Modulus (GPa) = 74.52156 78.55659 76.53908
# Shear Modulus (GPa) = 22.12842 28.03891 25.08366
#
# Velocity S-wave (km/s) = 3.44556 3.87851 3.66842
# Velocity P-wave (km/s) = 7.47060 7.88686 7.68155
#
# Compressibility (1/GPa) = 0.01341894
#
# Stress axis : x y z
#
# Youngs Moduli (GPa) = 63.29627 112.39279 98.93684
#
# Poissons Ratio (x) = 0.57087 0.50151
# Poissons Ratio (y) = 0.32150 0.05383
# Poissons Ratio (z) = 0.32085 0.06115
#
# Static dielectric constant tensor:
#      x y z
#    x 1.668380 0.000000 -0.028030 
#    y 0.000000 1.651320 0.000000 
#    z -0.028030 0.000000 1.748340 
# 
# From -- ./inp_files/7245.got.cif
#   From: 2010.05.17/outbox.cif.g08.bks.cpg/sg10_4_cif.got.tgz:7245.got - 2010.06.03 11:33:40.
