data_PCOD9153451
_publ_section_title
;
Structure prediction by ZEFSAII (Michael W. Deem and Ramdas Pophale) SiO2 
 PCOD9153451
Probable space group: P 2/M
;
_chemical_formula_sum "Si O2"
_cell_formula_units_Z 26
_cell_length_a 15.820298
_cell_length_b 17.741101
_cell_length_c 6.138229
_cell_angle_alpha 90.000000
_cell_angle_beta 52.258834
_cell_angle_gamma 90.000000
_cell_volume 1362.373430
_symmetry_space_group_name_H-M "P 2/M"
_symmetry_group_IT_number 10
_symmetry_cell_setting 'monoclinic'
loop_
_space_group_symop_operation_xyz
x,y,z
-x,y,-z
-x,-y,-z
x,-y,z
loop_
_atom_site_type_symbol
_atom_site_label
_atom_site_fract_x
_atom_site_fract_y
_atom_site_fract_z
Si Si1 0.294110 0.167824 0.440046
Si Si2 0.766350 0.293119 0.796551
Si Si3 0.614725 0.706929 0.428916
Si Si4 0.173103 0.000000 0.115803
Si Si5 0.718278 0.000000 0.563128
Si Si6 0.373407 0.587507 0.248479
Si Si7 0.000000 0.734110 0.500000
Si Si8 0.081347 0.139529 0.054564
O O1 0.250658 0.214060 0.302180
O O2 0.379959 0.224685 0.408060
O O3 0.335158 0.082779 0.340606
O O4 0.190941 0.159814 0.758626
O O5 0.699317 0.360004 0.789491
O O6 0.891824 0.309908 0.613930
O O7 0.710549 0.280373 0.113239
O O8 0.500000 0.706443 0.500000
O O9 0.636831 0.626353 0.501798
O O10 0.107078 0.923593 0.192203
O O11 0.219845 0.000000 0.292771
O O12 0.234812 0.000000 0.769550
O O13 0.344669 0.500000 0.283248
O O14 0.500000 0.594763 0.000000
O O15 0.030779 0.788092 0.249672
O O16 0.000000 0.109298 0.000000
#
# Coordination Sequence:
#
# PCOD9153451 Si02
#       8
#     4   4   4   2   2   4   2   4
#     4  10  22  38  59  87 125 168 216 274 327 383
#     4  11  22  39  62  92 129 167 212 260 318 394
#     4  11  22  39  65  96 123 161 210 266 327 387
#     4  10  23  35  56  84 124 166 220 292 348 379
#     4  10  22  40  59  87 127 175 225 283 335 390
#     4  10  22  41  67 100 130 156 201 267 330 387
#     4  12  22  35  61  86 128 172 220 250 314 397
#     4  11  21  35  53  87 121 166 216 275 331 390
#
# _framework density 19.084341999999999
#
# number of rings (size 3 to 8) (size 9 to 14) (size 15 to 20)
#    0.000    1.385    4.615    1.154    4.308    1.231 
#    0.000    0.769    0.000    1.846    0.000    0.000 
#    0.000    0.000    0.000    0.000    0.000    0.000 
#
# Total GULP energy -144808.539138 kJ/mol
# GULP energy per Si atom -5569.559198 kJ/mol
# Density = 1.904091 g / cm^3
# Si number density = 19.084342 Si / 1000 Ang^3
#
#
#
# Elastic Constant Matrix: (Units=GPa)
#
#
# Indices 1 2 3 4 5 6 
#
# 1 70.2691 36.4862 -2.6169 0.0000 4.5308 0.0000
# 2 36.4862 127.1562 23.0320 0.0000 -7.2550 0.0000
# 3 -2.6169 23.0320 62.1818 0.0000 7.9930 0.0000
# 4 0.0000 0.0000 0.0000 1.9284 0.0000 9.5852
# 5 4.5308 -7.2550 7.9930 0.0000 18.7964 0.0000
# 6 0.0000 0.0000 0.0000 9.5852 0.0000 11.7644
#
#
#
# Elastic Compliance Matrix: (Units=1/GPa)
#
#
# Indices 1 2 3 4 5 6 
#
# 1 0.018364 -0.006556 0.004332 0.000000 -0.008799 0.000000
# 2 -0.006556 0.011210 -0.005487 0.000000 0.008240 0.000000
# 3 0.004332 -0.005487 0.019785 0.000000 -0.011575 0.000000
# 4 0.000000 0.000000 0.000000 -0.170032 0.000000 0.138536
# 5 -0.008799 0.008240 -0.011575 0.000000 0.063426 0.000000
# 6 0.000000 0.000000 0.000000 0.138536 0.000000 -0.027872
#
#
# Mechanical properties :
#
#
# Convention : Reuss Voigt Hill
#
# Bulk Modulus (GPa) = 29.46710 41.48995 35.47853
# Shear Modulus (GPa) = -85.63700 20.01156 -32.81272
#
# Velocity S-wave (km/s) = -6.70599 3.24170 -4.15101
# Velocity P-wave (km/s) = 6.66982 5.98323 2.08416
#
# Compressibility (1/GPa) = 0.03393615
#
# Stress axis : x y z
#
# Youngs Moduli (GPa) = 54.45470 89.20909 50.54439
#
# Poissons Ratio (x) = 0.58486 -0.21897
# Poissons Ratio (y) = 0.35701 0.27735
# Poissons Ratio (z) = -0.23592 0.48951
#
# Static dielectric constant tensor:
#      x y z
#    x 1.783460 0.000000 0.159730 
#    y 0.000000 1.645350 0.000000 
#    z 0.159730 0.000000 1.901860 
# 
# From -- ./inp_files/9611.got.cif
#   From: 2010.05.17/outbox.cif.g08.bks.cpg/sg10_5_cif.got.tgz:9611.got - 2010.06.03 11:33:40.
