data_PCOD9153496
_publ_section_title
;
Structure prediction by ZEFSAII (Michael W. Deem and Ramdas Pophale) SiO2 
 PCOD9153496
Probable space group: P 2/M
;
_chemical_formula_sum "Si O2"
_cell_formula_units_Z 24
_cell_length_a 10.776234
_cell_length_b 17.004312
_cell_length_c 7.185957
_cell_angle_alpha 90.000000
_cell_angle_beta 137.234624
_cell_angle_gamma 90.000000
_cell_volume 894.085497
_symmetry_space_group_name_H-M "P 2/M"
_symmetry_group_IT_number 10
_symmetry_cell_setting 'monoclinic'
loop_
_space_group_symop_operation_xyz
x,y,z
-x,y,-z
-x,-y,-z
x,-y,z
loop_
_atom_site_type_symbol
_atom_site_label
_atom_site_fract_x
_atom_site_fract_y
_atom_site_fract_z
Si Si1 0.552169 0.754216 0.840057
Si Si2 0.951560 0.416218 0.664680
Si Si3 0.151193 0.248853 0.322302
Si Si4 0.356604 0.414436 0.172761
Si Si5 0.646838 0.915786 0.895458
Si Si6 0.221720 0.082916 0.539742
O O1 0.366137 0.752541 0.518071
O O2 0.625823 0.665984 0.921614
O O3 0.500000 0.774239 0.000000
O O4 0.678458 0.823176 0.891995
O O5 0.855862 0.500000 0.604445
O O6 0.000000 0.420697 0.500000
O O7 0.860689 0.331873 0.585071
O O8 0.142344 0.414394 0.989644
O O9 0.122061 0.164074 0.387729
O O10 0.000000 0.253508 0.000000
O O11 0.500000 0.410881 0.500000
O O12 0.385720 0.500000 0.110641
O O13 0.738079 0.921385 0.197928
O O14 0.692017 0.000000 0.848872
O O15 0.424841 0.915958 0.671276
O O16 0.130712 0.000000 0.384357
#
# Coordination Sequence:
#
# PCOD9153496 Si02
#       6
#     4   4   4   4   4   4
#     4  11  19  32  57  83 100 128 181 225 247 286
#     4  10  22  39  55  72 103 145 176 203 258 323
#     4  11  21  32  52  83 110 130 166 221 266 294
#     4  10  22  39  55  73 104 144 175 204 258 322
#     4   8  13  26  49  76 102 130 168 211 250 297
#     4   8  14  27  47  73 105 135 164 203 255 306
#
# _framework density 26.843067999999999
#
# number of rings (size 3 to 8) (size 9 to 14) (size 15 to 20)
#    0.000    2.333    3.333    3.000    0.000    1.667 
#    0.000    0.000    0.000    2.000    0.000    0.000 
#    0.000    0.000    0.000    0.000    0.000    0.000 
#
# Total GULP energy -133990.594046 kJ/mol
# GULP energy per Si atom -5582.941419 kJ/mol
# Density = 2.678197 g / cm^3
# Si number density = 26.843068 Si / 1000 Ang^3
#
#
#
# Elastic Constant Matrix: (Units=GPa)
#
#
# Indices 1 2 3 4 5 6 
#
# 1 48.2046 47.1039 25.7992 0.0000 1.5701 0.0000
# 2 47.1039 374.1032 38.7667 0.0000 -11.5003 0.0000
# 3 25.7992 38.7667 105.3324 0.0000 4.9538 0.0000
# 4 0.0000 0.0000 0.0000 29.9633 0.0000 -21.4473
# 5 1.5701 -11.5003 4.9538 0.0000 30.0537 0.0000
# 6 0.0000 0.0000 0.0000 -21.4473 0.0000 -11.6593
#
#
#
# Elastic Compliance Matrix: (Units=1/GPa)
#
#
# Indices 1 2 3 4 5 6 
#
# 1 0.026420 -0.002820 -0.005359 0.000000 -0.001576 0.000000
# 2 -0.002820 0.003127 -0.000527 0.000000 0.001431 0.000000
# 3 -0.005359 -0.000527 0.011083 0.000000 -0.001749 0.000000
# 4 0.000000 0.000000 0.000000 0.014406 0.000000 -0.026500
# 5 -0.001576 0.001431 -0.001749 0.000000 0.034192 0.000000
# 6 0.000000 0.000000 0.000000 -0.026500 0.000000 -0.037022
#
#
# Mechanical properties :
#
#
# Convention : Reuss Voigt Hill
#
# Bulk Modulus (GPa) = 43.07239 83.44219 63.25729
# Shear Modulus (GPa) = 64.63612 37.40293 51.01952
#
# Velocity S-wave (km/s) = 4.91239 3.73687 4.36438
# Velocity P-wave (km/s) = 6.94667 7.05490 7.00099
#
# Compressibility (1/GPa) = 0.02321673
#
# Stress axis : x y z
#
# Youngs Moduli (GPa) = 37.85052 319.82379 90.23044
#
# Poissons Ratio (x) = 0.90179 0.48356
# Poissons Ratio (y) = 0.10672 0.04759
# Poissons Ratio (z) = 0.20285 0.16869
#
# Static dielectric constant tensor:
#      x y z
#    x 2.207310 0.000000 -0.014150 
#    y 0.000000 2.162460 0.000000 
#    z -0.014150 0.000000 2.045940 
# 
# From -- ./inp_files/56053.got.cif
#   From: 2010.05.17/outbox.cif.g08.bks.cpg/sg10_29_cif.got.tgz:56053.got - 2010.06.03 11:33:40.
