data_PCOD9153212
_publ_section_title
;
Structure prediction by ZEFSAII (Michael W. Deem and Ramdas Pophale) SiO2 
 PCOD9153212
Probable space group: P 2/M
;
_chemical_formula_sum "Si O2"
_cell_formula_units_Z 30
_cell_length_a 11.675187
_cell_length_b 17.071542
_cell_length_c 14.730282
_cell_angle_alpha 90.000000
_cell_angle_beta 29.964591
_cell_angle_gamma 90.000000
_cell_volume 1466.400010
_symmetry_space_group_name_H-M "P 2/M"
_symmetry_group_IT_number 10
_symmetry_cell_setting 'monoclinic'
loop_
_space_group_symop_operation_xyz
x,y,z
-x,y,-z
-x,-y,-z
x,-y,z
loop_
_atom_site_type_symbol
_atom_site_label
_atom_site_fract_x
_atom_site_fract_y
_atom_site_fract_z
Si Si1 0.147102 0.646143 0.117950
Si Si2 0.890435 0.184350 0.477997
Si Si3 0.569740 0.909167 0.196953
Si Si4 0.736366 0.292423 0.288213
Si Si5 0.403284 0.414438 0.770673
Si Si6 0.000000 0.838670 0.000000
Si Si7 0.701476 0.816820 0.933926
Si Si8 0.081735 0.627176 0.544009
O O1 0.264616 0.731813 0.043668
O O2 0.894968 0.659668 0.248846
O O3 0.106096 0.614422 0.247731
O O4 0.289836 0.597346 0.947301
O O5 0.646607 0.144849 0.629303
O O6 0.875240 0.278702 0.488799
O O7 0.000000 0.160948 0.500000
O O8 0.066593 0.163143 0.277989
O O9 0.509908 0.000000 0.243947
O O10 0.634363 0.882301 0.051419
O O11 0.793338 0.889090 0.102011
O O12 0.500000 0.270776 0.500000
O O13 0.681964 0.346315 0.238130
O O14 0.884054 0.218419 0.153995
O O15 0.339168 0.500000 0.777866
O O16 0.676197 0.409396 0.595361
O O17 0.500000 0.807974 0.000000
O O18 0.000000 0.602927 0.500000
#
# Coordination Sequence:
#
# PCOD9153212 Si02
#       8
#     4   4   4   4   4   2   4   4
#     4  11  23  41  69  98 125 171 222 273 324 385
#     4  10  21  40  68  97 123 166 221 275 316 375
#     4  12  26  42  63  97 140 176 210 262 341 402
#     4  12  23  43  71  98 122 164 228 286 321 380
#     4  12  26  42  64  98 137 172 211 271 343 396
#     4  12  25  46  69  92 132 174 230 272 317 396
#     4  11  22  41  69  98 128 168 222 275 320 381
#     4  10  23  42  68  95 130 172 223 268 316 390
#
# _framework density 20.458265999999998
#
# number of rings (size 3 to 8) (size 9 to 14) (size 15 to 20)
#    0.000    0.800    5.333    1.800    5.600    3.200 
#    0.000    0.667    0.000    2.400    0.000    0.000 
#    0.000    0.000    0.000    0.000    0.000    0.000 
#
# Total GULP energy -167834.637300 kJ/mol
# GULP energy per Si atom -5594.487910 kJ/mol
# Density = 2.041170 g / cm^3
# Si number density = 20.458266 Si / 1000 Ang^3
#
#
#
# Elastic Constant Matrix: (Units=GPa)
#
#
# Indices 1 2 3 4 5 6 
#
# 1 88.4258 10.7653 4.3897 0.0000 -6.7460 0.0000
# 2 10.7653 36.6685 28.3910 0.0000 0.3184 0.0000
# 3 4.3897 28.3910 104.8857 0.0000 3.1082 0.0000
# 4 0.0000 0.0000 0.0000 127.0562 0.0000 6.9560
# 5 -6.7460 0.3184 3.1082 0.0000 35.9476 0.0000
# 6 0.0000 0.0000 0.0000 6.9560 0.0000 -2.8778
#
#
#
# Elastic Compliance Matrix: (Units=1/GPa)
#
#
# Indices 1 2 3 4 5 6 
#
# 1 0.011930 -0.003902 0.000491 0.000000 0.002231 0.000000
# 2 -0.003902 0.035788 -0.009517 0.000000 -0.000226 0.000000
# 3 0.000491 -0.009517 0.012116 0.000000 -0.000871 0.000000
# 4 0.000000 0.000000 0.000000 0.006951 0.000000 0.016801
# 5 0.002231 -0.000226 -0.000871 0.000000 0.028314 0.000000
# 6 0.000000 0.000000 0.000000 0.016801 0.000000 -0.306876
#
#
# Mechanical properties :
#
#
# Convention : Reuss Voigt Hill
#
# Bulk Modulus (GPa) = 29.43198 35.23024 32.33111
# Shear Modulus (GPa) = -28.63745 44.45412 7.90833
#
# Velocity S-wave (km/s) = -3.74545 4.66651 1.96824
# Velocity P-wave (km/s) = 2.07049 6.80390 4.58291
#
# Compressibility (1/GPa) = 0.03397665
#
# Stress axis : x y z
#
# Youngs Moduli (GPa) = 83.82397 27.94266 82.53802
#
# Poissons Ratio (x) = 0.10902 -0.04050
# Poissons Ratio (y) = 0.32706 0.78553
# Poissons Ratio (z) = -0.04114 0.26594
#
# Static dielectric constant tensor:
#      x y z
#    x 1.745650 0.000000 0.018500 
#    y 0.000000 1.712590 0.000000 
#    z 0.018500 0.000000 1.721060 
# 
# From -- ./inp_files/65335.got.cif
#   From: 2010.05.17/outbox.cif.g08.bks.cpg/sg10_33_cif.got.tgz:65335.got - 2010.06.03 11:33:40.
