data_PCOD9153119
_publ_section_title
;
Structure prediction by ZEFSAII (Michael W. Deem and Ramdas Pophale) SiO2 
 PCOD9153119
Probable space group: P 2/M
;
_chemical_formula_sum "Si O2"
_cell_formula_units_Z 28
_cell_length_a 14.093426
_cell_length_b 13.675439
_cell_length_c 7.326737
_cell_angle_alpha 90.000000
_cell_angle_beta 67.546776
_cell_angle_gamma 90.000000
_cell_volume 1305.060054
_symmetry_space_group_name_H-M "P 2/M"
_symmetry_group_IT_number 10
_symmetry_cell_setting 'monoclinic'
loop_
_space_group_symop_operation_xyz
x,y,z
-x,y,-z
-x,-y,-z
x,-y,z
loop_
_atom_site_type_symbol
_atom_site_label
_atom_site_fract_x
_atom_site_fract_y
_atom_site_fract_z
Si Si1 0.527947 0.111327 0.765557
Si Si2 0.747258 0.606773 0.021157
Si Si3 0.170982 0.391672 0.636730
Si Si4 0.038134 0.312294 0.266970
Si Si5 0.742459 0.200203 0.516572
Si Si6 0.859638 0.890674 0.753777
Si Si7 0.309545 0.816153 0.859020
O O1 0.626582 0.177042 0.657229
O O2 0.423545 0.144306 0.745095
O O3 0.554612 0.000000 0.695378
O O4 0.500000 0.113608 0.000000
O O5 0.708876 0.500000 0.985830
O O6 0.763766 0.600214 0.227129
O O7 0.685148 0.708286 0.051598
O O8 0.859966 0.628655 0.857229
O O9 0.157892 0.500000 0.568404
O O10 0.226199 0.312388 0.469314
O O11 0.061007 0.346155 0.771893
O O12 0.066080 0.197281 0.237802
O O13 0.000000 0.332925 0.500000
O O14 0.819317 0.134900 0.580006
O O15 0.747538 0.186403 0.294527
O O16 0.901707 0.000000 0.733255
O O17 0.758340 0.881121 0.954980
#
# Coordination Sequence:
#
# PCOD9153119 Si02
#       7
#     4   4   4   4   4   4   4
#     4  11  22  38  62  88 118 156 195 240 291 344
#     4   9  20  38  62  87 116 154 192 242 297 345
#     4  10  21  40  62  85 116 154 198 242 293 348
#     4  11  21  36  55  87 116 151 195 244 285 349
#     4  11  22  40  61  88 119 153 198 244 290 345
#     4  11  23  40  58  84 121 158 196 245 294 343
#     4  10  22  39  63  88 120 152 197 242 289 352
#
# _framework density 21.454951999999999
#
# number of rings (size 3 to 8) (size 9 to 14) (size 15 to 20)
#    0.000    1.571    2.857    2.143    0.000    5.429 
#    0.000    0.714    0.000    7.714    0.000    0.000 
#    0.000    0.000    0.000    0.000    0.000    0.000 
#
# Total GULP energy -156412.087046 kJ/mol
# GULP energy per Si atom -5586.145966 kJ/mol
# Density = 2.140612 g / cm^3
# Si number density = 21.454952 Si / 1000 Ang^3
#
#
#
# Elastic Constant Matrix: (Units=GPa)
#
#
# Indices 1 2 3 4 5 6 
#
# 1 51.1107 25.6150 -1.7986 0.0000 -5.9801 0.0000
# 2 25.6150 152.2996 30.5386 0.0000 -6.5946 0.0000
# 3 -1.7986 30.5386 61.8941 0.0000 -12.1220 0.0000
# 4 0.0000 0.0000 0.0000 19.8162 0.0000 6.8534
# 5 -5.9801 -6.5946 -12.1220 0.0000 30.8645 0.0000
# 6 0.0000 0.0000 0.0000 6.8534 0.0000 15.9621
#
#
#
# Elastic Compliance Matrix: (Units=1/GPa)
#
#
# Indices 1 2 3 4 5 6 
#
# 1 0.022429 -0.004310 0.003736 0.000000 0.004892 0.000000
# 2 -0.004310 0.008116 -0.004283 0.000000 -0.000783 0.000000
# 3 0.003736 -0.004283 0.019869 0.000000 0.007613 0.000000
# 4 0.000000 0.000000 0.000000 0.059264 0.000000 -0.025445
# 5 0.004892 -0.000783 0.007613 0.000000 0.036170 0.000000
# 6 0.000000 0.000000 0.000000 -0.025445 0.000000 0.073573
#
#
# Mechanical properties :
#
#
# Convention : Reuss Voigt Hill
#
# Bulk Modulus (GPa) = 24.56903 41.55718 33.06310
# Shear Modulus (GPa) = 20.60149 27.39186 23.99667
#
# Velocity S-wave (km/s) = 3.10210 3.57699 3.34798
# Velocity P-wave (km/s) = 4.93022 6.03915 5.51264
#
# Compressibility (1/GPa) = 0.04070165
#
# Stress axis : x y z
#
# Youngs Moduli (GPa) = 44.58489 123.21755 50.32888
#
# Poissons Ratio (x) = 0.53103 -0.18805
# Poissons Ratio (y) = 0.19215 0.21555
# Poissons Ratio (z) = -0.16658 0.52773
#
# Static dielectric constant tensor:
#      x y z
#    x 1.818100 0.000000 0.064550 
#    y 0.000000 1.827560 0.000000 
#    z 0.064550 0.000000 1.800590 
# 
# From -- ./inp_files/28464.got.cif
#   From: 2010.05.17/outbox.cif.g08.bks.cpg/sg10_15_cif.got.tgz:28464.got - 2010.06.03 11:33:40.
