data_PCOD9153162
_publ_section_title
;
Structure prediction by ZEFSAII (Michael W. Deem and Ramdas Pophale) SiO2 
 PCOD9153162
Probable space group: P 2/M
;
_chemical_formula_sum "Si O2"
_cell_formula_units_Z 19
_cell_length_a 5.289551
_cell_length_b 26.255410
_cell_length_c 5.347999
_cell_angle_alpha 90.000000
_cell_angle_beta 95.455894
_cell_angle_gamma 90.000000
_cell_volume 739.361734
_symmetry_space_group_name_H-M "P 2/M"
_symmetry_group_IT_number 10
_symmetry_cell_setting 'monoclinic'
loop_
_space_group_symop_operation_xyz
x,y,z
-x,y,-z
-x,-y,-z
x,-y,z
loop_
_atom_site_type_symbol
_atom_site_label
_atom_site_fract_x
_atom_site_fract_y
_atom_site_fract_z
Si Si1 0.771694 0.889926 0.665141
Si Si2 0.261968 0.569404 0.151645
Si Si3 0.668449 0.000000 0.768765
Si Si4 0.000000 0.500000 0.500000
Si Si5 0.340569 0.217414 0.225917
Si Si6 0.226005 0.677011 0.342086
O O1 0.500000 0.893311 0.500000
O O2 0.813832 0.946293 0.778014
O O3 0.756646 0.839792 0.833946
O O4 0.000000 0.879353 0.500000
O O5 0.260475 0.630645 0.156809
O O6 0.207963 0.544456 0.418373
O O7 0.500000 0.554139 0.000000
O O8 0.000000 0.552233 0.000000
O O9 0.500000 0.000000 0.500000
O O10 0.500000 0.000000 0.000000
O O11 0.500000 0.212675 0.500000
O O12 0.159335 0.265619 0.250063
O O13 0.500000 0.232550 0.000000
O O14 0.500000 0.680860 0.500000
O O15 0.000000 0.660817 0.500000
#
# Coordination Sequence:
#
# PCOD9153162 Si02
#       6
#     4   4   2   1   4   4
#     4  10  21  41  64  96 133 178 228 284 345 412
#     4  12  27  47  74 105 137 184 233 282 346 419
#     4  10  21  40  64  94 132 178 226 284 342 412
#     4  12  28  50  72 104 146 180 226 292 346 410
#     4  10  22  42  67 100 136 181 230 288 348 417
#     4  11  23  45  71 101 136 178 224 285 347 410
#
# _framework density 25.697842000000001
#
# number of rings (size 3 to 8) (size 9 to 14) (size 15 to 20)
#    0.000    1.263    1.053    4.105    0.000    2.526 
#    0.000   29.474    0.000    0.000    0.000    0.000 
#    0.000    0.000    0.000    0.000    0.000    0.000 
#
# Total GULP energy -105932.980310 kJ/mol
# GULP energy per Si atom -5575.420016 kJ/mol
# Density = 2.563935 g / cm^3
# Si number density = 25.697842 Si / 1000 Ang^3
#
#
#
# Elastic Constant Matrix: (Units=GPa)
#
#
# Indices 1 2 3 4 5 6 
#
# 1 156.4021 -4.3843 45.6549 0.0000 -22.3984 0.0000
# 2 -4.3843 238.2512 -7.1770 0.0000 -8.0645 0.0000
# 3 45.6549 -7.1770 102.1217 0.0000 -23.0658 0.0000
# 4 0.0000 0.0000 0.0000 38.4835 0.0000 -45.2941
# 5 -22.3984 -8.0645 -23.0658 0.0000 76.2802 0.0000
# 6 0.0000 0.0000 0.0000 -45.2941 0.0000 17.9882
#
#
#
# Elastic Compliance Matrix: (Units=1/GPa)
#
#
# Indices 1 2 3 4 5 6 
#
# 1 0.007468 0.000089 -0.003043 0.000000 0.001282 0.000000
# 2 0.000089 0.004231 0.000391 0.000000 0.000592 0.000000
# 3 -0.003043 0.000391 0.011793 0.000000 0.002714 0.000000
# 4 0.000000 0.000000 0.000000 -0.013233 0.000000 -0.033321
# 5 0.001282 0.000592 0.002714 0.000000 0.014369 0.000000
# 6 0.000000 0.000000 0.000000 -0.033321 0.000000 -0.028311
#
#
# Mechanical properties :
#
#
# Convention : Reuss Voigt Hill
#
# Bulk Modulus (GPa) = 54.44625 62.77357 58.60991
# Shear Modulus (GPa) = 661.01454 57.39581 359.20518
#
# Velocity S-wave (km/s) = 16.05566 4.73111 11.83570
# Velocity P-wave (km/s) = 19.10354 7.37055 14.47878
#
# Compressibility (1/GPa) = 0.01836674
#
# Stress axis : x y z
#
# Youngs Moduli (GPa) = 133.90225 236.36740 84.79575
#
# Poissons Ratio (x) = -0.02108 0.25802
# Poissons Ratio (y) = -0.01194 -0.03316
# Poissons Ratio (z) = 0.40745 -0.09245
#
# Static dielectric constant tensor:
#      x y z
#    x 1.966650 0.000000 0.101690 
#    y 0.000000 0.761690 0.000000 
#    z 0.101690 0.000000 2.170950 
# 
# From -- ./inp_files/2077.got.cif
#   From: 2010.05.17/outbox.cif.g08.bks.cpg/sg10_2_cif.got.tgz:2077.got - 2010.06.03 11:33:40.
