data_PCOD9153388
_publ_section_title
;
Structure prediction by ZEFSAII (Michael W. Deem and Ramdas Pophale) SiO2 
 PCOD9153388
Probable space group: P 2/M
;
_chemical_formula_sum "Si O2"
_cell_formula_units_Z 24
_cell_length_a 12.237163
_cell_length_b 12.088604
_cell_length_c 10.612565
_cell_angle_alpha 90.000000
_cell_angle_beta 50.404488
_cell_angle_gamma 90.000000
_cell_volume 1209.721800
_symmetry_space_group_name_H-M "P 2/M"
_symmetry_group_IT_number 10
_symmetry_cell_setting 'monoclinic'
loop_
_space_group_symop_operation_xyz
x,y,z
-x,y,-z
-x,-y,-z
x,-y,z
loop_
_atom_site_type_symbol
_atom_site_label
_atom_site_fract_x
_atom_site_fract_y
_atom_site_fract_z
Si Si1 0.532734 0.722636 0.272245
Si Si2 0.983592 0.630692 0.163312
Si Si3 0.905040 0.000000 0.858635
Si Si4 0.365479 0.382843 0.191855
Si Si5 0.767961 0.771305 0.896594
Si Si6 0.703971 0.234557 0.374235
Si Si7 0.191625 0.000000 0.779195
O O1 0.438999 0.630336 0.272411
O O2 0.408130 0.789539 0.433190
O O3 0.633951 0.691277 0.314244
O O4 0.631240 0.775270 0.090998
O O5 0.968506 0.500000 0.200990
O O6 0.847884 0.703110 0.305844
O O7 0.123056 0.683160 0.123282
O O8 0.000000 0.644943 0.000000
O O9 0.843162 0.889888 0.841017
O O10 0.073812 0.000000 0.754261
O O11 0.861330 0.000000 0.038183
O O12 0.286680 0.500000 0.240594
O O13 0.277900 0.278728 0.204477
O O14 0.500000 0.387643 0.000000
O O15 0.731250 0.116155 0.292039
#
# Coordination Sequence:
#
# PCOD9153388 Si02
#       7
#     4   4   2   4   4   4   2
#     4  10  22  37  59  88 125 156 192 245 297 360
#     4  11  21  35  57  85 116 150 200 255 295 345
#     4  11  20  33  65  91 117 152 200 252 290 359
#     4   9  20  39  62  84 118 163 202 242 295 354
#     4  11  20  39  61  91 115 155 205 247 291 350
#     4  11  22  38  58  92 124 155 195 245 305 359
#     4  11  20  36  61  87 126 159 187 242 310 357
#
# _framework density 19.839271
#
# number of rings (size 3 to 8) (size 9 to 14) (size 15 to 20)
#    0.000    1.500    5.000    0.500    0.000    4.000 
#    0.000    7.917    0.000    3.000    0.000    0.000 
#    0.000    0.000    0.000    0.000    0.000    0.000 
#
# Total GULP energy -133666.673811 kJ/mol
# GULP energy per Si atom -5569.444742 kJ/mol
# Density = 1.979412 g / cm^3
# Si number density = 19.839271 Si / 1000 Ang^3
#
#
#
# Elastic Constant Matrix: (Units=GPa)
#
#
# Indices 1 2 3 4 5 6 
#
# 1 93.0011 50.1229 16.8829 0.0000 1.4785 0.0000
# 2 50.1229 103.5917 5.2040 0.0000 6.1511 0.0000
# 3 16.8829 5.2040 35.0414 0.0000 -12.6636 0.0000
# 4 0.0000 0.0000 0.0000 -19.6120 0.0000 2.4221
# 5 1.4785 6.1511 -12.6636 0.0000 21.9722 0.0000
# 6 0.0000 0.0000 0.0000 2.4221 0.0000 20.1399
#
#
#
# Elastic Compliance Matrix: (Units=1/GPa)
#
#
# Indices 1 2 3 4 5 6 
#
# 1 0.016148 -0.007188 -0.008056 0.000000 -0.003717 0.000000
# 2 -0.007188 0.013289 0.000404 0.000000 -0.003004 0.000000
# 3 -0.008056 0.000404 0.041068 0.000000 0.024098 0.000000
# 4 0.000000 0.000000 0.000000 -0.050243 0.000000 0.006042
# 5 -0.003717 -0.003004 0.024098 0.000000 0.060492 0.000000
# 6 0.000000 0.000000 0.000000 0.006042 0.000000 0.048926
#
#
# Mechanical properties :
#
#
# Convention : Reuss Voigt Hill
#
# Bulk Modulus (GPa) = 24.49462 41.78376 33.13919
# Shear Modulus (GPa) = 28.90704 15.12832 22.01768
#
# Velocity S-wave (km/s) = 3.82129 2.76442 3.33498
# Velocity P-wave (km/s) = 5.64296 5.59430 5.61868
#
# Compressibility (1/GPa) = 0.04082528
#
# Stress axis : x y z
#
# Youngs Moduli (GPa) = 61.92737 75.24932 24.34990
#
# Poissons Ratio (x) = 0.54087 0.19616
# Poissons Ratio (y) = 0.44512 -0.00984
# Poissons Ratio (z) = 0.49889 -0.03040
#
# Static dielectric constant tensor:
#      x y z
#    x 1.734510 0.000000 0.001950 
#    y 0.000000 1.677780 0.000000 
#    z 0.001950 0.000000 1.733010 
# 
# From -- ./inp_files/45917.got.cif
#   From: 2010.05.17/outbox.cif.g08.bks.cpg/sg10_23_cif.got.tgz:45917.got - 2010.06.03 11:33:40.
