data_PCOD9153765
_publ_section_title
;
Structure prediction by ZEFSAII (Michael W. Deem and Ramdas Pophale) SiO2 
 PCOD9153765
Probable space group: P 2/M
;
_chemical_formula_sum "Si O2"
_cell_formula_units_Z 20
_cell_length_a 19.511666
_cell_length_b 8.804305
_cell_length_c 12.770263
_cell_angle_alpha 90.000000
_cell_angle_beta 150.791472
_cell_angle_gamma 90.000000
_cell_volume 1070.532418
_symmetry_space_group_name_H-M "P 2/M"
_symmetry_group_IT_number 10
_symmetry_cell_setting 'monoclinic'
loop_
_space_group_symop_operation_xyz
x,y,z
-x,y,-z
-x,-y,-z
x,-y,z
loop_
_atom_site_type_symbol
_atom_site_label
_atom_site_fract_x
_atom_site_fract_y
_atom_site_fract_z
Si Si1 0.675261 0.319027 0.025735
Si Si2 0.635453 0.182089 0.396914
Si Si3 0.125984 0.817911 0.887468
Si Si4 0.848194 0.681916 0.848180
Si Si5 0.801400 0.181703 0.404226
O O1 0.670940 0.500000 0.012728
O O2 0.771119 0.251551 0.061392
O O3 0.741494 0.268002 0.224463
O O4 0.519187 0.251589 0.809449
O O5 0.728871 0.249080 0.614915
O O6 0.713032 0.217656 0.390620
O O7 0.627984 0.000000 0.396313
O O8 0.964526 0.782344 0.642150
O O9 0.140312 0.000000 0.908690
O O10 0.157190 0.750882 0.043253
O O11 0.834631 0.500000 0.834598
O O12 0.000000 0.718786 0.000000
O O13 0.790104 0.000000 0.370331
#
# Coordination Sequence:
#
# PCOD9153765 Si02
#       5
#     4   4   4   4   4
#     4  12  26  41  60  93 132 166 205 258 319 370
#     4  11  23  42  67  93 124 166 213 256 304 368
#     4  11  23  42  67  93 124 166 213 256 304 368
#     4  11  23  40  65  96 129 160 200 256 315 372
#     4  10  22  41  66  93 123 164 213 258 302 368
#
# _framework density 18.682293999999999
#
# number of rings (size 3 to 8) (size 9 to 14) (size 15 to 20)
#    0.000    1.000    2.000    4.800    0.000    9.600 
#    0.000    4.000    0.000    0.000    0.000    0.000 
#    0.000    0.000    0.000    0.000    0.000    0.000 
#
# Total GULP energy -111928.768840 kJ/mol
# GULP energy per Si atom -5596.438442 kJ/mol
# Density = 1.863977 g / cm^3
# Si number density = 18.682294 Si / 1000 Ang^3
#
#
#
# Elastic Constant Matrix: (Units=GPa)
#
#
# Indices 1 2 3 4 5 6 
#
# 1 143.2436 102.5525 188.2284 0.0000 16.1902 0.0000
# 2 102.5525 101.6650 102.7958 0.0000 -2.0202 0.0000
# 3 188.2284 102.7958 143.1251 0.0000 -20.1714 0.0000
# 4 0.0000 0.0000 0.0000 51.5081 0.0000 -18.5552
# 5 16.1902 -2.0202 -20.1714 0.0000 37.7278 0.0000
# 6 0.0000 0.0000 0.0000 -18.5552 0.0000 41.1627
#
#
#
# Elastic Compliance Matrix: (Units=1/GPa)
#
#
# Indices 1 2 3 4 5 6 
#
# 1 -0.003925 -0.008043 0.012021 0.000000 0.007681 0.000000
# 2 -0.008043 0.026294 -0.008244 0.000000 0.000452 0.000000
# 3 0.012021 -0.008244 -0.003991 0.000000 -0.007734 0.000000
# 4 0.000000 0.000000 0.000000 0.023178 0.000000 0.010448
# 5 0.007681 0.000452 -0.007734 0.000000 0.019099 0.000000
# 6 0.000000 0.000000 0.000000 0.010448 0.000000 0.029004
#
#
# Mechanical properties :
#
#
# Convention : Reuss Voigt Hill
#
# Bulk Modulus (GPa) = 101.56340 130.57635 116.06987
# Shear Modulus (GPa) = 49.27504 25.71018 37.49261
#
# Velocity S-wave (km/s) = 5.14126 3.71371 4.48465
# Velocity P-wave (km/s) = 9.47232 9.40392 9.43818
#
# Compressibility (1/GPa) = 0.00984607
#
# Stress axis : x y z
#
# Youngs Moduli (GPa) = -254.77135 38.03190 -250.54232
#
# Poissons Ratio (x) = 0.30588 3.01177
# Poissons Ratio (y) = -2.04905 -2.06544
# Poissons Ratio (z) = 3.06260 0.31353
#
# Static dielectric constant tensor:
#      x y z
#    x 1.610690 0.000000 0.007640 
#    y 0.000000 1.621680 0.000000 
#    z 0.007640 0.000000 1.606440 
# 
# From -- ./inp_files/22135.got.cif
#   From: 2010.05.17/outbox.cif.g08.bks.cpg/sg10_12_cif.got.tgz:22135.got - 2010.06.03 11:33:40.
