data_PCOD9153484
_publ_section_title
;
Structure prediction by ZEFSAII (Michael W. Deem and Ramdas Pophale) SiO2 
 PCOD9153484
Probable space group: P 2/M
;
_chemical_formula_sum "Si O2"
_cell_formula_units_Z 19
_cell_length_a 19.324049
_cell_length_b 8.462175
_cell_length_c 5.092658
_cell_angle_alpha 90.000000
_cell_angle_beta 83.708732
_cell_angle_gamma 90.000000
_cell_volume 827.753968
_symmetry_space_group_name_H-M "P 2/M"
_symmetry_group_IT_number 10
_symmetry_cell_setting 'monoclinic'
loop_
_space_group_symop_operation_xyz
x,y,z
-x,y,-z
-x,-y,-z
x,-y,z
loop_
_atom_site_type_symbol
_atom_site_label
_atom_site_fract_x
_atom_site_fract_y
_atom_site_fract_z
Si Si1 0.581558 0.674321 0.395610
Si Si2 0.928963 0.678533 0.943375
Si Si3 0.290752 0.680147 0.304351
Si Si4 0.000000 0.500000 0.500000
Si Si5 0.218529 0.182893 0.843238
Si Si6 0.449769 0.000000 0.774622
O O1 0.500000 0.667552 0.500000
O O2 0.599697 0.500000 0.272137
O O3 0.629497 0.692940 0.632499
O O4 0.591209 0.834706 0.226814
O O5 0.068424 0.500000 0.918661
O O6 0.944791 0.635272 0.636669
O O7 0.858037 0.760015 0.040842
O O8 0.000000 0.762123 0.000000
O O9 0.276283 0.500000 0.231082
O O10 0.247401 0.720386 0.584440
O O11 0.266573 0.787895 0.076858
O O12 0.218150 0.000000 0.770675
O O13 0.500000 0.000000 0.500000
O O14 0.500000 0.000000 0.000000
#
# Coordination Sequence:
#
# PCOD9153484 Si02
#       6
#     4   4   4   1   4   2
#     4   9  21  43  70  99 133 177 234 290 343 414
#     4   9  20  37  64  93 126 173 225 266 329 402
#     4  11  25  46  70  97 133 188 233 280 344 416
#     4   8  18  36  66  98 116 176 222 282 310 408
#     4  12  27  43  67 102 144 178 221 290 345 408
#     4  10  22  38  62  96 126 170 207 273 344 394
#
# _framework density 22.953681
#
# number of rings (size 3 to 8) (size 9 to 14) (size 15 to 20)
#    0.632    1.263    0.000    2.526    5.895    4.211 
#    0.000    6.842    0.000    0.000    0.000    0.000 
#    0.000    0.000    0.000    0.000    0.000    0.000 
#
# Total GULP energy -105878.298527 kJ/mol
# GULP energy per Si atom -5572.542028 kJ/mol
# Density = 2.290144 g / cm^3
# Si number density = 22.953681 Si / 1000 Ang^3
#
#
#
# Elastic Constant Matrix: (Units=GPa)
#
#
# Indices 1 2 3 4 5 6 
#
# 1 145.8296 20.3531 27.2330 0.0000 -12.8645 0.0000
# 2 20.3531 127.7945 0.7506 0.0000 10.9978 0.0000
# 3 27.2330 0.7506 84.5020 0.0000 -15.4795 0.0000
# 4 0.0000 0.0000 0.0000 18.1429 0.0000 8.1718
# 5 -12.8645 10.9978 -15.4795 0.0000 32.9197 0.0000
# 6 0.0000 0.0000 0.0000 8.1718 0.0000 33.7811
#
#
#
# Elastic Compliance Matrix: (Units=1/GPa)
#
#
# Indices 1 2 3 4 5 6 
#
# 1 0.007651 -0.001425 -0.001990 0.000000 0.002530 0.000000
# 2 -0.001425 0.008352 -0.000250 0.000000 -0.003464 0.000000
# 3 -0.001990 -0.000250 0.013514 0.000000 0.005661 0.000000
# 4 0.000000 0.000000 0.000000 0.061858 0.000000 -0.014964
# 5 0.002530 -0.003464 0.005661 0.000000 0.035185 0.000000
# 6 0.000000 0.000000 0.000000 -0.014964 0.000000 0.033222
#
#
# Mechanical properties :
#
#
# Convention : Reuss Voigt Hill
#
# Bulk Modulus (GPa) = 45.06688 50.53329 47.80008
# Shear Modulus (GPa) = 28.65238 37.62138 33.13688
#
# Velocity S-wave (km/s) = 3.53692 4.05286 3.80365
# Velocity P-wave (km/s) = 6.02961 6.63054 6.33720
#
# Compressibility (1/GPa) = 0.02218924
#
# Stress axis : x y z
#
# Youngs Moduli (GPa) = 130.70373 119.73850 73.99516
#
# Poissons Ratio (x) = 0.17058 0.14722
# Poissons Ratio (y) = 0.18620 0.01847
# Poissons Ratio (z) = 0.26004 0.02989
#
# Static dielectric constant tensor:
#      x y z
#    x 1.843770 0.000000 -0.000900 
#    y 0.000000 1.890480 0.000000 
#    z -0.000900 0.000000 1.762380 
# 
# From -- ./inp_files/10607.got.cif
#   From: 2010.05.17/outbox.cif.g08.bks.cpg/sg10_6_cif.got.tgz:10607.got - 2010.06.03 11:33:40.
