data_PCOD9153253
_publ_section_title
;
Structure prediction by ZEFSAII (Michael W. Deem and Ramdas Pophale) SiO2 
 PCOD9153253
Probable space group: P 2/M
;
_chemical_formula_sum "Si O2"
_cell_formula_units_Z 24
_cell_length_a 5.188596
_cell_length_b 14.019484
_cell_length_c 15.550152
_cell_angle_alpha 90.000000
_cell_angle_beta 106.920843
_cell_angle_gamma 90.000000
_cell_volume 1082.170835
_symmetry_space_group_name_H-M "P 2/M"
_symmetry_group_IT_number 10
_symmetry_cell_setting 'monoclinic'
loop_
_space_group_symop_operation_xyz
x,y,z
-x,y,-z
-x,-y,-z
x,-y,z
loop_
_atom_site_type_symbol
_atom_site_label
_atom_site_fract_x
_atom_site_fract_y
_atom_site_fract_z
Si Si1 0.814429 0.172685 0.303830
Si Si2 0.927923 0.708026 0.150246
Si Si3 0.509942 0.500000 0.683863
Si Si4 0.886651 0.500000 0.196360
Si Si5 0.293417 0.137660 0.152538
Si Si6 0.956996 0.000000 0.743317
Si Si7 0.698797 0.683813 0.439799
Si Si8 0.500000 0.828684 0.000000
O O1 0.894715 0.257616 0.245964
O O2 0.559335 0.119282 0.234567
O O3 0.028280 0.087468 0.325915
O O4 0.728081 0.223380 0.382390
O O5 0.714185 0.763175 0.070626
O O6 0.891596 0.596285 0.142056
O O7 0.215910 0.750672 0.149561
O O8 0.831719 0.500000 0.724159
O O9 0.417729 0.594808 0.625040
O O10 0.362879 0.500000 0.762098
O O11 0.065461 0.081323 0.180942
O O12 0.350052 0.113410 0.060047
O O13 0.500000 0.701279 0.500000
O O14 0.000000 0.659321 0.500000
#
# Coordination Sequence:
#
# PCOD9153253 Si02
#       8
#     4   4   2   2   4   2   4   2
#     4  10  22  42  65  94 131 174 224 271 343 403
#     4  10  22  40  65  92 134 178 222 273 333 397
#     4  12  24  45  68 106 137 176 233 274 330 401
#     4  12  24  40  73 101 134 188 227 271 326 406
#     4  10  21  41  66  93 128 174 219 281 337 398
#     4  10  22  39  71  94 126 173 224 279 333 413
#     4  12  26  43  70 104 141 178 222 281 338 395
#     4  10  22  40  62  96 132 172 222 284 330 398
#
# _framework density 22.177641999999999
#
# number of rings (size 3 to 8) (size 9 to 14) (size 15 to 20)
#    0.000    1.333    1.667    3.500    7.000    0.667 
#    0.000   13.333    0.000    0.000    0.000    0.000 
#    0.000    0.000    0.000    0.000    0.000    0.000 
#
# Total GULP energy -133650.562056 kJ/mol
# GULP energy per Si atom -5568.773419 kJ/mol
# Density = 2.212716 g / cm^3
# Si number density = 22.177642 Si / 1000 Ang^3
#
#
#
# Elastic Constant Matrix: (Units=GPa)
#
#
# Indices 1 2 3 4 5 6 
#
# 1 54.5367 -6.8867 9.7723 0.0000 -14.1207 0.0000
# 2 -6.8867 134.5944 13.1535 0.0000 -23.4286 0.0000
# 3 9.7723 13.1535 51.1176 0.0000 -21.9910 0.0000
# 4 0.0000 0.0000 0.0000 -25.0985 0.0000 -0.2687
# 5 -14.1207 -23.4286 -21.9910 0.0000 44.8599 0.0000
# 6 0.0000 0.0000 0.0000 -0.2687 0.0000 49.2871
#
#
#
# Elastic Compliance Matrix: (Units=1/GPa)
#
#
# Indices 1 2 3 4 5 6 
#
# 1 0.020747 0.002440 -0.001567 0.000000 0.007037 0.000000
# 2 0.002440 0.008464 -0.000522 0.000000 0.004932 0.000000
# 3 -0.001567 -0.000522 0.024923 0.000000 0.011452 0.000000
# 4 0.000000 0.000000 0.000000 -0.039841 0.000000 -0.000217
# 5 0.007037 0.004932 0.011452 0.000000 0.032696 0.000000
# 6 0.000000 0.000000 0.000000 -0.000217 0.000000 0.020288
#
#
# Mechanical properties :
#
#
# Convention : Reuss Voigt Hill
#
# Bulk Modulus (GPa) = 18.23658 30.25855 24.24756
# Shear Modulus (GPa) = 58.92340 28.75701 43.84020
#
# Velocity S-wave (km/s) = 5.16009 3.60483 4.45092
# Velocity P-wave (km/s) = 6.61384 5.56774 6.11321
#
# Compressibility (1/GPa) = 0.05483486
#
# Stress axis : x y z
#
# Youngs Moduli (GPa) = 48.19973 118.14518 40.12316
#
# Poissons Ratio (x) = -0.28822 0.06287
# Poissons Ratio (y) = -0.11758 0.02096
# Poissons Ratio (z) = 0.07552 0.06173
#
# Static dielectric constant tensor:
#      x y z
#    x 1.954660 0.000000 0.003610 
#    y 0.000000 1.919430 0.000000 
#    z 0.003610 0.000000 1.800440 
# 
# From -- ./inp_files/59107.got.cif
#   From: 2010.05.17/outbox.cif.g08.bks.cpg/sg10_30_cif.got.tgz:59107.got - 2010.06.03 11:33:40.
