data_PCOD9153828
_publ_section_title
;
Structure prediction by ZEFSAII (Michael W. Deem and Ramdas Pophale) SiO2 
 PCOD9153828
Probable space group: P 2/M
;
_chemical_formula_sum "Si O2"
_cell_formula_units_Z 26
_cell_length_a 22.945168
_cell_length_b 8.413295
_cell_length_c 10.420208
_cell_angle_alpha 90.000000
_cell_angle_beta 40.598767
_cell_angle_gamma 90.000000
_cell_volume 1309.040795
_symmetry_space_group_name_H-M "P 2/M"
_symmetry_group_IT_number 10
_symmetry_cell_setting 'monoclinic'
loop_
_space_group_symop_operation_xyz
x,y,z
-x,y,-z
-x,-y,-z
x,-y,z
loop_
_atom_site_type_symbol
_atom_site_label
_atom_site_fract_x
_atom_site_fract_y
_atom_site_fract_z
Si Si1 0.177149 0.000000 0.675745
Si Si2 0.422671 0.308152 0.736013
Si Si3 0.236719 0.733407 0.935637
Si Si4 0.897552 0.330626 0.619858
Si Si5 0.900286 0.000000 0.477259
Si Si6 0.718423 0.325455 0.428487
Si Si7 0.896591 0.000000 0.938309
Si Si8 0.473732 0.189247 0.192884
O O1 0.140835 0.000000 0.594385
O O2 0.231253 0.165278 0.607961
O O3 0.100676 0.000000 0.912687
O O4 0.500000 0.277799 0.500000
O O5 0.407366 0.500000 0.764305
O O6 0.330498 0.224879 0.846748
O O7 0.454551 0.247020 0.821474
O O8 0.268311 0.662631 0.747063
O O9 0.164611 0.858063 0.006012
O O10 0.175476 0.654528 0.146033
O O11 0.894454 0.500000 0.550275
O O12 0.875510 0.165141 0.587126
O O13 0.000000 0.317697 0.500000
O O14 0.007507 0.000000 0.285205
O O15 0.745285 0.500000 0.437331
O O16 0.615135 0.289864 0.630314
O O17 0.457128 0.000000 0.240035
O O18 0.500000 0.211251 0.000000
#
# Coordination Sequence:
#
# PCOD9153828 Si02
#       8
#     2   4   4   4   2   4   2   4
#     4  10  25  41  66  98 130 168 226 281 324 399
#     4  11  23  39  65 101 132 167 222 280 328 392
#     4  11  22  40  68  99 134 169 221 276 333 398
#     4  11  23  40  66  98 132 171 216 273 337 399
#     4  12  23  46  65  93 136 174 224 277 335 408
#     4  11  22  43  70  94 129 176 220 271 336 398
#     4  10  22  42  68  95 128 182 220 270 350 389
#     4  11  25  44  64  92 137 178 221 275 333 398
#
# _framework density 19.861872000000002
#
# number of rings (size 3 to 8) (size 9 to 14) (size 15 to 20)
#    0.000    1.077    3.846    2.769    1.077    3.385 
#    0.000    0.000    0.000    2.769    0.000    0.000 
#    0.000    0.000    0.000    0.000    0.000    0.000 
#
# Total GULP energy -144858.167269 kJ/mol
# GULP energy per Si atom -5571.467972 kJ/mol
# Density = 1.981667 g / cm^3
# Si number density = 19.861872 Si / 1000 Ang^3
#
#
#
# Elastic Constant Matrix: (Units=GPa)
#
#
# Indices 1 2 3 4 5 6 
#
# 1 89.5575 47.1504 54.7770 0.0000 13.1447 0.0000
# 2 47.1504 147.5373 53.2198 0.0000 20.2627 0.0000
# 3 54.7770 53.2198 120.6149 0.0000 -2.8038 0.0000
# 4 0.0000 0.0000 0.0000 -74.6468 0.0000 -32.8656
# 5 13.1447 20.2627 -2.8038 0.0000 32.7901 0.0000
# 6 0.0000 0.0000 0.0000 -32.8656 0.0000 3.7466
#
#
#
# Elastic Compliance Matrix: (Units=1/GPa)
#
#
# Indices 1 2 3 4 5 6 
#
# 1 0.017647 -0.002168 -0.007205 0.000000 -0.006350 0.000000
# 2 -0.002168 0.009363 -0.003267 0.000000 -0.005196 0.000000
# 3 -0.007205 -0.003267 0.013145 0.000000 0.006031 0.000000
# 4 0.000000 0.000000 0.000000 -0.002755 0.000000 -0.024169
# 5 -0.006350 -0.005196 0.006031 0.000000 0.036769 0.000000
# 6 0.000000 0.000000 0.000000 -0.024169 0.000000 0.054895
#
#
# Mechanical properties :
#
#
# Convention : Reuss Voigt Hill
#
# Bulk Modulus (GPa) = 67.23578 74.22269 70.72924
# Shear Modulus (GPa) = 31.38678 5.88213 18.63445
#
# Velocity S-wave (km/s) = 3.97955 1.72277 3.06633
# Velocity P-wave (km/s) = 7.41896 6.43489 6.94438
#
# Compressibility (1/GPa) = 0.01487303
#
# Stress axis : x y z
#
# Youngs Moduli (GPa) = 56.66834 106.80118 76.07528
#
# Poissons Ratio (x) = 0.23159 0.54812
# Poissons Ratio (y) = 0.12288 0.24857
# Poissons Ratio (z) = 0.40829 0.34896
#
# Static dielectric constant tensor:
#      x y z
#    x 1.668020 0.000000 0.009800 
#    y 0.000000 1.804040 0.000000 
#    z 0.009800 0.000000 1.689560 
# 
# From -- ./inp_files/34243.got.cif
#   From: 2010.05.17/outbox.cif.g08.bks.cpg/sg10_18_cif.got.tgz:34243.got - 2010.06.03 11:33:40.
