data_PCOD9153628
_publ_section_title
;
Structure prediction by ZEFSAII (Michael W. Deem and Ramdas Pophale) SiO2 
 PCOD9153628
Probable space group: P 2/M
;
_chemical_formula_sum "Si O2"
_cell_formula_units_Z 15
_cell_length_a 14.611841
_cell_length_b 8.034847
_cell_length_c 5.169757
_cell_angle_alpha 90.000000
_cell_angle_beta 71.377160
_cell_angle_gamma 90.000000
_cell_volume 575.170505
_symmetry_space_group_name_H-M "P 2/M"
_symmetry_group_IT_number 10
_symmetry_cell_setting 'monoclinic'
loop_
_space_group_symop_operation_xyz
x,y,z
-x,y,-z
-x,-y,-z
x,-y,z
loop_
_atom_site_type_symbol
_atom_site_label
_atom_site_fract_x
_atom_site_fract_y
_atom_site_fract_z
Si Si1 0.885163 0.325619 0.060931
Si Si2 0.740104 0.809186 0.553746
Si Si3 0.394120 0.195142 0.835400
Si Si4 0.500000 0.500000 0.500000
Si Si5 0.931318 0.000000 0.807134
O O1 0.851633 0.500000 0.976659
O O2 0.831432 0.298277 0.380629
O O3 0.000000 0.334368 0.000000
O O4 0.869585 0.166222 0.895798
O O5 0.670927 0.798685 0.364593
O O6 0.773950 0.000000 0.542549
O O7 0.674099 0.770437 0.857389
O O8 0.466554 0.348285 0.731897
O O9 0.429980 0.000000 0.824266
O O10 0.000000 0.000000 0.500000
O O11 0.000000 0.000000 0.000000
#
# Coordination Sequence:
#
# PCOD9153628 Si02
#       5
#     4   4   4   1   2
#     4  10  22  40  65  96 135 178 227 273 320 378
#     4  10  22  44  67  96 137 176 217 271 325 382
#     4  10  25  44  68 100 133 168 216 271 329 398
#     4  12  26  46  76 100 130 174 210 270 344 408
#     4  10  22  40  60  88 124 169 220 267 316 370
#
# _framework density 26.079219999999999
#
# number of rings (size 3 to 8) (size 9 to 14) (size 15 to 20)
#    0.000    1.867    1.333    0.400    3.733    6.933 
#    0.000    9.333    0.000    0.000    0.000    0.000 
#    0.000    0.000    0.000    0.000    0.000    0.000 
#
# Total GULP energy -83727.354617 kJ/mol
# GULP energy per Si atom -5581.823641 kJ/mol
# Density = 2.601986 g / cm^3
# Si number density = 26.079220 Si / 1000 Ang^3
#
#
#
# Elastic Constant Matrix: (Units=GPa)
#
#
# Indices 1 2 3 4 5 6 
#
# 1 69.2644 18.7553 45.3360 0.0000 4.0332 0.0000
# 2 18.7553 256.7274 116.6329 0.0000 -25.6166 0.0000
# 3 45.3360 116.6329 278.4559 0.0000 -4.9980 0.0000
# 4 0.0000 0.0000 0.0000 172.1098 0.0000 -34.3353
# 5 4.0332 -25.6166 -4.9980 0.0000 40.9345 0.0000
# 6 0.0000 0.0000 0.0000 -34.3353 0.0000 10.7321
#
#
#
# Elastic Compliance Matrix: (Units=1/GPa)
#
#
# Indices 1 2 3 4 5 6 
#
# 1 0.016320 -0.000215 -0.002604 0.000000 -0.002060 0.000000
# 2 -0.000215 0.005149 -0.002068 0.000000 0.002991 0.000000
# 3 -0.002604 -0.002068 0.004873 0.000000 -0.000442 0.000000
# 4 0.000000 0.000000 0.000000 0.016061 0.000000 0.051386
# 5 -0.002060 0.002991 -0.000442 0.000000 0.026450 0.000000
# 6 0.000000 0.000000 0.000000 0.051386 0.000000 0.257576
#
#
# Mechanical properties :
#
#
# Convention : Reuss Voigt Hill
#
# Bulk Modulus (GPa) = 60.35522 107.32179 83.83850
# Shear Modulus (GPa) = 14.63159 73.00352 43.81755
#
# Velocity S-wave (km/s) = 2.37121 5.29658 4.10344
# Velocity P-wave (km/s) = 5.53986 8.86829 7.39380
#
# Compressibility (1/GPa) = 0.01656858
#
# Stress axis : x y z
#
# Youngs Moduli (GPa) = 61.27430 194.22108 205.19371
#
# Poissons Ratio (x) = 0.04171 0.53435
# Poissons Ratio (y) = 0.01316 0.42433
# Poissons Ratio (z) = 0.15957 0.40164
#
# Static dielectric constant tensor:
#      x y z
#    x 2.515290 0.000000 0.173470 
#    y 0.000000 2.114590 0.000000 
#    z 0.173470 0.000000 2.050640 
# 
# From -- ./inp_files/10460.got.cif
#   From: 2010.05.17/outbox.cif.g08.bks.cpg/sg10_6_cif.got.tgz:10460.got - 2010.06.03 11:33:40.
