data_PCOD9153513
_publ_section_title
;
Structure prediction by ZEFSAII (Michael W. Deem and Ramdas Pophale) SiO2 
 PCOD9153513
Probable space group: P 2/M
;
_chemical_formula_sum "Si O2"
_cell_formula_units_Z 24
_cell_length_a 14.720113
_cell_length_b 12.033774
_cell_length_c 14.017727
_cell_angle_alpha 90.000000
_cell_angle_beta 149.811239
_cell_angle_gamma 90.000000
_cell_volume 1248.617435
_symmetry_space_group_name_H-M "P 2/M"
_symmetry_group_IT_number 10
_symmetry_cell_setting 'monoclinic'
loop_
_space_group_symop_operation_xyz
x,y,z
-x,y,-z
-x,-y,-z
x,-y,z
loop_
_atom_site_type_symbol
_atom_site_label
_atom_site_fract_x
_atom_site_fract_y
_atom_site_fract_z
Si Si1 0.283663 0.133607 0.913353
Si Si2 0.530409 0.257411 0.639804
Si Si3 0.506529 0.500000 0.620785
Si Si4 0.719060 0.132124 0.301708
Si Si5 0.098747 0.740015 0.919904
Si Si6 0.216490 0.130705 0.433910
Si Si7 0.071880 0.500000 0.956108
O O1 0.224957 0.168864 0.753111
O O2 0.195440 0.211733 0.912746
O O3 0.244975 0.000000 0.892431
O O4 0.501719 0.145637 0.113598
O O5 0.500000 0.249836 0.500000
O O6 0.444789 0.376980 0.595097
O O7 0.419600 0.161052 0.589821
O O8 0.742214 0.252307 0.857325
O O9 0.500000 0.500000 0.500000
O O10 0.713238 0.500000 0.839714
O O11 0.808926 0.174758 0.480513
O O12 0.751652 0.000000 0.330240
O O13 0.921249 0.814947 0.765269
O O14 0.028332 0.613361 0.861470
O O15 0.189879 0.000000 0.410217
O O16 0.000000 0.500000 0.000000
#
# Coordination Sequence:
#
# PCOD9153513 Si02
#       7
#     4   4   2   4   4   4   2
#     4   9  16  33  61  87 117 150 185 235 294 345
#     4  10  22  39  58  80 114 151 195 251 291 337
#     4   8  18  36  62  83  94 139 196 243 290 332
#     4   8  16  32  57  87 116 153 191 228 279 350
#     4  11  23  37  61  86 115 151 195 245 291 337
#     4  11  23  36  57  89 120 154 194 230 290 357
#     4  10  24  40  60  83 111 148 203 252 281 332
#
# _framework density 19.221257999999999
#
# number of rings (size 3 to 8) (size 9 to 14) (size 15 to 20)
#    0.000    2.333    1.667    1.500    7.000    1.667 
#    0.000    3.333    0.000    5.000    0.000    0.000 
#    0.000    0.000    0.000    0.000    0.000    0.000 
#
# Total GULP energy -133681.202285 kJ/mol
# GULP energy per Si atom -5570.050095 kJ/mol
# Density = 1.917751 g / cm^3
# Si number density = 19.221258 Si / 1000 Ang^3
#
#
#
# Elastic Constant Matrix: (Units=GPa)
#
#
# Indices 1 2 3 4 5 6 
#
# 1 66.4434 33.7337 4.1414 0.0000 -11.5407 0.0000
# 2 33.7337 92.2510 26.6656 0.0000 -10.3663 0.0000
# 3 4.1414 26.6656 89.2597 0.0000 -18.5992 0.0000
# 4 0.0000 0.0000 0.0000 23.5627 0.0000 -7.2108
# 5 -11.5407 -10.3663 -18.5992 0.0000 25.5410 0.0000
# 6 0.0000 0.0000 0.0000 -7.2108 0.0000 42.9283
#
#
#
# Elastic Compliance Matrix: (Units=1/GPa)
#
#
# Indices 1 2 3 4 5 6 
#
# 1 0.019967 -0.007228 0.002949 0.000000 0.008236 0.000000
# 2 -0.007228 0.014634 -0.004102 0.000000 -0.000314 0.000000
# 3 0.002949 -0.004102 0.014409 0.000000 0.010161 0.000000
# 4 0.000000 0.000000 0.000000 0.044740 0.000000 0.007515
# 5 0.008236 -0.000314 0.010161 0.000000 0.050146 0.000000
# 6 0.000000 0.000000 0.000000 0.007515 0.000000 0.024557
#
#
# Mechanical properties :
#
#
# Convention : Reuss Voigt Hill
#
# Bulk Modulus (GPa) = 31.00997 41.89281 36.45139
# Shear Modulus (GPa) = 25.51501 30.63395 28.07448
#
# Velocity S-wave (km/s) = 3.64735 3.99652 3.82592
# Velocity P-wave (km/s) = 5.82287 6.56799 6.20662
#
# Compressibility (1/GPa) = 0.03224770
#
# Stress axis : x y z
#
# Youngs Moduli (GPa) = 50.08265 68.33608 69.40144
#
# Poissons Ratio (x) = 0.49396 -0.20467
# Poissons Ratio (y) = 0.36202 0.28466
# Poissons Ratio (z) = -0.14770 0.28029
#
# Static dielectric constant tensor:
#      x y z
#    x 1.694390 0.000000 0.018260 
#    y 0.000000 1.700450 0.000000 
#    z 0.018260 0.000000 1.729160 
# 
# From -- ./inp_files/67286.got.cif
#   From: 2010.05.17/outbox.cif.g08.bks.cpg/sg10_34_cif.got.tgz:67286.got - 2010.06.03 11:33:40.
