data_PCOD9153848
_publ_section_title
;
Structure prediction by ZEFSAII (Michael W. Deem and Ramdas Pophale) SiO2 
 PCOD9153848
Probable space group: P 2/M
;
_chemical_formula_sum "Si O2"
_cell_formula_units_Z 18
_cell_length_a 8.464044
_cell_length_b 15.460268
_cell_length_c 8.997522
_cell_angle_alpha 90.000000
_cell_angle_beta 125.189722
_cell_angle_gamma 90.000000
_cell_volume 962.214434
_symmetry_space_group_name_H-M "P 2/M"
_symmetry_group_IT_number 10
_symmetry_cell_setting 'monoclinic'
loop_
_space_group_symop_operation_xyz
x,y,z
-x,y,-z
-x,-y,-z
x,-y,z
loop_
_atom_site_type_symbol
_atom_site_label
_atom_site_fract_x
_atom_site_fract_y
_atom_site_fract_z
Si Si1 0.494847 0.647714 0.818520
Si Si2 0.206655 0.500000 0.036911
Si Si3 0.000000 0.138336 0.000000
Si Si4 0.794916 0.500000 0.320622
Si Si5 0.438224 0.825886 0.294372
Si Si6 0.974665 0.000000 0.244731
Si Si7 0.660505 0.000000 0.334213
O O1 0.316579 0.585254 0.689224
O O2 0.477099 0.740291 0.734848
O O3 0.500000 0.658078 0.000000
O O4 0.675410 0.588142 0.863849
O O5 0.197576 0.500000 0.853347
O O6 0.000000 0.500000 0.000000
O O7 0.793155 0.182308 0.856734
O O8 0.031694 0.080811 0.869782
O O9 0.000000 0.500000 0.500000
O O10 0.500000 0.827767 0.500000
O O11 0.525851 0.914886 0.274117
O O12 0.794560 0.000000 0.260058
O O13 0.178182 0.000000 0.445465
#
# Coordination Sequence:
#
# PCOD9153848 Si02
#       7
#     4   2   2   2   4   2   2
#     4   9  22  42  62  91 125 161 205 251 310 378
#     4   9  19  39  68  90 120 158 197 251 312 371
#     4  11  24  40  66  89 124 164 214 261 322 359
#     4   9  19  43  66  90 124 161 200 254 314 375
#     4  12  25  43  62  93 131 167 211 265 307 368
#     4  10  22  43  65  90 115 172 221 259 313 374
#     4  11  23  43  65  88 130 169 214 260 310 371
#
# _framework density 18.706848999999998
#
# number of rings (size 3 to 8) (size 9 to 14) (size 15 to 20)
#    0.000    1.778    2.222    3.000    4.667    2.667 
#    8.000    2.222    0.000    0.000    0.000    0.000 
#    0.000    0.000    0.000    0.000    0.000    0.000 
#
# Total GULP energy -100417.006481 kJ/mol
# GULP energy per Si atom -5578.722582 kJ/mol
# Density = 1.866427 g / cm^3
# Si number density = 18.706849 Si / 1000 Ang^3
#
#
#
# Elastic Constant Matrix: (Units=GPa)
#
#
# Indices 1 2 3 4 5 6 
#
# 1 120.1513 70.1190 42.4081 0.0000 17.4814 0.0000
# 2 70.1190 166.7460 39.8336 0.0000 5.2594 0.0000
# 3 42.4081 39.8336 77.2136 0.0000 21.0850 0.0000
# 4 0.0000 0.0000 0.0000 12.3909 0.0000 -19.2699
# 5 17.4814 5.2594 21.0850 0.0000 33.7472 0.0000
# 6 0.0000 0.0000 0.0000 -19.2699 0.0000 -6.9528
#
#
#
# Elastic Compliance Matrix: (Units=1/GPa)
#
#
# Indices 1 2 3 4 5 6 
#
# 1 0.012694 -0.004325 -0.003773 0.000000 -0.003544 0.000000
# 2 -0.004325 0.008367 -0.002649 0.000000 0.002591 0.000000
# 3 -0.003773 -0.002649 0.018982 0.000000 -0.009492 0.000000
# 4 0.000000 0.000000 0.000000 0.015198 0.000000 -0.042122
# 5 -0.003544 0.002591 -0.009492 0.000000 0.036995 0.000000
# 6 0.000000 0.000000 0.000000 -0.042122 0.000000 -0.027085
#
#
# Mechanical properties :
#
#
# Convention : Reuss Voigt Hill
#
# Bulk Modulus (GPa) = 53.90866 74.31470 64.11168
# Shear Modulus (GPa) = 53.86346 21.95373 37.90860
#
# Velocity S-wave (km/s) = 5.37177 3.42945 4.50650
# Velocity P-wave (km/s) = 8.20699 7.44941 7.83736
#
# Compressibility (1/GPa) = 0.01854990
#
# Stress axis : x y z
#
# Youngs Moduli (GPa) = 78.77583 119.51955 52.68193
#
# Poissons Ratio (x) = 0.51692 0.19877
# Poissons Ratio (y) = 0.34070 0.13953
# Poissons Ratio (z) = 0.29722 0.31655
#
# Static dielectric constant tensor:
#      x y z
#    x 1.645460 0.000000 0.009470 
#    y 0.000000 1.621830 0.000000 
#    z 0.009470 0.000000 1.645090 
# 
# From -- ./inp_files/19416.got.cif
#   From: 2010.05.17/outbox.cif.g08.bks.cpg/sg10_10_cif.got.tgz:19416.got - 2010.06.03 11:33:40.
