data_PCOD9153000
_publ_section_title
;
Structure prediction by ZEFSAII (Michael W. Deem and Ramdas Pophale) SiO2 
 PCOD9153000
Probable space group: P 2/M
;
_chemical_formula_sum "Si O2"
_cell_formula_units_Z 32
_cell_length_a 11.517122
_cell_length_b 8.076774
_cell_length_c 15.370126
_cell_angle_alpha 90.000000
_cell_angle_beta 85.724655
_cell_angle_gamma 90.000000
_cell_volume 1425.768884
_symmetry_space_group_name_H-M "P 2/M"
_symmetry_group_IT_number 10
_symmetry_cell_setting 'monoclinic'
loop_
_space_group_symop_operation_xyz
x,y,z
-x,y,-z
-x,-y,-z
x,-y,z
loop_
_atom_site_type_symbol
_atom_site_label
_atom_site_fract_x
_atom_site_fract_y
_atom_site_fract_z
Si Si1 0.611670 0.297394 0.050856
Si Si2 0.869978 0.192328 0.471047
Si Si3 0.871309 0.310176 0.981671
Si Si4 0.904279 0.690250 0.282333
Si Si5 0.663337 0.297900 0.236674
Si Si6 0.269730 0.686619 0.355369
Si Si7 0.471925 0.309976 0.594969
Si Si8 0.138640 0.816324 0.203861
O O1 0.612989 0.500000 0.045349
O O2 0.597889 0.249138 0.152835
O O3 0.500000 0.242473 0.000000
O O4 0.743548 0.242197 0.017418
O O5 0.859569 0.295644 0.383652
O O6 0.784805 0.239709 0.553872
O O7 0.000000 0.216637 0.500000
O O8 0.854514 0.000000 0.449728
O O9 0.873744 0.500000 0.014716
O O10 0.864786 0.304468 0.877515
O O11 0.000000 0.238074 0.000000
O O12 0.933952 0.500000 0.262576
O O13 0.799650 0.742851 0.225377
O O14 0.017831 0.798274 0.262520
O O15 0.656081 0.500000 0.242417
O O16 0.613955 0.230874 0.330431
O O17 0.222858 0.500000 0.348819
O O18 0.406680 0.680352 0.361381
O O19 0.235538 0.781286 0.270375
O O20 0.500000 0.231274 0.500000
O O21 0.430489 0.500000 0.578199
O O22 0.150767 0.000000 0.167096
#
# Coordination Sequence:
#
# PCOD9153000 Si02
#       8
#     4   4   4   4   4   4   4   4
#     4   9  18  32  56  90 123 152 191 247 310 361
#     4  11  22  36  54  80 119 160 193 240 298 355
#     4  10  21  39  63  91 119 150 198 257 309 361
#     4  11  21  36  61  88 116 153 201 249 297 351
#     4   9  18  33  56  88 122 151 187 247 306 352
#     4  11  22  36  60  89 116 153 201 247 294 353
#     4   9  18  33  55  88 123 151 189 244 301 353
#     4  12  25  39  57  85 122 160 196 241 301 363
#
# _framework density 22.444030999999999
#
# number of rings (size 3 to 8) (size 9 to 14) (size 15 to 20)
#    0.000    1.750    1.250    3.750    1.750    4.750 
#    0.000    0.000    0.000    8.625    0.000    0.000 
#    0.000    0.000    0.000    0.000    0.000    0.000 
#
# Total GULP energy -178666.042176 kJ/mol
# GULP energy per Si atom -5583.313818 kJ/mol
# Density = 2.239295 g / cm^3
# Si number density = 22.444031 Si / 1000 Ang^3
#
#
#
# Elastic Constant Matrix: (Units=GPa)
#
#
# Indices 1 2 3 4 5 6 
#
# 1 97.4503 17.3179 28.7705 0.0000 2.4543 0.0000
# 2 17.3179 25.2946 -0.0902 0.0000 10.6789 0.0000
# 3 28.7705 -0.0902 103.7311 0.0000 6.4679 0.0000
# 4 0.0000 0.0000 0.0000 16.5427 0.0000 34.8504
# 5 2.4543 10.6789 6.4679 0.0000 28.3580 0.0000
# 6 0.0000 0.0000 0.0000 34.8504 0.0000 105.8109
#
#
#
# Elastic Compliance Matrix: (Units=1/GPa)
#
#
# Indices 1 2 3 4 5 6 
#
# 1 0.013213 -0.010646 -0.003908 0.000000 0.003757 0.000000
# 2 -0.010646 0.055724 0.004314 0.000000 -0.021046 0.000000
# 3 -0.003908 0.004314 0.010964 0.000000 -0.003787 0.000000
# 4 0.000000 0.000000 0.000000 0.197466 0.000000 -0.065038
# 5 0.003757 -0.021046 -0.003787 0.000000 0.043727 0.000000
# 6 0.000000 0.000000 0.000000 -0.065038 0.000000 0.030872
#
#
# Mechanical properties :
#
#
# Convention : Reuss Voigt Hill
#
# Bulk Modulus (GPa) = 16.82960 35.38583 26.10772
# Shear Modulus (GPa) = 12.74684 42.17418 27.46051
#
# Velocity S-wave (km/s) = 2.38573 4.33954 3.50167
# Velocity P-wave (km/s) = 3.88635 6.39604 5.29212
#
# Compressibility (1/GPa) = 0.05941910
#
# Stress axis : x y z
#
# Youngs Moduli (GPa) = 75.68442 17.94570 91.20645
#
# Poissons Ratio (x) = 0.19105 0.35645
# Poissons Ratio (y) = 0.80574 -0.39342
# Poissons Ratio (z) = 0.29579 -0.07741
#
# Static dielectric constant tensor:
#      x y z
#    x 1.843610 0.000000 -0.027290 
#    y 0.000000 1.821500 0.000000 
#    z -0.027290 0.000000 1.835180 
# 
# From -- ./inp_files/63823.got.cif
#   From: 2010.05.17/outbox.cif.g08.bks.cpg/sg10_32_cif.got.tgz:63823.got - 2010.06.03 11:33:40.
