data_PCOD9153436
_publ_section_title
;
Structure prediction by ZEFSAII (Michael W. Deem and Ramdas Pophale) SiO2 
 PCOD9153436
Probable space group: P 2/M
;
_chemical_formula_sum "Si O2"
_cell_formula_units_Z 24
_cell_length_a 5.509059
_cell_length_b 13.848263
_cell_length_c 14.257921
_cell_angle_alpha 90.000000
_cell_angle_beta 84.326833
_cell_angle_gamma 90.000000
_cell_volume 1082.421770
_symmetry_space_group_name_H-M "P 2/M"
_symmetry_group_IT_number 10
_symmetry_cell_setting 'monoclinic'
loop_
_space_group_symop_operation_xyz
x,y,z
-x,y,-z
-x,-y,-z
x,-y,z
loop_
_atom_site_type_symbol
_atom_site_label
_atom_site_fract_x
_atom_site_fract_y
_atom_site_fract_z
Si Si1 0.747526 0.819356 0.553326
Si Si2 0.531735 0.297494 0.103568
Si Si3 0.670803 0.600651 0.582184
Si Si4 0.160006 0.107801 0.899063
Si Si5 0.228115 0.391135 0.740333
Si Si6 0.879272 0.217412 0.749916
O O1 0.500000 0.840226 0.500000
O O2 0.780138 0.703749 0.556594
O O3 0.746293 0.835416 0.667032
O O4 0.000000 0.860773 0.500000
O O5 0.641926 0.190157 0.094528
O O6 0.713856 0.364528 0.154874
O O7 0.292839 0.280075 0.174946
O O8 0.500000 0.333841 0.000000
O O9 0.500000 0.589078 0.500000
O O10 0.815921 0.500000 0.586228
O O11 0.485723 0.609009 0.676170
O O12 0.009763 0.140330 0.812697
O O13 0.259209 0.000000 0.883468
O O14 0.000000 0.109203 0.000000
O O15 0.127462 0.500000 0.737200
O O16 0.072555 0.299989 0.708723
#
# Coordination Sequence:
#
# PCOD9153436 Si02
#       6
#     4   4   4   4   4   4
#     4  11  23  38  62  92 125 170 222 267 326 389
#     4  11  22  38  61  91 123 163 208 260 316 383
#     4   9  17  32  53  81 116 155 206 264 314 359
#     4  10  22  40  65  97 125 154 198 260 333 398
#     4  10  22  38  57  85 126 174 218 261 312 375
#     4  11  22  39  63  88 127 165 208 262 319 381
#
# _framework density 22.172504
#
# number of rings (size 3 to 8) (size 9 to 14) (size 15 to 20)
#    0.000    1.667    3.333    2.000    2.333    3.000 
#    0.000    0.833    0.000    1.000    0.000    0.000 
#    0.000    0.000    0.000    0.000    0.000    0.000 
#
# Total GULP energy -133729.443862 kJ/mol
# GULP energy per Si atom -5572.060161 kJ/mol
# Density = 2.212204 g / cm^3
# Si number density = 22.172504 Si / 1000 Ang^3
#
#
#
# Elastic Constant Matrix: (Units=GPa)
#
#
# Indices 1 2 3 4 5 6 
#
# 1 78.2710 2.4998 49.6169 0.0000 17.5947 0.0000
# 2 2.4998 64.8457 5.1037 0.0000 2.5707 0.0000
# 3 49.6169 5.1037 138.1806 0.0000 38.5008 0.0000
# 4 0.0000 0.0000 0.0000 42.4331 0.0000 -38.9467
# 5 17.5947 2.5707 38.5008 0.0000 53.2388 0.0000
# 6 0.0000 0.0000 0.0000 -38.9467 0.0000 36.9123
#
#
#
# Elastic Compliance Matrix: (Units=1/GPa)
#
#
# Indices 1 2 3 4 5 6 
#
# 1 0.016635 -0.000146 -0.005558 0.000000 -0.001471 0.000000
# 2 -0.000146 0.015475 -0.000406 0.000000 -0.000405 0.000000
# 3 -0.005558 -0.000406 0.010933 0.000000 -0.006050 0.000000
# 4 0.000000 0.000000 0.000000 0.746377 0.000000 0.787513
# 5 -0.001471 -0.000405 -0.006050 0.000000 0.023664 0.000000
# 6 0.000000 0.000000 0.000000 0.787513 0.000000 0.858008
#
#
# Mechanical properties :
#
#
# Convention : Reuss Voigt Hill
#
# Bulk Modulus (GPa) = 32.44277 43.97092 38.20685
# Shear Modulus (GPa) = 2.95232 41.45530 22.20381
#
# Velocity S-wave (km/s) = 1.15517 4.32866 3.16794
# Velocity P-wave (km/s) = 4.05499 6.69757 5.53626
#
# Compressibility (1/GPa) = 0.03082351
#
# Stress axis : x y z
#
# Youngs Moduli (GPa) = 60.11562 64.62082 91.46358
#
# Poissons Ratio (x) = 0.00940 0.50833
# Poissons Ratio (y) = 0.00875 0.03717
# Poissons Ratio (z) = 0.33411 0.02626
#
# Static dielectric constant tensor:
#      x y z
#    x 1.880890 0.000000 -0.091480 
#    y 0.000000 1.858390 0.000000 
#    z -0.091480 0.000000 2.045930 
# 
# From -- ./inp_files/59036.got.cif
#   From: 2010.05.17/outbox.cif.g08.bks.cpg/sg10_30_cif.got.tgz:59036.got - 2010.06.03 11:33:40.
