data_PCOD9153706
_publ_section_title
;
Structure prediction by ZEFSAII (Michael W. Deem and Ramdas Pophale) SiO2 
 PCOD9153706
Probable space group: P 2/M
;
_chemical_formula_sum "Si O2"
_cell_formula_units_Z 32
_cell_length_a 12.242907
_cell_length_b 13.979335
_cell_length_c 18.745781
_cell_angle_alpha 90.000000
_cell_angle_beta 152.625238
_cell_angle_gamma 90.000000
_cell_volume 1475.202900
_symmetry_space_group_name_H-M "P 2/M"
_symmetry_group_IT_number 10
_symmetry_cell_setting 'monoclinic'
loop_
_space_group_symop_operation_xyz
x,y,z
-x,y,-z
-x,-y,-z
x,-y,z
loop_
_atom_site_type_symbol
_atom_site_label
_atom_site_fract_x
_atom_site_fract_y
_atom_site_fract_z
Si Si1 0.037710 0.189146 0.224621
Si Si2 0.491794 0.782925 0.874540
Si Si3 0.197831 0.389256 0.277875
Si Si4 0.912247 0.108045 0.294788
Si Si5 0.582828 0.389541 0.381839
Si Si6 0.305310 0.195079 0.607676
Si Si7 0.691625 0.393640 0.922761
Si Si8 0.785261 0.114438 0.821941
O O1 0.063274 0.130965 0.311826
O O2 0.133878 0.298308 0.290184
O O3 0.165225 0.147042 0.229609
O O4 0.757014 0.179281 0.042464
O O5 0.305732 0.818364 0.824589
O O6 0.375628 0.810628 0.731181
O O7 0.548240 0.672427 0.893855
O O8 0.194720 0.500000 0.303835
O O9 0.439659 0.377018 0.372990
O O10 0.973417 0.381068 0.093639
O O11 0.090475 0.126930 0.462921
O O12 0.821990 0.000000 0.241768
O O13 0.673613 0.500000 0.432868
O O14 0.752875 0.301966 0.457205
O O15 0.390747 0.380755 0.206036
O O16 0.543626 0.162510 0.706548
O O17 0.634740 0.500000 0.910778
O O18 0.765975 0.000000 0.814698
O O19 0.000000 0.143687 0.000000
#
# Coordination Sequence:
#
# PCOD9153706 Si02
#       8
#     4   4   4   4   4   4   4   4
#     4  11  22  41  64  91 125 156 198 255 306 360
#     4  10  22  40  66  89 117 160 207 250 298 349
#     4   9  16  29  55  89 123 156 190 233 296 368
#     4  12  28  45  60  83 118 166 213 254 302 358
#     4   9  16  29  55  89 123 156 190 233 296 368
#     4  11  22  41  64  91 125 156 198 255 306 360
#     4   8  15  28  54  92 124 150 191 242 296 351
#     4  11  22  37  62  92 119 154 201 257 315 360
#
# _framework density 21.691932000000001
#
# number of rings (size 3 to 8) (size 9 to 14) (size 15 to 20)
#    0.000    1.875    2.500    1.875    0.000    5.000 
#    0.000    3.125    0.000    7.500    0.000    0.000 
#    0.000    0.000    0.000    0.000    0.000    0.000 
#
# Total GULP energy -178594.670268 kJ/mol
# GULP energy per Si atom -5581.083446 kJ/mol
# Density = 2.164256 g / cm^3
# Si number density = 21.691932 Si / 1000 Ang^3
#
#
#
# Elastic Constant Matrix: (Units=GPa)
#
#
# Indices 1 2 3 4 5 6 
#
# 1 80.1785 21.1539 4.2815 0.0000 2.6361 0.0000
# 2 21.1539 71.3063 18.9281 0.0000 3.0415 0.0000
# 3 4.2815 18.9281 42.3170 0.0000 -6.5437 0.0000
# 4 0.0000 0.0000 0.0000 5.4798 0.0000 -9.0732
# 5 2.6361 3.0415 -6.5437 0.0000 21.8198 0.0000
# 6 0.0000 0.0000 0.0000 -9.0732 0.0000 13.7387
#
#
#
# Elastic Compliance Matrix: (Units=1/GPa)
#
#
# Indices 1 2 3 4 5 6 
#
# 1 0.013560 -0.004058 0.000291 0.000000 -0.000985 0.000000
# 2 -0.004058 0.017573 -0.008130 0.000000 -0.004398 0.000000
# 3 0.000291 -0.008130 0.028741 0.000000 0.009717 0.000000
# 4 0.000000 0.000000 0.000000 -1.951861 0.000000 -1.289041
# 5 -0.000985 -0.004398 0.009717 0.000000 0.049476 0.000000
# 6 0.000000 0.000000 0.000000 -1.289041 0.000000 -0.778516
#
#
# Mechanical properties :
#
#
# Convention : Reuss Voigt Hill
#
# Bulk Modulus (GPa) = 27.71620 31.39208 29.55414
# Shear Modulus (GPa) = -1.93408 18.17021 8.11806
#
# Velocity S-wave (km/s) = -0.94528 2.89735 1.93664
# Velocity P-wave (km/s) = 3.40786 5.06913 4.31912
#
# Compressibility (1/GPa) = 0.03607999
#
# Stress axis : x y z
#
# Youngs Moduli (GPa) = 73.74834 56.90406 34.79362
#
# Poissons Ratio (x) = 0.23090 -0.01012
# Poissons Ratio (y) = 0.29925 0.28287
# Poissons Ratio (z) = -0.02144 0.46263
#
# Static dielectric constant tensor:
#      x y z
#    x 1.754980 0.000000 -0.040340 
#    y 0.000000 1.824280 0.000000 
#    z -0.040340 0.000000 1.845770 
# 
# From -- ./inp_files/77056.got.cif
#   From: 2010.05.17/outbox.cif.g08.bks.cpg/sg10_39_cif.got.tgz:77056.got - 2010.06.03 11:33:40.
