data_PCOD9153602
_publ_section_title
;
Structure prediction by ZEFSAII (Michael W. Deem and Ramdas Pophale) SiO2 
 PCOD9153602
Probable space group: P 2/M
;
_chemical_formula_sum "Si O2"
_cell_formula_units_Z 28
_cell_length_a 20.572879
_cell_length_b 13.240100
_cell_length_c 9.339516
_cell_angle_alpha 90.000000
_cell_angle_beta 30.298271
_cell_angle_gamma 90.000000
_cell_volume 1283.433080
_symmetry_space_group_name_H-M "P 2/M"
_symmetry_group_IT_number 10
_symmetry_cell_setting 'monoclinic'
loop_
_space_group_symop_operation_xyz
x,y,z
-x,y,-z
-x,-y,-z
x,-y,z
loop_
_atom_site_type_symbol
_atom_site_label
_atom_site_fract_x
_atom_site_fract_y
_atom_site_fract_z
Si Si1 0.005603 0.882624 0.662024
Si Si2 0.487930 0.887121 0.360854
Si Si3 0.716892 0.803160 0.801589
Si Si4 0.636168 0.620735 0.157588
Si Si5 0.896868 0.618000 0.805770
Si Si6 0.623565 0.751209 0.683136
Si Si7 0.101968 0.272399 0.932411
O O1 0.134186 0.822305 0.460228
O O2 0.000000 0.881128 0.500000
O O3 0.010493 0.000000 0.695875
O O4 0.896193 0.824091 0.962220
O O5 0.500000 0.849254 0.500000
O O6 0.423123 0.814859 0.365654
O O7 0.431754 0.000000 0.466427
O O8 0.637290 0.888198 0.033794
O O9 0.679019 0.817060 0.708426
O O10 0.665146 0.696375 0.968590
O O11 0.500000 0.631117 0.500000
O O12 0.645697 0.500000 0.101125
O O13 0.751877 0.651253 0.045627
O O14 0.892818 0.500000 0.789772
O O15 0.000000 0.662800 0.500000
O O16 0.943233 0.639989 0.875994
O O17 0.754653 0.695503 0.389568
O O18 0.500000 0.700925 0.000000
O O19 0.000000 0.255571 0.000000
#
# Coordination Sequence:
#
# PCOD9153602 Si02
#       7
#     4   4   4   4   4   4   4
#     4  11  25  42  64  96 132 174 223 275 331 395
#     4  10  23  40  63  93 122 169 225 273 323 388
#     4  11  21  41  64  92 132 176 214 270 331 394
#     4  10  22  39  68 104 134 172 225 279 331 389
#     4  10  23  43  69  99 132 174 223 273 334 400
#     4  10  25  42  62  93 132 173 218 266 328 394
#     4  12  24  43  66  97 132 174 222 274 338 393
#
# _framework density 21.816486999999999
#
# number of rings (size 3 to 8) (size 9 to 14) (size 15 to 20)
#    0.000    1.429    1.429    3.000    8.000    4.286 
#    0.000    0.714    0.000    4.286    0.000    0.000 
#    0.000    0.000    0.000    0.000    0.000    0.000 
#
# Total GULP energy -155945.081736 kJ/mol
# GULP energy per Si atom -5569.467205 kJ/mol
# Density = 2.176683 g / cm^3
# Si number density = 21.816487 Si / 1000 Ang^3
#
#
#
# Elastic Constant Matrix: (Units=GPa)
#
#
# Indices 1 2 3 4 5 6 
#
# 1 121.1398 24.4298 38.3212 0.0000 18.6211 0.0000
# 2 24.4298 68.4596 9.7554 0.0000 -13.2173 0.0000
# 3 38.3212 9.7554 120.7255 0.0000 -6.0719 0.0000
# 4 0.0000 0.0000 0.0000 10.3368 0.0000 -10.0239
# 5 18.6211 -13.2173 -6.0719 0.0000 33.5721 0.0000
# 6 0.0000 0.0000 0.0000 -10.0239 0.0000 2.3335
#
#
#
# Elastic Compliance Matrix: (Units=1/GPa)
#
#
# Indices 1 2 3 4 5 6 
#
# 1 0.012090 -0.005620 -0.003867 0.000000 -0.009618 0.000000
# 2 -0.005620 0.018536 0.000817 0.000000 0.010563 0.000000
# 3 -0.003867 0.000817 0.009657 0.000000 0.004213 0.000000
# 4 0.000000 0.000000 0.000000 -0.030559 0.000000 -0.131274
# 5 -0.009618 0.010563 0.004213 0.000000 0.040042 0.000000
# 6 0.000000 0.000000 0.000000 -0.131274 0.000000 -0.135371
#
#
# Mechanical properties :
#
#
# Convention : Reuss Voigt Hill
#
# Bulk Modulus (GPa) = 43.58773 50.59310 47.09042
# Shear Modulus (GPa) = -82.48329 25.10303 -28.69013
#
# Velocity S-wave (km/s) = -6.15547 3.39580 -3.63032
# Velocity P-wave (km/s) = 5.52242 6.21417 2.01478
#
# Compressibility (1/GPa) = 0.02294224
#
# Stress axis : x y z
#
# Youngs Moduli (GPa) = 82.71198 53.95037 103.55527
#
# Poissons Ratio (x) = 0.30321 0.40048
# Poissons Ratio (y) = 0.46486 -0.08465
# Poissons Ratio (z) = 0.31987 -0.04410
#
# Static dielectric constant tensor:
#      x y z
#    x 1.808380 0.000000 -0.010890 
#    y 0.000000 1.815640 0.000000 
#    z -0.010890 0.000000 2.080350 
# 
# From -- ./inp_files/35227.got.cif
#   From: 2010.05.17/outbox.cif.g08.bks.cpg/sg10_18_cif.got.tgz:35227.got - 2010.06.03 11:33:40.
