data_PCOD9153307
_publ_section_title
;
Structure prediction by ZEFSAII (Michael W. Deem and Ramdas Pophale) SiO2 
 PCOD9153307
Probable space group: P 2/M
;
_chemical_formula_sum "Si O2"
_cell_formula_units_Z 16
_cell_length_a 5.204034
_cell_length_b 22.073965
_cell_length_c 5.836917
_cell_angle_alpha 90.000000
_cell_angle_beta 89.459378
_cell_angle_gamma 90.000000
_cell_volume 670.478197
_symmetry_space_group_name_H-M "P 2/M"
_symmetry_group_IT_number 10
_symmetry_cell_setting 'monoclinic'
loop_
_space_group_symop_operation_xyz
x,y,z
-x,y,-z
-x,-y,-z
x,-y,z
loop_
_atom_site_type_symbol
_atom_site_label
_atom_site_fract_x
_atom_site_fract_y
_atom_site_fract_z
Si Si1 0.749398 0.802904 0.858259
Si Si2 0.000000 0.721586 0.500000
Si Si3 0.748166 0.933770 0.661041
Si Si4 0.742033 0.368721 0.153987
Si Si5 0.850706 0.500000 0.253888
O O1 0.800716 0.766030 0.628707
O O2 0.742598 0.874934 0.817145
O O3 0.500000 0.785600 0.000000
O O4 0.000000 0.787917 0.000000
O O5 0.821805 0.678025 0.348814
O O6 0.500000 0.931191 0.500000
O O7 0.000000 0.930048 0.500000
O O8 0.749935 0.000000 0.778096
O O9 0.697474 0.436765 0.248777
O O10 0.500000 0.351806 0.000000
O O11 0.000000 0.370821 0.000000
O O12 0.000000 0.500000 0.500000
O O13 0.000000 0.500000 0.000000
#
# Coordination Sequence:
#
# PCOD9153307 Si02
#       5
#     4   2   4   4   2
#     4  12  28  46  73 108 144 198 256 307 386 463
#     4  12  28  51  73 106 162 206 254 324 384 460
#     4  10  21  43  73 103 139 187 244 310 383 451
#     4  11  26  49  77 114 150 203 259 318 390 471
#     4  10  21  48  82 119 157 203 266 339 405 478
#
# _framework density 23.863565999999999
#
# number of rings (size 3 to 8) (size 9 to 14) (size 15 to 20)
#    0.000    1.000    2.500    2.625    0.000    8.000 
#    0.000    2.500    0.000    0.000    0.000    0.875 
#    0.000    0.000    0.000    0.000    0.000    0.000 
#
# Total GULP energy -89605.768662 kJ/mol
# GULP energy per Si atom -5600.360541 kJ/mol
# Density = 2.380925 g / cm^3
# Si number density = 23.863566 Si / 1000 Ang^3
#
#
#
# Elastic Constant Matrix: (Units=GPa)
#
#
# Indices 1 2 3 4 5 6 
#
# 1 191.7100 41.5319 57.7160 0.0000 -0.7023 0.0000
# 2 41.5319 201.0267 62.9286 0.0000 -9.4298 0.0000
# 3 57.7160 62.9286 100.1642 0.0000 -1.9964 0.0000
# 4 0.0000 0.0000 0.0000 210.3424 0.0000 -2.8850
# 5 -0.7023 -9.4298 -1.9964 0.0000 49.3920 0.0000
# 6 0.0000 0.0000 0.0000 -2.8850 0.0000 13.7877
#
#
#
# Elastic Compliance Matrix: (Units=1/GPa)
#
#
# Indices 1 2 3 4 5 6 
#
# 1 0.006318 -0.000211 -0.003510 0.000000 -0.000092 0.000000
# 2 -0.000211 0.006252 -0.003785 0.000000 0.001038 0.000000
# 3 -0.003510 -0.003785 0.014381 0.000000 -0.000191 0.000000
# 4 0.000000 0.000000 0.000000 0.004768 0.000000 0.000998
# 5 -0.000092 0.001038 -0.000191 0.000000 0.020435 0.000000
# 6 0.000000 0.000000 0.000000 0.000998 0.000000 0.072737
#
#
# Mechanical properties :
#
#
# Convention : Reuss Voigt Hill
#
# Bulk Modulus (GPa) = 83.76774 90.80596 87.28685
# Shear Modulus (GPa) = 34.75051 76.75271 55.75161
#
# Velocity S-wave (km/s) = 3.82018 5.67741 4.83874
# Velocity P-wave (km/s) = 7.39171 9.00622 8.23861
#
# Compressibility (1/GPa) = 0.01193777
#
# Stress axis : x y z
#
# Youngs Moduli (GPa) = 158.27073 159.95689 69.53849
#
# Poissons Ratio (x) = 0.03374 0.24408
# Poissons Ratio (y) = 0.03338 0.26323
# Poissons Ratio (z) = 0.55553 0.60551
#
# Static dielectric constant tensor:
#      x y z
#    x 1.835850 0.000000 -0.015040 
#    y 0.000000 1.921610 0.000000 
#    z -0.015040 0.000000 1.933120 
# 
# From -- ./inp_files/1306.got.cif
#   From: 2010.05.17/outbox.cif.g08.bks.cpg/sg10_1_cif.got.tgz:1306.got - 2010.06.03 11:33:40.
