data_PCOD9153302
_publ_section_title
;
Structure prediction by ZEFSAII (Michael W. Deem and Ramdas Pophale) SiO2 
 PCOD9153302
Probable space group: P 2/M
;
_chemical_formula_sum "Si O2"
_cell_formula_units_Z 25
_cell_length_a 8.992056
_cell_length_b 19.714568
_cell_length_c 8.992056
_cell_angle_alpha 90.000000
_cell_angle_beta 57.741287
_cell_angle_gamma 90.000000
_cell_volume 1348.013406
_symmetry_space_group_name_H-M "P 2/M"
_symmetry_group_IT_number 10
_symmetry_cell_setting 'monoclinic'
loop_
_space_group_symop_operation_xyz
x,y,z
-x,y,-z
-x,-y,-z
x,-y,z
loop_
_atom_site_type_symbol
_atom_site_label
_atom_site_fract_x
_atom_site_fract_y
_atom_site_fract_z
Si Si1 0.670620 0.359545 0.829380
Si Si2 0.729114 0.000000 0.571771
Si Si3 0.838967 0.140307 0.971874
Si Si4 0.500000 0.500000 0.000000
Si Si5 0.071770 0.000000 0.229114
Si Si6 0.969673 0.281775 0.837675
Si Si7 0.337675 0.281775 0.469673
Si Si8 0.528126 0.859693 0.661033
O O1 0.842711 0.336432 0.828122
O O2 0.671878 0.336432 0.657289
O O3 0.500000 0.325540 0.000000
O O4 0.368199 0.439184 0.131801
O O5 0.848817 0.000000 0.651183
O O6 0.618293 0.931455 0.641848
O O7 0.858847 0.000000 0.358847
O O8 0.653786 0.145643 0.153786
O O9 0.875761 0.208832 0.861040
O O10 0.000000 0.140383 0.000000
O O11 0.858152 0.068545 0.881707
O O12 0.159312 0.281365 0.659312
O O13 0.000000 0.291603 0.000000
O O14 0.500000 0.291603 0.500000
O O15 0.361040 0.208832 0.375761
O O16 0.500000 0.859617 0.500000
#
# Coordination Sequence:
#
# PCOD9153302 Si02
#       8
#     4   2   4   1   2   4   4   4
#     4  10  21  43  69  94 132 167 202 260 310 377
#     4  11  24  39  54  77 119 161 212 267 317 376
#     4  11  22  38  59  85 118 161 210 262 316 373
#     4   8  24  44  74  96 136 164 214 244 320 392
#     4  11  24  39  54  77 119 161 212 267 317 376
#     4  11  22  39  66  99 131 169 219 264 318 381
#     4  11  22  39  66  99 131 169 219 264 318 381
#     4  11  22  38  59  85 118 161 210 262 316 373
#
# _framework density 18.545808999999998
#
# number of rings (size 3 to 8) (size 9 to 14) (size 15 to 20)
#    0.480    0.800    0.000    9.120    2.240    1.280 
#    0.000    2.400    0.000    0.000    0.000    0.000 
#    0.000    0.000    0.000    0.000    0.000    0.000 
#
# Total GULP energy -139184.093331 kJ/mol
# GULP energy per Si atom -5567.363733 kJ/mol
# Density = 1.850360 g / cm^3
# Si number density = 18.545809 Si / 1000 Ang^3
#
#
#
# Elastic Constant Matrix: (Units=GPa)
#
#
# Indices 1 2 3 4 5 6 
#
# 1 90.6436 65.3428 65.5674 0.0000 -18.3997 0.0000
# 2 65.3428 179.3902 71.2923 0.0000 -5.1524 0.0000
# 3 65.5674 71.2923 156.7885 0.0000 -38.8836 0.0000
# 4 0.0000 0.0000 0.0000 28.2626 0.0000 -10.5490
# 5 -18.3997 -5.1524 -38.8836 0.0000 40.9007 0.0000
# 6 0.0000 0.0000 0.0000 -10.5490 0.0000 16.0816
#
#
#
# Elastic Compliance Matrix: (Units=1/GPa)
#
#
# Indices 1 2 3 4 5 6 
#
# 1 0.018604 -0.004769 -0.004822 0.000000 0.003184 0.000000
# 2 -0.004769 0.008267 -0.002667 0.000000 -0.003640 0.000000
# 3 -0.004822 -0.002667 0.011758 0.000000 0.008673 0.000000
# 4 0.000000 0.000000 0.000000 0.046854 0.000000 0.030735
# 5 0.003184 -0.003640 0.008673 0.000000 0.033669 0.000000
# 6 0.000000 0.000000 0.000000 0.030735 0.000000 0.082344
#
#
# Mechanical properties :
#
#
# Convention : Reuss Voigt Hill
#
# Bulk Modulus (GPa) = 70.85545 92.35857 81.60701
# Shear Modulus (GPa) = 21.67150 32.02364 26.84757
#
# Velocity S-wave (km/s) = 3.42210 4.15990 3.80891
# Velocity P-wave (km/s) = 7.34186 8.54292 7.96506
#
# Compressibility (1/GPa) = 0.01411324
#
# Stress axis : x y z
#
# Youngs Moduli (GPa) = 53.75069 120.96258 85.04567
#
# Poissons Ratio (x) = 0.57685 0.41009
# Poissons Ratio (y) = 0.25633 0.22685
# Poissons Ratio (z) = 0.25919 0.32266
#
# Static dielectric constant tensor:
#      x y z
#    x 1.636390 0.000000 -0.020030 
#    y 0.000000 1.723500 0.000000 
#    z -0.020030 0.000000 1.659510 
# 
# From -- ./inp_files/19928.got.cif
#   From: 2010.05.17/outbox.cif.g08.bks.cpg/sg10_10_cif.got.tgz:19928.got - 2010.06.03 11:33:40.
