data_PCOD9153049
_publ_section_title
;
Structure prediction by ZEFSAII (Michael W. Deem and Ramdas Pophale) SiO2 
 PCOD9153049
Probable space group: P 2/M
;
_chemical_formula_sum "Si O2"
_cell_formula_units_Z 24
_cell_length_a 24.065381
_cell_length_b 7.749719
_cell_length_c 12.652439
_cell_angle_alpha 90.000000
_cell_angle_beta 26.931492
_cell_angle_gamma 90.000000
_cell_volume 1068.757211
_symmetry_space_group_name_H-M "P 2/M"
_symmetry_group_IT_number 10
_symmetry_cell_setting 'monoclinic'
loop_
_space_group_symop_operation_xyz
x,y,z
-x,y,-z
-x,-y,-z
x,-y,z
loop_
_atom_site_type_symbol
_atom_site_label
_atom_site_fract_x
_atom_site_fract_y
_atom_site_fract_z
Si Si1 0.754494 0.705963 0.160762
Si Si2 0.497216 0.704303 0.323664
Si Si3 0.961994 0.201057 0.947576
Si Si4 0.781662 0.708175 0.886626
Si Si5 0.564140 0.000000 0.731316
Si Si6 0.306997 0.000000 0.284629
Si Si7 0.148350 0.697769 0.458288
O O1 0.772836 0.500000 0.135805
O O2 0.607230 0.730912 0.410036
O O3 0.808856 0.775347 0.957979
O O4 0.821025 0.782662 0.150592
O O5 0.495895 0.500000 0.300236
O O6 0.638611 0.750917 0.106103
O O7 0.447587 0.827743 0.316898
O O8 0.031623 0.293500 0.732722
O O9 0.997815 0.000000 0.883759
O O10 0.000000 0.265940 0.000000
O O11 0.789861 0.500000 0.881873
O O12 0.861677 0.753904 0.647938
O O13 0.680404 0.000000 0.610831
O O14 0.440614 0.000000 0.008730
O O15 0.240943 0.170207 0.355080
O O16 0.193265 0.500000 0.380144
#
# Coordination Sequence:
#
# PCOD9153049 Si02
#       7
#     4   4   4   4   2   2   4
#     4  10  22  40  64  94 129 168 214 264 317 379
#     4  10  21  39  64  95 130 171 212 260 321 378
#     4  11  26  45  64  91 130 168 213 269 320 378
#     4   9  19  40  66  94 128 165 209 264 320 378
#     4  11  24  38  63  92 139 170 211 265 315 384
#     4  11  24  42  59  97 132 172 214 264 321 371
#     4  11  23  43  70  92 125 170 214 264 319 376
#
# _framework density 22.455988999999999
#
# number of rings (size 3 to 8) (size 9 to 14) (size 15 to 20)
#    0.000    1.667    2.500    1.000    3.500    4.667 
#    3.000    5.833    0.000    0.000    0.000    0.000 
#    0.000    0.000    0.000    0.000    0.000    0.000 
#
# Total GULP energy -133957.569832 kJ/mol
# GULP energy per Si atom -5581.565410 kJ/mol
# Density = 2.240488 g / cm^3
# Si number density = 22.455989 Si / 1000 Ang^3
#
#
#
# Elastic Constant Matrix: (Units=GPa)
#
#
# Indices 1 2 3 4 5 6 
#
# 1 133.9657 19.1091 34.4885 0.0000 22.2846 0.0000
# 2 19.1091 61.3753 4.6769 0.0000 6.6403 0.0000
# 3 34.4885 4.6769 100.0465 0.0000 16.1264 0.0000
# 4 0.0000 0.0000 0.0000 24.5801 0.0000 1.7942
# 5 22.2846 6.6403 16.1264 0.0000 30.1474 0.0000
# 6 0.0000 0.0000 0.0000 1.7942 0.0000 19.8113
#
#
#
# Elastic Compliance Matrix: (Units=1/GPa)
#
#
# Indices 1 2 3 4 5 6 
#
# 1 0.009201 -0.002139 -0.002245 0.000000 -0.005129 0.000000
# 2 -0.002139 0.017192 0.000316 0.000000 -0.002375 0.000000
# 3 -0.002245 0.000316 0.011489 0.000000 -0.004556 0.000000
# 4 0.000000 0.000000 0.000000 0.040954 0.000000 -0.003709
# 5 -0.005129 -0.002375 -0.004556 0.000000 0.039922 0.000000
# 6 0.000000 0.000000 0.000000 -0.003709 0.000000 0.050812
#
#
# Mechanical properties :
#
#
# Convention : Reuss Voigt Hill
#
# Bulk Modulus (GPa) = 33.61678 45.77072 39.69375
# Shear Modulus (GPa) = 26.64965 30.71532 28.68248
#
# Velocity S-wave (km/s) = 3.44866 3.70239 3.57778
# Velocity P-wave (km/s) = 5.55520 6.22122 5.89762
#
# Compressibility (1/GPa) = 0.02974705
#
# Stress axis : x y z
#
# Youngs Moduli (GPa) = 108.68587 58.16690 87.04118
#
# Poissons Ratio (x) = 0.12440 0.19541
# Poissons Ratio (y) = 0.23244 -0.02754
# Poissons Ratio (z) = 0.24400 -0.01840
#
# Static dielectric constant tensor:
#      x y z
#    x 1.845180 0.000000 0.007060 
#    y 0.000000 1.742640 0.000000 
#    z 0.007060 0.000000 1.927280 
# 
# From -- ./inp_files/45215.got.cif
#   From: 2010.05.17/outbox.cif.g08.bks.cpg/sg10_23_cif.got.tgz:45215.got - 2010.06.03 11:33:40.
