data_PCOD9153942
_publ_section_title
;
Structure prediction by ZEFSAII (Michael W. Deem and Ramdas Pophale) SiO2 
 PCOD9153942
Probable space group: P 2/M
;
_chemical_formula_sum "Si O2"
_cell_formula_units_Z 32
_cell_length_a 20.905064
_cell_length_b 8.965920
_cell_length_c 26.873309
_cell_angle_alpha 90.000000
_cell_angle_beta 161.256408
_cell_angle_gamma 90.000000
_cell_volume 1618.540569
_symmetry_space_group_name_H-M "P 2/M"
_symmetry_group_IT_number 10
_symmetry_cell_setting 'monoclinic'
loop_
_space_group_symop_operation_xyz
x,y,z
-x,y,-z
-x,-y,-z
x,-y,z
loop_
_atom_site_type_symbol
_atom_site_label
_atom_site_fract_x
_atom_site_fract_y
_atom_site_fract_z
Si Si1 0.461851 0.323163 0.530823
Si Si2 0.968997 0.324074 0.362307
Si Si3 0.964964 0.178556 0.786853
Si Si4 0.369720 0.324114 0.718749
Si Si5 0.164561 0.178214 0.830242
Si Si6 0.615088 0.822323 0.163623
Si Si7 0.745879 0.322222 0.924447
Si Si8 0.763480 0.821819 0.831054
O O1 0.500000 0.303572 0.500000
O O2 0.449250 0.500000 0.531799
O O3 0.250956 0.243608 0.384781
O O4 0.633990 0.251939 0.691752
O O5 0.938050 0.500000 0.336267
O O6 0.977697 0.255740 0.313896
O O7 0.785570 0.251941 0.256654
O O8 0.171447 0.296612 0.541145
O O9 0.106856 0.213465 0.844286
O O10 0.955827 0.000000 0.786469
O O11 0.060523 0.252948 0.906079
O O12 0.373899 0.500000 0.736040
O O13 0.363025 0.225528 0.763015
O O14 0.560847 0.294622 0.825217
O O15 0.151585 0.000000 0.815163
O O16 0.390478 0.224284 0.984333
O O17 0.628451 0.000000 0.168089
O O18 0.770093 0.500000 0.936325
O O19 0.705790 0.246862 0.841918
O O20 0.732701 0.000000 0.807802
O O21 0.000000 0.792896 0.000000
#
# Coordination Sequence:
#
# PCOD9153942 Si02
#       8
#     4   4   4   4   4   4   4   4
#     4  11  25  44  68  99 134 171 212 258 311 371
#     4  11  24  39  59  88 123 161 207 261 316 376
#     4  11  23  42  66  94 128 168 213 263 318 377
#     4  10  23  41  60  88 124 162 205 258 315 374
#     4  10  23  41  60  88 123 161 206 259 315 375
#     4  11  22  40  63  88 119 160 209 259 315 377
#     4  11  23  41  66  94 127 169 214 263 318 377
#     4  11  25  44  68  99 134 172 212 258 311 370
#
# _framework density 19.770897000000001
#
# number of rings (size 3 to 8) (size 9 to 14) (size 15 to 20)
#    0.000    1.250    1.250    3.750    1.750   10.500 
#    0.000    0.000    0.000    0.000    0.000    0.000 
#    0.000    0.000    0.000    0.000    0.000    0.000 
#
# Total GULP energy -178986.140394 kJ/mol
# GULP energy per Si atom -5593.316887 kJ/mol
# Density = 1.972590 g / cm^3
# Si number density = 19.770897 Si / 1000 Ang^3
#
#
#
# Elastic Constant Matrix: (Units=GPa)
#
#
# Indices 1 2 3 4 5 6 
#
# 1 73.9401 40.0261 35.1845 0.0000 -15.4251 0.0000
# 2 40.0261 45.0706 48.0319 0.0000 -3.7440 0.0000
# 3 35.1845 48.0319 105.0176 0.0000 -2.9734 0.0000
# 4 0.0000 0.0000 0.0000 34.5480 0.0000 -5.4547
# 5 -15.4251 -3.7440 -2.9734 0.0000 29.6631 0.0000
# 6 0.0000 0.0000 0.0000 -5.4547 0.0000 29.3441
#
#
#
# Elastic Compliance Matrix: (Units=1/GPa)
#
#
# Indices 1 2 3 4 5 6 
#
# 1 0.030787 -0.030600 0.004036 0.000000 0.012552 0.000000
# 2 -0.030600 0.074062 -0.023876 0.000000 -0.008957 0.000000
# 3 0.004036 -0.023876 0.019118 0.000000 0.001002 0.000000
# 4 0.000000 0.000000 0.000000 0.029820 0.000000 0.005543
# 5 0.012552 -0.008957 0.001002 0.000000 0.039209 0.000000
# 6 0.000000 0.000000 0.000000 0.005543 0.000000 0.035109
#
#
# Mechanical properties :
#
#
# Convention : Reuss Voigt Hill
#
# Bulk Modulus (GPa) = 43.31012 52.27925 47.79469
# Shear Modulus (GPa) = 14.85087 25.43009 20.14048
#
# Velocity S-wave (km/s) = 2.74368 3.59031 3.19516
# Velocity P-wave (km/s) = 5.65602 6.60962 6.15133
#
# Compressibility (1/GPa) = 0.02308929
#
# Stress axis : x y z
#
# Youngs Moduli (GPa) = 32.48127 13.50213 52.30590
#
# Poissons Ratio (x) = 0.41316 -0.21111
# Poissons Ratio (y) = 0.99392 1.24883
# Poissons Ratio (z) = -0.13110 0.32237
#
# Static dielectric constant tensor:
#      x y z
#    x 1.681160 0.000000 0.005730 
#    y 0.000000 1.660300 0.000000 
#    z 0.005730 0.000000 1.685240 
# 
# From -- ./inp_files/93790.got.cif
#   From: 2010.05.17/outbox.cif.g08.bks.cpg/sg10_47_cif.got.tgz:93790.got - 2010.06.03 11:33:40.
