data_PCOD9153599
_publ_section_title
;
Structure prediction by ZEFSAII (Michael W. Deem and Ramdas Pophale) SiO2 
 PCOD9153599
Probable space group: P 2/M
;
_chemical_formula_sum "Si O2"
_cell_formula_units_Z 32
_cell_length_a 5.709472
_cell_length_b 18.384961
_cell_length_c 15.001911
_cell_angle_alpha 90.000000
_cell_angle_beta 111.286152
_cell_angle_gamma 90.000000
_cell_volume 1467.297445
_symmetry_space_group_name_H-M "P 2/M"
_symmetry_group_IT_number 10
_symmetry_cell_setting 'monoclinic'
loop_
_space_group_symop_operation_xyz
x,y,z
-x,y,-z
-x,-y,-z
x,-y,z
loop_
_atom_site_type_symbol
_atom_site_label
_atom_site_fract_x
_atom_site_fract_y
_atom_site_fract_z
Si Si1 0.202218 0.705569 0.452658
Si Si2 0.963345 0.413885 0.099610
Si Si3 0.343908 0.286392 0.894464
Si Si4 0.792448 0.118397 0.546514
Si Si5 0.845249 0.080606 0.264238
Si Si6 0.063024 0.914551 0.110008
Si Si7 0.843056 0.693027 0.746899
Si Si8 0.529307 0.195597 0.761716
O O1 0.500000 0.682428 0.500000
O O2 0.200120 0.793759 0.454214
O O3 0.082895 0.675657 0.343111
O O4 0.000000 0.682377 0.500000
O O5 0.950665 0.500000 0.104958
O O6 0.175121 0.378024 0.193256
O O7 0.712698 0.372062 0.099459
O O8 0.000000 0.393982 0.000000
O O9 0.489644 0.256838 0.830971
O O10 0.056457 0.262730 0.833365
O O11 0.500000 0.259367 0.000000
O O12 0.500000 0.096706 0.500000
O O13 0.000000 0.093364 0.500000
O O14 0.882119 0.086802 0.654330
O O15 0.710299 0.148161 0.292050
O O16 0.851164 0.091744 0.158071
O O17 0.743317 0.000000 0.267975
O O18 0.285720 0.864506 0.174312
O O19 0.131179 0.000000 0.118128
O O20 0.000000 0.893882 0.000000
O O21 0.627693 0.752209 0.699343
#
# Coordination Sequence:
#
# PCOD9153599 Si02
#       8
#     4   4   4   4   4   4   4   4
#     4  10  22  39  66  97 134 178 228 290 349 402
#     4   9  20  42  65  96 143 181 214 260 332 417
#     4  10  23  36  61  98 128 168 218 268 333 399
#     4  10  23  41  67  97 128 172 223 286 360 419
#     4  11  26  44  63  92 128 175 225 283 349 412
#     4  10  24  42  59  83 122 174 222 269 337 401
#     4  10  24  39  63  99 130 173 222 275 334 405
#     4  12  23  37  66  90 131 164 221 284 334 396
#
# _framework density 21.808802
#
# number of rings (size 3 to 8) (size 9 to 14) (size 15 to 20)
#    0.750    1.000    0.000    3.375   12.250    0.750 
#    0.000    2.500    0.000    0.750    0.000    0.000 
#    0.000    0.000    0.000    0.000    0.000    0.000 
#
# Total GULP energy -178194.275791 kJ/mol
# GULP energy per Si atom -5568.571118 kJ/mol
# Density = 2.175916 g / cm^3
# Si number density = 21.808802 Si / 1000 Ang^3
#
#
#
# Elastic Constant Matrix: (Units=GPa)
#
#
# Indices 1 2 3 4 5 6 
#
# 1 80.9148 28.9543 35.6611 0.0000 -8.7585 0.0000
# 2 28.9543 79.3316 30.9015 0.0000 -12.7804 0.0000
# 3 35.6611 30.9015 115.8993 0.0000 -9.3781 0.0000
# 4 0.0000 0.0000 0.0000 26.8854 0.0000 -0.0257
# 5 -8.7585 -12.7804 -9.3781 0.0000 28.7071 0.0000
# 6 0.0000 0.0000 0.0000 -0.0257 0.0000 26.8210
#
#
#
# Elastic Compliance Matrix: (Units=1/GPa)
#
#
# Indices 1 2 3 4 5 6 
#
# 1 0.015560 -0.003996 -0.003577 0.000000 0.001800 0.000000
# 2 -0.003996 0.015883 -0.002600 0.000000 0.005002 0.000000
# 3 -0.003577 -0.002600 0.010518 0.000000 0.001187 0.000000
# 4 0.000000 0.000000 0.000000 0.037195 0.000000 0.000036
# 5 0.001800 0.005002 0.001187 0.000000 0.037999 0.000000
# 6 0.000000 0.000000 0.000000 0.000036 0.000000 0.037284
#
#
# Mechanical properties :
#
#
# Convention : Reuss Voigt Hill
#
# Bulk Modulus (GPa) = 46.26492 51.90882 49.08687
# Shear Modulus (GPa) = 27.47430 28.52463 27.99946
#
# Velocity S-wave (km/s) = 3.55319 3.62047 3.58699
# Velocity P-wave (km/s) = 6.17199 6.42888 6.30175
#
# Compressibility (1/GPa) = 0.02161465
#
# Stress axis : x y z
#
# Youngs Moduli (GPa) = 64.26891 62.96234 95.07479
#
# Poissons Ratio (x) = 0.25159 0.34004
# Poissons Ratio (y) = 0.25681 0.24723
# Poissons Ratio (z) = 0.22986 0.16373
#
# Static dielectric constant tensor:
#      x y z
#    x 2.018250 0.000000 -0.023760 
#    y 0.000000 1.759290 0.000000 
#    z -0.023760 0.000000 1.829570 
# 
# From -- ./inp_files/59634.got.cif
#   From: 2010.05.17/outbox.cif.g08.bks.cpg/sg10_30_cif.got.tgz:59634.got - 2010.06.03 11:33:40.
