data_PCOD9153703
_publ_section_title
;
Structure prediction by ZEFSAII (Michael W. Deem and Ramdas Pophale) SiO2 
 PCOD9153703
Probable space group: P 2/M
;
_chemical_formula_sum "Si O2"
_cell_formula_units_Z 15
_cell_length_a 7.717831
_cell_length_b 16.002857
_cell_length_c 5.485979
_cell_angle_alpha 90.000000
_cell_angle_beta 60.636230
_cell_angle_gamma 90.000000
_cell_volume 590.508708
_symmetry_space_group_name_H-M "P 2/M"
_symmetry_group_IT_number 10
_symmetry_cell_setting 'monoclinic'
loop_
_space_group_symop_operation_xyz
x,y,z
-x,y,-z
-x,-y,-z
x,-y,z
loop_
_atom_site_type_symbol
_atom_site_label
_atom_site_fract_x
_atom_site_fract_y
_atom_site_fract_z
Si Si1 0.185147 0.591028 0.556442
Si Si2 0.186754 0.910928 0.551745
Si Si3 0.717829 0.249534 0.228826
Si Si4 0.500000 0.334447 0.000000
Si Si5 0.500000 0.000000 0.000000
O O1 0.191515 0.500000 0.675043
O O2 0.171387 0.671112 0.736056
O O3 0.390677 0.606811 0.268859
O O4 0.000000 0.590927 0.500000
O O5 0.195871 0.836916 0.737542
O O6 0.000000 0.900925 0.500000
O O7 0.168719 0.000000 0.700929
O O8 0.379749 0.927756 0.247289
O O9 0.500000 0.249287 0.500000
O O10 0.671888 0.273263 0.983602
#
# Coordination Sequence:
#
# PCOD9153703 Si02
#       5
#     4   4   4   2   1
#     4  10  22  41  67  98 131 167 218 274 322 383
#     4   9  19  39  69  99 130 164 215 275 328 385
#     4  10  22  40  65  96 130 174 218 263 320 389
#     4  10  23  41  60  92 136 180 213 261 322 384
#     4   8  18  38  68  98 126 160 206 274 338 380
#
# _framework density 25.401824999999999
#
# number of rings (size 3 to 8) (size 9 to 14) (size 15 to 20)
#    0.800    1.600    0.000    1.200    0.000   11.733 
#    0.000    8.667    0.000    1.600    0.000    0.000 
#    0.000    0.000    0.000    0.000    0.000    0.000 
#
# Total GULP energy -83625.184266 kJ/mol
# GULP energy per Si atom -5575.012284 kJ/mol
# Density = 2.534401 g / cm^3
# Si number density = 25.401825 Si / 1000 Ang^3
#
#
#
# Elastic Constant Matrix: (Units=GPa)
#
#
# Indices 1 2 3 4 5 6 
#
# 1 87.1151 85.9270 23.3270 0.0000 1.9546 0.0000
# 2 85.9270 274.0451 36.1618 0.0000 35.7852 0.0000
# 3 23.3270 36.1618 91.7109 0.0000 -32.8091 0.0000
# 4 0.0000 0.0000 0.0000 218.7135 0.0000 -51.1726
# 5 1.9546 35.7852 -32.8091 0.0000 46.3567 0.0000
# 6 0.0000 0.0000 0.0000 -51.1726 0.0000 30.4522
#
#
#
# Elastic Compliance Matrix: (Units=1/GPa)
#
#
# Indices 1 2 3 4 5 6 
#
# 1 0.017282 -0.005625 -0.001186 0.000000 0.002774 0.000000
# 2 -0.005625 0.007060 -0.004309 0.000000 -0.008263 0.000000
# 3 -0.001186 -0.004309 0.018897 0.000000 0.016751 0.000000
# 4 0.000000 0.000000 0.000000 0.007535 0.000000 0.012661
# 5 0.002774 -0.008263 0.016751 0.000000 0.039689 0.000000
# 6 0.000000 0.000000 0.000000 0.012661 0.000000 0.054115
#
#
# Mechanical properties :
#
#
# Convention : Reuss Voigt Hill
#
# Bulk Modulus (GPa) = 47.61739 82.63363 65.12551
# Shear Modulus (GPa) = 28.76592 79.60151 54.18372
#
# Velocity S-wave (km/s) = 3.36882 5.60401 4.62352
# Velocity P-wave (km/s) = 5.82394 8.62986 7.36182
#
# Compressibility (1/GPa) = 0.02100073
#
# Stress axis : x y z
#
# Youngs Moduli (GPa) = 57.86292 141.63782 52.91824
#
# Poissons Ratio (x) = 0.79667 0.06274
# Poissons Ratio (y) = 0.32546 0.22804
# Poissons Ratio (z) = 0.06860 0.61035
#
# Static dielectric constant tensor:
#      x y z
#    x 2.147770 0.000000 0.055130 
#    y 0.000000 1.998570 0.000000 
#    z 0.055130 0.000000 2.012210 
# 
# From -- ./inp_files/3395.got.cif
#   From: 2010.05.17/outbox.cif.g08.bks.cpg/sg10_2_cif.got.tgz:3395.got - 2010.06.03 11:33:40.
