data_PCOD9153171
_publ_section_title
;
Structure prediction by ZEFSAII (Michael W. Deem and Ramdas Pophale) SiO2 
 PCOD9153171
Probable space group: P 2/M
;
_chemical_formula_sum "Si O2"
_cell_formula_units_Z 26
_cell_length_a 26.426248
_cell_length_b 8.018886
_cell_length_c 5.186141
_cell_angle_alpha 90.000000
_cell_angle_beta 81.247210
_cell_angle_gamma 90.000000
_cell_volume 1086.191587
_symmetry_space_group_name_H-M "P 2/M"
_symmetry_group_IT_number 10
_symmetry_cell_setting 'monoclinic'
loop_
_space_group_symop_operation_xyz
x,y,z
-x,y,-z
-x,-y,-z
x,-y,z
loop_
_atom_site_type_symbol
_atom_site_label
_atom_site_fract_x
_atom_site_fract_y
_atom_site_fract_z
Si Si1 0.317784 0.802503 0.850281
Si Si2 0.535598 0.500000 0.722235
Si Si3 0.383838 0.798806 0.311234
Si Si4 0.107872 0.823079 0.304763
Si Si5 0.966693 0.700413 0.266027
Si Si6 0.200543 0.500000 0.566497
Si Si7 0.770584 0.811472 0.719500
Si Si8 0.129654 0.500000 0.110062
O O1 0.358548 0.776801 0.049903
O O2 0.264320 0.746264 0.019074
O O3 0.310597 0.000000 0.822812
O O4 0.342878 0.746949 0.563886
O O5 0.500000 0.500000 0.500000
O O6 0.569882 0.668652 0.698426
O O7 0.500000 0.500000 0.000000
O O8 0.395502 0.000000 0.332986
O O9 0.086286 0.788611 0.607404
O O10 0.169764 0.828159 0.253870
O O11 0.088673 0.000000 0.226722
O O12 0.095506 0.663740 0.141907
O O13 0.958683 0.500000 0.255525
O O14 0.000000 0.730714 0.500000
O O15 0.000000 0.760611 0.000000
O O16 0.231232 0.670584 0.497420
O O17 0.169524 0.500000 0.851695
O O18 0.159617 0.500000 0.360332
O O19 0.753415 0.000000 0.657865
#
# Coordination Sequence:
#
# PCOD9153171 Si02
#       8
#     4   2   4   4   4   2   4   2
#     4   9  19  38  63  90 126 169 210 251 304 373
#     4  12  26  42  66  98 128 165 214 271 316 362
#     4  10  22  41  64  91 128 171 210 257 311 369
#     4  10  21  40  65  91 124 160 199 257 312 365
#     4  10  22  41  64  87 116 157 199 250 313 373
#     4  10  22  36  57  81 118 160 194 242 294 348
#     4   9  20  38  61  93 126 162 207 253 306 366
#     4  10  22  40  55  83 116 147 194 237 292 366
#
# _framework density 23.936845999999999
#
# number of rings (size 3 to 8) (size 9 to 14) (size 15 to 20)
#    0.000    2.154    0.769    0.923    0.000    8.000 
#    0.000    7.692    0.000    0.000    0.000    0.000 
#    0.000    0.000    0.000    0.000    0.000    0.000 
#
# Total GULP energy -145353.930800 kJ/mol
# GULP energy per Si atom -5590.535800 kJ/mol
# Density = 2.388236 g / cm^3
# Si number density = 23.936846 Si / 1000 Ang^3
#
#
#
# Elastic Constant Matrix: (Units=GPa)
#
#
# Indices 1 2 3 4 5 6 
#
# 1 105.0078 20.5444 41.9499 0.0000 -15.2481 0.0000
# 2 20.5444 156.3086 43.8661 0.0000 -13.6866 0.0000
# 3 41.9499 43.8661 161.1254 0.0000 -18.4571 0.0000
# 4 0.0000 0.0000 0.0000 9.8033 0.0000 0.8365
# 5 -15.2481 -13.6866 -18.4571 0.0000 45.2196 0.0000
# 6 0.0000 0.0000 0.0000 0.8365 0.0000 10.0328
#
#
#
# Elastic Compliance Matrix: (Units=1/GPa)
#
#
# Indices 1 2 3 4 5 6 
#
# 1 0.010964 -0.000540 -0.002416 0.000000 0.002548 0.000000
# 2 -0.000540 0.007038 -0.001628 0.000000 0.001283 0.000000
# 3 -0.002416 -0.001628 0.007479 0.000000 0.001745 0.000000
# 4 0.000000 0.000000 0.000000 0.102737 0.000000 -0.008566
# 5 0.002548 0.001283 0.001745 0.000000 0.024074 0.000000
# 6 0.000000 0.000000 0.000000 -0.008566 0.000000 0.100387
#
#
# Mechanical properties :
#
#
# Convention : Reuss Voigt Hill
#
# Bulk Modulus (GPa) = 61.30468 70.57362 65.93915
# Shear Modulus (GPa) = 18.70670 34.08325 26.39497
#
# Velocity S-wave (km/s) = 2.79857 3.77753 3.32428
# Velocity P-wave (km/s) = 6.00910 6.96947 6.50703
#
# Compressibility (1/GPa) = 0.01631197
#
# Stress axis : x y z
#
# Youngs Moduli (GPa) = 91.21006 142.08659 133.71659
#
# Poissons Ratio (x) = 0.07673 0.32301
# Poissons Ratio (y) = 0.04926 0.21775
# Poissons Ratio (z) = 0.22033 0.23138
#
# Static dielectric constant tensor:
#      x y z
#    x 1.998580 0.000000 0.035780 
#    y 0.000000 2.045840 0.000000 
#    z 0.035780 0.000000 1.932800 
# 
# From -- ./inp_files/13542.got.cif
#   From: 2010.05.17/outbox.cif.g08.bks.cpg/sg10_7_cif.got.tgz:13542.got - 2010.06.03 11:33:40.
