data_PCOD9153567
_publ_section_title
;
Structure prediction by ZEFSAII (Michael W. Deem and Ramdas Pophale) SiO2 
 PCOD9153567
Probable space group: P 2/M
;
_chemical_formula_sum "Si O2"
_cell_formula_units_Z 32
_cell_length_a 14.334547
_cell_length_b 9.869916
_cell_length_c 21.692201
_cell_angle_alpha 90.000000
_cell_angle_beta 149.394521
_cell_angle_gamma 90.000000
_cell_volume 1562.515677
_symmetry_space_group_name_H-M "P 2/M"
_symmetry_group_IT_number 10
_symmetry_cell_setting 'monoclinic'
loop_
_space_group_symop_operation_xyz
x,y,z
-x,y,-z
-x,-y,-z
x,-y,z
loop_
_atom_site_type_symbol
_atom_site_label
_atom_site_fract_x
_atom_site_fract_y
_atom_site_fract_z
Si Si1 0.974421 0.848044 0.912958
Si Si2 0.991412 0.348397 0.394212
Si Si3 0.049707 0.256260 0.289863
Si Si4 0.725229 0.844613 0.020326
Si Si5 0.574185 0.659136 0.202280
Si Si6 0.274395 0.347728 0.303576
Si Si7 0.418135 0.854876 0.542340
Si Si8 0.690779 0.841787 0.379349
O O1 0.839945 0.734551 0.811845
O O2 0.159301 0.837188 0.977911
O O3 0.901881 0.000000 0.858936
O O4 0.000000 0.835709 0.000000
O O5 0.057586 0.500000 0.449231
O O6 0.781016 0.336146 0.294070
O O7 0.005411 0.331201 0.328374
O O8 0.117005 0.235121 0.498032
O O9 0.149745 0.343407 0.293938
O O10 0.210533 0.152430 0.400035
O O11 0.871160 0.190724 0.157010
O O12 0.659584 0.000000 0.990168
O O13 0.565445 0.734311 0.923319
O O14 0.526990 0.500000 0.185446
O O15 0.582112 0.751300 0.268293
O O16 0.312042 0.500000 0.306806
O O17 0.462039 0.266046 0.415179
O O18 0.408439 0.842360 0.610770
O O19 0.499342 0.000000 0.571819
O O20 0.712336 0.000000 0.372623
#
# Coordination Sequence:
#
# PCOD9153567 Si02
#       8
#     4   4   4   4   4   4   4   4
#     4   9  20  39  61  83 114 159 202 242 291 351
#     4  10  22  41  64  88 119 161 201 245 303 362
#     4  10  22  41  63  86 118 160 204 252 296 352
#     4  10  22  40  62  88 120 158 202 251 298 349
#     4  11  24  40  61  90 123 159 200 246 302 364
#     4  11  23  36  57  91 123 155 196 246 298 349
#     4  10  22  39  62  89 120 159 200 243 297 360
#     4  10  22  40  63  91 122 156 198 250 303 355
#
# _framework density 20.479793999999998
#
# number of rings (size 3 to 8) (size 9 to 14) (size 15 to 20)
#    0.000    1.875    0.000    2.625    1.750   11.750 
#    0.000    1.875    0.000    0.000    0.000    0.000 
#    0.000    0.000    0.000    0.000    0.000    0.000 
#
# Total GULP energy -178728.059350 kJ/mol
# GULP energy per Si atom -5585.251855 kJ/mol
# Density = 2.043318 g / cm^3
# Si number density = 20.479794 Si / 1000 Ang^3
#
#
#
# Elastic Constant Matrix: (Units=GPa)
#
#
# Indices 1 2 3 4 5 6 
#
# 1 47.6269 31.9226 18.6104 0.0000 -10.8126 0.0000
# 2 31.9226 195.5480 67.2619 0.0000 1.7356 0.0000
# 3 18.6104 67.2619 94.3971 0.0000 -5.6471 0.0000
# 4 0.0000 0.0000 0.0000 -75.6486 0.0000 7.0210
# 5 -10.8126 1.7356 -5.6471 0.0000 18.7857 0.0000
# 6 0.0000 0.0000 0.0000 7.0210 0.0000 -16.6317
#
#
#
# Elastic Compliance Matrix: (Units=1/GPa)
#
#
# Indices 1 2 3 4 5 6 
#
# 1 0.028065 -0.004174 -0.001598 0.000000 0.016059 0.000000
# 2 -0.004174 0.007479 -0.004777 0.000000 -0.004530 0.000000
# 3 -0.001598 -0.004777 0.014545 0.000000 0.003894 0.000000
# 4 0.000000 0.000000 0.000000 -0.013758 0.000000 -0.005808
# 5 0.016059 -0.004530 0.003894 0.000000 0.064064 0.000000
# 6 0.000000 0.000000 0.000000 -0.005808 0.000000 -0.062578
#
#
# Mechanical properties :
#
#
# Convention : Reuss Voigt Hill
#
# Bulk Modulus (GPa) = 34.49431 63.68466 49.08949
# Shear Modulus (GPa) = 72.91010 -0.04713 36.43149
#
# Velocity S-wave (km/s) = 5.97313 -0.15186 4.22228
# Velocity P-wave (km/s) = 8.02812 5.57970 6.91317
#
# Compressibility (1/GPa) = 0.02899029
#
# Stress axis : x y z
#
# Youngs Moduli (GPa) = 35.63210 133.71604 68.75142
#
# Poissons Ratio (x) = 0.55818 0.10985
# Poissons Ratio (y) = 0.14874 0.32841
# Poissons Ratio (z) = 0.05693 0.63873
#
# Static dielectric constant tensor:
#      x y z
#    x 1.729870 0.000000 -0.004260 
#    y 0.000000 1.720510 0.000000 
#    z -0.004260 0.000000 1.735410 
# 
# From -- ./inp_files/89637.got.cif
#   From: 2010.05.17/outbox.cif.g08.bks.cpg/sg10_45_cif.got.tgz:89637.got - 2010.06.03 11:33:40.
