data_PCOD9153156
_publ_section_title
;
Structure prediction by ZEFSAII (Michael W. Deem and Ramdas Pophale) SiO2 
 PCOD9153156
Probable space group: P 2/M
;
_chemical_formula_sum "Si O2"
_cell_formula_units_Z 32
_cell_length_a 12.472808
_cell_length_b 8.643617
_cell_length_c 32.385063
_cell_angle_alpha 90.000000
_cell_angle_beta 151.687043
_cell_angle_gamma 90.000000
_cell_volume 1655.945363
_symmetry_space_group_name_H-M "P 2/M"
_symmetry_group_IT_number 10
_symmetry_cell_setting 'monoclinic'
loop_
_space_group_symop_operation_xyz
x,y,z
-x,y,-z
-x,-y,-z
x,-y,z
loop_
_atom_site_type_symbol
_atom_site_label
_atom_site_fract_x
_atom_site_fract_y
_atom_site_fract_z
Si Si1 0.797942 0.187732 0.485812
Si Si2 0.634884 0.316578 0.821290
Si Si3 0.691876 0.187316 0.357057
Si Si4 0.234633 0.686662 0.910559
Si Si5 0.450891 0.185218 0.843766
Si Si6 0.895125 0.184963 0.046183
Si Si7 0.038305 0.685362 0.755100
Si Si8 0.553488 0.187431 0.564804
O O1 0.695765 0.231671 0.406645
O O2 0.643158 0.241178 0.470777
O O3 0.060627 0.233604 0.576342
O O4 0.800123 0.000000 0.486943
O O5 0.631767 0.500000 0.824268
O O6 0.503271 0.263881 0.735592
O O7 0.510332 0.241550 0.818193
O O8 0.891154 0.257582 0.904386
O O9 0.672262 0.000000 0.347825
O O10 0.223133 0.500000 0.909988
O O11 0.118460 0.759241 0.911227
O O12 0.119777 0.734072 0.828576
O O13 0.500000 0.730555 0.000000
O O14 0.224119 0.256637 0.785509
O O15 0.431326 0.000000 0.837304
O O16 0.661818 0.230271 0.944584
O O17 0.915232 0.000000 0.051478
O O18 0.031657 0.500000 0.752163
O O19 0.794388 0.751990 0.661473
O O20 0.500000 0.236221 0.500000
O O21 0.558053 0.000000 0.567197
#
# Coordination Sequence:
#
# PCOD9153156 Si02
#       8
#     4   4   4   4   4   4   4   4
#     4   8  17  36  61  87 117 155 201 251 305 355
#     4  12  26  40  60  91 126 162 201 249 312 373
#     4   9  18  37  63  87 114 156 205 253 300 358
#     4  10  21  40  64  91 129 170 204 248 310 375
#     4  11  24  43  65  89 120 160 209 258 304 361
#     4  11  24  41  64  92 122 160 210 260 301 353
#     4  11  24  41  63  93 128 168 208 252 312 374
#     4  10  22  39  61  91 125 164 208 256 311 368
#
# _framework density 19.324307999999998
#
# number of rings (size 3 to 8) (size 9 to 14) (size 15 to 20)
#    0.000    1.750    1.250    3.375    3.500    4.500 
#    0.000    1.875    0.000    0.000    0.000    0.000 
#    0.000    0.000    0.000    0.000    0.000    0.000 
#
# Total GULP energy -178869.923472 kJ/mol
# GULP energy per Si atom -5589.685109 kJ/mol
# Density = 1.928033 g / cm^3
# Si number density = 19.324308 Si / 1000 Ang^3
#
#
#
# Elastic Constant Matrix: (Units=GPa)
#
#
# Indices 1 2 3 4 5 6 
#
# 1 104.3006 13.4194 23.3364 0.0000 3.1997 0.0000
# 2 13.4194 18.5262 15.1522 0.0000 -2.0553 0.0000
# 3 23.3364 15.1522 80.3042 0.0000 -1.0314 0.0000
# 4 0.0000 0.0000 0.0000 7.2884 0.0000 8.8447
# 5 3.1997 -2.0553 -1.0314 0.0000 20.3821 0.0000
# 6 0.0000 0.0000 0.0000 8.8447 0.0000 21.9836
#
#
#
# Elastic Compliance Matrix: (Units=1/GPa)
#
#
# Indices 1 2 3 4 5 6 
#
# 1 0.010954 -0.006599 -0.001970 0.000000 -0.002485 0.000000
# 2 -0.006599 0.068503 -0.010913 0.000000 0.007392 0.000000
# 3 -0.001970 -0.010913 0.015084 0.000000 -0.000028 0.000000
# 4 0.000000 0.000000 0.000000 0.268108 0.000000 -0.107869
# 5 -0.002485 0.007392 -0.000028 0.000000 0.050197 0.000000
# 6 0.000000 0.000000 0.000000 -0.107869 0.000000 0.088887
#
#
# Mechanical properties :
#
#
# Convention : Reuss Voigt Hill
#
# Bulk Modulus (GPa) = 17.99298 34.10522 26.04910
# Shear Modulus (GPa) = 8.94100 20.01236 14.47668
#
# Velocity S-wave (km/s) = 2.15334 3.22157 2.74002
# Velocity P-wave (km/s) = 3.93875 5.61473 4.84969
#
# Compressibility (1/GPa) = 0.05557724
#
# Stress axis : x y z
#
# Youngs Moduli (GPa) = 91.29374 14.59789 66.29592
#
# Poissons Ratio (x) = 0.09633 0.13060
# Poissons Ratio (y) = 0.60242 0.72349
# Poissons Ratio (z) = 0.17984 0.15931
#
# Static dielectric constant tensor:
#      x y z
#    x 1.655290 0.000000 -0.006540 
#    y 0.000000 1.647730 0.000000 
#    z -0.006540 0.000000 1.649350 
# 
# From -- ./inp_files/95059.got.cif
#   From: 2010.05.17/outbox.cif.g08.bks.cpg/sg10_48_cif.got.tgz:95059.got - 2010.06.03 11:33:40.
