data_PCOD9153426
_publ_section_title
;
Structure prediction by ZEFSAII (Michael W. Deem and Ramdas Pophale) SiO2 
 PCOD9153426
Probable space group: P 2/M
;
_chemical_formula_sum "Si O2"
_cell_formula_units_Z 24
_cell_length_a 24.685613
_cell_length_b 8.114262
_cell_length_c 5.269168
_cell_angle_alpha 90.000000
_cell_angle_beta 70.412826
_cell_angle_gamma 90.000000
_cell_volume 994.367644
_symmetry_space_group_name_H-M "P 2/M"
_symmetry_group_IT_number 10
_symmetry_cell_setting 'monoclinic'
loop_
_space_group_symop_operation_xyz
x,y,z
-x,y,-z
-x,-y,-z
x,-y,z
loop_
_atom_site_type_symbol
_atom_site_label
_atom_site_fract_x
_atom_site_fract_y
_atom_site_fract_z
Si Si1 0.232533 0.817004 0.920531
Si Si2 0.343810 0.500000 0.459414
Si Si3 0.631352 0.181344 0.380591
Si Si4 0.735338 0.500000 0.903716
Si Si5 0.065020 0.798312 0.339050
Si Si6 0.870067 0.801110 0.266036
Si Si7 0.467155 0.198451 0.806237
O O1 0.300007 0.831871 0.752363
O O2 0.194174 0.770555 0.737655
O O3 0.213359 0.000000 0.041485
O O4 0.229096 0.667718 0.121802
O O5 0.379368 0.332032 0.415476
O O6 0.301139 0.500000 0.292500
O O7 0.307293 0.500000 0.782076
O O8 0.599627 0.223957 0.166531
O O9 0.610381 0.000000 0.499551
O O10 0.106472 0.741720 0.502070
O O11 0.000000 0.747068 0.500000
O O12 0.065123 0.000000 0.333763
O O13 0.088826 0.744170 0.029206
O O14 0.874499 0.000000 0.271387
O O15 0.500000 0.254057 0.500000
O O16 0.471890 0.000000 0.812374
O O17 0.500000 0.265250 0.000000
#
# Coordination Sequence:
#
# PCOD9153426 Si02
#       7
#     4   2   4   2   4   4   4
#     4   9  19  36  58  85 114 145 184 229 280 333
#     4  10  22  38  56  83 112 142 189 230 266 336
#     4   9  19  37  60  83 113 151 184 227 285 331
#     4  10  22  38  56  81 115 150 182 224 276 332
#     4   9  16  27  44  69 103 140 176 217 265 314
#     4   9  17  28  45  72 103 134 175 222 262 316
#     4   9  18  33  53  78 107 141 184 227 268 324
#
# _framework density 24.135943000000001
#
# number of rings (size 3 to 8) (size 9 to 14) (size 15 to 20)
#    0.000    2.833    0.000    0.500    0.000    8.000 
#    0.000   10.833    0.000    0.000    0.000    3.500 
#    0.000    0.000    0.000    0.000    0.000    0.000 
#
# Total GULP energy -133969.455702 kJ/mol
# GULP energy per Si atom -5582.060654 kJ/mol
# Density = 2.408101 g / cm^3
# Si number density = 24.135943 Si / 1000 Ang^3
#
#
#
# Elastic Constant Matrix: (Units=GPa)
#
#
# Indices 1 2 3 4 5 6 
#
# 1 144.5090 8.6383 26.3895 0.0000 9.3558 0.0000
# 2 8.6383 128.9662 18.2851 0.0000 30.4304 0.0000
# 3 26.3895 18.2851 99.6014 0.0000 20.7965 0.0000
# 4 0.0000 0.0000 0.0000 -10.3556 0.0000 -16.5233
# 5 9.3558 30.4304 20.7965 0.0000 45.4798 0.0000
# 6 0.0000 0.0000 0.0000 -16.5233 0.0000 -38.5915
#
#
#
# Elastic Compliance Matrix: (Units=1/GPa)
#
#
# Indices 1 2 3 4 5 6 
#
# 1 0.007292 -0.000088 -0.001785 0.000000 -0.000625 0.000000
# 2 -0.000088 0.009227 -0.000426 0.000000 -0.005961 0.000000
# 3 -0.001785 -0.000426 0.011559 0.000000 -0.004633 0.000000
# 4 0.000000 0.000000 0.000000 -0.304788 0.000000 0.130498
# 5 -0.000625 -0.005961 -0.004633 0.000000 0.028223 0.000000
# 6 0.000000 0.000000 0.000000 0.130498 0.000000 -0.081786
#
#
# Mechanical properties :
#
#
# Convention : Reuss Voigt Hill
#
# Bulk Modulus (GPa) = 42.59192 53.30027 47.94610
# Shear Modulus (GPa) = -15.73075 20.62412 2.44669
#
# Velocity S-wave (km/s) = -2.55572 2.92635 1.00792
# Velocity P-wave (km/s) = 2.99600 5.79218 4.61115
#
# Compressibility (1/GPa) = 0.02347863
#
# Stress axis : x y z
#
# Youngs Moduli (GPa) = 137.14187 108.38094 86.51539
#
# Poissons Ratio (x) = 0.00952 0.15446
# Poissons Ratio (y) = 0.01205 0.03686
# Poissons Ratio (z) = 0.24485 0.04617
#
# Static dielectric constant tensor:
#      x y z
#    x 1.970280 0.000000 -0.079040 
#    y 0.000000 2.048170 0.000000 
#    z -0.079040 0.000000 1.972780 
# 
# From -- ./inp_files/13017.got.cif
#   From: 2010.05.17/outbox.cif.g08.bks.cpg/sg10_7_cif.got.tgz:13017.got - 2010.06.03 11:33:40.
