data_PCOD9153526
_publ_section_title
;
Structure prediction by ZEFSAII (Michael W. Deem and Ramdas Pophale) SiO2 
 PCOD9153526
Probable space group: P 2/M
;
_chemical_formula_sum "Si O2"
_cell_formula_units_Z 20
_cell_length_a 5.060556
_cell_length_b 18.444653
_cell_length_c 10.396147
_cell_angle_alpha 90.000000
_cell_angle_beta 67.565126
_cell_angle_gamma 90.000000
_cell_volume 896.934292
_symmetry_space_group_name_H-M "P 2/M"
_symmetry_group_IT_number 10
_symmetry_cell_setting 'monoclinic'
loop_
_space_group_symop_operation_xyz
x,y,z
-x,y,-z
-x,-y,-z
x,-y,z
loop_
_atom_site_type_symbol
_atom_site_label
_atom_site_fract_x
_atom_site_fract_y
_atom_site_fract_z
Si Si1 0.772192 0.677042 0.651195
Si Si2 0.178280 0.719832 0.786347
Si Si3 0.599467 0.582030 0.127984
Si Si4 0.320358 0.912585 0.409867
Si Si5 0.309196 0.865514 0.907331
O O1 0.912107 0.723176 0.741168
O O2 0.517443 0.714317 0.343087
O O3 0.000000 0.667420 0.500000
O O4 0.673791 0.601211 0.732310
O O5 0.184811 0.643440 0.861259
O O6 0.217346 0.786649 0.872664
O O7 0.699125 0.500000 0.126795
O O8 0.500000 0.592713 0.000000
O O9 0.500000 0.888670 0.500000
O O10 0.490754 0.894830 0.246503
O O11 0.000000 0.884201 0.500000
O O12 0.302237 0.000000 0.414654
O O13 0.500000 0.863281 0.000000
O O14 0.000000 0.902267 0.000000
#
# Coordination Sequence:
#
# PCOD9153526 Si02
#       5
#     4   4   4   4   4
#     4  10  22  39  59  84 115 157 207 263 319 388
#     4  10  23  38  61  86 125 159 205 266 325 379
#     4   9  21  39  61  86 116 162 208 262 326 389
#     4  10  23  45  70 100 141 182 218 265 324 390
#     4  12  25  41  68 101 133 176 223 277 329 382
#
# _framework density 22.298179999999999
#
# number of rings (size 3 to 8) (size 9 to 14) (size 15 to 20)
#    1.200    0.600    0.000    3.600    2.800    4.400 
#    0.000    3.000    0.000    0.000    0.000    0.000 
#    0.000    0.000    0.000    0.000    0.000    0.000 
#
# Total GULP energy -111548.894206 kJ/mol
# GULP energy per Si atom -5577.444710 kJ/mol
# Density = 2.224743 g / cm^3
# Si number density = 22.298180 Si / 1000 Ang^3
#
#
#
# Elastic Constant Matrix: (Units=GPa)
#
#
# Indices 1 2 3 4 5 6 
#
# 1 116.8011 20.8300 50.1319 0.0000 -10.6264 0.0000
# 2 20.8300 47.3573 20.7074 0.0000 2.5931 0.0000
# 3 50.1319 20.7074 169.6807 0.0000 -26.2564 0.0000
# 4 0.0000 0.0000 0.0000 10.5281 0.0000 -3.6339
# 5 -10.6264 2.5931 -26.2564 0.0000 55.0869 0.0000
# 6 0.0000 0.0000 0.0000 -3.6339 0.0000 10.3722
#
#
#
# Elastic Compliance Matrix: (Units=1/GPa)
#
#
# Indices 1 2 3 4 5 6 
#
# 1 0.010340 -0.003520 -0.002474 0.000000 0.000981 0.000000
# 2 -0.003520 0.023838 -0.002319 0.000000 -0.002906 0.000000
# 3 -0.002474 -0.002319 0.007396 0.000000 0.003157 0.000000
# 4 0.000000 0.000000 0.000000 0.108051 0.000000 0.037856
# 5 0.000981 -0.002906 0.003157 0.000000 0.019984 0.000000
# 6 0.000000 0.000000 0.000000 0.037856 0.000000 0.109675
#
#
# Mechanical properties :
#
#
# Convention : Reuss Voigt Hill
#
# Bulk Modulus (GPa) = 40.08281 57.46418 48.77349
# Shear Modulus (GPa) = 16.43524 31.34209 23.88867
#
# Velocity S-wave (km/s) = 2.71784 3.75319 3.27667
# Velocity P-wave (km/s) = 5.27861 6.67897 6.01965
#
# Compressibility (1/GPa) = 0.02494835
#
# Stress axis : x y z
#
# Youngs Moduli (GPa) = 96.70884 41.95069 135.21327
#
# Poissons Ratio (x) = 0.14768 0.33446
# Poissons Ratio (y) = 0.34045 0.31352
# Poissons Ratio (z) = 0.23921 0.09727
#
# Static dielectric constant tensor:
#      x y z
#    x 1.885730 0.000000 -0.090080 
#    y 0.000000 1.825680 0.000000 
#    z -0.090080 0.000000 1.835380 
# 
# From -- ./inp_files/15164.got.cif
#   From: 2010.05.17/outbox.cif.g08.bks.cpg/sg10_8_cif.got.tgz:15164.got - 2010.06.03 11:33:40.
