data_PCOD9153817
_publ_section_title
;
Structure prediction by ZEFSAII (Michael W. Deem and Ramdas Pophale) SiO2 
 PCOD9153817
Probable space group: P 2/M
;
_chemical_formula_sum "Si O2"
_cell_formula_units_Z 28
_cell_length_a 5.527124
_cell_length_b 15.271262
_cell_length_c 18.614998
_cell_angle_alpha 90.000000
_cell_angle_beta 54.410225
_cell_angle_gamma 90.000000
_cell_volume 1277.723771
_symmetry_space_group_name_H-M "P 2/M"
_symmetry_group_IT_number 10
_symmetry_cell_setting 'monoclinic'
loop_
_space_group_symop_operation_xyz
x,y,z
-x,y,-z
-x,-y,-z
x,-y,z
loop_
_atom_site_type_symbol
_atom_site_label
_atom_site_fract_x
_atom_site_fract_y
_atom_site_fract_z
Si Si1 0.142963 0.000000 0.553685
Si Si2 0.793112 0.901753 0.207322
Si Si3 0.865718 0.594858 0.943016
Si Si4 0.728585 0.756519 0.895824
Si Si5 0.364706 0.753862 0.241316
Si Si6 0.766786 0.841455 0.365574
Si Si7 0.336539 0.305476 0.409738
Si Si8 0.361175 0.500000 0.445448
O O1 0.500000 0.000000 0.500000
O O2 0.083979 0.093100 0.602646
O O3 0.000000 0.000000 0.500000
O O4 0.542061 0.845133 0.212232
O O5 0.706618 0.900838 0.306337
O O6 0.094400 0.846027 0.147385
O O7 0.817646 0.000000 0.176621
O O8 0.963435 0.500000 0.897214
O O9 0.953574 0.680548 0.883397
O O10 0.500000 0.594606 0.000000
O O11 0.000000 0.600869 0.000000
O O12 0.577947 0.719383 0.849124
O O13 0.500000 0.771660 0.000000
O O14 0.394077 0.711077 0.314723
O O15 0.014080 0.771936 0.300386
O O16 0.485641 0.778012 0.424313
O O17 0.456341 0.404249 0.400165
O O18 0.000000 0.306000 0.500000
O O19 0.500000 0.500000 0.500000
O O20 0.000000 0.500000 0.500000
#
# Coordination Sequence:
#
# PCOD9153817 Si02
#       8
#     2   4   4   4   4   4   4   2
#     4  12  30  40  64 106 135 174 235 286 354 424
#     4  10  22  42  67  93 131 182 232 286 348 416
#     4   9  19  37  67 100 132 173 217 271 345 416
#     4  10  23  41  68  97 136 175 229 295 352 418
#     4  10  24  41  66  95 134 183 230 278 350 407
#     4  10  24  43  64  95 139 180 228 289 343 415
#     4  10  24  44  73 102 139 186 235 290 348 419
#     4  10  24  44  72 106 141 187 235 290 350 413
#
# _framework density 21.913968000000001
#
# number of rings (size 3 to 8) (size 9 to 14) (size 15 to 20)
#    0.000    2.000    0.714    0.000   15.000    0.857 
#    1.286    0.714   12.571    0.000    0.000    0.000 
#    0.000    0.000    0.000    0.000    0.000    0.000 
#
# Total GULP energy -155916.173097 kJ/mol
# GULP energy per Si atom -5568.434753 kJ/mol
# Density = 2.186409 g / cm^3
# Si number density = 21.913968 Si / 1000 Ang^3
#
#
#
# Elastic Constant Matrix: (Units=GPa)
#
#
# Indices 1 2 3 4 5 6 
#
# 1 100.7133 28.3886 41.6594 0.0000 29.0895 0.0000
# 2 28.3886 170.8180 51.8520 0.0000 20.5828 0.0000
# 3 41.6594 51.8520 111.4217 0.0000 25.3317 0.0000
# 4 0.0000 0.0000 0.0000 18.1866 0.0000 5.9531
# 5 29.0895 20.5828 25.3317 0.0000 42.2040 0.0000
# 6 0.0000 0.0000 0.0000 5.9531 0.0000 22.0371
#
#
#
# Elastic Compliance Matrix: (Units=1/GPa)
#
#
# Indices 1 2 3 4 5 6 
#
# 1 0.013432 -0.000397 -0.003215 0.000000 -0.007135 0.000000
# 2 -0.000397 0.006929 -0.002745 0.000000 -0.001459 0.000000
# 3 -0.003215 -0.002745 0.012329 0.000000 -0.003845 0.000000
# 4 0.000000 0.000000 0.000000 0.060319 0.000000 -0.016295
# 5 -0.007135 -0.001459 -0.003845 0.000000 0.031631 0.000000
# 6 0.000000 0.000000 0.000000 -0.016295 0.000000 0.049780
#
#
# Mechanical properties :
#
#
# Convention : Reuss Voigt Hill
#
# Bulk Modulus (GPa) = 50.05993 69.63923 59.84958
# Shear Modulus (GPa) = 25.80091 33.88907 29.84499
#
# Velocity S-wave (km/s) = 3.43501 3.93677 3.69442
# Velocity P-wave (km/s) = 6.21497 7.24649 6.75046
#
# Compressibility (1/GPa) = 0.01997606
#
# Stress axis : x y z
#
# Youngs Moduli (GPa) = 74.45083 144.32144 81.11247
#
# Poissons Ratio (x) = 0.05723 0.26081
# Poissons Ratio (y) = 0.02952 0.22263
# Poissons Ratio (z) = 0.23939 0.39611
#
# Static dielectric constant tensor:
#      x y z
#    x 1.885360 0.000000 -0.007010 
#    y 0.000000 2.049630 0.000000 
#    z -0.007010 0.000000 1.914500 
# 
# From -- ./inp_files/73502.got.cif
#   From: 2010.05.17/outbox.cif.g08.bks.cpg/sg10_37_cif.got.tgz:73502.got - 2010.06.03 11:33:40.
