data_PCOD9153979
_publ_section_title
;
Structure prediction by ZEFSAII (Michael W. Deem and Ramdas Pophale) SiO2 
 PCOD9153979
Probable space group: P 2/M
;
_chemical_formula_sum "Si O2"
_cell_formula_units_Z 24
_cell_length_a 23.700280
_cell_length_b 7.922200
_cell_length_c 12.361275
_cell_angle_alpha 90.000000
_cell_angle_beta 27.810322
_cell_angle_gamma 90.000000
_cell_volume 1082.821850
_symmetry_space_group_name_H-M "P 2/M"
_symmetry_group_IT_number 10
_symmetry_cell_setting 'monoclinic'
loop_
_space_group_symop_operation_xyz
x,y,z
-x,y,-z
-x,-y,-z
x,-y,z
loop_
_atom_site_type_symbol
_atom_site_label
_atom_site_fract_x
_atom_site_fract_y
_atom_site_fract_z
Si Si1 0.729558 0.803252 0.207234
Si Si2 0.498610 0.691355 0.315336
Si Si3 0.953276 0.204861 0.959703
Si Si4 0.776920 0.700380 0.899283
Si Si5 0.561908 0.000000 0.732046
Si Si6 0.307605 0.000000 0.282946
Si Si7 0.152367 0.695714 0.454265
O O1 0.603781 0.701913 0.417987
O O2 0.801211 0.782995 0.973256
O O3 0.700184 0.000000 0.268037
O O4 0.816189 0.750448 0.159242
O O5 0.503041 0.500000 0.266543
O O6 0.635871 0.740600 0.111414
O O7 0.447529 0.828927 0.319515
O O8 0.034875 0.285809 0.727564
O O9 0.963739 0.000000 0.934044
O O10 0.000000 0.253445 0.000000
O O11 0.786866 0.500000 0.898727
O O12 0.855302 0.742389 0.660206
O O13 0.677884 0.000000 0.612616
O O14 0.439271 0.000000 0.008495
O O15 0.242385 0.168427 0.353443
O O16 0.194202 0.500000 0.386368
#
# Coordination Sequence:
#
# PCOD9153979 Si02
#       7
#     4   4   4   4   2   2   4
#     4  11  24  38  65 100 129 176 224 267 330 391
#     4  11  23  41  65  97 135 173 218 270 326 392
#     4  10  24  45  67  94 131 171 220 275 325 389
#     4  10  23  42  63  95 133 169 217 273 328 391
#     4  11  24  40  65  98 135 180 215 263 339 386
#     4  11  24  42  65  97 138 172 218 278 321 383
#     4  11  24  43  70  96 128 176 220 267 330 387
#
# _framework density 22.164311000000001
#
# number of rings (size 3 to 8) (size 9 to 14) (size 15 to 20)
#    0.000    1.333    3.333    1.000    4.667    5.000 
#    0.000    5.000    0.000    0.000    0.000    0.000 
#    0.000    0.000    0.000    0.000    0.000    0.000 
#
# Total GULP energy -134074.609878 kJ/mol
# GULP energy per Si atom -5586.442078 kJ/mol
# Density = 2.211386 g / cm^3
# Si number density = 22.164311 Si / 1000 Ang^3
#
#
#
# Elastic Constant Matrix: (Units=GPa)
#
#
# Indices 1 2 3 4 5 6 
#
# 1 102.5541 40.2869 19.2186 0.0000 12.1902 0.0000
# 2 40.2869 69.2890 8.9616 0.0000 -3.3019 0.0000
# 3 19.2186 8.9616 97.4893 0.0000 11.3471 0.0000
# 4 0.0000 0.0000 0.0000 -5.9977 0.0000 133.1894
# 5 12.1902 -3.3019 11.3471 0.0000 23.6008 0.0000
# 6 0.0000 0.0000 0.0000 133.1894 0.0000 -463.7894
#
#
#
# Elastic Compliance Matrix: (Units=1/GPa)
#
#
# Indices 1 2 3 4 5 6 
#
# 1 0.014264 -0.008535 -0.001092 0.000000 -0.008037 0.000000
# 2 -0.008535 0.019896 -0.001042 0.000000 0.007693 0.000000
# 3 -0.001092 -0.001042 0.011143 0.000000 -0.004939 0.000000
# 4 0.000000 0.000000 0.000000 0.031007 0.000000 0.008904
# 5 -0.008037 0.007693 -0.004939 0.000000 0.049974 0.000000
# 6 0.000000 0.000000 0.000000 0.008904 0.000000 0.000401
#
#
# Mechanical properties :
#
#
# Convention : Reuss Voigt Hill
#
# Bulk Modulus (GPa) = 41.72612 45.14075 43.43344
# Shear Modulus (GPa) = 32.04902 -75.84622 -21.89860
#
# Velocity S-wave (km/s) = 3.80672 -5.85613 -3.14668
# Velocity P-wave (km/s) = 6.17966 5.03141 2.53704
#
# Compressibility (1/GPa) = 0.02396580
#
# Stress axis : x y z
#
# Youngs Moduli (GPa) = 70.10770 50.26064 89.73861
#
# Poissons Ratio (x) = 0.42898 0.09799
# Poissons Ratio (y) = 0.59838 0.09349
# Poissons Ratio (z) = 0.07655 0.05236
#
# Static dielectric constant tensor:
#      x y z
#    x 1.829800 0.000000 0.026710 
#    y 0.000000 1.775710 0.000000 
#    z 0.026710 0.000000 1.914350 
# 
# From -- ./inp_files/56574.got.cif
#   From: 2010.05.17/outbox.cif.g08.bks.cpg/sg10_29_cif.got.tgz:56574.got - 2010.06.03 11:33:40.
