data_PCOD9153466
_publ_section_title
;
Structure prediction by ZEFSAII (Michael W. Deem and Ramdas Pophale) SiO2 
 PCOD9153466
Probable space group: P 2/M
;
_chemical_formula_sum "Si O2"
_cell_formula_units_Z 28
_cell_length_a 10.375588
_cell_length_b 13.132367
_cell_length_c 14.151918
_cell_angle_alpha 90.000000
_cell_angle_beta 122.766734
_cell_angle_gamma 90.000000
_cell_volume 1621.457467
_symmetry_space_group_name_H-M "P 2/M"
_symmetry_group_IT_number 10
_symmetry_cell_setting 'monoclinic'
loop_
_space_group_symop_operation_xyz
x,y,z
-x,y,-z
-x,-y,-z
x,-y,z
loop_
_atom_site_type_symbol
_atom_site_label
_atom_site_fract_x
_atom_site_fract_y
_atom_site_fract_z
Si Si1 0.601198 0.119979 0.135634
Si Si2 0.895633 0.750846 0.203992
Si Si3 0.437452 0.617696 0.581320
Si Si4 0.598464 0.238657 0.796879
Si Si5 0.094813 0.119785 0.135588
Si Si6 0.072941 0.617773 0.425687
Si Si7 0.345348 0.380459 0.001920
O O1 0.761247 0.178238 0.191775
O O2 0.510564 0.160546 0.190375
O O3 0.625756 0.000000 0.150642
O O4 0.500000 0.138645 0.000000
O O5 0.998404 0.819382 0.175610
O O6 0.997027 0.695596 0.322926
O O7 0.800792 0.664607 0.110207
O O8 0.500000 0.628782 0.500000
O O9 0.467875 0.500000 0.623932
O O10 0.515253 0.698331 0.681667
O O11 0.254870 0.631946 0.506161
O O12 0.745033 0.177278 0.817542
O O13 0.641954 0.319577 0.895553
O O14 0.115083 0.000000 0.167516
O O15 0.000000 0.123839 0.000000
O O16 0.044962 0.500000 0.384528
O O17 0.000000 0.630478 0.500000
O O18 0.329621 0.500000 0.012312
O O19 0.500000 0.366053 0.000000
#
# Coordination Sequence:
#
# PCOD9153466 Si02
#       7
#     4   4   4   4   4   4   4
#     4  11  21  36  59  87 118 151 198 238 286 358
#     4  12  20  39  59  87 120 153 191 241 300 342
#     4  10  22  40  60  83 112 155 200 234 276 343
#     4  12  20  39  61  87 116 153 195 241 293 342
#     4  11  23  38  59  87 122 155 194 240 292 355
#     4  10  22  38  60  87 114 153 198 236 282 347
#     4  11  22  35  56  92 124 151 182 237 305 357
#
# _framework density 17.268415000000001
#
# number of rings (size 3 to 8) (size 9 to 14) (size 15 to 20)
#    0.000    1.000    4.286    3.429    0.000    2.286 
#    0.000    2.857    0.000   17.143    0.000    0.000 
#    0.000    0.000    0.000    0.000    0.000    0.000 
#
# Total GULP energy -156436.571813 kJ/mol
# GULP energy per Si atom -5587.020422 kJ/mol
# Density = 1.722911 g / cm^3
# Si number density = 17.268415 Si / 1000 Ang^3
#
#
#
# Elastic Constant Matrix: (Units=GPa)
#
#
# Indices 1 2 3 4 5 6 
#
# 1 136.0153 35.9586 29.9458 0.0000 13.4973 0.0000
# 2 35.9586 111.9619 45.0976 0.0000 16.5059 0.0000
# 3 29.9458 45.0976 83.8467 0.0000 11.2713 0.0000
# 4 0.0000 0.0000 0.0000 35.1016 0.0000 -5.1181
# 5 13.4973 16.5059 11.2713 0.0000 13.1951 0.0000
# 6 0.0000 0.0000 0.0000 -5.1181 0.0000 -1.0202
#
#
#
# Elastic Compliance Matrix: (Units=1/GPa)
#
#
# Indices 1 2 3 4 5 6 
#
# 1 0.008622 -0.001252 -0.001616 0.000000 -0.005872 0.000000
# 2 -0.001252 0.012942 -0.005095 0.000000 -0.010557 0.000000
# 3 -0.001616 -0.005095 0.016003 0.000000 -0.005643 0.000000
# 4 0.000000 0.000000 0.000000 0.016453 0.000000 -0.082543
# 5 -0.005872 -0.010557 -0.005643 0.000000 0.099818 0.000000
# 6 0.000000 0.000000 0.000000 -0.082543 0.000000 -0.566102
#
#
# Mechanical properties :
#
#
# Convention : Reuss Voigt Hill
#
# Bulk Modulus (GPa) = 46.21090 61.53643 53.87367
# Shear Modulus (GPa) = -12.84936 24.17676 5.66370
#
# Velocity S-wave (km/s) = -2.73077 3.74579 1.81299
# Velocity P-wave (km/s) = 4.10800 7.37703 5.97060
#
# Compressibility (1/GPa) = 0.02163992
#
# Stress axis : x y z
#
# Youngs Moduli (GPa) = 115.98578 77.26635 62.48969
#
# Poissons Ratio (x) = 0.09676 0.10100
# Poissons Ratio (y) = 0.14525 0.31837
# Poissons Ratio (z) = 0.18747 0.39365
#
# Static dielectric constant tensor:
#      x y z
#    x 1.571440 0.000000 0.007860 
#    y 0.000000 1.573360 0.000000 
#    z 0.007860 0.000000 1.545990 
# 
# From -- ./inp_files/43030.got.cif
#   From: 2010.05.17/outbox.cif.g08.bks.cpg/sg10_22_cif.got.tgz:43030.got - 2010.06.03 11:33:40.
