data_PCOD9153877
_publ_section_title
;
Structure prediction by ZEFSAII (Michael W. Deem and Ramdas Pophale) SiO2 
 PCOD9153877
Probable space group: P 2/M
;
_chemical_formula_sum "Si O2"
_cell_formula_units_Z 20
_cell_length_a 10.417723
_cell_length_b 11.673427
_cell_length_c 14.338886
_cell_angle_alpha 90.000000
_cell_angle_beta 30.347760
_cell_angle_gamma 90.000000
_cell_volume 881.029520
_symmetry_space_group_name_H-M "P 2/M"
_symmetry_group_IT_number 10
_symmetry_cell_setting 'monoclinic'
loop_
_space_group_symop_operation_xyz
x,y,z
-x,y,-z
-x,-y,-z
x,-y,z
loop_
_atom_site_type_symbol
_atom_site_label
_atom_site_fract_x
_atom_site_fract_y
_atom_site_fract_z
Si Si1 0.506624 0.750111 0.108011
Si Si2 0.232606 0.500000 0.722583
Si Si3 0.754028 0.749544 0.212885
Si Si4 0.268984 0.862861 0.418994
Si Si5 0.021151 0.867363 0.762107
Si Si6 0.661396 0.500000 0.999267
O O1 0.574442 0.620832 0.097457
O O2 0.743443 0.835349 0.972450
O O3 0.500000 0.744841 0.000000
O O4 0.280518 0.800004 0.312199
O O5 0.500000 0.500000 0.500000
O O6 0.241275 0.612924 0.780806
O O7 0.973823 0.500000 0.818351
O O8 0.514389 0.808983 0.316397
O O9 0.789253 0.792866 0.296009
O O10 0.000000 0.785836 0.000000
O O11 0.053929 0.842938 0.632058
O O12 0.284653 0.000000 0.394823
O O13 0.076800 0.000000 0.741901
O O14 0.500000 0.500000 0.000000
#
# Coordination Sequence:
#
# PCOD9153877 Si02
#       6
#     4   2   4   4   4   2
#     4  11  24  44  68  92 129 176 230 280 335 403
#     4  12  23  39  68 104 137 176 229 291 342 398
#     4  12  23  39  64  97 134 174 219 277 343 410
#     4  11  24  41  64  97 135 176 218 275 346 408
#     4  11  23  40  64  94 132 171 218 272 336 405
#     4  10  22  45  70  96 135 184 225 276 343 411
#
# _framework density 22.700714000000001
#
# number of rings (size 3 to 8) (size 9 to 14) (size 15 to 20)
#    0.000    0.800    4.000    3.300    0.000    5.600 
#    0.000    4.000    0.000    3.600    0.000    0.000 
#    0.000    0.000    0.000    0.000    0.000    0.000 
#
# Total GULP energy -111644.697484 kJ/mol
# GULP energy per Si atom -5582.234874 kJ/mol
# Density = 2.264905 g / cm^3
# Si number density = 22.700714 Si / 1000 Ang^3
#
#
#
# Elastic Constant Matrix: (Units=GPa)
#
#
# Indices 1 2 3 4 5 6 
#
# 1 98.0039 35.0203 12.1122 0.0000 14.9760 0.0000
# 2 35.0203 118.5879 44.7062 0.0000 26.6172 0.0000
# 3 12.1122 44.7062 127.1029 0.0000 15.9206 0.0000
# 4 0.0000 0.0000 0.0000 72.4779 0.0000 22.4941
# 5 14.9760 26.6172 15.9206 0.0000 35.5133 0.0000
# 6 0.0000 0.0000 0.0000 22.4941 0.0000 4.3219
#
#
#
# Elastic Compliance Matrix: (Units=1/GPa)
#
#
# Indices 1 2 3 4 5 6 
#
# 1 0.011643 -0.002898 0.000268 0.000000 -0.002858 0.000000
# 2 -0.002898 0.011871 -0.003113 0.000000 -0.006280 0.000000
# 3 0.000268 -0.003113 0.009174 0.000000 -0.001893 0.000000
# 4 0.000000 0.000000 0.000000 -0.022423 0.000000 0.116706
# 5 -0.002858 -0.006280 -0.001893 0.000000 0.034919 0.000000
# 6 0.000000 0.000000 0.000000 0.116706 0.000000 -0.376036
#
#
# Mechanical properties :
#
#
# Convention : Reuss Voigt Hill
#
# Bulk Modulus (GPa) = 47.16391 58.59691 52.88041
# Shear Modulus (GPa) = -16.01028 39.25301 11.62137
#
# Velocity S-wave (km/s) = -2.65859 4.16282 2.26506
# Velocity P-wave (km/s) = 3.37600 6.99816 5.49416
#
# Compressibility (1/GPa) = 0.02120265
#
# Stress axis : x y z
#
# Youngs Moduli (GPa) = 85.89033 84.23642 109.00302
#
# Poissons Ratio (x) = 0.24409 -0.02918
# Poissons Ratio (y) = 0.24888 0.33930
# Poissons Ratio (z) = -0.02299 0.26221
#
# Static dielectric constant tensor:
#      x y z
#    x 1.968130 0.000000 0.016930 
#    y 0.000000 1.787030 0.000000 
#    z 0.016930 0.000000 1.827740 
# 
# From -- ./inp_files/46866.got.cif
#   From: 2010.05.17/outbox.cif.g08.bks.cpg/sg10_24_cif.got.tgz:46866.got - 2010.06.03 11:33:40.
