data_PCOD9153373
_publ_section_title
;
Structure prediction by ZEFSAII (Michael W. Deem and Ramdas Pophale) SiO2 
 PCOD9153373
Probable space group: P 2/M
;
_chemical_formula_sum "Si O2"
_cell_formula_units_Z 28
_cell_length_a 26.711931
_cell_length_b 8.981759
_cell_length_c 8.131000
_cell_angle_alpha 90.000000
_cell_angle_beta 140.973557
_cell_angle_gamma 90.000000
_cell_volume 1228.371824
_symmetry_space_group_name_H-M "P 2/M"
_symmetry_group_IT_number 10
_symmetry_cell_setting 'monoclinic'
loop_
_space_group_symop_operation_xyz
x,y,z
-x,y,-z
-x,-y,-z
x,-y,z
loop_
_atom_site_type_symbol
_atom_site_label
_atom_site_fract_x
_atom_site_fract_y
_atom_site_fract_z
Si Si1 0.028417 0.174506 0.808460
Si Si2 0.164576 0.322638 0.976541
Si Si3 0.684218 0.323069 0.438406
Si Si4 0.875114 0.176493 0.604008
Si Si5 0.459083 0.330060 0.713114
Si Si6 0.736413 0.322622 0.085895
Si Si7 0.600033 0.175086 0.914241
O O1 0.080088 0.251641 0.800427
O O2 0.941075 0.228615 0.638353
O O3 0.021361 0.000000 0.753933
O O4 0.080720 0.188919 0.108987
O O5 0.155194 0.500000 0.935837
O O6 0.213855 0.267637 0.944766
O O7 0.225424 0.294713 0.282424
O O8 0.674206 0.500000 0.372020
O O9 0.631286 0.296680 0.468005
O O10 0.648018 0.224592 0.201651
O O11 0.795918 0.272135 0.383490
O O12 0.857844 0.000000 0.534551
O O13 0.464714 0.500000 0.668675
O O14 0.500000 0.324194 0.000000
O O15 0.510625 0.229021 0.724208
O O16 0.728883 0.500000 0.059093
O O17 0.649999 0.254604 0.898542
O O18 0.602051 0.000000 0.896730
#
# Coordination Sequence:
#
# PCOD9153373 Si02
#       7
#     4   4   4   4   4   4   4
#     4   9  19  36  58  81 106 135 169 212 260 309
#     4  10  22  37  53  76 106 139 177 216 255 304
#     4   9  18  35  57  79 104 136 174 216 260 306
#     4   9  19  37  58  81 106 134 171 212 257 310
#     4   8  15  30  53  78 103 133 171 214 259 306
#     4  11  23  37  52  74 106 142 177 214 257 306
#     4  11  21  33  53  80 107 136 172 215 262 311
#
# _framework density 22.794402000000002
#
# number of rings (size 3 to 8) (size 9 to 14) (size 15 to 20)
#    0.000    2.429    0.000    4.286    0.000    8.286 
#    0.000    5.000    0.000    4.286    0.000    0.000 
#    0.000    0.000    0.000    0.000    0.000    0.000 
#
# Total GULP energy -156514.246618 kJ/mol
# GULP energy per Si atom -5589.794522 kJ/mol
# Density = 2.274252 g / cm^3
# Si number density = 22.794402 Si / 1000 Ang^3
#
#
#
# Elastic Constant Matrix: (Units=GPa)
#
#
# Indices 1 2 3 4 5 6 
#
# 1 151.3922 52.1728 17.0554 0.0000 24.0487 0.0000
# 2 52.1728 59.3023 10.4096 0.0000 18.3886 0.0000
# 3 17.0554 10.4096 57.5482 0.0000 19.5571 0.0000
# 4 0.0000 0.0000 0.0000 25.3309 0.0000 6.9579
# 5 24.0487 18.3886 19.5571 0.0000 48.1962 0.0000
# 6 0.0000 0.0000 0.0000 6.9579 0.0000 20.9838
#
#
#
# Elastic Compliance Matrix: (Units=1/GPa)
#
#
# Indices 1 2 3 4 5 6 
#
# 1 0.009657 -0.007888 -0.000952 0.000000 -0.001423 0.000000
# 2 -0.007888 0.025632 -0.000363 0.000000 -0.005697 0.000000
# 3 -0.000952 -0.000363 0.020318 0.000000 -0.007631 0.000000
# 4 0.000000 0.000000 0.000000 0.043433 0.000000 -0.014402
# 5 -0.001423 -0.005697 -0.007631 0.000000 0.026729 0.000000
# 6 0.000000 0.000000 0.000000 -0.014402 0.000000 0.052431
#
#
# Mechanical properties :
#
#
# Convention : Reuss Voigt Hill
#
# Bulk Modulus (GPa) = 26.87988 47.50204 37.19096
# Shear Modulus (GPa) = 23.92284 31.47583 27.69934
#
# Velocity S-wave (km/s) = 3.24312 3.72002 3.48973
# Velocity P-wave (km/s) = 5.08347 6.27184 5.70866
#
# Compressibility (1/GPa) = 0.03720255
#
# Stress axis : x y z
#
# Youngs Moduli (GPa) = 103.55372 39.01342 49.21787
#
# Poissons Ratio (x) = 0.30772 0.04684
# Poissons Ratio (y) = 0.81679 0.01786
# Poissons Ratio (z) = 0.09855 0.01416
#
# Static dielectric constant tensor:
#      x y z
#    x 1.897810 0.000000 -0.045630 
#    y 0.000000 1.764650 0.000000 
#    z -0.045630 0.000000 1.888410 
# 
# From -- ./inp_files/37295.got.cif
#   From: 2010.05.17/outbox.cif.g08.bks.cpg/sg10_19_cif.got.tgz:37295.got - 2010.06.03 11:33:40.
