data_PCOD9153208
_publ_section_title
;
Structure prediction by ZEFSAII (Michael W. Deem and Ramdas Pophale) SiO2 
 PCOD9153208
Probable space group: P 2/M
;
_chemical_formula_sum "Si O2"
_cell_formula_units_Z 18
_cell_length_a 5.403078
_cell_length_b 27.124127
_cell_length_c 5.235677
_cell_angle_alpha 90.000000
_cell_angle_beta 94.428001
_cell_angle_gamma 90.000000
_cell_volume 765.017915
_symmetry_space_group_name_H-M "P 2/M"
_symmetry_group_IT_number 10
_symmetry_cell_setting 'monoclinic'
loop_
_space_group_symop_operation_xyz
x,y,z
-x,y,-z
-x,-y,-z
x,-y,z
loop_
_atom_site_type_symbol
_atom_site_label
_atom_site_fract_x
_atom_site_fract_y
_atom_site_fract_z
Si Si1 0.000000 0.293705 0.500000
Si Si2 0.000000 0.640444 0.000000
Si Si3 0.500000 0.771405 0.500000
Si Si4 0.671946 0.053324 0.763434
Si Si5 0.667508 0.553380 0.763907
Si Si6 0.850351 0.161819 0.749820
O O1 0.939585 0.324700 0.236755
O O2 0.255150 0.262567 0.489964
O O3 0.821873 0.601584 0.840355
O O4 0.415212 0.811192 0.280095
O O5 0.500000 0.055291 0.500000
O O6 0.826766 0.103082 0.771738
O O7 0.804983 0.000000 0.767694
O O8 0.500000 0.054543 0.000000
O O9 0.500000 0.560172 0.500000
O O10 0.802314 0.500000 0.742585
O O11 0.500000 0.548715 0.000000
O O12 0.000000 0.170645 0.500000
O O13 0.000000 0.182299 0.000000
#
# Coordination Sequence:
#
# PCOD9153208 Si02
#       6
#     2   2   2   4   4   4
#     4  12  32  48  83 100 159 188 266 306 396 408
#     4  12  27  48  72 112 140 208 235 324 356 464
#     4  12  30  58  71 118 139 204 248 336 356 466
#     4  10  21  40  68 105 147 189 236 297 368 450
#     4  10  22  42  72 109 151 193 241 299 364 443
#     4  12  27  46  77 106 142 194 245 306 376 450
#
# _framework density 23.528863999999999
#
# number of rings (size 3 to 8) (size 9 to 14) (size 15 to 20)
#    0.000    0.889    2.222    3.000    6.222    2.667 
#    0.000    4.444    0.000    0.000    0.000    0.000 
#    0.000    0.000    0.000    0.000    0.000    0.000 
#
# Total GULP energy -100469.971117 kJ/mol
# GULP energy per Si atom -5581.665062 kJ/mol
# Density = 2.347531 g / cm^3
# Si number density = 23.528864 Si / 1000 Ang^3
#
#
#
# Elastic Constant Matrix: (Units=GPa)
#
#
# Indices 1 2 3 4 5 6 
#
# 1 78.0309 52.4007 43.6969 0.0000 20.8372 0.0000
# 2 52.4007 165.1757 42.8736 0.0000 8.6215 0.0000
# 3 43.6969 42.8736 213.1228 0.0000 20.1834 0.0000
# 4 0.0000 0.0000 0.0000 157.4984 0.0000 5.7354
# 5 20.8372 8.6215 20.1834 0.0000 49.6371 0.0000
# 6 0.0000 0.0000 0.0000 5.7354 0.0000 30.1848
#
#
#
# Elastic Compliance Matrix: (Units=1/GPa)
#
#
# Indices 1 2 3 4 5 6 
#
# 1 0.019260 -0.005183 -0.002315 0.000000 -0.006244 0.000000
# 2 -0.005183 0.007800 -0.000608 0.000000 0.001068 0.000000
# 3 -0.002315 -0.000608 0.005395 0.000000 -0.001116 0.000000
# 4 0.000000 0.000000 0.000000 0.006394 0.000000 -0.001215
# 5 -0.006244 0.001068 -0.001116 0.000000 0.023036 0.000000
# 6 0.000000 0.000000 0.000000 -0.001215 0.000000 0.033360
#
#
# Mechanical properties :
#
#
# Convention : Reuss Voigt Hill
#
# Bulk Modulus (GPa) = 61.56338 81.58575 71.57457
# Shear Modulus (GPa) = 42.78254 68.62128 55.70191
#
# Velocity S-wave (km/s) = 4.26878 5.40630 4.87086
# Velocity P-wave (km/s) = 7.10764 8.58608 7.88160
#
# Compressibility (1/GPa) = 0.01624342
#
# Stress axis : x y z
#
# Youngs Moduli (GPa) = 51.92171 128.19731 185.36701
#
# Poissons Ratio (x) = 0.66448 0.42910
# Poissons Ratio (y) = 0.26912 0.11263
# Poissons Ratio (z) = 0.12019 0.07790
#
# Static dielectric constant tensor:
#      x y z
#    x 1.950680 0.000000 -0.021150 
#    y 0.000000 2.000290 0.000000 
#    z -0.021150 0.000000 1.839360 
# 
# From -- ./inp_files/2185.got.cif
#   From: 2010.05.17/outbox.cif.g08.bks.cpg/sg10_2_cif.got.tgz:2185.got - 2010.06.03 11:33:40.
