data_PCOD9153242
_publ_section_title
;
Structure prediction by ZEFSAII (Michael W. Deem and Ramdas Pophale) SiO2 
 PCOD9153242
Probable space group: P 2/M
;
_chemical_formula_sum "Si O2"
_cell_formula_units_Z 24
_cell_length_a 8.938656
_cell_length_b 12.388238
_cell_length_c 11.137587
_cell_angle_alpha 90.000000
_cell_angle_beta 88.111204
_cell_angle_gamma 90.000000
_cell_volume 1232.641681
_symmetry_space_group_name_H-M "P 2/M"
_symmetry_group_IT_number 10
_symmetry_cell_setting 'monoclinic'
loop_
_space_group_symop_operation_xyz
x,y,z
-x,y,-z
-x,-y,-z
x,-y,z
loop_
_atom_site_type_symbol
_atom_site_label
_atom_site_fract_x
_atom_site_fract_y
_atom_site_fract_z
Si Si1 0.280857 0.000000 0.916330
Si Si2 0.821705 0.624101 0.529644
Si Si3 0.417365 0.624108 0.128779
Si Si4 0.778087 0.788643 0.746180
Si Si5 0.611111 0.000000 0.809637
Si Si6 0.076977 0.793070 0.871925
Si Si7 0.288163 0.373958 0.733448
O O1 0.433217 0.000000 0.834972
O O2 0.183034 0.104879 0.891286
O O3 0.322238 0.000000 0.056354
O O4 0.786948 0.500000 0.569331
O O5 0.782696 0.713150 0.629126
O O6 0.737709 0.645282 0.406617
O O7 0.000000 0.628077 0.500000
O O8 0.365296 0.500000 0.137869
O O9 0.288675 0.710481 0.149191
O O10 0.542645 0.644322 0.227261
O O11 0.500000 0.637678 0.000000
O O12 0.944327 0.820851 0.782306
O O13 0.673305 0.893263 0.743406
O O14 0.176031 0.698244 0.813327
O O15 0.000000 0.763888 0.000000
O O16 0.254986 0.500000 0.756846
#
# Coordination Sequence:
#
# PCOD9153242 Si02
#       7
#     2   4   4   4   2   4   4
#     4  11  24  43  63  87 125 169 205 263 322 395
#     4  10  21  41  65  93 129 170 214 259 311 371
#     4  10  22  39  60  94 134 167 205 259 322 380
#     4  12  23  38  65  94 122 166 213 267 308 373
#     4  11  25  42  65  89 124 165 216 260 329 378
#     4  12  22  37  62  94 125 162 213 262 315 377
#     4  10  22  40  63  92 131 174 208 253 316 378
#
# _framework density 19.470378
#
# number of rings (size 3 to 8) (size 9 to 14) (size 15 to 20)
#    0.000    1.167    3.333    3.250    2.333    1.667 
#    0.000    3.750    0.000    2.000    0.000    0.000 
#    0.000    0.000    0.000    0.000    0.000    0.000 
#
# Total GULP energy -134211.566710 kJ/mol
# GULP energy per Si atom -5592.148613 kJ/mol
# Density = 1.942606 g / cm^3
# Si number density = 19.470378 Si / 1000 Ang^3
#
#
#
# Elastic Constant Matrix: (Units=GPa)
#
#
# Indices 1 2 3 4 5 6 
#
# 1 76.5624 54.8753 32.1918 0.0000 1.3995 0.0000
# 2 54.8753 111.6654 58.0117 0.0000 -20.4687 0.0000
# 3 32.1918 58.0117 86.7208 0.0000 5.0489 0.0000
# 4 0.0000 0.0000 0.0000 38.7657 0.0000 -7.8083
# 5 1.3995 -20.4687 5.0489 0.0000 33.1018 0.0000
# 6 0.0000 0.0000 0.0000 -7.8083 0.0000 27.8667
#
#
#
# Elastic Compliance Matrix: (Units=1/GPa)
#
#
# Indices 1 2 3 4 5 6 
#
# 1 0.022223 -0.013206 0.001125 0.000000 -0.009277 0.000000
# 2 -0.013206 0.025857 -0.013478 0.000000 0.018603 0.000000
# 3 0.001125 -0.013478 0.020802 0.000000 -0.011554 0.000000
# 4 0.000000 0.000000 0.000000 0.027339 0.000000 0.007660
# 5 -0.009277 0.018603 -0.011554 0.000000 0.043867 0.000000
# 6 0.000000 0.000000 0.000000 0.007660 0.000000 0.038032
#
#
# Mechanical properties :
#
#
# Convention : Reuss Voigt Hill
#
# Bulk Modulus (GPa) = 56.29226 62.78959 59.54092
# Shear Modulus (GPa) = 21.26217 28.60483 24.93350
#
# Velocity S-wave (km/s) = 3.30817 3.83710 3.58241
# Velocity P-wave (km/s) = 6.60049 7.20763 6.91073
#
# Compressibility (1/GPa) = 0.01776443
#
# Stress axis : x y z
#
# Youngs Moduli (GPa) = 44.99834 38.67459 48.07135
#
# Poissons Ratio (x) = 0.51073 -0.05406
# Poissons Ratio (y) = 0.59423 0.64789
# Poissons Ratio (z) = -0.05060 0.52125
#
# Static dielectric constant tensor:
#      x y z
#    x 1.687640 0.000000 0.017160 
#    y 0.000000 1.657440 0.000000 
#    z 0.017160 0.000000 1.677820 
# 
# From -- ./inp_files/42043.got.cif
#   From: 2010.05.17/outbox.cif.g08.bks.cpg/sg10_22_cif.got.tgz:42043.got - 2010.06.03 11:33:40.
