data_PCOD9153384
_publ_section_title
;
Structure prediction by ZEFSAII (Michael W. Deem and Ramdas Pophale) SiO2 
 PCOD9153384
Probable space group: P 2/M
;
_chemical_formula_sum "Si O2"
_cell_formula_units_Z 28
_cell_length_a 22.991581
_cell_length_b 14.207890
_cell_length_c 9.213873
_cell_angle_alpha 90.000000
_cell_angle_beta 150.911262
_cell_angle_gamma 90.000000
_cell_volume 1463.265402
_symmetry_space_group_name_H-M "P 2/M"
_symmetry_group_IT_number 10
_symmetry_cell_setting 'monoclinic'
loop_
_space_group_symop_operation_xyz
x,y,z
-x,y,-z
-x,-y,-z
x,-y,z
loop_
_atom_site_type_symbol
_atom_site_label
_atom_site_fract_x
_atom_site_fract_y
_atom_site_fract_z
Si Si1 0.738504 0.105617 0.866037
Si Si2 0.928542 0.108586 0.693762
Si Si3 0.370966 0.605227 0.640869
Si Si4 0.660521 0.107790 0.029386
Si Si5 0.940835 0.252208 0.228796
Si Si6 0.888467 0.389008 0.858193
Si Si7 0.453116 0.199972 0.733282
O O1 0.641277 0.123586 0.528897
O O2 0.787637 0.000000 0.962959
O O3 0.683999 0.115689 0.908489
O O4 0.837387 0.183703 0.057883
O O5 0.785317 0.118180 0.388417
O O6 0.972627 0.183230 0.672883
O O7 0.951317 0.000000 0.697718
O O8 0.000000 0.122974 0.000000
O O9 0.351761 0.500000 0.533887
O O10 0.254007 0.622309 0.489300
O O11 0.389584 0.697925 0.583749
O O12 0.500000 0.600623 0.000000
O O13 0.617005 0.000000 0.960217
O O14 0.567184 0.184280 0.880205
O O15 0.000000 0.294702 0.500000
O O16 0.898707 0.332160 0.028594
O O17 0.907380 0.500000 0.918511
O O18 0.000000 0.356636 0.000000
O O19 0.500000 0.187159 0.000000
#
# Coordination Sequence:
#
# PCOD9153384 Si02
#       7
#     4   4   4   4   4   4   4
#     4  11  23  40  59  83 121 168 207 248 302 372
#     4  10  22  37  57  86 122 161 206 261 310 363
#     4   9  19  38  63  92 124 156 196 248 311 372
#     4  10  22  40  58  82 120 165 209 250 302 369
#     4  12  23  38  61  90 122 163 205 253 310 377
#     4  10  22  42  69  96 124 160 206 258 315 375
#     4  11  23  37  62  91 116 155 205 260 307 361
#
# _framework density 19.135285
#
# number of rings (size 3 to 8) (size 9 to 14) (size 15 to 20)
#    0.000    1.571    2.857    1.714    2.000    5.429 
#    0.000    0.000    0.000    2.571    0.000    0.000 
#    0.000    0.000    0.000    0.000    0.000    0.000 
#
# Total GULP energy -156064.671119 kJ/mol
# GULP energy per Si atom -5573.738254 kJ/mol
# Density = 1.909173 g / cm^3
# Si number density = 19.135285 Si / 1000 Ang^3
#
#
#
# Elastic Constant Matrix: (Units=GPa)
#
#
# Indices 1 2 3 4 5 6 
#
# 1 74.4897 42.3372 35.4511 0.0000 13.3654 0.0000
# 2 42.3372 66.6566 22.2254 0.0000 11.3376 0.0000
# 3 35.4511 22.2254 83.8393 0.0000 4.9837 0.0000
# 4 0.0000 0.0000 0.0000 23.2582 0.0000 -2.6044
# 5 13.3654 11.3376 4.9837 0.0000 32.9939 0.0000
# 6 0.0000 0.0000 0.0000 -2.6044 0.0000 38.0805
#
#
#
# Elastic Compliance Matrix: (Units=1/GPa)
#
#
# Indices 1 2 3 4 5 6 
#
# 1 0.024661 -0.012605 -0.006811 0.000000 -0.004630 0.000000
# 2 -0.012605 0.023775 -0.000798 0.000000 -0.002943 0.000000
# 3 -0.006811 -0.000798 0.014973 0.000000 0.000771 0.000000
# 4 0.000000 0.000000 0.000000 0.043327 0.000000 0.002963
# 5 -0.004630 -0.002943 0.000771 0.000000 0.033079 0.000000
# 6 0.000000 0.000000 0.000000 0.002963 0.000000 0.026463
#
#
# Mechanical properties :
#
#
# Convention : Reuss Voigt Hill
#
# Bulk Modulus (GPa) = 43.51307 47.22365 45.36836
# Shear Modulus (GPa) = 23.32451 27.19800 25.26125
#
# Velocity S-wave (km/s) = 3.49510 3.77417 3.63731
# Velocity P-wave (km/s) = 6.25114 6.61248 6.43435
#
# Compressibility (1/GPa) = 0.02298160
#
# Stress axis : x y z
#
# Youngs Moduli (GPa) = 40.54955 42.06091 66.78589
#
# Poissons Ratio (x) = 0.53018 0.45489
# Poissons Ratio (y) = 0.51113 0.05327
# Poissons Ratio (z) = 0.27619 0.03355
#
# Static dielectric constant tensor:
#      x y z
#    x 1.657350 0.000000 0.027580 
#    y 0.000000 1.670000 0.000000 
#    z 0.027580 0.000000 1.732500 
# 
# From -- ./inp_files/29426.got.cif
#   From: 2010.05.17/outbox.cif.g08.bks.cpg/sg10_15_cif.got.tgz:29426.got - 2010.06.03 11:33:40.
