data_PCOD9153589
_publ_section_title
;
Structure prediction by ZEFSAII (Michael W. Deem and Ramdas Pophale) SiO2 
 PCOD9153589
Probable space group: P 2/M
;
_chemical_formula_sum "Si O2"
_cell_formula_units_Z 20
_cell_length_a 8.546797
_cell_length_b 10.582010
_cell_length_c 10.404247
_cell_angle_alpha 90.000000
_cell_angle_beta 70.898953
_cell_angle_gamma 90.000000
_cell_volume 889.176122
_symmetry_space_group_name_H-M "P 2/M"
_symmetry_group_IT_number 10
_symmetry_cell_setting 'monoclinic'
loop_
_space_group_symop_operation_xyz
x,y,z
-x,y,-z
-x,-y,-z
x,-y,z
loop_
_atom_site_type_symbol
_atom_site_label
_atom_site_fract_x
_atom_site_fract_y
_atom_site_fract_z
Si Si1 0.236727 0.775734 0.798983
Si Si2 0.436661 0.358149 0.370122
Si Si3 0.933496 0.641938 0.795158
Si Si4 0.697961 0.138430 0.945170
Si Si5 0.866653 0.785789 0.449862
O O1 0.410067 0.701640 0.746211
O O2 0.202958 0.839590 0.667603
O O3 0.086175 0.676580 0.848375
O O4 0.241098 0.859643 0.923460
O O5 0.500000 0.369195 0.500000
O O6 0.393597 0.500000 0.337299
O O7 0.284284 0.262893 0.424059
O O8 0.876085 0.500000 0.825839
O O9 0.792398 0.746391 0.852619
O O10 0.027595 0.666795 0.634803
O O11 0.735861 0.000000 0.877617
O O12 0.500000 0.154564 0.000000
O O13 0.000000 0.858298 0.500000
#
# Coordination Sequence:
#
# PCOD9153589 Si02
#       5
#     4   4   4   4   4
#     4   9  21  36  61  92 122 167 205 253 307 374
#     4   9  16  30  53  85 129 166 197 240 304 369
#     4  10  22  39  64  99 133 164 208 263 313 374
#     4  11  26  47  67  87 120 169 220 269 320 376
#     4   9  20  35  56  96 135 166 201 249 313 379
#
# _framework density 22.492730000000002
#
# number of rings (size 3 to 8) (size 9 to 14) (size 15 to 20)
#    1.200    1.200    0.000    1.800    2.800    6.000 
#    0.000    0.000    0.000    9.000    0.000    0.000 
#    0.000    0.000    0.000    0.000    0.000    0.000 
#
# Total GULP energy -111449.436039 kJ/mol
# GULP energy per Si atom -5572.471802 kJ/mol
# Density = 2.244154 g / cm^3
# Si number density = 22.492730 Si / 1000 Ang^3
#
#
#
# Elastic Constant Matrix: (Units=GPa)
#
#
# Indices 1 2 3 4 5 6 
#
# 1 123.5695 42.1620 31.8921 0.0000 -2.3036 0.0000
# 2 42.1620 144.4228 34.1746 0.0000 -26.5758 0.0000
# 3 31.8921 34.1746 75.8457 0.0000 -4.2483 0.0000
# 4 0.0000 0.0000 0.0000 170.6395 0.0000 -17.7444
# 5 -2.3036 -26.5758 -4.2483 0.0000 49.7644 0.0000
# 6 0.0000 0.0000 0.0000 -17.7444 0.0000 -5.4536
#
#
#
# Elastic Compliance Matrix: (Units=1/GPa)
#
#
# Indices 1 2 3 4 5 6 
#
# 1 0.009647 -0.002275 -0.003089 0.000000 -0.001032 0.000000
# 2 -0.002275 0.009102 -0.002892 0.000000 0.004509 0.000000
# 3 -0.003089 -0.002892 0.015768 0.000000 -0.000341 0.000000
# 4 0.000000 0.000000 0.000000 0.004379 0.000000 -0.014247
# 5 -0.001032 0.004509 -0.000341 0.000000 0.022426 0.000000
# 6 0.000000 0.000000 0.000000 -0.014247 0.000000 -0.137008
#
#
# Mechanical properties :
#
#
# Convention : Reuss Voigt Hill
#
# Bulk Modulus (GPa) = 55.54292 62.25505 58.89899
# Shear Modulus (GPa) = -94.03296 58.69733 -17.66782
#
# Velocity S-wave (km/s) = -6.47277 5.11398 -2.80570
# Velocity P-wave (km/s) = 5.57808 7.91254 3.96821
#
# Compressibility (1/GPa) = 0.01800409
#
# Stress axis : x y z
#
# Youngs Moduli (GPa) = 103.65981 109.86152 63.42134
#
# Poissons Ratio (x) = 0.24996 0.19591
# Poissons Ratio (y) = 0.23585 0.18342
# Poissons Ratio (z) = 0.32021 0.31773
#
# Static dielectric constant tensor:
#      x y z
#    x 1.891340 0.000000 0.069450 
#    y 0.000000 1.790980 0.000000 
#    z 0.069450 0.000000 1.854930 
# 
# From -- ./inp_files/41623.got.cif
#   From: 2010.05.17/outbox.cif.g08.bks.cpg/sg10_21_cif.got.tgz:41623.got - 2010.06.03 11:33:40.
