data_PCOD9153190
_publ_section_title
;
Structure prediction by ZEFSAII (Michael W. Deem and Ramdas Pophale) SiO2 
 PCOD9153190
Probable space group: P 2/M
;
_chemical_formula_sum "Si O2"
_cell_formula_units_Z 24
_cell_length_a 11.851387
_cell_length_b 11.817458
_cell_length_c 11.089365
_cell_angle_alpha 90.000000
_cell_angle_beta 131.492345
_cell_angle_gamma 90.000000
_cell_volume 1163.341970
_symmetry_space_group_name_H-M "P 2/M"
_symmetry_group_IT_number 10
_symmetry_cell_setting 'monoclinic'
loop_
_space_group_symop_operation_xyz
x,y,z
-x,y,-z
-x,-y,-z
x,-y,z
loop_
_atom_site_type_symbol
_atom_site_label
_atom_site_fract_x
_atom_site_fract_y
_atom_site_fract_z
Si Si1 0.162532 0.250754 0.682767
Si Si2 0.867311 0.500000 0.009523
Si Si3 0.707588 0.873608 0.627469
Si Si4 0.124002 0.500000 0.697284
Si Si5 0.710520 0.262688 0.852028
Si Si6 0.936497 0.130014 0.146961
Si Si7 0.566390 0.869909 0.263090
O O1 0.207138 0.381751 0.732948
O O2 0.129131 0.197444 0.787665
O O3 0.293394 0.181232 0.710567
O O4 0.000000 0.245555 0.500000
O O5 0.764143 0.389211 0.915297
O O6 0.922363 0.500000 0.191061
O O7 0.000000 0.500000 0.000000
O O8 0.665896 0.770030 0.684385
O O9 0.621064 0.872334 0.440534
O O10 0.884301 0.863129 0.724373
O O11 0.683177 0.000000 0.666123
O O12 0.000000 0.500000 0.500000
O O13 0.578255 0.212075 0.842133
O O14 0.857693 0.185542 0.977256
O O15 0.893128 0.000000 0.123193
O O16 0.532961 0.000000 0.203039
#
# Coordination Sequence:
#
# PCOD9153190 Si02
#       7
#     4   2   4   2   4   4   4
#     4  11  22  41  67  96 130 175 235 279 332 403
#     4  12  26  47  74 102 140 186 233 295 344 404
#     4  10  21  40  66  94 133 180 223 276 346 421
#     4  10  24  45  71  98 133 184 232 288 338 399
#     4  12  25  41  63  98 135 172 225 281 350 411
#     4  11  21  36  64  95 127 165 220 282 339 399
#     4  11  24  42  67  98 139 183 221 283 355 420
#
# _framework density 20.630219
#
# number of rings (size 3 to 8) (size 9 to 14) (size 15 to 20)
#    0.000    1.000    3.333    4.000    0.000    4.667 
#    0.000    4.167    0.000    0.000    0.000    0.000 
#    0.000    0.000    0.000    0.000    0.000    0.000 
#
# Total GULP energy -134008.883798 kJ/mol
# GULP energy per Si atom -5583.703492 kJ/mol
# Density = 2.058326 g / cm^3
# Si number density = 20.630219 Si / 1000 Ang^3
#
#
#
# Elastic Constant Matrix: (Units=GPa)
#
#
# Indices 1 2 3 4 5 6 
#
# 1 115.3486 59.4835 32.9442 0.0000 13.1594 0.0000
# 2 59.4835 164.2636 26.1558 0.0000 10.8101 0.0000
# 3 32.9442 26.1558 74.9654 0.0000 0.9624 0.0000
# 4 0.0000 0.0000 0.0000 2.8436 0.0000 4.2429
# 5 13.1594 10.8101 0.9624 0.0000 41.4162 0.0000
# 6 0.0000 0.0000 0.0000 4.2429 0.0000 28.9166
#
#
#
# Elastic Compliance Matrix: (Units=1/GPa)
#
#
# Indices 1 2 3 4 5 6 
#
# 1 0.011932 -0.003503 -0.003986 0.000000 -0.002784 0.000000
# 2 -0.003503 0.007586 -0.001097 0.000000 -0.000842 0.000000
# 3 -0.003986 -0.001097 0.015458 0.000000 0.001193 0.000000
# 4 0.000000 0.000000 0.000000 0.450232 0.000000 -0.066062
# 5 -0.002784 -0.000842 0.001193 0.000000 0.025222 0.000000
# 6 0.000000 0.000000 0.000000 -0.066062 0.000000 0.044276
#
#
# Mechanical properties :
#
#
# Convention : Reuss Voigt Hill
#
# Bulk Modulus (GPa) = 56.16102 65.74941 60.95521
# Shear Modulus (GPa) = 8.65335 30.36823 19.51079
#
# Velocity S-wave (km/s) = 2.05027 3.84086 3.07862
# Velocity P-wave (km/s) = 5.73468 7.18396 6.49984
#
# Compressibility (1/GPa) = 0.01780594
#
# Stress axis : x y z
#
# Youngs Moduli (GPa) = 83.81051 131.81727 64.69012
#
# Poissons Ratio (x) = 0.46174 0.25783
# Poissons Ratio (y) = 0.29358 0.07095
# Poissons Ratio (z) = 0.33403 0.14457
#
# Static dielectric constant tensor:
#      x y z
#    x 1.744620 0.000000 -0.022780 
#    y 0.000000 1.725410 0.000000 
#    z -0.022780 0.000000 1.828430 
# 
# From -- ./inp_files/46272.got.cif
#   From: 2010.05.17/outbox.cif.g08.bks.cpg/sg10_24_cif.got.tgz:46272.got - 2010.06.03 11:33:40.
