data_PCOD9153753
_publ_section_title
;
Structure prediction by ZEFSAII (Michael W. Deem and Ramdas Pophale) SiO2 
 PCOD9153753
Probable space group: P 2/M
;
_chemical_formula_sum "Si O2"
_cell_formula_units_Z 24
_cell_length_a 9.313695
_cell_length_b 14.114873
_cell_length_c 8.135677
_cell_angle_alpha 90.000000
_cell_angle_beta 85.405154
_cell_angle_gamma 90.000000
_cell_volume 1066.091923
_symmetry_space_group_name_H-M "P 2/M"
_symmetry_group_IT_number 10
_symmetry_cell_setting 'monoclinic'
loop_
_space_group_symop_operation_xyz
x,y,z
-x,y,-z
-x,-y,-z
x,-y,z
loop_
_atom_site_type_symbol
_atom_site_label
_atom_site_fract_x
_atom_site_fract_y
_atom_site_fract_z
Si Si1 0.935233 0.112176 0.670645
Si Si2 0.808328 0.111587 0.135615
Si Si3 0.850252 0.606500 0.814885
Si Si4 0.817384 0.608193 0.216153
Si Si5 0.400907 0.775290 0.670802
Si Si6 0.685042 0.790892 0.823193
O O1 0.768871 0.135391 0.700758
O O2 0.000000 0.155008 0.500000
O O3 0.033472 0.142451 0.816810
O O4 0.955351 0.000000 0.665949
O O5 0.703614 0.134187 0.298885
O O6 0.808401 0.000000 0.091885
O O7 0.744145 0.174537 0.994476
O O8 0.813717 0.500000 0.763943
O O9 0.749046 0.689668 0.764976
O O10 0.015905 0.625543 0.750722
O O11 0.828724 0.609158 0.015410
O O12 0.779196 0.500000 0.267232
O O13 0.703460 0.684431 0.292983
O O14 0.500000 0.770302 0.500000
O O15 0.517568 0.785539 0.806573
#
# Coordination Sequence:
#
# PCOD9153753 Si02
#       6
#     4   4   4   4   4   4
#     4  10  22  41  65  93 125 164 207 255 314 372
#     4  11  24  42  64  90 122 163 213 263 305 362
#     4   9  19  37  66  95 119 156 207 268 315 356
#     4   9  19  39  64  91 124 161 206 256 311 372
#     4  12  26  41  59  89 132 174 204 250 320 378
#     4  12  23  37  64  95 125 163 211 261 309 367
#
# _framework density 22.512129999999999
#
# number of rings (size 3 to 8) (size 9 to 14) (size 15 to 20)
#    0.000    1.500    1.667    4.500    2.333    4.667 
#    0.000    1.667    0.000    2.500    0.000    0.000 
#    0.000    0.000    0.000    0.000    0.000    0.000 
#
# Total GULP energy -134021.837548 kJ/mol
# GULP energy per Si atom -5584.243231 kJ/mol
# Density = 2.246089 g / cm^3
# Si number density = 22.512130 Si / 1000 Ang^3
#
#
#
# Elastic Constant Matrix: (Units=GPa)
#
#
# Indices 1 2 3 4 5 6 
#
# 1 118.8071 34.5719 22.2507 0.0000 -10.4843 0.0000
# 2 34.5719 82.2757 19.2975 0.0000 7.5710 0.0000
# 3 22.2507 19.2975 77.1254 0.0000 -16.9497 0.0000
# 4 0.0000 0.0000 0.0000 18.0626 0.0000 -21.2211
# 5 -10.4843 7.5710 -16.9497 0.0000 33.3394 0.0000
# 6 0.0000 0.0000 0.0000 -21.2211 0.0000 -17.6064
#
#
#
# Elastic Compliance Matrix: (Units=1/GPa)
#
#
# Indices 1 2 3 4 5 6 
#
# 1 0.010213 -0.004386 -0.001041 0.000000 0.003679 0.000000
# 2 -0.004386 0.015632 -0.004198 0.000000 -0.007063 0.000000
# 3 -0.001041 -0.004198 0.016272 0.000000 0.008899 0.000000
# 4 0.000000 0.000000 0.000000 0.022914 0.000000 -0.027619
# 5 0.003679 -0.007063 0.008899 0.000000 0.037280 0.000000
# 6 0.000000 0.000000 0.000000 -0.027619 0.000000 -0.023508
#
#
# Mechanical properties :
#
#
# Convention : Reuss Voigt Hill
#
# Bulk Modulus (GPa) = 43.73003 47.82761 45.77882
# Shear Modulus (GPa) = 47.31520 20.23167 33.77343
#
# Velocity S-wave (km/s) = 4.58947 3.00109 3.87749
# Velocity P-wave (km/s) = 6.89577 5.77062 6.35813
#
# Compressibility (1/GPa) = 0.02286758
#
# Stress axis : x y z
#
# Youngs Moduli (GPa) = 97.91699 63.97216 61.45432
#
# Poissons Ratio (x) = 0.28057 0.06395
# Poissons Ratio (y) = 0.42944 0.25800
# Poissons Ratio (z) = 0.10189 0.26857
#
# Static dielectric constant tensor:
#      x y z
#    x 1.811980 0.000000 0.030040 
#    y 0.000000 1.812980 0.000000 
#    z 0.030040 0.000000 1.964070 
# 
# From -- ./inp_files/18774.got.cif
#   From: 2010.05.17/outbox.cif.g08.bks.cpg/sg10_10_cif.got.tgz:18774.got - 2010.06.03 11:33:40.
