data_PCOD9153224
_publ_section_title
;
Structure prediction by ZEFSAII (Michael W. Deem and Ramdas Pophale) SiO2 
 PCOD9153224
Probable space group: P 2/M
;
_chemical_formula_sum "Si O2"
_cell_formula_units_Z 16
_cell_length_a 6.948765
_cell_length_b 23.392622
_cell_length_c 5.148607
_cell_angle_alpha 90.000000
_cell_angle_beta 74.397315
_cell_angle_gamma 90.000000
_cell_volume 806.065221
_symmetry_space_group_name_H-M "P 2/M"
_symmetry_group_IT_number 10
_symmetry_cell_setting 'monoclinic'
loop_
_space_group_symop_operation_xyz
x,y,z
-x,y,-z
-x,-y,-z
x,-y,z
loop_
_atom_site_type_symbol
_atom_site_label
_atom_site_fract_x
_atom_site_fract_y
_atom_site_fract_z
Si Si1 0.643230 0.262186 0.195124
Si Si2 0.646730 0.000000 0.691683
Si Si3 0.000000 0.092247 0.500000
Si Si4 0.000000 0.826880 0.000000
Si Si5 0.861498 0.500000 0.294385
Si Si6 0.632266 0.613548 0.209865
O O1 0.500000 0.253692 0.500000
O O2 0.809499 0.214167 0.105422
O O3 0.743867 0.326092 0.130655
O O4 0.500000 0.259466 0.000000
O O5 0.500000 0.000000 0.500000
O O6 0.801436 0.053189 0.609403
O O7 0.500000 0.000000 0.000000
O O8 0.998389 0.132427 0.249899
O O9 0.738292 0.557759 0.288962
O O10 0.000000 0.500000 0.500000
O O11 0.000000 0.500000 0.000000
O O12 0.500000 0.630975 0.500000
O O13 0.500000 0.599904 0.000000
#
# Coordination Sequence:
#
# PCOD9153224 Si02
#       6
#     4   2   2   2   2   4
#     4  10  23  41  62  91 124 169 217 258 322 388
#     4  11  24  45  70  96 134 177 210 261 312 364
#     4  11  26  42  64 104 130 167 222 254 314 375
#     4  12  24  41  66  95 136 168 208 276 306 370
#     4  12  24  36  58  94 116 150 206 268 322 392
#     4  10  21  41  61  81 118 163 204 258 322 391
#
# _framework density 19.849511
#
# number of rings (size 3 to 8) (size 9 to 14) (size 15 to 20)
#    0.000    1.250    0.000    5.250    1.750    8.000 
#    2.250    0.000    0.000    0.000    0.000    0.000 
#    0.000    0.000    0.000    0.000    0.000    0.000 
#
# Total GULP energy -89106.845052 kJ/mol
# GULP energy per Si atom -5569.177816 kJ/mol
# Density = 1.980433 g / cm^3
# Si number density = 19.849511 Si / 1000 Ang^3
#
#
#
# Elastic Constant Matrix: (Units=GPa)
#
#
# Indices 1 2 3 4 5 6 
#
# 1 119.9640 103.2661 72.8157 0.0000 3.7092 0.0000
# 2 103.2661 210.9286 71.5937 0.0000 8.3975 0.0000
# 3 72.8157 71.5937 182.1697 0.0000 19.1450 0.0000
# 4 0.0000 0.0000 0.0000 33.1199 0.0000 10.1603
# 5 3.7092 8.3975 19.1450 0.0000 43.8797 0.0000
# 6 0.0000 0.0000 0.0000 10.1603 0.0000 -112.1296
#
#
#
# Elastic Compliance Matrix: (Units=1/GPa)
#
#
# Indices 1 2 3 4 5 6 
#
# 1 0.016686 -0.006822 -0.004168 0.000000 0.001714 0.000000
# 2 -0.006822 0.008261 -0.000434 0.000000 -0.000815 0.000000
# 3 -0.004168 -0.000434 0.007630 0.000000 -0.002894 0.000000
# 4 0.000000 0.000000 0.000000 0.029377 0.000000 0.002662
# 5 0.001714 -0.000815 -0.002894 0.000000 0.024063 0.000000
# 6 0.000000 0.000000 0.000000 0.002662 0.000000 -0.008677
#
#
# Mechanical properties :
#
#
# Convention : Reuss Voigt Hill
#
# Bulk Modulus (GPa) = 102.80293 112.04593 107.42443
# Shear Modulus (GPa) = 48.34129 10.66645 29.50387
#
# Velocity S-wave (km/s) = 4.94032 2.32063 3.85954
# Velocity P-wave (km/s) = 9.18945 7.98440 8.60804
#
# Compressibility (1/GPa) = 0.00972735
#
# Stress axis : x y z
#
# Youngs Moduli (GPa) = 59.93147 121.05460 131.05845
#
# Poissons Ratio (x) = 0.82588 0.54630
# Poissons Ratio (y) = 0.40887 0.05686
# Poissons Ratio (z) = 0.24982 0.05252
#
# Static dielectric constant tensor:
#      x y z
#    x 1.681870 0.000000 -0.000930 
#    y 0.000000 1.571930 0.000000 
#    z -0.000930 0.000000 1.648960 
# 
# From -- ./inp_files/1254.got.cif
#   From: 2010.05.17/outbox.cif.g08.bks.cpg/sg10_1_cif.got.tgz:1254.got - 2010.06.03 11:33:40.
