data_PCOD9153203
_publ_section_title
;
Structure prediction by ZEFSAII (Michael W. Deem and Ramdas Pophale) SiO2 
 PCOD9153203
Probable space group: P 2/M
;
_chemical_formula_sum "Si O2"
_cell_formula_units_Z 28
_cell_length_a 14.402447
_cell_length_b 8.129648
_cell_length_c 12.075119
_cell_angle_alpha 90.000000
_cell_angle_beta 68.018392
_cell_angle_gamma 90.000000
_cell_volume 1311.057098
_symmetry_space_group_name_H-M "P 2/M"
_symmetry_group_IT_number 10
_symmetry_cell_setting 'monoclinic'
loop_
_space_group_symop_operation_xyz
x,y,z
-x,y,-z
-x,-y,-z
x,-y,z
loop_
_atom_site_type_symbol
_atom_site_label
_atom_site_fract_x
_atom_site_fract_y
_atom_site_fract_z
Si Si1 0.272934 0.243589 0.883961
Si Si2 0.876477 0.815867 0.241457
Si Si3 0.807483 0.305305 0.732173
Si Si4 0.368872 0.500000 0.455352
Si Si5 0.406950 0.500000 0.701065
Si Si6 0.386452 0.813901 0.059583
Si Si7 0.225947 0.804735 0.490624
Si Si8 0.089434 0.804227 0.097283
O O1 0.216131 0.172200 0.801276
O O2 0.355516 0.351718 0.787590
O O3 0.334978 0.173546 0.960918
O O4 0.172200 0.299423 0.993554
O O5 0.840634 0.747594 0.374588
O O6 0.975504 0.743906 0.140382
O O7 0.911437 0.000000 0.252038
O O8 0.827808 0.500000 0.716949
O O9 0.822871 0.220552 0.607051
O O10 0.877132 0.217082 0.791145
O O11 0.693145 0.280255 0.827844
O O12 0.380159 0.500000 0.583360
O O13 0.474837 0.500000 0.347904
O O14 0.314443 0.670355 0.449573
O O15 0.395211 0.000000 0.100652
O O16 0.500000 0.746369 0.000000
O O17 0.251749 0.000000 0.494646
O O18 0.100451 0.000000 0.057811
#
# Coordination Sequence:
#
# PCOD9153203 Si02
#       8
#     4   4   4   2   2   4   4   4
#     4  11  21  39  64  96 128 170 211 270 331 400
#     4  10  21  40  67  97 127 173 223 277 340 400
#     4  11  23  40  61  91 132 176 222 275 331 398
#     4  11  24  50  64  98 139 184 221 280 337 390
#     4  11  26  42  66  93 142 174 221 276 340 399
#     4  10  23  40  62  93 127 167 220 275 333 400
#     4  11  23  43  71  98 133 176 230 280 332 399
#     4  10  22  41  65  95 134 172 221 278 337 403
#
# _framework density 21.356812000000001
#
# number of rings (size 3 to 8) (size 9 to 14) (size 15 to 20)
#    0.000    1.429    2.143    3.857    6.000    2.000 
#    2.571    6.429    0.000    0.000    0.000    0.000 
#    0.000    0.000    0.000    0.000    0.000    0.000 
#
# Total GULP energy -155901.525734 kJ/mol
# GULP energy per Si atom -5567.911633 kJ/mol
# Density = 2.130820 g / cm^3
# Si number density = 21.356812 Si / 1000 Ang^3
#
#
#
# Elastic Constant Matrix: (Units=GPa)
#
#
# Indices 1 2 3 4 5 6 
#
# 1 85.6385 8.2530 44.3583 0.0000 -13.4150 0.0000
# 2 8.2530 73.2884 25.0798 0.0000 -15.6559 0.0000
# 3 44.3583 25.0798 139.4581 0.0000 1.0682 0.0000
# 4 0.0000 0.0000 0.0000 28.8771 0.0000 -10.6271
# 5 -13.4150 -15.6559 1.0682 0.0000 34.8581 0.0000
# 6 0.0000 0.0000 0.0000 -10.6271 0.0000 15.2179
#
#
#
# Elastic Compliance Matrix: (Units=1/GPa)
#
#
# Indices 1 2 3 4 5 6 
#
# 1 0.015263 0.001482 -0.005173 0.000000 0.006698 0.000000
# 2 0.001482 0.016385 -0.003480 0.000000 0.008036 0.000000
# 3 -0.005173 -0.003480 0.009471 0.000000 -0.003844 0.000000
# 4 0.000000 0.000000 0.000000 0.046607 0.000000 0.032547
# 5 0.006698 0.008036 -0.003844 0.000000 0.034993 0.000000
# 6 0.000000 0.000000 0.000000 0.032547 0.000000 0.088441
#
#
# Mechanical properties :
#
#
# Convention : Reuss Voigt Hill
#
# Bulk Modulus (GPa) = 37.34283 50.41856 43.88070
# Shear Modulus (GPa) = 21.32870 30.50354 25.91612
#
# Velocity S-wave (km/s) = 3.16362 3.78336 3.48729
# Velocity P-wave (km/s) = 5.55588 6.53789 6.06679
#
# Compressibility (1/GPa) = 0.02677890
#
# Stress axis : x y z
#
# Youngs Moduli (GPa) = 65.51972 61.03031 105.58445
#
# Poissons Ratio (x) = -0.09046 0.54614
# Poissons Ratio (y) = -0.09711 0.36740
# Poissons Ratio (z) = 0.33890 0.21237
#
# Static dielectric constant tensor:
#      x y z
#    x 1.797660 0.000000 0.000290 
#    y 0.000000 1.732930 0.000000 
#    z 0.000290 0.000000 1.781170 
# 
# From -- ./inp_files/49673.got.cif
#   From: 2010.05.17/outbox.cif.g08.bks.cpg/sg10_25_cif.got.tgz:49673.got - 2010.06.03 11:33:40.
