data_PCOD9153532
_publ_section_title
;
Structure prediction by ZEFSAII (Michael W. Deem and Ramdas Pophale) SiO2 
 PCOD9153532
Probable space group: P 2/M
;
_chemical_formula_sum "Si O2"
_cell_formula_units_Z 24
_cell_length_a 18.698149
_cell_length_b 8.770882
_cell_length_c 23.233362
_cell_angle_alpha 90.000000
_cell_angle_beta 161.641948
_cell_angle_gamma 90.000000
_cell_volume 1200.055739
_symmetry_space_group_name_H-M "P 2/M"
_symmetry_group_IT_number 10
_symmetry_cell_setting 'monoclinic'
loop_
_space_group_symop_operation_xyz
x,y,z
-x,y,-z
-x,-y,-z
x,-y,z
loop_
_atom_site_type_symbol
_atom_site_label
_atom_site_fract_x
_atom_site_fract_y
_atom_site_fract_z
Si Si1 0.509430 0.180316 0.843894
Si Si2 0.152823 0.317806 0.484893
Si Si3 0.687749 0.677404 0.193306
Si Si4 0.803200 0.317539 0.895620
Si Si5 0.315347 0.180837 0.492824
Si Si6 0.042361 0.317433 0.857382
O O1 0.367983 0.265402 0.686293
O O2 0.390943 0.222235 0.813446
O O3 0.507757 0.000000 0.832874
O O4 0.763630 0.244531 0.034631
O O5 0.154461 0.500000 0.477792
O O6 0.169869 0.237031 0.436675
O O7 0.927765 0.277635 0.348983
O O8 0.705308 0.500000 0.226068
O O9 0.500000 0.684702 0.000000
O O10 0.760522 0.500000 0.863498
O O11 0.570637 0.236342 0.700267
O O12 0.890969 0.275159 0.026346
O O13 0.000000 0.285481 0.000000
O O14 0.199461 0.256162 0.348583
O O15 0.307864 0.000000 0.482502
O O16 0.047755 0.500000 0.856429
#
# Coordination Sequence:
#
# PCOD9153532 Si02
#       6
#     4   4   4   4   4   4
#     4  12  24  38  60  91 128 166 212 269 329 382
#     4  11  22  39  63  89 123 170 222 266 315 383
#     4  10  22  39  59  85 119 165 220 270 317 377
#     4  10  23  45  72  99 128 169 220 268 317 385
#     4  12  25  41  66  99 136 171 212 269 331 387
#     4  11  23  42  69  95 129 174 220 266 317 387
#
# _framework density 19.999071000000001
#
# number of rings (size 3 to 8) (size 9 to 14) (size 15 to 20)
#    0.000    1.000    1.667    5.500    0.000    6.667 
#    0.000    3.333    0.000    0.000    0.000    0.000 
#    0.000    0.000    0.000    0.000    0.000    0.000 
#
# Total GULP energy -134303.909166 kJ/mol
# GULP energy per Si atom -5595.996215 kJ/mol
# Density = 1.995355 g / cm^3
# Si number density = 19.999071 Si / 1000 Ang^3
#
#
#
# Elastic Constant Matrix: (Units=GPa)
#
#
# Indices 1 2 3 4 5 6 
#
# 1 68.7165 29.3613 52.6259 0.0000 10.6862 0.0000
# 2 29.3613 51.6519 35.8811 0.0000 13.5995 0.0000
# 3 52.6259 35.8811 108.9352 0.0000 -13.9140 0.0000
# 4 0.0000 0.0000 0.0000 -20.4660 0.0000 3.7901
# 5 10.6862 13.5995 -13.9140 0.0000 23.9320 0.0000
# 6 0.0000 0.0000 0.0000 3.7901 0.0000 0.5467
#
#
#
# Elastic Compliance Matrix: (Units=1/GPa)
#
#
# Indices 1 2 3 4 5 6 
#
# 1 0.034002 0.003084 -0.021177 0.000000 -0.029247 0.000000
# 2 0.003084 0.040423 -0.019351 0.000000 -0.035598 0.000000
# 3 -0.021177 -0.019351 0.030674 0.000000 0.038287 0.000000
# 4 0.000000 0.000000 0.000000 -0.021394 0.000000 0.148320
# 5 -0.029247 -0.035598 0.038287 0.000000 0.097333 0.000000
# 6 0.000000 0.000000 0.000000 0.148320 0.000000 0.800910
#
#
# Mechanical properties :
#
#
# Convention : Reuss Voigt Hill
#
# Bulk Modulus (GPa) = 33.10211 51.67114 42.38662
# Shear Modulus (GPa) = 4.68645 8.23157 6.45901
#
# Velocity S-wave (km/s) = 1.53246 2.03099 1.79907
# Velocity P-wave (km/s) = 4.44061 5.60292 5.05528
#
# Compressibility (1/GPa) = 0.03020956
#
# Stress axis : x y z
#
# Youngs Moduli (GPa) = 29.41030 24.73869 32.60044
#
# Poissons Ratio (x) = -0.07629 0.69039
# Poissons Ratio (y) = -0.09069 0.63085
# Poissons Ratio (z) = 0.62283 0.47872
#
# Static dielectric constant tensor:
#      x y z
#    x 1.700530 0.000000 -0.009070 
#    y 0.000000 1.662580 0.000000 
#    z -0.009070 0.000000 1.712160 
# 
# From -- ./inp_files/90063.got.cif
#   From: 2010.05.17/outbox.cif.g08.bks.cpg/sg10_46_cif.got.tgz:90063.got - 2010.06.03 11:33:40.
