data_PCOD9153949
_publ_section_title
;
Structure prediction by ZEFSAII (Michael W. Deem and Ramdas Pophale) SiO2 
 PCOD9153949
Probable space group: P 2/M
;
_chemical_formula_sum "Si O2"
_cell_formula_units_Z 26
_cell_length_a 7.956340
_cell_length_b 15.152840
_cell_length_c 12.800822
_cell_angle_alpha 90.000000
_cell_angle_beta 60.815380
_cell_angle_gamma 90.000000
_cell_volume 1347.366795
_symmetry_space_group_name_H-M "P 2/M"
_symmetry_group_IT_number 10
_symmetry_cell_setting 'monoclinic'
loop_
_space_group_symop_operation_xyz
x,y,z
-x,y,-z
-x,-y,-z
x,-y,z
loop_
_atom_site_type_symbol
_atom_site_label
_atom_site_fract_x
_atom_site_fract_y
_atom_site_fract_z
Si Si1 0.680708 0.596714 0.618926
Si Si2 0.000000 0.853096 0.000000
Si Si3 0.146969 0.900113 0.550550
Si Si4 0.949748 0.596374 0.340474
Si Si5 0.465903 0.790993 0.329732
Si Si6 0.095572 0.781808 0.750227
Si Si7 0.558842 0.899880 0.100933
O O1 0.584815 0.500000 0.659159
O O2 0.772970 0.600944 0.475503
O O3 0.566905 0.686323 0.669801
O O4 0.859505 0.598818 0.645358
O O5 0.987754 0.798940 0.110769
O O6 0.791204 0.899891 0.050438
O O7 0.315556 0.838167 0.452681
O O8 0.036749 0.850929 0.678369
O O9 0.000000 0.907160 0.500000
O O10 0.210484 0.000000 0.560286
O O11 0.943875 0.500000 0.289730
O O12 0.943415 0.682271 0.272217
O O13 0.678057 0.801447 0.310540
O O14 0.466467 0.836656 0.215917
O O15 0.488920 0.000000 0.138644
O O16 0.500000 0.874885 0.000000
#
# Coordination Sequence:
#
# PCOD9153949 Si02
#       7
#     4   2   4   4   4   4   4
#     4   9  18  33  58  90 119 149 190 238 292 357
#     4  10  25  42  61  86 120 166 207 246 299 352
#     4  11  24  38  58  87 117 154 194 244 303 356
#     4   9  18  34  58  86 117 154 193 236 291 352
#     4  11  22  37  58  90 123 150 192 245 304 354
#     4  11  23  39  59  87 120 157 194 246 298 356
#     4  10  23  41  63  87 117 162 209 251 293 354
#
# _framework density 19.296899
#
# number of rings (size 3 to 8) (size 9 to 14) (size 15 to 20)
#    0.000    1.846    1.538    3.000    4.308    4.923 
#    0.000    1.923    0.000    1.385    0.000    0.000 
#    0.000    0.000    0.000    0.000    0.000    0.000 
#
# Total GULP energy -145054.467584 kJ/mol
# GULP energy per Si atom -5579.017984 kJ/mol
# Density = 1.925298 g / cm^3
# Si number density = 19.296899 Si / 1000 Ang^3
#
#
#
# Elastic Constant Matrix: (Units=GPa)
#
#
# Indices 1 2 3 4 5 6 
#
# 1 27.7322 10.2062 12.5646 0.0000 9.5809 0.0000
# 2 10.2062 150.9518 71.2640 0.0000 23.7099 0.0000
# 3 12.5646 71.2640 109.6547 0.0000 24.1512 0.0000
# 4 0.0000 0.0000 0.0000 52.9078 0.0000 26.8407
# 5 9.5809 23.7099 24.1512 0.0000 30.3702 0.0000
# 6 0.0000 0.0000 0.0000 26.8407 0.0000 38.4424
#
#
#
# Elastic Compliance Matrix: (Units=1/GPa)
#
#
# Indices 1 2 3 4 5 6 
#
# 1 0.040918 0.000056 -0.002270 0.000000 -0.011147 0.000000
# 2 0.000056 0.009797 -0.005680 0.000000 -0.003149 0.000000
# 3 -0.002270 -0.005680 0.014471 0.000000 -0.006358 0.000000
# 4 0.000000 0.000000 0.000000 0.029268 0.000000 -0.020435
# 5 -0.011147 -0.003149 -0.006358 0.000000 0.043958 0.000000
# 6 0.000000 0.000000 0.000000 -0.020435 0.000000 0.040281
#
#
# Mechanical properties :
#
#
# Convention : Reuss Voigt Hill
#
# Bulk Modulus (GPa) = 20.24337 52.93422 36.58880
# Shear Modulus (GPa) = 23.70278 37.29767 30.50023
#
# Velocity S-wave (km/s) = 3.50854 4.40117 3.97996
# Velocity P-wave (km/s) = 5.18907 7.30192 6.33421
#
# Compressibility (1/GPa) = 0.04939889
#
# Stress axis : x y z
#
# Youngs Moduli (GPa) = 24.43910 102.07308 69.10337
#
# Poissons Ratio (x) = -0.00570 0.15684
# Poissons Ratio (y) = -0.00136 0.39249
# Poissons Ratio (z) = 0.05547 0.57975
#
# Static dielectric constant tensor:
#      x y z
#    x 1.712980 0.000000 0.006010 
#    y 0.000000 1.717450 0.000000 
#    z 0.006010 0.000000 1.659010 
# 
# From -- ./inp_files/24811.got.cif
#   From: 2010.05.17/outbox.cif.g08.bks.cpg/sg10_13_cif.got.tgz:24811.got - 2010.06.03 11:33:40.
