data_PCOD9153317
_publ_section_title
;
Structure prediction by ZEFSAII (Michael W. Deem and Ramdas Pophale) SiO2 
 PCOD9153317
Probable space group: P 2/M
;
_chemical_formula_sum "Si O2"
_cell_formula_units_Z 14
_cell_length_a 5.247476
_cell_length_b 19.954190
_cell_length_c 5.294419
_cell_angle_alpha 90.000000
_cell_angle_beta 93.714469
_cell_angle_gamma 90.000000
_cell_volume 553.209445
_symmetry_space_group_name_H-M "P 2/M"
_symmetry_group_IT_number 10
_symmetry_cell_setting 'monoclinic'
loop_
_space_group_symop_operation_xyz
x,y,z
-x,y,-z
-x,-y,-z
x,-y,z
loop_
_atom_site_type_symbol
_atom_site_label
_atom_site_fract_x
_atom_site_fract_y
_atom_site_fract_z
Si Si1 0.834578 0.854471 0.732559
Si Si2 0.500000 0.392011 0.500000
Si Si3 0.731157 0.288460 0.838596
Si Si4 0.264738 0.000000 0.172184
Si Si5 0.817244 0.500000 0.242726
O O1 0.667392 0.788305 0.756144
O O2 0.000000 0.838994 0.500000
O O3 0.725965 0.929047 0.685354
O O4 0.000000 0.858825 0.000000
O O5 0.718675 0.342112 0.615654
O O6 0.626633 0.437672 0.288747
O O7 0.500000 0.308886 0.000000
O O8 0.000000 0.288874 0.000000
O O9 0.500000 0.000000 0.000000
O O10 0.000000 0.000000 0.000000
O O11 0.000000 0.500000 0.500000
O O12 0.000000 0.500000 0.000000
#
# Coordination Sequence:
#
# PCOD9153317 Si02
#       5
#     4   2   4   2   2
#     4  10  23  45  71 109 153 203 261 324 386 461
#     4  11  30  50  84 119 162 206 268 325 402 484
#     4  11  28  48  78 116 161 207 266 324 398 470
#     4  10  21  44  72 102 148 204 260 320 386 451
#     4  11  30  55  85 118 162 206 266 324 400 484
#
# _framework density 25.306871999999998
#
# number of rings (size 3 to 8) (size 9 to 14) (size 15 to 20)
#    0.000    1.429    0.000    1.286   16.000    1.143 
#    0.000    7.857    0.000    0.000    0.000    0.000 
#    0.000    0.000    0.000    0.000    0.000    0.000 
#
# Total GULP energy -78314.289499 kJ/mol
# GULP energy per Si atom -5593.877821 kJ/mol
# Density = 2.524927 g / cm^3
# Si number density = 25.306872 Si / 1000 Ang^3
#
#
#
# Elastic Constant Matrix: (Units=GPa)
#
#
# Indices 1 2 3 4 5 6 
#
# 1 124.0103 30.5631 43.0110 0.0000 -2.7931 0.0000
# 2 30.5631 243.4928 39.2556 0.0000 1.1667 0.0000
# 3 43.0110 39.2556 127.1234 0.0000 -5.6543 0.0000
# 4 0.0000 0.0000 0.0000 82.1457 0.0000 1.5202
# 5 -2.7931 1.1667 -5.6543 0.0000 65.2825 0.0000
# 6 0.0000 0.0000 0.0000 1.5202 0.0000 47.8049
#
#
#
# Elastic Compliance Matrix: (Units=1/GPa)
#
#
# Indices 1 2 3 4 5 6 
#
# 1 0.009247 -0.000693 -0.002908 0.000000 0.000156 0.000000
# 2 -0.000693 0.004376 -0.001126 0.000000 -0.000205 0.000000
# 3 -0.002908 -0.001126 0.009229 0.000000 0.000695 0.000000
# 4 0.000000 0.000000 0.000000 0.012181 0.000000 -0.000387
# 5 0.000156 -0.000205 0.000695 0.000000 0.015389 0.000000
# 6 0.000000 0.000000 0.000000 -0.000387 0.000000 0.020931
#
#
# Mechanical properties :
#
#
# Convention : Reuss Voigt Hill
#
# Bulk Modulus (GPa) = 74.63357 80.03177 77.33267
# Shear Modulus (GPa) = 58.63662 64.49972 61.56817
#
# Velocity S-wave (km/s) = 4.81877 5.05395 4.93776
# Velocity P-wave (km/s) = 7.77921 8.10862 7.94562
#
# Compressibility (1/GPa) = 0.01339880
#
# Stress axis : x y z
#
# Youngs Moduli (GPa) = 108.14867 228.49909 108.35596
#
# Poissons Ratio (x) = 0.15826 0.31506
# Poissons Ratio (y) = 0.07490 0.12203
# Poissons Ratio (z) = 0.31446 0.25734
#
# Static dielectric constant tensor:
#      x y z
#    x 2.154640 0.000000 0.073100 
#    y 0.000000 1.747550 0.000000 
#    z 0.073100 0.000000 1.783720 
# 
# From -- ./inp_files/850.got.cif
#   From: 2010.05.17/outbox.cif.g08.bks.cpg/sg10_1_cif.got.tgz:850.got - 2010.06.03 11:33:40.
