data_PCOD9153076
_publ_section_title
;
Structure prediction by ZEFSAII (Michael W. Deem and Ramdas Pophale) SiO2 
 PCOD9153076
Probable space group: P 2/M
;
_chemical_formula_sum "Si O2"
_cell_formula_units_Z 32
_cell_length_a 14.937855
_cell_length_b 23.084320
_cell_length_c 9.503910
_cell_angle_alpha 90.000000
_cell_angle_beta 29.364055
_cell_angle_gamma 90.000000
_cell_volume 1607.015637
_symmetry_space_group_name_H-M "P 2/M"
_symmetry_group_IT_number 10
_symmetry_cell_setting 'monoclinic'
loop_
_space_group_symop_operation_xyz
x,y,z
-x,y,-z
-x,-y,-z
x,-y,z
loop_
_atom_site_type_symbol
_atom_site_label
_atom_site_fract_x
_atom_site_fract_y
_atom_site_fract_z
Si Si1 0.022277 0.379952 0.809972
Si Si2 0.474733 0.181965 0.200831
Si Si3 0.099876 0.935447 0.085702
Si Si4 0.678832 0.568022 0.155733
Si Si5 0.909869 0.244650 0.265711
Si Si6 0.146988 0.818663 0.176156
Si Si7 0.312533 0.430534 0.190944
Si Si8 0.287650 0.064576 0.522570
O O1 0.085891 0.314001 0.737576
O O2 0.152319 0.408448 0.513069
O O3 0.000000 0.405177 0.000000
O O4 0.821894 0.387468 0.022863
O O5 0.296593 0.222132 0.457560
O O6 0.423436 0.117630 0.322666
O O7 0.500000 0.177905 0.000000
O O8 0.658282 0.202273 0.029351
O O9 0.171927 0.882213 0.075966
O O10 0.884541 0.926748 0.346802
O O11 0.124021 0.000000 0.114019
O O12 0.201023 0.934995 0.796868
O O13 0.500000 0.571862 0.500000
O O14 0.739136 0.500000 0.083829
O O15 0.674654 0.581363 0.994088
O O16 0.041641 0.221373 0.208109
O O17 0.000000 0.221971 0.000000
O O18 0.000000 0.824721 0.500000
O O19 0.306397 0.500000 0.209957
O O20 0.500000 0.408136 0.000000
O O21 0.364153 0.000000 0.392831
#
# Coordination Sequence:
#
# PCOD9153076 Si02
#       8
#     4   4   4   4   4   4   4   4
#     4  11  24  42  63  93 131 173 217 274 329 380
#     4  12  24  43  67  91 128 169 214 272 329 393
#     4   9  18  35  61  93 128 162 204 259 321 395
#     4  10  21  40  67 101 139 175 217 266 318 388
#     4  11  26  48  65  93 130 167 222 276 318 386
#     4  12  24  42  67  93 124 172 215 264 335 389
#     4  10  21  39  65  98 133 173 216 262 323 385
#     4   9  18  35  62  92 126 165 203 258 327 392
#
# _framework density 19.912686000000001
#
# number of rings (size 3 to 8) (size 9 to 14) (size 15 to 20)
#    0.000    1.500    2.500    3.000    0.000    7.500 
#    6.750    1.250    0.000    0.000    0.000    0.000 
#    0.000    0.000    0.000    0.000    0.000    0.000 
#
# Total GULP energy -178488.420204 kJ/mol
# GULP energy per Si atom -5577.763131 kJ/mol
# Density = 1.986736 g / cm^3
# Si number density = 19.912686 Si / 1000 Ang^3
#
#
#
# Elastic Constant Matrix: (Units=GPa)
#
#
# Indices 1 2 3 4 5 6 
#
# 1 111.1120 26.6680 45.3760 0.0000 -1.0651 0.0000
# 2 26.6680 30.1775 34.9116 0.0000 -3.1380 0.0000
# 3 45.3760 34.9116 112.1162 0.0000 -1.1262 0.0000
# 4 0.0000 0.0000 0.0000 54.4723 0.0000 5.0761
# 5 -1.0651 -3.1380 -1.1262 0.0000 39.4288 0.0000
# 6 0.0000 0.0000 0.0000 5.0761 0.0000 19.2117
#
#
#
# Elastic Compliance Matrix: (Units=1/GPa)
#
#
# Indices 1 2 3 4 5 6 
#
# 1 0.011825 -0.007732 -0.002382 0.000000 -0.000364 0.000000
# 2 -0.007732 0.057386 -0.014700 0.000000 0.003938 0.000000
# 3 -0.002382 -0.014700 0.014453 0.000000 -0.000821 0.000000
# 4 0.000000 0.000000 0.000000 0.018821 0.000000 -0.004973
# 5 -0.000364 0.003938 -0.000821 0.000000 0.025642 0.000000
# 6 0.000000 0.000000 0.000000 -0.004973 0.000000 0.053366
#
#
# Mechanical properties :
#
#
# Convention : Reuss Voigt Hill
#
# Bulk Modulus (GPa) = 29.38151 51.92411 40.65281
# Shear Modulus (GPa) = 20.62139 32.38591 26.50365
#
# Velocity S-wave (km/s) = 3.22155 4.03724 3.65224
# Velocity P-wave (km/s) = 5.35024 6.91844 6.18425
#
# Compressibility (1/GPa) = 0.03403502
#
# Stress axis : x y z
#
# Youngs Moduli (GPa) = 84.56732 17.42576 69.19194
#
# Poissons Ratio (x) = 0.13474 0.16480
# Poissons Ratio (y) = 0.65389 1.01715
# Poissons Ratio (z) = 0.20142 0.25617
#
# Static dielectric constant tensor:
#      x y z
#    x 1.919070 0.000000 -0.123980 
#    y 0.000000 1.694580 0.000000 
#    z -0.123980 0.000000 1.876390 
# 
# From -- ./inp_files/30581.got.cif
#   From: 2010.05.17/outbox.cif.g08.bks.cpg/sg10_16_cif.got.tgz:30581.got - 2010.06.03 11:33:40.
