data_PCOD9153304
_publ_section_title
;
Structure prediction by ZEFSAII (Michael W. Deem and Ramdas Pophale) SiO2 
 PCOD9153304
Probable space group: P 2/M
;
_chemical_formula_sum "Si O2"
_cell_formula_units_Z 28
_cell_length_a 11.145575
_cell_length_b 18.046499
_cell_length_c 18.742265
_cell_angle_alpha 90.000000
_cell_angle_beta 156.982023
_cell_angle_gamma 90.000000
_cell_volume 1474.064213
_symmetry_space_group_name_H-M "P 2/M"
_symmetry_group_IT_number 10
_symmetry_cell_setting 'monoclinic'
loop_
_space_group_symop_operation_xyz
x,y,z
-x,y,-z
-x,-y,-z
x,-y,z
loop_
_atom_site_type_symbol
_atom_site_label
_atom_site_fract_x
_atom_site_fract_y
_atom_site_fract_z
Si Si1 0.821272 0.684373 0.703750
Si Si2 0.515420 0.413205 0.309189
Si Si3 0.139303 0.735928 0.498601
Si Si4 0.219627 0.201624 0.188578
Si Si5 0.140178 0.415810 0.966892
Si Si6 0.153847 0.799997 0.791554
Si Si7 0.843080 0.086128 0.719687
O O1 0.500000 0.651462 0.500000
O O2 0.809602 0.730854 0.771060
O O3 0.092496 0.627495 0.867892
O O4 0.913685 0.743775 0.695918
O O5 0.623881 0.500000 0.366283
O O6 0.751480 0.348827 0.461827
O O7 0.203167 0.415145 0.185665
O O8 0.383789 0.389021 0.159096
O O9 0.440180 0.787384 0.655816
O O10 0.000000 0.729861 0.500000
O O11 0.894925 0.780492 0.317096
O O12 0.156046 0.131149 0.205021
O O13 0.000000 0.205780 0.000000
O O14 0.222741 0.500000 0.998405
O O15 0.062134 0.876889 0.779648
O O16 0.500000 0.783054 0.000000
O O17 0.500000 0.092976 0.500000
O O18 0.914441 0.000000 0.769616
#
# Coordination Sequence:
#
# PCOD9153304 Si02
#       7
#     4   4   4   4   4   4   4
#     4  11  19  36  59  81 117 154 200 255 297 345
#     4   9  18  34  54  81 116 154 203 251 298 355
#     4  12  24  37  58  89 121 159 199 247 301 343
#     4  11  21  37  63  93 118 151 202 249 281 346
#     4   9  17  30  55  85 110 146 200 257 305 345
#     4  11  24  40  59  90 122 154 198 240 292 362
#     4  10  21  43  71  90 118 159 192 238 293 351
#
# _framework density 18.995104000000001
#
# number of rings (size 3 to 8) (size 9 to 14) (size 15 to 20)
#    0.000    1.571    4.286    2.571    6.000    1.143 
#    0.000    0.714    0.000    1.714    0.000    0.000 
#    0.000    0.000    0.000    0.000    0.000    0.000 
#
# Total GULP energy -155945.477579 kJ/mol
# GULP energy per Si atom -5569.481342 kJ/mol
# Density = 1.895187 g / cm^3
# Si number density = 18.995104 Si / 1000 Ang^3
#
#
#
# Elastic Constant Matrix: (Units=GPa)
#
#
# Indices 1 2 3 4 5 6 
#
# 1 59.4557 24.5143 6.4868 0.0000 -9.5613 0.0000
# 2 24.5143 92.0354 22.9772 0.0000 -14.6392 0.0000
# 3 6.4868 22.9772 81.7489 0.0000 -20.3390 0.0000
# 4 0.0000 0.0000 0.0000 26.1733 0.0000 8.9253
# 5 -9.5613 -14.6392 -20.3390 0.0000 29.4525 0.0000
# 6 0.0000 0.0000 0.0000 8.9253 0.0000 43.4419
#
#
#
# Elastic Compliance Matrix: (Units=1/GPa)
#
#
# Indices 1 2 3 4 5 6 
#
# 1 0.019381 -0.004658 0.000919 0.000000 0.004611 0.000000
# 2 -0.004658 0.013268 -0.002530 0.000000 0.003336 0.000000
# 3 0.000919 -0.002530 0.015253 0.000000 0.009574 0.000000
# 4 0.000000 0.000000 0.000000 0.041085 0.000000 -0.008441
# 5 0.004611 0.003336 0.009574 0.000000 0.043719 0.000000
# 6 0.000000 0.000000 0.000000 -0.008441 0.000000 0.024754
#
#
# Mechanical properties :
#
#
# Convention : Reuss Voigt Hill
#
# Bulk Modulus (GPa) = 28.27799 37.91074 33.09437
# Shear Modulus (GPa) = 27.50471 31.76429 29.63450
#
# Velocity S-wave (km/s) = 3.80937 4.09373 3.95411
# Velocity P-wave (km/s) = 5.85387 6.50741 6.18927
#
# Compressibility (1/GPa) = 0.03536319
#
# Stress axis : x y z
#
# Youngs Moduli (GPa) = 51.59651 75.36758 65.56218
#
# Poissons Ratio (x) = 0.35108 -0.06022
# Poissons Ratio (y) = 0.24035 0.16586
# Poissons Ratio (z) = -0.04739 0.19066
#
# Static dielectric constant tensor:
#      x y z
#    x 1.735910 0.000000 -0.010440 
#    y 0.000000 1.706380 0.000000 
#    z -0.010440 0.000000 1.666010 
# 
# From -- ./inp_files/84228.got.cif
#   From: 2010.05.17/outbox.cif.g08.bks.cpg/sg10_43_cif.got.tgz:84228.got - 2010.06.03 11:33:40.
