data_PCOD9153621
_publ_section_title
;
Structure prediction by ZEFSAII (Michael W. Deem and Ramdas Pophale) SiO2 
 PCOD9153621
Probable space group: P 2/M
;
_chemical_formula_sum "Si O2"
_cell_formula_units_Z 28
_cell_length_a 14.204468
_cell_length_b 22.596398
_cell_length_c 8.017211
_cell_angle_alpha 90.000000
_cell_angle_beta 27.855505
_cell_angle_gamma 90.000000
_cell_volume 1202.349246
_symmetry_space_group_name_H-M "P 2/M"
_symmetry_group_IT_number 10
_symmetry_cell_setting 'monoclinic'
loop_
_space_group_symop_operation_xyz
x,y,z
-x,y,-z
-x,-y,-z
x,-y,z
loop_
_atom_site_type_symbol
_atom_site_label
_atom_site_fract_x
_atom_site_fract_y
_atom_site_fract_z
Si Si1 0.864787 0.564249 0.549631
Si Si2 0.781902 0.817235 0.979481
Si Si3 0.762607 0.773465 0.676490
Si Si4 0.819815 0.335877 0.377658
Si Si5 0.404228 0.935250 0.834555
Si Si6 0.242349 0.861328 0.616420
Si Si7 0.441420 0.432045 0.397710
O O1 0.894247 0.500000 0.425473
O O2 0.920308 0.615094 0.337695
O O3 0.000000 0.567829 0.500000
O O4 0.637217 0.568744 0.971657
O O5 0.678134 0.777951 0.996903
O O6 0.000148 0.788110 0.666629
O O7 0.759585 0.882523 0.927100
O O8 0.710317 0.828437 0.280891
O O9 0.723170 0.710983 0.652944
O O10 0.711557 0.821218 0.615131
O O11 0.684919 0.375987 0.468422
O O12 0.000000 0.302943 0.000000
O O13 0.500000 0.939974 0.500000
O O14 0.597631 0.914702 0.638964
O O15 0.326019 0.000000 0.006366
O O16 0.000000 0.875733 0.000000
O O17 0.500000 0.425044 0.500000
O O18 0.357833 0.500000 0.514405
#
# Coordination Sequence:
#
# PCOD9153621 Si02
#       7
#     4   4   4   4   4   4   4
#     4  10  22  41  65  94 128 166 211 268 330 389
#     4   9  19  39  61  81 119 168 197 256 319 373
#     4  10  22  40  59  83 122 165 213 259 312 383
#     4  12  24  39  63  94 129 167 221 276 322 393
#     4   9  18  35  62  94 124 159 210 266 321 390
#     4   9  18  37  59  85 123 162 205 254 320 386
#     4  10  22  44  67  93 133 172 214 271 336 398
#
# _framework density 23.287742999999999
#
# number of rings (size 3 to 8) (size 9 to 14) (size 15 to 20)
#    0.000    2.143    0.000    3.000    2.000    4.286 
#    7.714    5.714    0.000    0.000    0.000    0.000 
#    0.000    0.000    0.000    0.000    0.000    0.000 
#
# Total GULP energy -156181.265819 kJ/mol
# GULP energy per Si atom -5577.902351 kJ/mol
# Density = 2.323474 g / cm^3
# Si number density = 23.287743 Si / 1000 Ang^3
#
#
#
# Elastic Constant Matrix: (Units=GPa)
#
#
# Indices 1 2 3 4 5 6 
#
# 1 157.6794 60.5784 19.6137 0.0000 -0.4205 0.0000
# 2 60.5784 101.1819 12.7944 0.0000 -16.3586 0.0000
# 3 19.6137 12.7944 82.0039 0.0000 -12.5666 0.0000
# 4 0.0000 0.0000 0.0000 37.9182 0.0000 -16.0867
# 5 -0.4205 -16.3586 -12.5666 0.0000 29.6898 0.0000
# 6 0.0000 0.0000 0.0000 -16.0867 0.0000 34.8185
#
#
#
# Elastic Compliance Matrix: (Units=1/GPa)
#
#
# Indices 1 2 3 4 5 6 
#
# 1 0.008697 -0.005581 -0.001777 0.000000 -0.003704 0.000000
# 2 -0.005581 0.014485 0.000306 0.000000 0.008031 0.000000
# 3 -0.001777 0.000306 0.013467 0.000000 0.005844 0.000000
# 4 0.000000 0.000000 0.000000 0.032802 0.000000 0.015155
# 5 -0.003704 0.008031 0.005844 0.000000 0.040528 0.000000
# 6 0.000000 0.000000 0.000000 0.015155 0.000000 0.035722
#
#
# Mechanical properties :
#
#
# Convention : Reuss Voigt Hill
#
# Bulk Modulus (GPa) = 44.35774 58.53758 51.44766
# Shear Modulus (GPa) = 29.88261 37.01055 33.44658
#
# Velocity S-wave (km/s) = 3.58605 3.99089 3.79388
# Velocity P-wave (km/s) = 6.01958 6.81377 6.42895
#
# Compressibility (1/GPa) = 0.02254398
#
# Stress axis : x y z
#
# Youngs Moduli (GPa) = 114.97609 69.03886 74.25354
#
# Poissons Ratio (x) = 0.38533 0.13196
# Poissons Ratio (y) = 0.64173 -0.02271
# Poissons Ratio (z) = 0.20432 -0.02111
#
# Static dielectric constant tensor:
#      x y z
#    x 1.885950 0.000000 -0.004790 
#    y 0.000000 1.882100 0.000000 
#    z -0.004790 0.000000 2.008860 
# 
# From -- ./inp_files/30382.got.cif
#   From: 2010.05.17/outbox.cif.g08.bks.cpg/sg10_16_cif.got.tgz:30382.got - 2010.06.03 11:33:40.
