data_PCOD9153670
_publ_section_title
;
Structure prediction by ZEFSAII (Michael W. Deem and Ramdas Pophale) SiO2 
 PCOD9153670
Probable space group: P 2/M
;
_chemical_formula_sum "Si O2"
_cell_formula_units_Z 20
_cell_length_a 13.661542
_cell_length_b 8.363707
_cell_length_c 22.242994
_cell_angle_alpha 90.000000
_cell_angle_beta 21.482554
_cell_angle_gamma 90.000000
_cell_volume 930.746373
_symmetry_space_group_name_H-M "P 2/M"
_symmetry_group_IT_number 10
_symmetry_cell_setting 'monoclinic'
loop_
_space_group_symop_operation_xyz
x,y,z
-x,y,-z
-x,-y,-z
x,-y,z
loop_
_atom_site_type_symbol
_atom_site_label
_atom_site_fract_x
_atom_site_fract_y
_atom_site_fract_z
Si Si1 0.063753 0.684942 0.059234
Si Si2 0.621070 0.184941 0.226373
Si Si3 0.957414 0.306903 0.455923
Si Si4 0.223991 0.307225 0.186176
Si Si5 0.190250 0.191447 0.673495
O O1 0.141406 0.500000 0.018921
O O2 0.804968 0.708336 0.164419
O O3 0.977699 0.748289 0.173122
O O4 0.291362 0.778290 0.892209
O O5 0.316144 0.228736 0.409603
O O6 0.674630 0.000000 0.209940
O O7 0.928009 0.500000 0.472311
O O8 0.000000 0.256170 0.500000
O O9 0.186717 0.264111 0.277337
O O10 0.226988 0.500000 0.180688
O O11 0.969469 0.248773 0.293751
O O12 0.500000 0.246325 0.000000
O O13 0.500000 0.248153 0.500000
O O14 0.196126 0.000000 0.670952
#
# Coordination Sequence:
#
# PCOD9153670 Si02
#       5
#     4   4   4   4   4
#     4  11  22  38  63  91 122 163 209 259 316 377
#     4  11  22  38  60  91 128 161 205 260 318 376
#     4  10  22  40  63  90 124 167 215 260 308 370
#     4  10  23  42  64  94 129 170 218 266 315 380
#     4  11  24  41  63  93 129 168 211 264 326 385
#
# _framework density 21.488132
#
# number of rings (size 3 to 8) (size 9 to 14) (size 15 to 20)
#    0.000    1.400    0.000    6.600    2.800    6.400 
#    0.000    0.000    0.000    0.000    0.000    0.000 
#    0.000    0.000    0.000    0.000    0.000    0.000 
#
# Total GULP energy -111853.953561 kJ/mol
# GULP energy per Si atom -5592.697678 kJ/mol
# Density = 2.143922 g / cm^3
# Si number density = 21.488132 Si / 1000 Ang^3
#
#
#
# Elastic Constant Matrix: (Units=GPa)
#
#
# Indices 1 2 3 4 5 6 
#
# 1 77.6138 6.6681 34.5225 0.0000 20.3685 0.0000
# 2 6.6681 24.2412 21.5200 0.0000 7.5387 0.0000
# 3 34.5225 21.5200 113.8597 0.0000 14.6654 0.0000
# 4 0.0000 0.0000 0.0000 22.1244 0.0000 4.1953
# 5 20.3685 7.5387 14.6654 0.0000 41.1235 0.0000
# 6 0.0000 0.0000 0.0000 4.1953 0.0000 64.5583
#
#
#
# Elastic Compliance Matrix: (Units=1/GPa)
#
#
# Indices 1 2 3 4 5 6 
#
# 1 0.016523 0.001510 -0.004408 0.000000 -0.006889 0.000000
# 2 0.001510 0.051172 -0.009250 0.000000 -0.006830 0.000000
# 3 -0.004408 -0.009250 0.011915 0.000000 -0.000370 0.000000
# 4 0.000000 0.000000 0.000000 0.045763 0.000000 -0.002974
# 5 -0.006889 -0.006830 -0.000370 0.000000 0.029113 0.000000
# 6 0.000000 0.000000 0.000000 -0.002974 0.000000 0.015683
#
#
# Mechanical properties :
#
#
# Convention : Reuss Voigt Hill
#
# Bulk Modulus (GPa) = 18.07807 37.90398 27.99103
# Shear Modulus (GPa) = 23.48479 35.76150 29.62314
#
# Velocity S-wave (km/s) = 3.30952 4.08394 3.71695
# Velocity P-wave (km/s) = 4.79950 6.31790 5.61031
#
# Compressibility (1/GPa) = 0.05531563
#
# Stress axis : x y z
#
# Youngs Moduli (GPa) = 60.52137 19.54175 83.92610
#
# Poissons Ratio (x) = -0.02952 0.36995
# Poissons Ratio (y) = -0.09142 0.77632
# Poissons Ratio (z) = 0.26678 0.18076
#
# Static dielectric constant tensor:
#      x y z
#    x 1.791320 0.000000 0.026670 
#    y 0.000000 1.728960 0.000000 
#    z 0.026670 0.000000 1.797500 
# 
# From -- ./inp_files/84591.got.cif
#   From: 2010.05.17/outbox.cif.g08.bks.cpg/sg10_43_cif.got.tgz:84591.got - 2010.06.03 11:33:40.
