data_PCOD9153972
_publ_section_title
;
Structure prediction by ZEFSAII (Michael W. Deem and Ramdas Pophale) SiO2 
 PCOD9153972
Probable space group: P 2/M
;
_chemical_formula_sum "Si O2"
_cell_formula_units_Z 25
_cell_length_a 8.047877
_cell_length_b 11.490439
_cell_length_c 11.711973
_cell_angle_alpha 90.000000
_cell_angle_beta 94.508527
_cell_angle_gamma 90.000000
_cell_volume 1079.697436
_symmetry_space_group_name_H-M "P 2/M"
_symmetry_group_IT_number 10
_symmetry_cell_setting 'monoclinic'
loop_
_space_group_symop_operation_xyz
x,y,z
-x,y,-z
-x,-y,-z
x,-y,z
loop_
_atom_site_type_symbol
_atom_site_label
_atom_site_fract_x
_atom_site_fract_y
_atom_site_fract_z
Si Si1 0.826716 0.261264 0.863497
Si Si2 0.700749 0.500000 0.313764
Si Si3 0.277174 0.140272 0.535147
Si Si4 0.963890 0.500000 0.775517
Si Si5 0.686595 0.865730 0.065116
Si Si6 0.464778 0.253840 0.728251
Si Si7 0.000000 0.500000 0.500000
Si Si8 0.035679 0.138414 0.329978
O O1 0.894829 0.388434 0.838368
O O2 0.645260 0.251854 0.794460
O O3 0.945803 0.176661 0.797702
O O4 0.797698 0.215901 0.989583
O O5 0.592276 0.384812 0.297392
O O6 0.835324 0.500000 0.217936
O O7 0.812252 0.500000 0.435145
O O8 0.439459 0.186400 0.607793
O O9 0.197785 0.178353 0.410835
O O10 0.125655 0.181879 0.611157
O O11 0.286987 0.000000 0.534490
O O12 0.927574 0.500000 0.635093
O O13 0.654521 0.810537 0.186575
O O14 0.745286 0.000000 0.074307
O O15 0.500000 0.869818 0.000000
O O16 0.029885 0.000000 0.337379
#
# Coordination Sequence:
#
# PCOD9153972 Si02
#       8
#     4   2   4   2   4   4   1   4
#     4  11  22  37  60  88 117 152 199 252 294 343
#     4  10  23  42  62  84 114 160 200 235 297 364
#     4   9  19  35  55  80 114 155 193 236 299 365
#     4  10  23  42  62  84 114 160 200 235 297 364
#     4   9  20  39  61  86 122 163 194 233 300 365
#     4  11  22  37  60  88 117 152 199 252 294 343
#     4   8  24  44  66  78 114 176 198 228 298 382
#     4   9  19  35  55  80 114 155 193 236 299 365
#
# _framework density 23.154634999999999
#
# number of rings (size 3 to 8) (size 9 to 14) (size 15 to 20)
#    0.480    1.760    0.000    3.360    2.240    3.200 
#    0.000    8.800    0.000    5.760    0.000    0.000 
#    0.000    0.000    0.000    0.000    0.000    0.000 
#
# Total GULP energy -139442.712147 kJ/mol
# GULP energy per Si atom -5577.708486 kJ/mol
# Density = 2.310193 g / cm^3
# Si number density = 23.154635 Si / 1000 Ang^3
#
#
#
# Elastic Constant Matrix: (Units=GPa)
#
#
# Indices 1 2 3 4 5 6 
#
# 1 54.2606 -10.1453 6.0570 0.0000 10.8209 0.0000
# 2 -10.1453 83.0134 42.4004 0.0000 -6.7955 0.0000
# 3 6.0570 42.4004 137.9692 0.0000 -3.8142 0.0000
# 4 0.0000 0.0000 0.0000 5.3519 0.0000 19.5231
# 5 10.8209 -6.7955 -3.8142 0.0000 46.1292 0.0000
# 6 0.0000 0.0000 0.0000 19.5231 0.0000 -37.6765
#
#
#
# Elastic Compliance Matrix: (Units=1/GPa)
#
#
# Indices 1 2 3 4 5 6 
#
# 1 0.020109 0.003095 -0.001956 0.000000 -0.004423 0.000000
# 2 0.003095 0.014907 -0.004687 0.000000 0.001083 0.000000
# 3 -0.001956 -0.004687 0.008788 0.000000 0.000495 0.000000
# 4 0.000000 0.000000 0.000000 0.064648 0.000000 0.033499
# 5 -0.004423 0.001083 0.000495 0.000000 0.022916 0.000000
# 6 0.000000 0.000000 0.000000 0.033499 0.000000 -0.009183
#
#
# Mechanical properties :
#
#
# Convention : Reuss Voigt Hill
#
# Bulk Modulus (GPa) = 27.24323 39.09638 33.16981
# Shear Modulus (GPa) = 35.33131 18.55633 26.94382
#
# Velocity S-wave (km/s) = 3.91050 2.83399 3.41493
# Velocity P-wave (km/s) = 5.67280 5.25644 5.46858
#
# Compressibility (1/GPa) = 0.03670636
#
# Stress axis : x y z
#
# Youngs Moduli (GPa) = 49.72999 67.08213 113.79152
#
# Poissons Ratio (x) = -0.20759 0.22259
# Poissons Ratio (y) = -0.15389 0.53336
# Poissons Ratio (z) = 0.09728 0.31442
#
# Static dielectric constant tensor:
#      x y z
#    x 1.932750 0.000000 0.010570 
#    y 0.000000 1.826770 0.000000 
#    z 0.010570 0.000000 1.855350 
# 
# From -- ./inp_files/42059.got.cif
#   From: 2010.05.17/outbox.cif.g08.bks.cpg/sg10_22_cif.got.tgz:42059.got - 2010.06.03 11:33:40.
