data_PCOD9153439
_publ_section_title
;
Structure prediction by ZEFSAII (Michael W. Deem and Ramdas Pophale) SiO2 
 PCOD9153439
Probable space group: P 2/M
;
_chemical_formula_sum "Si O2"
_cell_formula_units_Z 23
_cell_length_a 12.197548
_cell_length_b 15.878862
_cell_length_c 6.831355
_cell_angle_alpha 90.000000
_cell_angle_beta 57.936183
_cell_angle_gamma 90.000000
_cell_volume 1121.286540
_symmetry_space_group_name_H-M "P 2/M"
_symmetry_group_IT_number 10
_symmetry_cell_setting 'monoclinic'
loop_
_space_group_symop_operation_xyz
x,y,z
-x,y,-z
-x,-y,-z
x,-y,z
loop_
_atom_site_type_symbol
_atom_site_label
_atom_site_fract_x
_atom_site_fract_y
_atom_site_fract_z
Si Si1 0.107940 0.095885 0.728921
Si Si2 0.640054 0.351586 0.611606
Si Si3 0.143664 0.599449 0.855318
Si Si4 0.362563 0.816495 0.647632
Si Si5 0.000000 0.218628 0.500000
Si Si6 0.500000 0.500000 0.500000
Si Si7 0.737787 0.295955 0.919802
O O1 0.242682 0.129048 0.687689
O O2 0.060376 0.159432 0.608983
O O3 0.120152 0.000000 0.644934
O O4 0.000000 0.097327 0.000000
O O5 0.785631 0.379649 0.412492
O O6 0.620766 0.264372 0.512412
O O7 0.550330 0.424977 0.607595
O O8 0.647715 0.331480 0.833593
O O9 0.137160 0.500000 0.884494
O O10 0.231966 0.634654 0.944399
O O11 0.000000 0.636393 0.000000
O O12 0.500000 0.862069 0.500000
O O13 0.326930 0.780151 0.896281
O O14 0.877987 0.269702 0.701839
#
# Coordination Sequence:
#
# PCOD9153439 Si02
#       7
#     4   4   4   4   2   1   4
#     4  11  24  44  72 104 141 180 225 284 343 414
#     4  11  23  43  62  89 130 175 230 279 333 396
#     4  10  22  38  57  90 130 166 217 277 340 404
#     4  11  24  45  66  97 138 181 230 276 343 415
#     4  12  21  42  71 106 134 174 230 277 346 422
#     4  12  24  44  64  90 130 182 236 284 320 408
#     4  11  24  38  68  96 128 179 221 283 343 407
#
# _framework density 20.512153000000001
#
# number of rings (size 3 to 8) (size 9 to 14) (size 15 to 20)
#    0.000    1.043    5.217    1.304    3.652    1.043 
#    0.000    5.652    0.000    1.043    0.000    0.000 
#    0.000    0.000    0.000    0.000    0.000    0.000 
#
# Total GULP energy -128274.428894 kJ/mol
# GULP energy per Si atom -5577.149082 kJ/mol
# Density = 2.046547 g / cm^3
# Si number density = 20.512153 Si / 1000 Ang^3
#
#
#
# Elastic Constant Matrix: (Units=GPa)
#
#
# Indices 1 2 3 4 5 6 
#
# 1 140.1159 22.1605 46.6021 0.0000 -7.4006 0.0000
# 2 22.1605 54.0167 3.8385 0.0000 0.3193 0.0000
# 3 46.6021 3.8385 73.6899 0.0000 7.9237 0.0000
# 4 0.0000 0.0000 0.0000 16.2595 0.0000 -5.8552
# 5 -7.4006 0.3193 7.9237 0.0000 45.1063 0.0000
# 6 0.0000 0.0000 0.0000 -5.8552 0.0000 25.5063
#
#
#
# Elastic Compliance Matrix: (Units=1/GPa)
#
#
# Indices 1 2 3 4 5 6 
#
# 1 0.010005 -0.003664 -0.006437 0.000000 0.002798 0.000000
# 2 -0.003664 0.019923 0.001385 0.000000 -0.000985 0.000000
# 3 -0.006437 0.001385 0.018024 0.000000 -0.004232 0.000000
# 4 0.000000 0.000000 0.000000 0.067045 0.000000 0.015391
# 5 0.002798 -0.000985 -0.004232 0.000000 0.023379 0.000000
# 6 0.000000 0.000000 0.000000 0.015391 0.000000 0.042739
#
#
# Mechanical properties :
#
#
# Convention : Reuss Voigt Hill
#
# Bulk Modulus (GPa) = 32.76453 45.89162 39.32808
# Shear Modulus (GPa) = 23.95528 30.38918 27.17223
#
# Velocity S-wave (km/s) = 3.42110 3.85323 3.64358
# Velocity P-wave (km/s) = 5.62256 6.49753 6.07582
#
# Compressibility (1/GPa) = 0.03052081
#
# Stress axis : x y z
#
# Youngs Moduli (GPa) = 99.94704 50.19256 55.48026
#
# Poissons Ratio (x) = 0.18390 0.35715
# Poissons Ratio (y) = 0.36619 -0.07685
# Poissons Ratio (z) = 0.64341 -0.06953
#
# Static dielectric constant tensor:
#      x y z
#    x 1.786740 0.000000 -0.048620 
#    y 0.000000 1.687810 0.000000 
#    z -0.048620 0.000000 1.778490 
# 
# From -- ./inp_files/7190.got.cif
#   From: 2010.05.17/outbox.cif.g08.bks.cpg/sg10_4_cif.got.tgz:7190.got - 2010.06.03 11:33:40.
