data_PCOD9153128
_publ_section_title
;
Structure prediction by ZEFSAII (Michael W. Deem and Ramdas Pophale) SiO2 
 PCOD9153128
Probable space group: P 2/M
;
_chemical_formula_sum "Si O2"
_cell_formula_units_Z 15
_cell_length_a 5.163835
_cell_length_b 20.940766
_cell_length_c 5.319011
_cell_angle_alpha 90.000000
_cell_angle_beta 83.892473
_cell_angle_gamma 90.000000
_cell_volume 571.904772
_symmetry_space_group_name_H-M "P 2/M"
_symmetry_group_IT_number 10
_symmetry_cell_setting 'monoclinic'
loop_
_space_group_symop_operation_xyz
x,y,z
-x,y,-z
-x,-y,-z
x,-y,z
loop_
_atom_site_type_symbol
_atom_site_label
_atom_site_fract_x
_atom_site_fract_y
_atom_site_fract_z
Si Si1 0.224856 0.138280 0.170404
Si Si2 0.781070 0.404601 0.827917
Si Si3 0.500000 0.500000 0.500000
Si Si4 0.336779 0.272283 0.276378
Si Si5 0.325706 0.000000 0.270024
O O1 0.244667 0.200257 0.343019
O O2 0.176067 0.067233 0.278063
O O3 0.500000 0.133164 0.000000
O O4 0.000000 0.154135 0.000000
O O5 0.703377 0.445040 0.591765
O O6 0.852910 0.331292 0.758512
O O7 0.500000 0.406237 0.000000
O O8 0.000000 0.429286 0.000000
O O9 0.500000 0.292942 0.500000
O O10 0.500000 0.266541 0.000000
O O11 0.500000 0.000000 0.500000
O O12 0.500000 0.000000 0.000000
#
# Coordination Sequence:
#
# PCOD9153128 Si02
#       5
#     4   4   1   4   2
#     4  10  21  40  64  94 130 172 219 272 329 393
#     4  11  25  44  66  98 133 173 223 275 334 402
#     4  12  24  46  68 100 128 180 216 278 338 398
#     4  10  21  43  66  98 132 176 222 276 331 398
#     4  10  21  40  62  94 128 172 216 272 328 392
#
# _framework density 26.228145000000001
#
# number of rings (size 3 to 8) (size 9 to 14) (size 15 to 20)
#    0.000    1.600    1.333    2.800    0.000    2.133 
#    0.000   34.667    0.000    0.000    0.000    0.000 
#    0.000    0.000    0.000    0.000    0.000    0.000 
#
# Total GULP energy -83628.810711 kJ/mol
# GULP energy per Si atom -5575.254047 kJ/mol
# Density = 2.616845 g / cm^3
# Si number density = 26.228145 Si / 1000 Ang^3
#
#
#
# Elastic Constant Matrix: (Units=GPa)
#
#
# Indices 1 2 3 4 5 6 
#
# 1 131.7219 -2.0030 46.7067 0.0000 12.3507 0.0000
# 2 -2.0030 248.1161 6.2903 0.0000 28.9037 0.0000
# 3 46.7067 6.2903 135.5339 0.0000 22.4558 0.0000
# 4 0.0000 0.0000 0.0000 30.4460 0.0000 43.5388
# 5 12.3507 28.9037 22.4558 0.0000 86.4050 0.0000
# 6 0.0000 0.0000 0.0000 43.5388 0.0000 6.4352
#
#
#
# Elastic Compliance Matrix: (Units=1/GPa)
#
#
# Indices 1 2 3 4 5 6 
#
# 1 0.008678 0.000208 -0.002908 0.000000 -0.000554 0.000000
# 2 0.000208 0.004199 -0.000030 0.000000 -0.001427 0.000000
# 3 -0.002908 -0.000030 0.008685 0.000000 -0.001831 0.000000
# 4 0.000000 0.000000 0.000000 -0.003786 0.000000 0.025616
# 5 -0.000554 -0.001427 -0.001831 0.000000 0.012606 0.000000
# 6 0.000000 0.000000 0.000000 0.025616 0.000000 -0.017913
#
#
# Mechanical properties :
#
#
# Convention : Reuss Voigt Hill
#
# Bulk Modulus (GPa) = 62.10525 68.59557 65.35041
# Shear Modulus (GPa) = 214.61236 55.61575 135.11405
#
# Velocity S-wave (km/s) = 9.05554 4.60984 7.18518
# Velocity P-wave (km/s) = 11.53548 7.38542 9.68534
#
# Compressibility (1/GPa) = 0.01610170
#
# Stress axis : x y z
#
# Youngs Moduli (GPa) = 115.23145 238.15189 115.13643
#
# Poissons Ratio (x) = -0.04962 0.33487
# Poissons Ratio (y) = -0.02401 0.00349
# Poissons Ratio (z) = 0.33514 0.00722
#
# Static dielectric constant tensor:
#      x y z
#    x 2.024760 0.000000 -0.027670 
#    y 0.000000 2.265340 0.000000 
#    z -0.027670 0.000000 1.924270 
# 
# From -- ./inp_files/1167.got.cif
#   From: 2010.05.17/outbox.cif.g08.bks.cpg/sg10_1_cif.got.tgz:1167.got - 2010.06.03 11:33:40.
