data_PCOD9153650
_publ_section_title
;
Structure prediction by ZEFSAII (Michael W. Deem and Ramdas Pophale) SiO2 
 PCOD9153650
Probable space group: P 2/M
;
_chemical_formula_sum "Si O2"
_cell_formula_units_Z 28
_cell_length_a 12.066564
_cell_length_b 8.183458
_cell_length_c 16.030562
_cell_angle_alpha 90.000000
_cell_angle_beta 55.865882
_cell_angle_gamma 90.000000
_cell_volume 1310.255538
_symmetry_space_group_name_H-M "P 2/M"
_symmetry_group_IT_number 10
_symmetry_cell_setting 'monoclinic'
loop_
_space_group_symop_operation_xyz
x,y,z
-x,y,-z
-x,-y,-z
x,-y,z
loop_
_atom_site_type_symbol
_atom_site_label
_atom_site_fract_x
_atom_site_fract_y
_atom_site_fract_z
Si Si1 0.875688 0.809954 0.813501
Si Si2 0.421295 0.807871 0.612928
Si Si3 0.128713 0.693065 0.998053
Si Si4 0.151148 0.300826 0.457165
Si Si5 0.164924 0.692762 0.639098
Si Si6 0.598459 0.805386 0.194783
Si Si7 0.662425 0.304421 0.774140
O O1 0.862414 0.782140 0.917396
O O2 0.745615 0.745939 0.820014
O O3 0.009445 0.719407 0.725448
O O4 0.892869 0.000000 0.787386
O O5 0.500000 0.734998 0.500000
O O6 0.264542 0.784185 0.659162
O O7 0.448473 0.741887 0.694050
O O8 0.454567 0.000000 0.601623
O O9 0.112891 0.500000 0.021410
O O10 0.262938 0.723750 0.889513
O O11 0.000000 0.748935 0.000000
O O12 0.150401 0.500000 0.458068
O O13 0.189930 0.248413 0.533778
O O14 0.250184 0.247201 0.342631
O O15 0.000000 0.248200 0.500000
O O16 0.194085 0.500000 0.631994
O O17 0.484288 0.768243 0.175613
O O18 0.619214 0.000000 0.191764
O O19 0.652988 0.500000 0.775639
#
# Coordination Sequence:
#
# PCOD9153650 Si02
#       7
#     4   4   4   4   4   4   4
#     4  12  25  41  63  93 127 162 204 254 315 378
#     4  10  22  40  61  89 129 170 207 252 309 373
#     4  11  25  46  71  96 121 156 208 262 311 368
#     4   9  17  33  57  87 124 164 206 254 306 356
#     4  11  21  36  61  91 124 164 213 263 309 364
#     4  11  24  42  64  92 129 168 206 253 313 373
#     4  11  22  40  65  92 127 167 212 260 308 365
#
# _framework density 21.369878
#
# number of rings (size 3 to 8) (size 9 to 14) (size 15 to 20)
#    0.000    1.286    1.429    4.714    0.000    5.429 
#    0.000    5.714    0.000    0.000    0.000    0.000 
#    0.000    0.000    0.000    0.000    0.000    0.000 
#
# Total GULP energy -156627.868317 kJ/mol
# GULP energy per Si atom -5593.852440 kJ/mol
# Density = 2.132124 g / cm^3
# Si number density = 21.369878 Si / 1000 Ang^3
#
#
#
# Elastic Constant Matrix: (Units=GPa)
#
#
# Indices 1 2 3 4 5 6 
#
# 1 122.8482 -18.4962 28.7200 0.0000 0.3380 0.0000
# 2 -18.4962 19.9932 -4.4406 0.0000 1.9914 0.0000
# 3 28.7200 -4.4406 76.5636 0.0000 7.1343 0.0000
# 4 0.0000 0.0000 0.0000 41.1221 0.0000 -40.9689
# 5 0.3380 1.9914 7.1343 0.0000 35.8261 0.0000
# 6 0.0000 0.0000 0.0000 -40.9689 0.0000 82.1305
#
#
#
# Elastic Compliance Matrix: (Units=1/GPa)
#
#
# Indices 1 2 3 4 5 6 
#
# 1 0.010233 0.008717 -0.003341 0.000000 0.000084 0.000000
# 2 0.008717 0.058520 0.000443 0.000000 -0.003423 0.000000
# 3 -0.003341 0.000443 0.014610 0.000000 -0.002903 0.000000
# 4 0.000000 0.000000 0.000000 0.048342 0.000000 0.024115
# 5 0.000084 -0.003423 -0.002903 0.000000 0.028680 0.000000
# 6 0.000000 0.000000 0.000000 0.024115 0.000000 0.024205
#
#
# Mechanical properties :
#
#
# Convention : Reuss Voigt Hill
#
# Bulk Modulus (GPa) = 10.52606 25.66349 18.09477
# Shear Modulus (GPa) = 24.43545 46.05719 35.24632
#
# Velocity S-wave (km/s) = 3.38517 4.64749 4.06562
# Velocity P-wave (km/s) = 4.49616 6.39016 5.52493
#
# Compressibility (1/GPa) = 0.09500231
#
# Stress axis : x y z
#
# Youngs Moduli (GPa) = 97.71964 17.08807 68.44414
#
# Poissons Ratio (x) = -0.14895 0.22867
# Poissons Ratio (y) = -0.85179 -0.03034
# Poissons Ratio (z) = 0.32648 -0.00758
#
# Static dielectric constant tensor:
#      x y z
#    x 1.750350 0.000000 0.006390 
#    y 0.000000 1.741280 0.000000 
#    z 0.006390 0.000000 1.771750 
# 
# From -- ./inp_files/50023.got.cif
#   From: 2010.05.17/outbox.cif.g08.bks.cpg/sg10_26_cif.got.tgz:50023.got - 2010.06.03 11:33:40.
