data_PCOD9153492
_publ_section_title
;
Structure prediction by ZEFSAII (Michael W. Deem and Ramdas Pophale) SiO2 
 PCOD9153492
Probable space group: P 2/M
;
_chemical_formula_sum "Si O2"
_cell_formula_units_Z 22
_cell_length_a 12.032961
_cell_length_b 7.981242
_cell_length_c 9.548983
_cell_angle_alpha 90.000000
_cell_angle_beta 81.816737
_cell_angle_gamma 90.000000
_cell_volume 907.727288
_symmetry_space_group_name_H-M "P 2/M"
_symmetry_group_IT_number 10
_symmetry_cell_setting 'monoclinic'
loop_
_space_group_symop_operation_xyz
x,y,z
-x,y,-z
-x,-y,-z
x,-y,z
loop_
_atom_site_type_symbol
_atom_site_label
_atom_site_fract_x
_atom_site_fract_y
_atom_site_fract_z
Si Si1 0.868371 0.807532 0.414762
Si Si2 0.655620 0.199475 0.257478
Si Si3 0.784466 0.500000 0.572695
Si Si4 0.420424 0.321131 0.257253
Si Si5 0.968044 0.694642 0.846950
Si Si6 0.271858 0.191358 0.060465
O O1 0.756315 0.765651 0.344094
O O2 0.872080 0.652844 0.520043
O O3 0.967087 0.798159 0.281571
O O4 0.861929 0.000000 0.470456
O O5 0.533867 0.271240 0.313404
O O6 0.643188 0.000000 0.251477
O O7 0.692350 0.259771 0.096774
O O8 0.685008 0.357610 0.625138
O O9 0.441757 0.500000 0.180644
O O10 0.376747 0.197559 0.146139
O O11 0.001769 0.500000 0.826417
O O12 0.833406 0.706851 0.860231
O O13 0.000000 0.748413 0.000000
O O14 0.233383 0.000000 0.050243
#
# Coordination Sequence:
#
# PCOD9153492 Si02
#       6
#     4   4   2   4   4   4
#     4  11  23  42  68  97 131 169 212 269 325 377
#     4  10  22  38  64  98 130 162 210 267 327 393
#     4  10  26  47  61  94 126 177 226 273 299 381
#     4  10  24  41  60  86 126 175 213 265 308 372
#     4  11  22  38  66 101 132 162 204 261 330 394
#     4  11  22  39  64  96 133 164 206 264 327 394
#
# _framework density 24.236355
#
# number of rings (size 3 to 8) (size 9 to 14) (size 15 to 20)
#    0.545    0.909    2.727    2.182    1.273    7.273 
#    0.000    3.636    0.000    2.182    0.000    0.000 
#    0.000    0.000    0.000    0.000    0.000    0.000 
#
# Total GULP energy -122513.404992 kJ/mol
# GULP energy per Si atom -5568.791136 kJ/mol
# Density = 2.418119 g / cm^3
# Si number density = 24.236355 Si / 1000 Ang^3
#
#
#
# Elastic Constant Matrix: (Units=GPa)
#
#
# Indices 1 2 3 4 5 6 
#
# 1 143.7660 16.2729 31.9929 0.0000 -6.9017 0.0000
# 2 16.2729 72.6638 28.2917 0.0000 7.9222 0.0000
# 3 31.9929 28.2917 74.2937 0.0000 -14.2534 0.0000
# 4 0.0000 0.0000 0.0000 -23.6972 0.0000 -90.1734
# 5 -6.9017 7.9222 -14.2534 0.0000 19.9494 0.0000
# 6 0.0000 0.0000 0.0000 -90.1734 0.0000 -120.5495
#
#
#
# Elastic Compliance Matrix: (Units=1/GPa)
#
#
# Indices 1 2 3 4 5 6 
#
# 1 0.007720 -0.000701 -0.002887 0.000000 0.000886 0.000000
# 2 -0.000701 0.019467 -0.010014 0.000000 -0.015128 0.000000
# 3 -0.002887 -0.010014 0.022120 0.000000 0.018782 0.000000
# 4 0.000000 0.000000 0.000000 0.022855 0.000000 -0.017096
# 5 0.000886 -0.015128 0.018782 0.000000 0.069860 0.000000
# 6 0.000000 0.000000 0.000000 -0.017096 0.000000 0.004493
#
#
# Mechanical properties :
#
#
# Convention : Reuss Voigt Hill
#
# Bulk Modulus (GPa) = 45.24298 49.31539 47.27919
# Shear Modulus (GPa) = 27.61099 -10.58170 8.51464
#
# Velocity S-wave (km/s) = 3.37892 -2.09178 1.87638
# Velocity P-wave (km/s) = 5.82501 3.81547 4.92385
#
# Compressibility (1/GPa) = 0.02210288
#
# Stress axis : x y z
#
# Youngs Moduli (GPa) = 129.52977 51.36853 45.20780
#
# Poissons Ratio (x) = 0.03603 0.13053
# Poissons Ratio (y) = 0.09085 0.45269
# Poissons Ratio (z) = 0.37400 0.51438
#
# Static dielectric constant tensor:
#      x y z
#    x 1.985860 0.000000 0.078650 
#    y 0.000000 1.900750 0.000000 
#    z 0.078650 0.000000 2.001430 
# 
# From -- ./inp_files/44990.got.cif
#   From: 2010.05.17/outbox.cif.g08.bks.cpg/sg10_23_cif.got.tgz:44990.got - 2010.06.03 11:33:40.
