data_PCOD9153106
_publ_section_title
;
Structure prediction by ZEFSAII (Michael W. Deem and Ramdas Pophale) SiO2 
 PCOD9153106
Probable space group: P 2/M
;
_chemical_formula_sum "Si O2"
_cell_formula_units_Z 28
_cell_length_a 15.308523
_cell_length_b 12.182254
_cell_length_c 9.202755
_cell_angle_alpha 90.000000
_cell_angle_beta 112.348467
_cell_angle_gamma 90.000000
_cell_volume 1587.333329
_symmetry_space_group_name_H-M "P 2/M"
_symmetry_group_IT_number 10
_symmetry_cell_setting 'monoclinic'
loop_
_space_group_symop_operation_xyz
x,y,z
-x,y,-z
-x,-y,-z
x,-y,z
loop_
_atom_site_type_symbol
_atom_site_label
_atom_site_fract_x
_atom_site_fract_y
_atom_site_fract_z
Si Si1 0.382343 0.868274 0.265433
Si Si2 0.219897 0.805929 0.670544
Si Si3 0.398938 0.869713 0.619296
Si Si4 0.106165 0.000000 0.118115
Si Si5 0.096832 0.000000 0.463233
Si Si6 0.092569 0.376456 0.459273
Si Si7 0.958069 0.374902 0.132132
Si Si8 0.202729 0.195273 0.997322
O O1 0.373847 0.851594 0.433670
O O2 0.490585 0.843532 0.292075
O O3 0.366482 0.000000 0.228731
O O4 0.306784 0.795849 0.131992
O O5 0.325817 0.809715 0.676961
O O6 0.170426 0.692094 0.593963
O O7 0.215245 0.837782 0.836804
O O8 0.156412 0.894606 0.547450
O O9 0.388332 0.000000 0.638673
O O10 0.097902 0.000000 0.288007
O O11 0.154853 0.105789 0.073881
O O12 0.000000 0.000000 0.000000
O O13 0.000000 0.000000 0.500000
O O14 0.126122 0.500000 0.447731
O O15 0.000000 0.381663 0.500000
O O16 0.043982 0.326500 0.284015
O O17 0.937377 0.500000 0.171949
O O18 0.865761 0.300063 0.061657
O O19 0.000000 0.383199 0.000000
#
# Coordination Sequence:
#
# PCOD9153106 Si02
#       8
#     4   4   4   2   2   4   4   4
#     4   9  19  37  58  79 110 150 191 233 284 338
#     4  12  23  35  57  87 113 150 190 234 278 343
#     4   9  19  37  58  80 109 150 193 233 279 338
#     4  12  26  38  51  78 119 158 184 227 284 339
#     4  12  26  38  53  78 119 154 190 227 278 341
#     4  10  21  40  60  80 112 154 193 234 279 330
#     4  10  23  40  59  84 113 151 197 238 278 332
#     4  12  23  36  57  86 117 149 188 231 287 338
#
# _framework density 17.639647
#
# number of rings (size 3 to 8) (size 9 to 14) (size 15 to 20)
#    0.000    1.429    2.857    3.857    6.000    0.571 
#    0.000    1.429    0.000    0.857    0.000    4.000 
#    0.000    0.000    0.000    0.000    0.000    0.000 
#
# Total GULP energy -156093.792434 kJ/mol
# GULP energy per Si atom -5574.778301 kJ/mol
# Density = 1.759950 g / cm^3
# Si number density = 17.639647 Si / 1000 Ang^3
#
#
#
# Elastic Constant Matrix: (Units=GPa)
#
#
# Indices 1 2 3 4 5 6 
#
# 1 113.4732 30.6676 52.8986 0.0000 -5.6117 0.0000
# 2 30.6676 51.2831 25.6080 0.0000 4.9339 0.0000
# 3 52.8986 25.6080 125.3912 0.0000 0.4956 0.0000
# 4 0.0000 0.0000 0.0000 29.0606 0.0000 -1.7914
# 5 -5.6117 4.9339 0.4956 0.0000 30.6816 0.0000
# 6 0.0000 0.0000 0.0000 -1.7914 0.0000 -6.3079
#
#
#
# Elastic Compliance Matrix: (Units=1/GPa)
#
#
# Indices 1 2 3 4 5 6 
#
# 1 0.012420 -0.005698 -0.004089 0.000000 0.003254 0.000000
# 2 -0.005698 0.024694 -0.002619 0.000000 -0.004971 0.000000
# 3 -0.004089 -0.002619 0.010237 0.000000 -0.000492 0.000000
# 4 0.000000 0.000000 0.000000 0.033819 0.000000 -0.009604
# 5 0.003254 -0.004971 -0.000492 0.000000 0.033995 0.000000
# 6 0.000000 0.000000 0.000000 -0.009604 0.000000 -0.155805
#
#
# Mechanical properties :
#
#
# Convention : Reuss Voigt Hill
#
# Bulk Modulus (GPa) = 44.37121 56.49954 50.43537
# Shear Modulus (GPa) = -601.29759 22.75175 -289.27292
#
# Velocity S-wave (km/s) = -18.48292 3.59529 -12.81976
# Velocity P-wave (km/s) = 20.74325 7.02383 13.80124
#
# Compressibility (1/GPa) = 0.02253714
#
# Stress axis : x y z
#
# Youngs Moduli (GPa) = 80.51748 40.49639 97.68715
#
# Poissons Ratio (x) = 0.23077 0.39940
# Poissons Ratio (y) = 0.45883 0.25588
# Poissons Ratio (z) = 0.32920 0.10607
#
# Static dielectric constant tensor:
#      x y z
#    x 1.618980 0.000000 -0.014670 
#    y 0.000000 1.773720 0.000000 
#    z -0.014670 0.000000 1.695560 
# 
# From -- ./inp_files/28380.got.cif
#   From: 2010.05.17/outbox.cif.g08.bks.cpg/sg10_15_cif.got.tgz:28380.got - 2010.06.03 11:33:40.
