data_PCOD9153446
_publ_section_title
;
Structure prediction by ZEFSAII (Michael W. Deem and Ramdas Pophale) SiO2 
 PCOD9153446
Probable space group: P 2/M
;
_chemical_formula_sum "Si O2"
_cell_formula_units_Z 24
_cell_length_a 7.539779
_cell_length_b 14.736775
_cell_length_c 13.844275
_cell_angle_alpha 90.000000
_cell_angle_beta 134.889979
_cell_angle_gamma 90.000000
_cell_volume 1089.804594
_symmetry_space_group_name_H-M "P 2/M"
_symmetry_group_IT_number 10
_symmetry_cell_setting 'monoclinic'
loop_
_space_group_symop_operation_xyz
x,y,z
-x,y,-z
-x,-y,-z
x,-y,z
loop_
_atom_site_type_symbol
_atom_site_label
_atom_site_fract_x
_atom_site_fract_y
_atom_site_fract_z
Si Si1 0.500000 0.265099 0.000000
Si Si2 0.236836 0.396839 0.778439
Si Si3 0.189959 0.900548 0.223905
Si Si4 0.000000 0.697124 0.500000
Si Si5 0.251428 0.396094 0.141253
Si Si6 0.484073 0.732239 0.387946
Si Si7 0.362796 0.101491 0.068904
O O1 0.264606 0.329340 0.880274
O O2 0.494301 0.193586 0.086764
O O3 0.165856 0.500000 0.776685
O O4 0.523087 0.397776 0.848954
O O5 0.080235 0.361651 0.625534
O O6 0.314765 0.821397 0.331443
O O7 0.893571 0.895167 0.091727
O O8 0.248109 0.000000 0.285650
O O9 0.299354 0.893377 0.157222
O O10 0.245318 0.750310 0.557157
O O11 0.201128 0.500000 0.150803
O O12 0.346298 0.337446 0.265641
O O13 0.000000 0.355902 0.000000
O O14 0.500000 0.691049 0.500000
O O15 0.475905 0.000000 0.097264
#
# Coordination Sequence:
#
# PCOD9153446 Si02
#       7
#     2   4   4   2   4   4   4
#     4  12  22  32  60  98 120 146 202 258 300 352
#     4  10  22  38  58  85 123 166 198 243 307 359
#     4   9  20  40  61  84 118 160 198 243 310 369
#     4  10  23  44  59  84 122 172 209 242 295 370
#     4   9  20  39  61  87 120 160 205 253 302 358
#     4  11  24  38  65  91 123 160 209 252 308 360
#     4   9  19  36  61  88 119 155 195 248 306 365
#
# _framework density 22.022297999999999
#
# number of rings (size 3 to 8) (size 9 to 14) (size 15 to 20)
#    0.000    2.167    0.000    3.750    7.000    1.333 
#    0.000    2.083    0.000    0.000    0.000    0.000 
#    0.000    0.000    0.000    0.000    0.000    0.000 
#
# Total GULP energy -134005.900866 kJ/mol
# GULP energy per Si atom -5583.579203 kJ/mol
# Density = 2.197217 g / cm^3
# Si number density = 22.022298 Si / 1000 Ang^3
#
#
#
# Elastic Constant Matrix: (Units=GPa)
#
#
# Indices 1 2 3 4 5 6 
#
# 1 34.2977 -4.3220 8.4625 0.0000 -4.9934 0.0000
# 2 -4.3220 98.4791 24.8498 0.0000 -6.8435 0.0000
# 3 8.4625 24.8498 96.5272 0.0000 -1.6078 0.0000
# 4 0.0000 0.0000 0.0000 49.7095 0.0000 -34.3490
# 5 -4.9934 -6.8435 -1.6078 0.0000 24.0811 0.0000
# 6 0.0000 0.0000 0.0000 -34.3490 0.0000 51.8905
#
#
#
# Elastic Compliance Matrix: (Units=1/GPa)
#
#
# Indices 1 2 3 4 5 6 
#
# 1 0.031344 0.002705 -0.003327 0.000000 0.007046 0.000000
# 2 0.002705 0.011300 -0.003087 0.000000 0.003566 0.000000
# 3 -0.003327 -0.003087 0.011433 0.000000 -0.000804 0.000000
# 4 0.000000 0.000000 0.000000 0.037075 0.000000 0.024542
# 5 0.007046 0.003566 -0.000804 0.000000 0.043947 0.000000
# 6 0.000000 0.000000 0.000000 0.024542 0.000000 0.035517
#
#
# Mechanical properties :
#
#
# Convention : Reuss Voigt Hill
#
# Bulk Modulus (GPa) = 21.43218 31.92050 26.67634
# Shear Modulus (GPa) = 25.82826 38.49048 32.15937
#
# Velocity S-wave (km/s) = 3.42837 4.18520 3.82555
# Velocity P-wave (km/s) = 5.04230 6.15472 5.62607
#
# Compressibility (1/GPa) = 0.04665881
#
# Stress axis : x y z
#
# Youngs Moduli (GPa) = 31.90408 88.49672 87.46843
#
# Poissons Ratio (x) = -0.23936 0.29099
# Poissons Ratio (y) = -0.08629 0.26999
# Poissons Ratio (z) = 0.10614 0.27317
#
# Static dielectric constant tensor:
#      x y z
#    x 1.865800 0.000000 0.010970 
#    y 0.000000 1.831740 0.000000 
#    z 0.010970 0.000000 1.776060 
# 
# From -- ./inp_files/29702.got.cif
#   From: 2010.05.17/outbox.cif.g08.bks.cpg/sg10_15_cif.got.tgz:29702.got - 2010.06.03 11:33:40.
