data_PCOD9153611
_publ_section_title
;
Structure prediction by ZEFSAII (Michael W. Deem and Ramdas Pophale) SiO2 
 PCOD9153611
Probable space group: P 2/M
;
_chemical_formula_sum "Si O2"
_cell_formula_units_Z 28
_cell_length_a 9.152179
_cell_length_b 7.523578
_cell_length_c 32.548745
_cell_angle_alpha 90.000000
_cell_angle_beta 144.248458
_cell_angle_gamma 90.000000
_cell_volume 1309.477044
_symmetry_space_group_name_H-M "P 2/M"
_symmetry_group_IT_number 10
_symmetry_cell_setting 'monoclinic'
loop_
_space_group_symop_operation_xyz
x,y,z
-x,y,-z
-x,-y,-z
x,-y,z
loop_
_atom_site_type_symbol
_atom_site_label
_atom_site_fract_x
_atom_site_fract_y
_atom_site_fract_z
Si Si1 0.598297 0.203358 0.637670
Si Si2 0.464175 0.215698 0.765996
Si Si3 0.843861 0.782975 0.222630
Si Si4 0.930541 0.213774 0.919088
Si Si5 0.611972 0.213840 0.930134
Si Si6 0.234677 0.705562 0.626250
Si Si7 0.679588 0.296241 0.506643
O O1 0.415524 0.205875 0.634689
O O2 0.465772 0.296518 0.569340
O O3 0.870256 0.276652 0.711886
O O4 0.637415 0.000000 0.633064
O O5 0.287712 0.265754 0.764243
O O6 0.747122 0.276687 0.841222
O O7 0.354953 0.283446 0.698659
O O8 0.465855 0.000000 0.764750
O O9 0.664685 0.720951 0.144456
O O10 0.841878 0.000000 0.220203
O O11 0.769853 0.242400 0.924134
O O12 0.950986 0.000000 0.918944
O O13 0.209400 0.282107 0.992541
O O14 0.594995 0.000000 0.931732
O O15 0.215833 0.500000 0.608699
O O16 0.954921 0.783531 0.564038
O O17 0.500000 0.213590 0.500000
O O18 0.727511 0.500000 0.531324
#
# Coordination Sequence:
#
# PCOD9153611 Si02
#       7
#     4   4   4   4   4   4   4
#     4  11  22  35  53  77 103 131 163 199 241 286
#     4   9  16  29  50  76 102 126 160 206 249 286
#     4   8  15  27  46  74 104 129 157 200 248 291
#     4   7  10  17  36  67  98 125 153 192 242 289
#     4   7   9  17  35  64 100 128 151 188 242 292
#     4  11  23  37  52  71  98 133 167 197 238 292
#     4  10  22  40  59  77  98 125 159 199 242 291
#
# _framework density 21.382580999999998
#
# number of rings (size 3 to 8) (size 9 to 14) (size 15 to 20)
#    0.000    3.000    0.000    4.714    0.000    3.143 
#    0.000    0.714    0.000    0.857    0.000   16.000 
#    0.000    0.000    0.000    0.000    0.000    0.000 
#
# Total GULP energy -156084.821936 kJ/mol
# GULP energy per Si atom -5574.457926 kJ/mol
# Density = 2.133391 g / cm^3
# Si number density = 21.382581 Si / 1000 Ang^3
#
#
#
# Elastic Constant Matrix: (Units=GPa)
#
#
# Indices 1 2 3 4 5 6 
#
# 1 86.1439 -2.9696 76.9617 0.0000 17.6026 0.0000
# 2 -2.9696 52.0938 -2.3433 0.0000 -3.1728 0.0000
# 3 76.9617 -2.3433 207.6705 0.0000 41.9949 0.0000
# 4 0.0000 0.0000 0.0000 -23.0613 0.0000 -35.4640
# 5 17.6026 -3.1728 41.9949 0.0000 -6.3097 0.0000
# 6 0.0000 0.0000 0.0000 -35.4640 0.0000 -10.5067
#
#
#
# Elastic Compliance Matrix: (Units=1/GPa)
#
#
# Indices 1 2 3 4 5 6 
#
# 1 0.017305 0.000814 -0.006856 0.000000 0.002236 0.000000
# 2 0.000814 0.019064 0.000594 0.000000 -0.003364 0.000000
# 3 -0.006856 0.000594 0.004813 0.000000 0.012609 0.000000
# 4 0.000000 0.000000 0.000000 0.010347 0.000000 -0.034926
# 5 0.002236 -0.003364 0.012609 0.000000 -0.066638 0.000000
# 6 0.000000 0.000000 0.000000 -0.034926 0.000000 0.022712
#
#
# Mechanical properties :
#
#
# Convention : Reuss Voigt Hill
#
# Bulk Modulus (GPa) = 33.01858 54.35620 43.68739
# Shear Modulus (GPa) = 174.85143 10.30841 92.57992
#
# Velocity S-wave (km/s) = 9.05264 2.19805 6.58718
# Velocity P-wave (km/s) = 11.16882 5.64959 8.85043
#
# Compressibility (1/GPa) = 0.03028598
#
# Stress axis : x y z
#
# Youngs Moduli (GPa) = 57.78688 52.45386 207.76558
#
# Poissons Ratio (x) = -0.04271 1.42446
# Poissons Ratio (y) = -0.04705 -0.12333
# Poissons Ratio (z) = 0.39619 -0.03114
#
# Static dielectric constant tensor:
#      x y z
#    x 1.727660 0.000000 0.044060 
#    y 0.000000 1.822130 0.000000 
#    z 0.044060 0.000000 1.806630 
# 
# From -- ./inp_files/94539.got.cif
#   From: 2010.05.17/outbox.cif.g08.bks.cpg/sg10_48_cif.got.tgz:94539.got - 2010.06.03 11:33:40.
