data_PCOD9153401
_publ_section_title
;
Structure prediction by ZEFSAII (Michael W. Deem and Ramdas Pophale) SiO2 
 PCOD9153401
Probable space group: P 2/M
;
_chemical_formula_sum "Si O2"
_cell_formula_units_Z 32
_cell_length_a 8.446494
_cell_length_b 25.792684
_cell_length_c 13.444930
_cell_angle_alpha 90.000000
_cell_angle_beta 148.158982
_cell_angle_gamma 90.000000
_cell_volume 1545.278612
_symmetry_space_group_name_H-M "P 2/M"
_symmetry_group_IT_number 10
_symmetry_cell_setting 'monoclinic'
loop_
_space_group_symop_operation_xyz
x,y,z
-x,y,-z
-x,-y,-z
x,-y,z
loop_
_atom_site_type_symbol
_atom_site_label
_atom_site_fract_x
_atom_site_fract_y
_atom_site_fract_z
Si Si1 0.338445 0.137147 0.150818
Si Si2 0.892281 0.149637 0.557149
Si Si3 0.788806 0.440478 0.287194
Si Si4 0.334434 0.250489 0.132285
Si Si5 0.315619 0.941766 0.800870
Si Si6 0.749994 0.251244 0.548835
Si Si7 0.248349 0.634379 0.448429
Si Si8 0.664862 0.635288 0.866654
O O1 0.535343 0.144166 0.355758
O O2 0.366108 0.192291 0.106017
O O3 0.479998 0.089250 0.168340
O O4 0.000000 0.128487 0.000000
O O5 0.959872 0.201075 0.655675
O O6 0.000000 0.157277 0.500000
O O7 0.036766 0.096504 0.669124
O O8 0.737846 0.500000 0.232304
O O9 0.479894 0.409811 0.143993
O O10 0.000000 0.440776 0.500000
O O11 0.990954 0.408137 0.318050
O O12 0.580286 0.252453 0.351864
O O13 0.352355 0.307305 0.092359
O O14 0.000000 0.249981 0.000000
O O15 0.235820 0.000000 0.726057
O O16 0.500000 0.944970 0.000000
O O17 0.500000 0.244602 0.500000
O O18 0.886181 0.307956 0.638007
O O19 0.500000 0.624515 0.500000
O O20 0.438027 0.636282 0.651693
O O21 0.000000 0.627280 0.000000
#
# Coordination Sequence:
#
# PCOD9153401 Si02
#       8
#     4   4   4   4   4   4   4   4
#     4   9  18  33  54  77  99 126 164 204 243 296
#     4   9  19  33  52  75 100 130 163 200 247 300
#     4   9  18  31  48  71  97 131 175 212 244 292
#     4   8  15  28  47  73 101 126 154 193 247 299
#     4  10  22  38  52  70 100 134 167 204 246 289
#     4   9  17  29  49  76 101 125 158 201 247 295
#     4   9  18  32  50  72 100 132 164 203 252 302
#     4   9  17  31  52  73  99 131 164 206 250 296
#
# _framework density 20.708238999999999
#
# number of rings (size 3 to 8) (size 9 to 14) (size 15 to 20)
#    0.000    3.000    0.000    0.000    0.000   10.500 
#    0.000    0.625    0.000    2.625    0.000    0.000 
#    0.000    0.000    0.000    0.000    0.000    0.000 
#
# Total GULP energy -178268.938919 kJ/mol
# GULP energy per Si atom -5570.904341 kJ/mol
# Density = 2.066111 g / cm^3
# Si number density = 20.708239 Si / 1000 Ang^3
#
#
#
# Elastic Constant Matrix: (Units=GPa)
#
#
# Indices 1 2 3 4 5 6 
#
# 1 34.8550 63.4235 9.1729 0.0000 12.8021 0.0000
# 2 63.4235 245.9656 37.8787 0.0000 31.3301 0.0000
# 3 9.1729 37.8787 63.1709 0.0000 21.3115 0.0000
# 4 0.0000 0.0000 0.0000 10.6057 0.0000 -12.0440
# 5 12.8021 31.3301 21.3115 0.0000 29.4161 0.0000
# 6 0.0000 0.0000 0.0000 -12.0440 0.0000 -68.6343
#
#
#
# Elastic Compliance Matrix: (Units=1/GPa)
#
#
# Indices 1 2 3 4 5 6 
#
# 1 0.057681 -0.013831 0.004522 0.000000 -0.013648 0.000000
# 2 -0.013831 0.008130 -0.002615 0.000000 -0.000745 0.000000
# 3 0.004522 -0.002615 0.021792 0.000000 -0.014971 0.000000
# 4 0.000000 0.000000 0.000000 0.078621 0.000000 -0.013796
# 5 -0.013648 -0.000745 -0.014971 0.000000 0.051574 0.000000
# 6 0.000000 0.000000 0.000000 -0.013796 0.000000 -0.012149
#
#
# Mechanical properties :
#
#
# Convention : Reuss Voigt Hill
#
# Bulk Modulus (GPa) = 15.68519 62.77130 39.22825
# Shear Modulus (GPa) = 19.94026 9.84526 14.89276
#
# Velocity S-wave (km/s) = 3.10645 2.18280 2.68465
# Velocity P-wave (km/s) = 4.52300 6.06060 5.34735
#
# Compressibility (1/GPa) = 0.06375440
#
# Stress axis : x y z
#
# Youngs Moduli (GPa) = 17.33673 123.00654 45.88814
#
# Poissons Ratio (x) = 1.70134 -0.20752
# Poissons Ratio (y) = 0.23979 0.12000
# Poissons Ratio (z) = -0.07840 0.32168
#
# Static dielectric constant tensor:
#      x y z
#    x 1.744480 0.000000 -0.014360 
#    y 0.000000 1.796110 0.000000 
#    z -0.014360 0.000000 1.772470 
# 
# From -- ./inp_files/62711.got.cif
#   From: 2010.05.17/outbox.cif.g08.bks.cpg/sg10_32_cif.got.tgz:62711.got - 2010.06.03 11:33:40.
