data_PCOD9153405
_publ_section_title
;
Structure prediction by ZEFSAII (Michael W. Deem and Ramdas Pophale) SiO2 
 PCOD9153405
Probable space group: P 2/M
;
_chemical_formula_sum "Si O2"
_cell_formula_units_Z 32
_cell_length_a 27.867078
_cell_length_b 7.828454
_cell_length_c 22.341521
_cell_angle_alpha 90.000000
_cell_angle_beta 160.441243
_cell_angle_gamma 90.000000
_cell_volume 1631.665277
_symmetry_space_group_name_H-M "P 2/M"
_symmetry_group_IT_number 10
_symmetry_cell_setting 'monoclinic'
loop_
_space_group_symop_operation_xyz
x,y,z
-x,y,-z
-x,-y,-z
x,-y,z
loop_
_atom_site_type_symbol
_atom_site_label
_atom_site_fract_x
_atom_site_fract_y
_atom_site_fract_z
Si Si1 0.370351 0.702384 0.928423
Si Si2 0.074988 0.205324 0.906445
Si Si3 0.889640 0.799692 0.917599
Si Si4 0.776977 0.293485 0.496579
Si Si5 0.293845 0.702379 0.713883
Si Si6 0.647169 0.795881 0.835990
Si Si7 0.424785 0.298209 0.472305
Si Si8 0.541451 0.294093 0.842897
O O1 0.335398 0.500000 0.890060
O O2 0.284714 0.775201 0.770508
O O3 0.538624 0.713468 0.108249
O O4 0.367937 0.771401 0.993112
O O5 0.915987 0.245699 0.697333
O O6 0.089100 0.000000 0.924488
O O7 0.102431 0.272681 0.005874
O O8 0.199247 0.269022 0.007721
O O9 0.730152 0.784989 0.704921
O O10 0.926514 0.000000 0.967220
O O11 0.000000 0.721828 0.000000
O O12 0.770097 0.500000 0.485855
O O13 0.787640 0.228954 0.440173
O O14 0.624439 0.234975 0.345009
O O15 0.260402 0.500000 0.679029
O O16 0.526194 0.732090 0.647906
O O17 0.608831 0.748049 0.858521
O O18 0.647274 0.000000 0.832594
O O19 0.500000 0.232574 0.500000
O O20 0.401721 0.500000 0.438023
O O21 0.537364 0.500000 0.843424
#
# Coordination Sequence:
#
# PCOD9153405 Si02
#       8
#     4   4   4   4   4   4   4   4
#     4   7  10  20  42  70 103 133 162 205 254 303
#     4  10  22  38  53  73 103 139 178 212 250 306
#     4  10  22  40  60  81 105 137 175 212 254 306
#     4   9  18  31  51  79 109 135 167 214 264 310
#     4   7  10  20  41  71 101 133 166 200 252 310
#     4  11  23  38  56  74 101 143 180 211 249 304
#     4  11  23  39  60  84 106 131 168 215 263 308
#     4   9  18  32  51  81 110 133 168 217 264 304
#
# _framework density 19.611865000000002
#
# number of rings (size 3 to 8) (size 9 to 14) (size 15 to 20)
#    0.000    2.750    1.250    3.000    1.750    2.750 
#    0.000    0.000    0.000    1.500    0.000    8.750 
#    0.000    0.000    0.000    0.000    0.000    0.000 
#
# Total GULP energy -178301.114756 kJ/mol
# GULP energy per Si atom -5571.909836 kJ/mol
# Density = 1.956723 g / cm^3
# Si number density = 19.611865 Si / 1000 Ang^3
#
#
#
# Elastic Constant Matrix: (Units=GPa)
#
#
# Indices 1 2 3 4 5 6 
#
# 1 158.7556 5.7485 61.1526 0.0000 -10.2602 0.0000
# 2 5.7485 -0.7047 37.8740 0.0000 -17.0803 0.0000
# 3 61.1526 37.8740 2.2288 0.0000 26.0887 0.0000
# 4 0.0000 0.0000 0.0000 17.9870 0.0000 9.2539
# 5 -10.2602 -17.0803 26.0887 0.0000 15.6333 0.0000
# 6 0.0000 0.0000 0.0000 9.2539 0.0000 5.6990
#
#
#
# Elastic Compliance Matrix: (Units=1/GPa)
#
#
# Indices 1 2 3 4 5 6 
#
# 1 0.007434 -0.010246 -0.002378 0.000000 -0.002348 0.000000
# 2 -0.010246 0.025578 0.021685 0.000000 -0.014967 0.000000
# 3 -0.002378 0.021685 0.006131 0.000000 0.011900 0.000000
# 4 0.000000 0.000000 0.000000 0.337740 0.000000 -0.548412
# 5 -0.002348 -0.014967 0.011900 0.000000 0.026214 0.000000
# 6 0.000000 0.000000 0.000000 -0.548412 0.000000 1.065962
#
#
# Mechanical properties :
#
#
# Convention : Reuss Voigt Hill
#
# Bulk Modulus (GPa) = 17.46299 41.09221 29.27760
# Shear Modulus (GPa) = 3.40130 11.56418 7.48274
#
# Velocity S-wave (km/s) = 1.31836 2.43091 1.95543
# Velocity P-wave (km/s) = 3.35277 5.37376 4.47875
#
# Compressibility (1/GPa) = 0.05726398
#
# Stress axis : x y z
#
# Youngs Moduli (GPa) = 134.51336 39.09662 163.10512
#
# Poissons Ratio (x) = 0.40060 0.38783
# Poissons Ratio (y) = 1.37828 -3.53689
# Poissons Ratio (z) = 0.31984 -0.84780
#
# Static dielectric constant tensor:
#      x y z
#    x 1.733020 0.000000 -0.030390 
#    y 0.000000 1.734120 0.000000 
#    z -0.030390 0.000000 1.667730 
# 
# From -- ./inp_files/86937.got.cif
#   From: 2010.05.17/outbox.cif.g08.bks.cpg/sg10_44_cif.got.tgz:86937.got - 2010.06.03 11:33:40.
