data_PCOD9153783
_publ_section_title
;
Structure prediction by ZEFSAII (Michael W. Deem and Ramdas Pophale) SiO2 
 PCOD9153783
Probable space group: P 2/M
;
_chemical_formula_sum "Si O2"
_cell_formula_units_Z 20
_cell_length_a 9.260891
_cell_length_b 11.201597
_cell_length_c 8.950170
_cell_angle_alpha 90.000000
_cell_angle_beta 79.360797
_cell_angle_gamma 90.000000
_cell_volume 912.500768
_symmetry_space_group_name_H-M "P 2/M"
_symmetry_group_IT_number 10
_symmetry_cell_setting 'monoclinic'
loop_
_space_group_symop_operation_xyz
x,y,z
-x,y,-z
-x,-y,-z
x,-y,z
loop_
_atom_site_type_symbol
_atom_site_label
_atom_site_fract_x
_atom_site_fract_y
_atom_site_fract_z
Si Si1 0.406516 0.636812 0.380448
Si Si2 0.906187 0.360659 0.669927
Si Si3 0.441535 0.000000 0.345509
Si Si4 0.144293 0.000000 0.570654
Si Si5 0.092983 0.190207 0.841428
Si Si6 0.424658 0.774151 0.856610
O O1 0.500000 0.690675 0.500000
O O2 0.372718 0.500000 0.428725
O O3 0.253043 0.689732 0.350768
O O4 0.518096 0.651035 0.223995
O O5 0.888198 0.500000 0.716409
O O6 0.000000 0.355809 0.500000
O O7 0.990695 0.291190 0.784510
O O8 0.500000 0.000000 0.500000
O O9 0.506230 0.116084 0.251187
O O10 0.269506 0.000000 0.418916
O O11 0.138588 0.891001 0.690141
O O12 0.000000 0.000000 0.500000
O O13 0.249597 0.225835 0.881742
O O14 0.000000 0.138818 0.000000
O O15 0.500000 0.788579 0.000000
#
# Coordination Sequence:
#
# PCOD9153783 Si02
#       6
#     4   4   2   2   4   4
#     4  10  22  41  68 100 133 173 223 272 323 391
#     4  10  22  41  67  99 135 174 220 272 326 391
#     4  12  25  48  70  98 131 170 226 274 330 388
#     4  12  29  44  72 100 129 176 220 275 325 398
#     4  12  26  45  66  98 138 174 219 271 335 394
#     4  12  26  43  69  97 135 176 217 277 331 392
#
# _framework density 21.917791000000001
#
# number of rings (size 3 to 8) (size 9 to 14) (size 15 to 20)
#    0.000    0.800    2.000    4.200    8.400    3.200 
#    0.000    0.000    0.000    0.000    0.000    0.000 
#    0.000    0.000    0.000    0.000    0.000    0.000 
#
# Total GULP energy -111595.803827 kJ/mol
# GULP energy per Si atom -5579.790191 kJ/mol
# Density = 2.186790 g / cm^3
# Si number density = 21.917791 Si / 1000 Ang^3
#
#
#
# Elastic Constant Matrix: (Units=GPa)
#
#
# Indices 1 2 3 4 5 6 
#
# 1 232.7266 24.0353 53.2639 0.0000 18.4282 0.0000
# 2 24.0353 59.7818 18.6344 0.0000 15.3152 0.0000
# 3 53.2639 18.6344 114.0837 0.0000 24.4835 0.0000
# 4 0.0000 0.0000 0.0000 -8.7856 0.0000 -14.8450
# 5 18.4282 15.3152 24.4835 0.0000 55.9315 0.0000
# 6 0.0000 0.0000 0.0000 -14.8450 0.0000 14.7003
#
#
#
# Elastic Compliance Matrix: (Units=1/GPa)
#
#
# Indices 1 2 3 4 5 6 
#
# 1 0.004917 -0.001249 -0.002006 0.000000 -0.000400 0.000000
# 2 -0.001249 0.018764 -0.001619 0.000000 -0.004017 0.000000
# 3 -0.002006 -0.001619 0.010738 0.000000 -0.003596 0.000000
# 4 0.000000 0.000000 0.000000 -0.042058 0.000000 -0.042472
# 5 -0.000400 -0.004017 -0.003596 0.000000 0.020685 0.000000
# 6 0.000000 0.000000 0.000000 -0.042472 0.000000 0.025136
#
#
# Mechanical properties :
#
#
# Convention : Reuss Voigt Hill
#
# Bulk Modulus (GPa) = 40.53494 66.49551 53.51522
# Shear Modulus (GPa) = 89.04211 33.07982 61.06096
#
# Velocity S-wave (km/s) = 6.38073 3.88914 5.28390
# Velocity P-wave (km/s) = 8.53341 7.11138 7.85464
#
# Compressibility (1/GPa) = 0.02467007
#
# Stress axis : x y z
#
# Youngs Moduli (GPa) = 203.39332 53.29437 93.12538
#
# Poissons Ratio (x) = 0.06657 0.18677
# Poissons Ratio (y) = 0.25406 0.15082
# Poissons Ratio (z) = 0.40793 0.08631
#
# Static dielectric constant tensor:
#      x y z
#    x 1.882220 0.000000 0.016160 
#    y 0.000000 1.919630 0.000000 
#    z 0.016160 0.000000 1.750900 
# 
# From -- ./inp_files/17797.got.cif
#   From: 2010.05.17/outbox.cif.g08.bks.cpg/sg10_9_cif.got.tgz:17797.got - 2010.06.03 11:33:40.
