data_PCOD9153925
_publ_section_title
;
Structure prediction by ZEFSAII (Michael W. Deem and Ramdas Pophale) SiO2 
 PCOD9153925
Probable space group: P 2/M
;
_chemical_formula_sum "Si O2"
_cell_formula_units_Z 26
_cell_length_a 14.026195
_cell_length_b 7.825294
_cell_length_c 15.205856
_cell_angle_alpha 90.000000
_cell_angle_beta 48.032416
_cell_angle_gamma 90.000000
_cell_volume 1240.926270
_symmetry_space_group_name_H-M "P 2/M"
_symmetry_group_IT_number 10
_symmetry_cell_setting 'monoclinic'
loop_
_space_group_symop_operation_xyz
x,y,z
-x,y,-z
-x,-y,-z
x,-y,z
loop_
_atom_site_type_symbol
_atom_site_label
_atom_site_fract_x
_atom_site_fract_y
_atom_site_fract_z
Si Si1 0.799287 0.206114 0.656473
Si Si2 0.951940 0.205657 0.387715
Si Si3 0.885245 0.500000 0.002474
Si Si4 0.531579 0.182638 0.584510
Si Si5 0.318794 0.797808 0.861085
Si Si6 0.477674 0.208188 0.113742
Si Si7 0.360329 0.500000 0.537015
Si Si8 0.914739 0.500000 0.272962
O O1 0.860783 0.254796 0.525719
O O2 0.658264 0.271535 0.765265
O O3 0.903656 0.243751 0.667331
O O4 0.791876 0.000000 0.658134
O O5 0.922647 0.327663 0.325096
O O6 0.941534 0.000000 0.377751
O O7 0.962402 0.500000 0.864223
O O8 0.798332 0.668052 0.067654
O O9 0.000000 0.500000 0.000000
O O10 0.500000 0.167191 0.500000
O O11 0.406385 0.220537 0.719414
O O12 0.632323 0.333045 0.527389
O O13 0.582567 0.000000 0.584913
O O14 0.409034 0.751028 0.888311
O O15 0.284016 0.000000 0.888708
O O16 0.472570 0.000000 0.114811
O O17 0.500000 0.266183 0.000000
O O18 0.500000 0.500000 0.500000
O O19 0.232178 0.500000 0.673994
#
# Coordination Sequence:
#
# PCOD9153925 Si02
#       8
#     4   4   2   4   4   4   2   2
#     4   8  16  34  61  94 132 172 204 251 321 378
#     4   9  20  40  64  91 131 170 208 261 316 383
#     4  12  31  50  65  87 134 175 229 286 324 393
#     4   9  19  37  68  99 122 154 204 268 331 387
#     4  10  23  45  71  98 129 174 221 270 334 394
#     4   9  18  33  62  98 131 168 215 261 313 388
#     4  10  23  40  64  88 126 156 193 259 332 381
#     4  12  28  41  63  99 116 170 228 262 324 393
#
# _framework density 20.952092
#
# number of rings (size 3 to 8) (size 9 to 14) (size 15 to 20)
#    0.000    2.462    0.000    1.385    8.615    2.769 
#    0.000    1.154    0.000    0.000    0.000    0.000 
#    0.000    0.000    0.000    0.000    0.000    0.000 
#
# Total GULP energy -145094.399370 kJ/mol
# GULP energy per Si atom -5580.553822 kJ/mol
# Density = 2.090440 g / cm^3
# Si number density = 20.952092 Si / 1000 Ang^3
#
#
#
# Elastic Constant Matrix: (Units=GPa)
#
#
# Indices 1 2 3 4 5 6 
#
# 1 120.1565 37.1408 62.5711 0.0000 -11.3584 0.0000
# 2 37.1408 100.1375 59.7112 0.0000 -15.3832 0.0000
# 3 62.5711 59.7112 137.4004 0.0000 -12.0517 0.0000
# 4 0.0000 0.0000 0.0000 33.1332 0.0000 -5.8910
# 5 -11.3584 -15.3832 -12.0517 0.0000 32.6855 0.0000
# 6 0.0000 0.0000 0.0000 -5.8910 0.0000 27.4964
#
#
#
# Elastic Compliance Matrix: (Units=1/GPa)
#
#
# Indices 1 2 3 4 5 6 
#
# 1 0.011154 -0.001268 -0.004382 0.000000 0.001663 0.000000
# 2 -0.001268 0.014242 -0.005232 0.000000 0.004333 0.000000
# 3 -0.004382 -0.005232 0.011572 0.000000 0.000282 0.000000
# 4 0.000000 0.000000 0.000000 0.031376 0.000000 0.006722
# 5 0.001663 0.004333 0.000282 0.000000 0.033316 0.000000
# 6 0.000000 0.000000 0.000000 0.006722 0.000000 0.037809
#
#
# Mechanical properties :
#
#
# Convention : Reuss Voigt Hill
#
# Bulk Modulus (GPa) = 65.77531 75.17116 70.47324
# Shear Modulus (GPa) = 30.06605 31.88111 30.97358
#
# Velocity S-wave (km/s) = 3.79224 3.90503 3.84904
# Velocity P-wave (km/s) = 7.11590 7.50252 7.31177
#
# Compressibility (1/GPa) = 0.01520327
#
# Stress axis : x y z
#
# Youngs Moduli (GPa) = 89.65556 70.21544 86.41622
#
# Poissons Ratio (x) = 0.08905 0.37870
# Poissons Ratio (y) = 0.11371 0.45209
# Poissons Ratio (z) = 0.39290 0.36734
#
# Static dielectric constant tensor:
#      x y z
#    x 1.812920 0.000000 0.070890 
#    y 0.000000 1.813670 0.000000 
#    z 0.070890 0.000000 1.756210 
# 
# From -- ./inp_files/66828.got.cif
#   From: 2010.05.17/outbox.cif.g08.bks.cpg/sg10_34_cif.got.tgz:66828.got - 2010.06.03 11:33:40.
