data_PCOD9153643
_publ_section_title
;
Structure prediction by ZEFSAII (Michael W. Deem and Ramdas Pophale) SiO2 
 PCOD9153643
Probable space group: P 2/M
;
_chemical_formula_sum "Si O2"
_cell_formula_units_Z 32
_cell_length_a 28.899736
_cell_length_b 8.297435
_cell_length_c 11.936853
_cell_angle_alpha 90.000000
_cell_angle_beta 148.372140
_cell_angle_gamma 90.000000
_cell_volume 1501.033065
_symmetry_space_group_name_H-M "P 2/M"
_symmetry_group_IT_number 10
_symmetry_cell_setting 'monoclinic'
loop_
_space_group_symop_operation_xyz
x,y,z
-x,y,-z
-x,-y,-z
x,-y,z
loop_
_atom_site_type_symbol
_atom_site_label
_atom_site_fract_x
_atom_site_fract_y
_atom_site_fract_z
Si Si1 0.165249 0.194960 0.143116
Si Si2 0.906457 0.813438 0.350322
Si Si3 0.303758 0.692430 0.834046
Si Si4 0.713674 0.309661 0.945664
Si Si5 0.514848 0.804270 0.900425
Si Si6 0.858999 0.189634 0.648158
Si Si7 0.024117 0.685001 0.291467
Si Si8 0.652039 0.193031 0.589954
O O1 0.161962 0.236195 0.267754
O O2 0.256282 0.251675 0.275914
O O3 0.159978 0.000000 0.121698
O O4 0.077841 0.268764 0.908722
O O5 0.918154 0.795852 0.507636
O O6 0.000000 0.745331 0.500000
O O7 0.900815 0.000000 0.303799
O O8 0.816127 0.729457 0.130543
O O9 0.287172 0.500000 0.800678
O O10 0.226324 0.774294 0.603381
O O11 0.304484 0.749138 0.965191
O O12 0.395959 0.731237 0.965044
O O13 0.700692 0.500000 0.917829
O O14 0.654291 0.236105 0.725273
O O15 0.432203 0.750244 0.653979
O O16 0.521294 0.000000 0.908421
O O17 0.500000 0.761565 0.000000
O O18 0.940305 0.282092 0.759425
O O19 0.879692 0.000000 0.689931
O O20 0.039530 0.500000 0.353848
O O21 0.652943 0.000000 0.581660
#
# Coordination Sequence:
#
# PCOD9153643 Si02
#       8
#     4   4   4   4   4   4   4   4
#     4  10  22  40  61  88 121 161 209 261 314 368
#     4  11  23  39  61  87 118 163 217 265 309 365
#     4  11  24  41  63  93 128 165 206 259 319 377
#     4  11  24  41  61  89 127 166 206 256 315 374
#     4  10  22  43  70  98 126 161 208 259 312 373
#     4  11  22  39  64  89 120 164 212 261 311 368
#     4  12  24  37  56  88 126 163 205 254 314 378
#     4  10  22  41  65  92 123 159 207 260 309 369
#
# _framework density 21.318650000000002
#
# number of rings (size 3 to 8) (size 9 to 14) (size 15 to 20)
#    0.000    1.250    1.250    4.500    0.000   11.750 
#    0.000    3.750    0.000    0.000    0.000    0.000 
#    0.000    0.000    0.000    0.000    0.000    0.000 
#
# Total GULP energy -179013.307683 kJ/mol
# GULP energy per Si atom -5594.165865 kJ/mol
# Density = 2.127013 g / cm^3
# Si number density = 21.318650 Si / 1000 Ang^3
#
#
#
# Elastic Constant Matrix: (Units=GPa)
#
#
# Indices 1 2 3 4 5 6 
#
# 1 82.8897 -3.4338 22.0481 0.0000 -0.0254 0.0000
# 2 -3.4338 12.7608 -4.9742 0.0000 1.9926 0.0000
# 3 22.0481 -4.9742 108.8799 0.0000 -5.5843 0.0000
# 4 0.0000 0.0000 0.0000 -167.1118 0.0000 -106.6802
# 5 -0.0254 1.9926 -5.5843 0.0000 39.7276 0.0000
# 6 0.0000 0.0000 0.0000 -106.6802 0.0000 -82.8977
#
#
#
# Elastic Compliance Matrix: (Units=1/GPa)
#
#
# Indices 1 2 3 4 5 6 
#
# 1 0.012837 0.002551 -0.002507 0.000000 -0.000472 0.000000
# 2 0.002551 0.080783 0.002988 0.000000 -0.003630 0.000000
# 3 -0.002507 0.002988 0.009892 0.000000 0.001239 0.000000
# 4 0.000000 0.000000 0.000000 -0.033528 0.000000 0.043146
# 5 -0.000472 -0.003630 0.001239 0.000000 0.025527 0.000000
# 6 0.000000 0.000000 0.000000 0.043146 0.000000 -0.067588
#
#
# Mechanical properties :
#
#
# Convention : Reuss Voigt Hill
#
# Bulk Modulus (GPa) = 9.12619 25.75672 17.44146
# Shear Modulus (GPa) = 85.63755 -29.33036 28.15359
#
# Velocity S-wave (km/s) = 6.34488 -3.71321 3.63796
# Velocity P-wave (km/s) = 7.61359 2.50518 5.08384
#
# Compressibility (1/GPa) = 0.10957472
#
# Stress axis : x y z
#
# Youngs Moduli (GPa) = 77.90215 12.37884 101.09009
#
# Poissons Ratio (x) = -0.03157 0.25344
# Poissons Ratio (y) = -0.19870 -0.30205
# Poissons Ratio (z) = 0.19531 -0.03699
#
# Static dielectric constant tensor:
#      x y z
#    x 1.793290 0.000000 -0.022080 
#    y 0.000000 1.734950 0.000000 
#    z -0.022080 0.000000 1.750330 
# 
# From -- ./inp_files/58275.got.cif
#   From: 2010.05.17/outbox.cif.g08.bks.cpg/sg10_30_cif.got.tgz:58275.got - 2010.06.03 11:33:40.
