data_PCOD9153397
_publ_section_title
;
Structure prediction by ZEFSAII (Michael W. Deem and Ramdas Pophale) SiO2 
 PCOD9153397
Probable space group: P 2/M
;
_chemical_formula_sum "Si O2"
_cell_formula_units_Z 28
_cell_length_a 10.553482
_cell_length_b 14.595380
_cell_length_c 9.198041
_cell_angle_alpha 90.000000
_cell_angle_beta 71.698477
_cell_angle_gamma 90.000000
_cell_volume 1345.127914
_symmetry_space_group_name_H-M "P 2/M"
_symmetry_group_IT_number 10
_symmetry_cell_setting 'monoclinic'
loop_
_space_group_symop_operation_xyz
x,y,z
-x,y,-z
-x,-y,-z
x,-y,z
loop_
_atom_site_type_symbol
_atom_site_label
_atom_site_fract_x
_atom_site_fract_y
_atom_site_fract_z
Si Si1 0.167463 0.105908 0.573127
Si Si2 0.581941 0.678770 0.120336
Si Si3 0.898934 0.606139 0.665685
Si Si4 0.626834 0.603405 0.593526
Si Si5 0.873344 0.270024 0.940703
Si Si6 0.619566 0.221936 0.378003
Si Si7 0.149161 0.106326 0.253513
O O1 0.243394 0.170086 0.656548
O O2 0.201224 0.135322 0.394875
O O3 0.010636 0.109361 0.662387
O O4 0.207380 0.000000 0.571865
O O5 0.503038 0.608593 0.254698
O O6 0.575209 0.766067 0.228835
O O7 0.500000 0.683578 0.000000
O O8 0.742295 0.672688 0.041537
O O9 0.912720 0.500000 0.703575
O O10 0.751069 0.619816 0.655914
O O11 0.928501 0.671737 0.786631
O O12 0.000000 0.625242 0.500000
O O13 0.639230 0.500000 0.528908
O O14 0.632491 0.682297 0.467330
O O15 0.820170 0.175454 0.887938
O O16 0.000000 0.255640 0.000000
O O17 0.500000 0.169478 0.500000
O O18 0.185351 0.000000 0.213375
#
# Coordination Sequence:
#
# PCOD9153397 Si02
#       7
#     4   4   4   4   4   4   4
#     4   9  18  36  63  94 120 155 209 264 308 359
#     4  11  24  42  59  91 129 170 207 252 311 384
#     4  10  23  41  63  92 126 165 212 261 316 374
#     4  10  22  43  68  92 121 169 218 260 310 374
#     4  12  25  39  66  95 129 168 207 260 323 368
#     4  10  22  37  62  90 121 158 209 262 306 365
#     4   9  20  37  62  92 124 161 207 257 311 373
#
# _framework density 20.815864000000001
#
# number of rings (size 3 to 8) (size 9 to 14) (size 15 to 20)
#    0.000    1.857    1.429    2.571    8.000    4.286 
#    0.000    0.714    0.000    1.714    0.000    0.000 
#    0.000    0.000    0.000    0.000    0.000    0.000 
#
# Total GULP energy -156082.882058 kJ/mol
# GULP energy per Si atom -5574.388645 kJ/mol
# Density = 2.076849 g / cm^3
# Si number density = 20.815864 Si / 1000 Ang^3
#
#
#
# Elastic Constant Matrix: (Units=GPa)
#
#
# Indices 1 2 3 4 5 6 
#
# 1 50.5005 13.7099 6.2711 0.0000 7.6366 0.0000
# 2 13.7099 111.3257 -41.8588 0.0000 48.6043 0.0000
# 3 6.2711 -41.8588 115.8883 0.0000 -44.1721 0.0000
# 4 0.0000 0.0000 0.0000 2.8342 0.0000 -16.0129
# 5 7.6366 48.6043 -44.1721 0.0000 74.1218 0.0000
# 6 0.0000 0.0000 0.0000 -16.0129 0.0000 10.8923
#
#
#
# Elastic Compliance Matrix: (Units=1/GPa)
#
#
# Indices 1 2 3 4 5 6 
#
# 1 0.021254 -0.002810 -0.002973 0.000000 -0.002119 0.000000
# 2 -0.002810 0.013259 0.002248 0.000000 -0.007065 0.000000
# 3 -0.002973 0.002248 0.011848 0.000000 0.005893 0.000000
# 4 0.000000 0.000000 0.000000 -0.048294 0.000000 -0.070997
# 5 -0.002119 -0.007065 0.005893 0.000000 0.021854 0.000000
# 6 0.000000 0.000000 0.000000 -0.070997 0.000000 -0.012566
#
#
# Mechanical properties :
#
#
# Convention : Reuss Voigt Hill
#
# Bulk Modulus (GPa) = 25.45099 25.99545 25.72322
# Shear Modulus (GPa) = 181.67798 37.54248 109.61023
#
# Velocity S-wave (km/s) = 9.35244 4.25143 7.26439
# Velocity P-wave (km/s) = 11.35242 6.05103 9.09649
#
# Compressibility (1/GPa) = 0.03929120
#
# Stress axis : x y z
#
# Youngs Moduli (GPa) = 47.04949 75.42325 84.40243
#
# Poissons Ratio (x) = 0.21196 0.25090
# Poissons Ratio (y) = 0.13222 -0.18976
# Poissons Ratio (z) = 0.13986 -0.16957
#
# Static dielectric constant tensor:
#      x y z
#    x 1.817160 0.000000 -0.018330 
#    y 0.000000 1.762840 0.000000 
#    z -0.018330 0.000000 1.780670 
# 
# From -- ./inp_files/24918.got.cif
#   From: 2010.05.17/outbox.cif.g08.bks.cpg/sg10_13_cif.got.tgz:24918.got - 2010.06.03 11:33:40.
