data_PCOD9153612
_publ_section_title
;
Structure prediction by ZEFSAII (Michael W. Deem and Ramdas Pophale) SiO2 
 PCOD9153612
Probable space group: P 2/M
;
_chemical_formula_sum "Si O2"
_cell_formula_units_Z 24
_cell_length_a 23.721870
_cell_length_b 7.607983
_cell_length_c 18.049612
_cell_angle_alpha 90.000000
_cell_angle_beta 20.219678
_cell_angle_gamma 90.000000
_cell_volume 1125.863708
_symmetry_space_group_name_H-M "P 2/M"
_symmetry_group_IT_number 10
_symmetry_cell_setting 'monoclinic'
loop_
_space_group_symop_operation_xyz
x,y,z
-x,y,-z
-x,-y,-z
x,-y,z
loop_
_atom_site_type_symbol
_atom_site_label
_atom_site_fract_x
_atom_site_fract_y
_atom_site_fract_z
Si Si1 0.968058 0.213887 0.222454
Si Si2 0.350556 0.785060 0.478516
Si Si3 0.167121 0.795216 0.842588
Si Si4 0.000722 0.295640 0.644984
Si Si5 0.655010 0.797827 0.010425
Si Si6 0.336363 0.702430 0.167466
O O1 0.982645 0.280323 0.287349
O O2 0.796232 0.263471 0.396289
O O3 0.973001 0.000000 0.217738
O O4 0.112369 0.277389 0.989462
O O5 0.302769 0.720376 0.619776
O O6 0.349928 0.000000 0.483745
O O7 0.521339 0.728123 0.233287
O O8 0.208904 0.000000 0.803773
O O9 0.000000 0.792471 0.000000
O O10 0.986372 0.500000 0.640574
O O11 0.834720 0.208835 0.822619
O O12 0.164668 0.219358 0.405815
O O13 0.652353 0.704940 0.934686
O O14 0.610246 0.000000 0.050296
O O15 0.668728 0.500000 0.799128
O O16 0.500000 0.783476 0.000000
#
# Coordination Sequence:
#
# PCOD9153612 Si02
#       6
#     4   4   4   4   4   4
#     4   9  16  30  55  81 102 129 170 216 254 293
#     4   8  15  29  51  80 107 130 164 211 259 301
#     4   7  11  23  47  77 104 129 161 206 256 299
#     4  11  23  37  52  72 104 141 170 203 252 307
#     4  11  22  35  54  79 106 135 168 209 252 296
#     4  10  22  40  59  77  99 131 169 207 253 308
#
# _framework density 21.316967000000002
#
# number of rings (size 3 to 8) (size 9 to 14) (size 15 to 20)
#    0.000    2.667    0.000    4.500    0.000    3.667 
#    0.000    1.667    0.000   11.500    0.000    0.000 
#    0.000    0.000    0.000    0.000    0.000    0.000 
#
# Total GULP energy -133897.314956 kJ/mol
# GULP energy per Si atom -5579.054790 kJ/mol
# Density = 2.126845 g / cm^3
# Si number density = 21.316967 Si / 1000 Ang^3
#
#
#
# Elastic Constant Matrix: (Units=GPa)
#
#
# Indices 1 2 3 4 5 6 
#
# 1 -3.1341 5.6752 88.4531 0.0000 5.0588 0.0000
# 2 5.6752 43.8818 -1.9396 0.0000 0.3473 0.0000
# 3 88.4531 -1.9396 202.3603 0.0000 22.4973 0.0000
# 4 0.0000 0.0000 0.0000 -18.4932 0.0000 2.3788
# 5 5.0588 0.3473 22.4973 0.0000 30.8689 0.0000
# 6 0.0000 0.0000 0.0000 2.3788 0.0000 24.3144
#
#
#
# Elastic Compliance Matrix: (Units=1/GPa)
#
#
# Indices 1 2 3 4 5 6 
#
# 1 -0.022936 0.003461 0.010495 0.000000 -0.003929 0.000000
# 2 0.003461 0.022282 -0.001315 0.000000 0.000140 0.000000
# 3 0.010495 -0.001315 0.000578 0.000000 -0.002126 0.000000
# 4 0.000000 0.000000 0.000000 -0.053402 0.000000 0.005225
# 5 -0.003929 0.000140 -0.002126 0.000000 0.034587 0.000000
# 6 0.000000 0.000000 0.000000 0.005225 0.000000 0.040617
#
#
# Mechanical properties :
#
#
# Convention : Reuss Voigt Hill
#
# Bulk Modulus (GPa) = 39.67149 47.49839 43.58494
# Shear Modulus (GPa) = 1032.09190 17.39931 524.74561
#
# Velocity S-wave (km/s) = 22.02761 2.86005 15.70661
# Velocity P-wave (km/s) = 25.79932 5.76514 18.69280
#
# Compressibility (1/GPa) = 0.02520702
#
# Stress axis : x y z
#
# Youngs Moduli (GPa) = -43.59993 44.88004 1730.54741
#
# Poissons Ratio (x) = -0.15534 -18.16282
# Poissons Ratio (y) = 0.15091 2.27565
# Poissons Ratio (z) = 0.45760 0.05902
#
# Static dielectric constant tensor:
#      x y z
#    x 1.709170 0.000000 0.023350 
#    y 0.000000 1.817540 0.000000 
#    z 0.023350 0.000000 1.801570 
# 
# From -- ./inp_files/27036.got.cif
#   From: 2010.05.17/outbox.cif.g08.bks.cpg/sg10_14_cif.got.tgz:27036.got - 2010.06.03 11:33:40.
