data_PCOD9153812
_publ_section_title
;
Structure prediction by ZEFSAII (Michael W. Deem and Ramdas Pophale) SiO2 
 PCOD9153812
Probable space group: P 2/M
;
_chemical_formula_sum "Si O2"
_cell_formula_units_Z 24
_cell_length_a 12.503255
_cell_length_b 16.043879
_cell_length_c 18.928054
_cell_angle_alpha 90.000000
_cell_angle_beta 19.758288
_cell_angle_gamma 90.000000
_cell_volume 1283.580306
_symmetry_space_group_name_H-M "P 2/M"
_symmetry_group_IT_number 10
_symmetry_cell_setting 'monoclinic'
loop_
_space_group_symop_operation_xyz
x,y,z
-x,y,-z
-x,-y,-z
x,-y,z
loop_
_atom_site_type_symbol
_atom_site_label
_atom_site_fract_x
_atom_site_fract_y
_atom_site_fract_z
Si Si1 0.633973 0.500000 0.302399
Si Si2 0.278621 0.312214 0.068754
Si Si3 0.015832 0.500000 0.205603
Si Si4 0.345084 0.323035 0.765479
Si Si5 0.621121 0.097059 0.223679
Si Si6 0.632483 0.234083 0.714299
Si Si7 0.359741 0.794455 0.514909
O O1 0.654546 0.420241 0.241286
O O2 0.905222 0.500000 0.192987
O O3 0.300488 0.500000 0.550355
O O4 0.181621 0.410037 0.117600
O O5 0.984054 0.248046 0.263905
O O6 0.500000 0.308579 0.000000
O O7 0.462672 0.277811 0.885715
O O8 0.588137 0.292807 0.673247
O O9 0.426082 0.285072 0.639402
O O10 0.000000 0.291499 0.000000
O O11 0.531702 0.148438 0.208994
O O12 0.429425 0.141397 0.407458
O O13 0.538143 0.000000 0.270663
O O14 0.000000 0.102770 0.000000
O O15 0.000000 0.220479 0.500000
O O16 0.500000 0.830165 0.500000
#
# Coordination Sequence:
#
# PCOD9153812 Si02
#       7
#     2   4   2   4   4   4   4
#     4  11  21  36  58  85 117 158 203 259 294 350
#     4  12  24  41  61  86 122 164 207 252 300 355
#     4  11  23  38  58  88 123 161 205 257 306 338
#     4  11  21  36  58  86 119 157 207 250 297 349
#     4  10  22  42  66  94 124 155 194 245 303 360
#     4  11  24  42  62  89 119 162 202 247 306 363
#     4  11  20  36  62  90 121 157 199 244 297 358
#
# _framework density 18.697700000000001
#
# number of rings (size 3 to 8) (size 9 to 14) (size 15 to 20)
#    0.000    1.000    1.667    8.500    0.000    1.333 
#    0.000    1.667    0.000    2.000    0.000    0.000 
#    0.000    0.000    0.000    0.000    0.000    0.000 
#
# Total GULP energy -133943.828087 kJ/mol
# GULP energy per Si atom -5580.992837 kJ/mol
# Density = 1.865514 g / cm^3
# Si number density = 18.697700 Si / 1000 Ang^3
#
#
#
# Elastic Constant Matrix: (Units=GPa)
#
#
# Indices 1 2 3 4 5 6 
#
# 1 120.9410 53.0767 39.2252 0.0000 -11.0144 0.0000
# 2 53.0767 147.8010 30.6889 0.0000 -2.9625 0.0000
# 3 39.2252 30.6889 98.7398 0.0000 -5.1754 0.0000
# 4 0.0000 0.0000 0.0000 25.2933 0.0000 3.0147
# 5 -11.0144 -2.9625 -5.1754 0.0000 34.8091 0.0000
# 6 0.0000 0.0000 0.0000 3.0147 0.0000 15.9438
#
#
#
# Elastic Compliance Matrix: (Units=1/GPa)
#
#
# Indices 1 2 3 4 5 6 
#
# 1 0.010971 -0.003218 -0.003216 0.000000 0.002720 0.000000
# 2 -0.003218 0.008179 -0.001291 0.000000 -0.000514 0.000000
# 3 -0.003216 -0.001291 0.011840 0.000000 0.000633 0.000000
# 4 0.000000 0.000000 0.000000 0.040448 0.000000 -0.007648
# 5 0.002720 -0.000514 0.000633 0.000000 0.029639 0.000000
# 6 0.000000 0.000000 0.000000 -0.007648 0.000000 0.064166
#
#
# Mechanical properties :
#
#
# Convention : Reuss Voigt Hill
#
# Bulk Modulus (GPa) = 64.34470 68.16260 66.25365
# Shear Modulus (GPa) = 26.90021 31.50862 29.20442
#
# Velocity S-wave (km/s) = 3.79712 4.10952 3.95641
# Velocity P-wave (km/s) = 7.32885 7.68452 7.50879
#
# Compressibility (1/GPa) = 0.01554130
#
# Stress axis : x y z
#
# Youngs Moduli (GPa) = 91.14697 122.26344 84.46297
#
# Poissons Ratio (x) = 0.39340 0.27162
# Poissons Ratio (y) = 0.29328 0.10902
# Poissons Ratio (z) = 0.29311 0.15782
#
# Static dielectric constant tensor:
#      x y z
#    x 1.657580 0.000000 0.000790 
#    y 0.000000 1.647300 0.000000 
#    z 0.000790 0.000000 1.658600 
# 
# From -- ./inp_files/77167.got.cif
#   From: 2010.05.17/outbox.cif.g08.bks.cpg/sg10_39_cif.got.tgz:77167.got - 2010.06.03 11:33:40.
