data_PCOD9153787
_publ_section_title
;
Structure prediction by ZEFSAII (Michael W. Deem and Ramdas Pophale) SiO2 
 PCOD9153787
Probable space group: P 2/M
;
_chemical_formula_sum "Si O2"
_cell_formula_units_Z 30
_cell_length_a 15.965021
_cell_length_b 17.753624
_cell_length_c 5.328421
_cell_angle_alpha 90.000000
_cell_angle_beta 67.088256
_cell_angle_gamma 90.000000
_cell_volume 1391.119629
_symmetry_space_group_name_H-M "P 2/M"
_symmetry_group_IT_number 10
_symmetry_cell_setting 'monoclinic'
loop_
_space_group_symop_operation_xyz
x,y,z
-x,y,-z
-x,-y,-z
x,-y,z
loop_
_atom_site_type_symbol
_atom_site_label
_atom_site_fract_x
_atom_site_fract_y
_atom_site_fract_z
Si Si1 0.561290 0.337270 0.175489
Si Si2 0.436764 0.500000 0.823667
Si Si3 0.255300 0.220601 0.431223
Si Si4 0.603680 0.185498 0.343956
Si Si5 0.902974 0.809795 0.993268
Si Si6 0.851177 0.327914 0.760097
Si Si7 0.241819 0.911518 0.073311
Si Si8 0.894200 0.586769 0.200879
O O1 0.500000 0.339558 0.500000
O O2 0.613306 0.418449 0.116419
O O3 0.602340 0.253689 0.147785
O O4 0.500000 0.338949 0.000000
O O5 0.500000 0.500000 0.500000
O O6 0.500000 0.500000 0.000000
O O7 0.349113 0.223481 0.470060
O O8 0.236335 0.286444 0.255239
O O9 0.248733 0.138555 0.314331
O O10 0.170385 0.223360 0.723539
O O11 0.500000 0.160262 0.500000
O O12 0.671975 0.119124 0.185881
O O13 0.911164 0.744437 0.774793
O O14 0.851592 0.882574 0.944491
O O15 0.000000 0.824920 0.000000
O O16 0.886625 0.376043 0.484245
O O17 0.841718 0.375346 0.026999
O O18 0.243997 0.000000 0.106935
O O19 0.866761 0.500000 0.252921
O O20 0.000000 0.591532 0.000000
#
# Coordination Sequence:
#
# PCOD9153787 Si02
#       8
#     4   2   4   4   4   4   4   4
#     4   9  18  32  59  92 125 163 211 266 323 388
#     4   8  14  28  50  86 124 156 197 258 321 374
#     4  10  23  41  65  97 132 176 230 286 346 412
#     4  10  23  41  67  97 130 180 233 287 343 418
#     4  10  22  41  69 100 131 179 232 280 338 414
#     4  11  21  38  62  93 135 185 234 282 338 402
#     4  10  24  43  66  99 140 177 219 284 354 424
#     4  11  23  36  60 100 143 187 235 285 343 408
#
# _framework density 21.565363999999999
#
# number of rings (size 3 to 8) (size 9 to 14) (size 15 to 20)
#    0.000    2.000    1.333    1.200    5.600    5.333 
#    0.000    1.333    2.933    0.000    0.000    0.000 
#    0.000    0.000    0.000    0.000    0.000    0.000 
#
# Total GULP energy -167369.288863 kJ/mol
# GULP energy per Si atom -5578.976295 kJ/mol
# Density = 2.151628 g / cm^3
# Si number density = 21.565364 Si / 1000 Ang^3
#
#
#
# Elastic Constant Matrix: (Units=GPa)
#
#
# Indices 1 2 3 4 5 6 
#
# 1 143.3380 40.5648 49.2892 0.0000 13.9037 0.0000
# 2 40.5648 167.4868 45.9980 0.0000 10.9587 0.0000
# 3 49.2892 45.9980 115.8376 0.0000 15.0397 0.0000
# 4 0.0000 0.0000 0.0000 17.8307 0.0000 -18.8323
# 5 13.9037 10.9587 15.0397 0.0000 36.0726 0.0000
# 6 0.0000 0.0000 0.0000 -18.8323 0.0000 -9.1061
#
#
#
# Elastic Compliance Matrix: (Units=1/GPa)
#
#
# Indices 1 2 3 4 5 6 
#
# 1 0.008471 -0.001135 -0.002933 0.000000 -0.001697 0.000000
# 2 -0.001135 0.006886 -0.002153 0.000000 -0.000757 0.000000
# 3 -0.002933 -0.002153 0.011105 0.000000 -0.002845 0.000000
# 4 0.000000 0.000000 0.000000 0.017613 0.000000 -0.036424
# 5 -0.001697 -0.000757 -0.002845 0.000000 0.029792 0.000000
# 6 0.000000 0.000000 0.000000 -0.036424 0.000000 -0.034487
#
#
# Mechanical properties :
#
#
# Convention : Reuss Voigt Hill
#
# Bulk Modulus (GPa) = 71.32941 77.59624 74.46283
# Shear Modulus (GPa) = 88.49996 28.34680 58.42338
#
# Velocity S-wave (km/s) = 6.41304 3.62948 5.21058
# Velocity P-wave (km/s) = 9.37997 7.32285 8.41451
#
# Compressibility (1/GPa) = 0.01401946
#
# Stress axis : x y z
#
# Youngs Moduli (GPa) = 118.04908 145.21358 90.04610
#
# Poissons Ratio (x) = 0.16482 0.26414
# Poissons Ratio (y) = 0.13398 0.19390
# Poissons Ratio (z) = 0.34628 0.31269
#
# Static dielectric constant tensor:
#      x y z
#    x 1.850080 0.000000 -0.029860 
#    y 0.000000 1.784780 0.000000 
#    z -0.029860 0.000000 1.853480 
# 
# From -- ./inp_files/9804.got.cif
#   From: 2010.05.17/outbox.cif.g08.bks.cpg/sg10_5_cif.got.tgz:9804.got - 2010.06.03 11:33:40.
