data_PCOD9153547
_publ_section_title
;
Structure prediction by ZEFSAII (Michael W. Deem and Ramdas Pophale) SiO2 
 PCOD9153547
Probable space group: P 2/M
;
_chemical_formula_sum "Si O2"
_cell_formula_units_Z 24
_cell_length_a 5.659256
_cell_length_b 12.563107
_cell_length_c 18.875985
_cell_angle_alpha 90.000000
_cell_angle_beta 119.892216
_cell_angle_gamma 90.000000
_cell_volume 1163.502494
_symmetry_space_group_name_H-M "P 2/M"
_symmetry_group_IT_number 10
_symmetry_cell_setting 'monoclinic'
loop_
_space_group_symop_operation_xyz
x,y,z
-x,y,-z
-x,-y,-z
x,-y,z
loop_
_atom_site_type_symbol
_atom_site_label
_atom_site_fract_x
_atom_site_fract_y
_atom_site_fract_z
Si Si1 0.730957 0.000000 0.356326
Si Si2 0.353898 0.379725 0.329084
Si Si3 0.000000 0.170374 0.500000
Si Si4 0.500000 0.705936 0.500000
Si Si5 0.903917 0.231142 0.190208
Si Si6 0.062080 0.000000 0.254484
Si Si7 0.425959 0.616289 0.775709
Si Si8 0.037927 0.381997 0.922964
O O1 0.834474 0.100013 0.418048
O O2 0.396980 0.000000 0.305136
O O3 0.900961 0.000000 0.306981
O O4 0.253431 0.500000 0.304088
O O5 0.409230 0.360479 0.418491
O O6 0.610808 0.374454 0.314190
O O7 0.153502 0.290911 0.267804
O O8 0.763599 0.230200 0.509478
O O9 0.663733 0.273919 0.203480
O O10 0.839862 0.286973 0.105293
O O11 0.964238 0.107306 0.200631
O O12 0.312718 0.500000 0.781999
O O13 0.740087 0.608446 0.844164
O O14 0.170187 0.500000 0.935725
O O15 0.000000 0.359509 0.000000
#
# Coordination Sequence:
#
# PCOD9153547 Si02
#       8
#     2   4   2   2   4   2   4   4
#     4  11  24  46  62  92 116 169 228 283 310 386
#     4  10  22  39  60  89 127 168 213 263 325 390
#     4  11  24  42  65  86 126 164 217 277 340 366
#     4  12  25  39  62  94 130 171 206 270 333 400
#     4  11  22  39  61  92 123 170 212 276 310 389
#     4  12  28  39  71  91 127 166 228 261 329 371
#     4   9  19  36  62  90 122 165 210 261 317 382
#     4   9  19  37  64  98 132 164 204 257 321 389
#
# _framework density 20.627372000000001
#
# number of rings (size 3 to 8) (size 9 to 14) (size 15 to 20)
#    0.000    1.667    0.000    5.750    9.333    2.000 
#    0.000    3.750    0.000    1.000    0.000    0.000 
#    0.000    0.000    0.000    0.000    0.000    0.000 
#
# Total GULP energy -133642.418632 kJ/mol
# GULP energy per Si atom -5568.434110 kJ/mol
# Density = 2.058042 g / cm^3
# Si number density = 20.627372 Si / 1000 Ang^3
#
#
#
# Elastic Constant Matrix: (Units=GPa)
#
#
# Indices 1 2 3 4 5 6 
#
# 1 98.6188 32.8342 28.9763 0.0000 -12.7050 0.0000
# 2 32.8342 138.5905 39.1971 0.0000 -14.1537 0.0000
# 3 28.9763 39.1971 122.4967 0.0000 -44.0800 0.0000
# 4 0.0000 0.0000 0.0000 31.8881 0.0000 -1.0589
# 5 -12.7050 -14.1537 -44.0800 0.0000 30.7728 0.0000
# 6 0.0000 0.0000 0.0000 -1.0589 0.0000 19.8494
#
#
#
# Elastic Compliance Matrix: (Units=1/GPa)
#
#
# Indices 1 2 3 4 5 6 
#
# 1 0.011492 -0.002148 -0.001402 0.000000 0.001749 0.000000
# 2 -0.002148 0.008335 -0.002267 0.000000 -0.000301 0.000000
# 3 -0.001402 -0.002267 0.017825 0.000000 0.023912 0.000000
# 4 0.000000 0.000000 0.000000 0.031415 0.000000 0.001676
# 5 0.001749 -0.000301 0.023912 0.000000 0.067332 0.000000
# 6 0.000000 0.000000 0.000000 0.001676 0.000000 0.050469
#
#
# Mechanical properties :
#
#
# Convention : Reuss Voigt Hill
#
# Bulk Modulus (GPa) = 38.43407 62.41346 50.42377
# Shear Modulus (GPa) = 24.13419 33.74862 28.94141
#
# Velocity S-wave (km/s) = 3.42425 4.04927 3.74981
# Velocity P-wave (km/s) = 5.85722 7.22395 6.57618
#
# Compressibility (1/GPa) = 0.02601858
#
# Stress axis : x y z
#
# Youngs Moduli (GPa) = 87.01483 119.97862 56.10037
#
# Poissons Ratio (x) = 0.25766 0.07865
# Poissons Ratio (y) = 0.18687 0.12719
# Poissons Ratio (z) = 0.12200 0.27202
#
# Static dielectric constant tensor:
#      x y z
#    x 1.890170 0.000000 -0.037200 
#    y 0.000000 1.742820 0.000000 
#    z -0.037200 0.000000 1.733810 
# 
# From -- ./inp_files/73244.got.cif
#   From: 2010.05.17/outbox.cif.g08.bks.cpg/sg10_37_cif.got.tgz:73244.got - 2010.06.03 11:33:40.
