data_PCOD9153533
_publ_section_title
;
Structure prediction by ZEFSAII (Michael W. Deem and Ramdas Pophale) SiO2 
 PCOD9153533
Probable space group: P 2/M
;
_chemical_formula_sum "Si O2"
_cell_formula_units_Z 28
_cell_length_a 11.400821
_cell_length_b 8.390463
_cell_length_c 16.095178
_cell_angle_alpha 90.000000
_cell_angle_beta 62.386249
_cell_angle_gamma 90.000000
_cell_volume 1364.259011
_symmetry_space_group_name_H-M "P 2/M"
_symmetry_group_IT_number 10
_symmetry_cell_setting 'monoclinic'
loop_
_space_group_symop_operation_xyz
x,y,z
-x,y,-z
-x,-y,-z
x,-y,z
loop_
_atom_site_type_symbol
_atom_site_label
_atom_site_fract_x
_atom_site_fract_y
_atom_site_fract_z
Si Si1 0.925323 0.312026 0.766574
Si Si2 0.372643 0.807448 0.680986
Si Si3 0.094522 0.691902 0.042283
Si Si4 0.340926 0.314166 0.396823
Si Si5 0.174144 0.811526 0.599390
Si Si6 0.641006 0.807844 0.122788
Si Si7 0.657850 0.187262 0.786406
O O1 0.952958 0.500000 0.753914
O O2 0.948444 0.251094 0.852738
O O3 0.773115 0.280447 0.794574
O O4 0.023188 0.226037 0.670940
O O5 0.515632 0.734040 0.613784
O O6 0.262614 0.761280 0.650145
O O7 0.338837 0.759688 0.787008
O O8 0.385181 0.000000 0.675795
O O9 0.086724 0.500000 0.046139
O O10 0.243627 0.739840 0.971540
O O11 0.000000 0.752899 0.000000
O O12 0.340722 0.500000 0.375062
O O13 0.229440 0.276167 0.500621
O O14 0.324452 0.213727 0.318120
O O15 0.192737 0.000000 0.581387
O O16 0.492510 0.759391 0.145859
O O17 0.645574 0.000000 0.118597
O O18 0.669106 0.000000 0.802150
#
# Coordination Sequence:
#
# PCOD9153533 Si02
#       7
#     4   4   4   4   4   4   4
#     4  11  24  40  58  84 116 149 192 241 285 336
#     4   9  19  36  57  85 119 153 192 236 283 338
#     4  10  22  39  59  86 120 153 183 224 283 344
#     4  11  22  36  58  87 117 150 190 237 288 341
#     4  11  22  37  58  83 115 156 196 236 286 339
#     4   9  19  36  60  86 112 147 191 237 279 329
#     4  10  22  42  62  83 113 149 193 238 285 340
#
# _framework density 20.523962000000001
#
# number of rings (size 3 to 8) (size 9 to 14) (size 15 to 20)
#    0.000    1.857    0.000    4.714    0.000    8.286 
#    0.000    5.714    0.000    0.000    0.000    0.000 
#    0.000    0.000    0.000    0.000    0.000    0.000 
#
# Total GULP energy -156515.879902 kJ/mol
# GULP energy per Si atom -5589.852854 kJ/mol
# Density = 2.047725 g / cm^3
# Si number density = 20.523962 Si / 1000 Ang^3
#
#
#
# Elastic Constant Matrix: (Units=GPa)
#
#
# Indices 1 2 3 4 5 6 
#
# 1 53.0227 -9.8230 -2.5870 0.0000 -3.5165 0.0000
# 2 -9.8230 13.2040 -7.5277 0.0000 -1.1636 0.0000
# 3 -2.5870 -7.5277 57.2293 0.0000 -26.6443 0.0000
# 4 0.0000 0.0000 0.0000 29.5052 0.0000 -6.7739
# 5 -3.5165 -1.1636 -26.6443 0.0000 23.1965 0.0000
# 6 0.0000 0.0000 0.0000 -6.7739 0.0000 27.2809
#
#
#
# Elastic Compliance Matrix: (Units=1/GPa)
#
#
# Indices 1 2 3 4 5 6 
#
# 1 0.027604 0.033049 0.017873 0.000000 0.026372 0.000000
# 2 0.033049 0.137662 0.054058 0.000000 0.074009 0.000000
# 3 0.017873 0.054058 0.060005 0.000000 0.074346 0.000000
# 4 0.000000 0.000000 0.000000 0.035941 0.000000 0.008924
# 5 0.026372 0.074009 0.074346 0.000000 0.136217 0.000000
# 6 0.000000 0.000000 0.000000 0.008924 0.000000 0.038872
#
#
# Mechanical properties :
#
#
# Convention : Reuss Voigt Hill
#
# Bulk Modulus (GPa) = 2.29762 9.28672 5.79217
# Shear Modulus (GPa) = 13.46194 25.55610 19.50902
#
# Velocity S-wave (km/s) = 2.56386 3.53254 3.08644
# Velocity P-wave (km/s) = 3.14427 4.60143 3.94078
#
# Compressibility (1/GPa) = 0.43523226
#
# Stress axis : x y z
#
# Youngs Moduli (GPa) = 36.22715 7.26414 16.66518
#
# Poissons Ratio (x) = -0.24007 -0.29786
# Poissons Ratio (y) = -1.19728 -0.90089
# Poissons Ratio (z) = -0.64749 -0.39269
#
# Static dielectric constant tensor:
#      x y z
#    x 1.731310 0.000000 0.020220 
#    y 0.000000 1.703290 0.000000 
#    z 0.020220 0.000000 1.709810 
# 
# From -- ./inp_files/49330.got.cif
#   From: 2010.05.17/outbox.cif.g08.bks.cpg/sg10_25_cif.got.tgz:49330.got - 2010.06.03 11:33:40.
