data_PCOD9153973
_publ_section_title
;
Structure prediction by ZEFSAII (Michael W. Deem and Ramdas Pophale) SiO2 
 PCOD9153973
Probable space group: P 2/M
;
_chemical_formula_sum "Si O2"
_cell_formula_units_Z 24
_cell_length_a 11.452963
_cell_length_b 13.166020
_cell_length_c 11.126693
_cell_angle_alpha 90.000000
_cell_angle_beta 49.852063
_cell_angle_gamma 90.000000
_cell_volume 1282.475423
_symmetry_space_group_name_H-M "P 2/M"
_symmetry_group_IT_number 10
_symmetry_cell_setting 'monoclinic'
loop_
_space_group_symop_operation_xyz
x,y,z
-x,y,-z
-x,-y,-z
x,-y,z
loop_
_atom_site_type_symbol
_atom_site_label
_atom_site_fract_x
_atom_site_fract_y
_atom_site_fract_z
Si Si1 0.175970 0.500000 0.348446
Si Si2 0.683987 0.386012 0.359810
Si Si3 0.694896 0.698003 0.608725
Si Si4 0.088159 0.120122 0.070864
Si Si5 0.099934 0.110979 0.554551
Si Si6 0.651667 0.500000 0.986881
Si Si7 0.337043 0.290446 0.871533
O O1 0.259793 0.602506 0.338340
O O2 0.197405 0.500000 0.193143
O O3 0.000000 0.500000 0.500000
O O4 0.500000 0.390067 0.500000
O O5 0.738031 0.500000 0.301828
O O6 0.738560 0.343851 0.448659
O O7 0.721058 0.316516 0.223407
O O8 0.788312 0.799808 0.556496
O O9 0.518215 0.728912 0.739896
O O10 0.987920 0.133225 0.260458
O O11 0.133792 0.000000 0.039249
O O12 0.230576 0.198680 0.986836
O O13 0.000000 0.137024 0.000000
O O14 0.000000 0.102989 0.500000
O O15 0.173912 0.000000 0.524368
O O16 0.500000 0.500000 0.000000
O O17 0.660383 0.396765 0.057301
#
# Coordination Sequence:
#
# PCOD9153973 Si02
#       7
#     2   4   4   4   4   2   4
#     4  12  26  39  57  88 123 169 202 241 303 371
#     4   9  17  33  55  83 116 152 189 234 295 353
#     4  11  21  38  63  88 121 158 204 252 298 366
#     4  10  23  44  66  90 124 162 204 260 319 369
#     4  10  23  42  62  85 120 162 204 254 308 364
#     4  12  24  41  58  89 133 163 199 253 310 358
#     4  11  22  38  64  90 122 160 201 252 308 364
#
# _framework density 18.713808
#
# number of rings (size 3 to 8) (size 9 to 14) (size 15 to 20)
#    0.000    1.500    3.333    1.500    4.667    0.667 
#    0.000    0.417    0.000    9.500    0.000    0.000 
#    0.000    0.000    0.000    0.000    0.000    0.000 
#
# Total GULP energy -133658.238204 kJ/mol
# GULP energy per Si atom -5569.093258 kJ/mol
# Density = 1.867121 g / cm^3
# Si number density = 18.713808 Si / 1000 Ang^3
#
#
#
# Elastic Constant Matrix: (Units=GPa)
#
#
# Indices 1 2 3 4 5 6 
#
# 1 38.3288 35.0201 28.9679 0.0000 0.9441 0.0000
# 2 35.0201 152.6491 55.4386 0.0000 -21.2502 0.0000
# 3 28.9679 55.4386 96.3426 0.0000 5.9271 0.0000
# 4 0.0000 0.0000 0.0000 42.0830 0.0000 -32.7251
# 5 0.9441 -21.2502 5.9271 0.0000 28.1108 0.0000
# 6 0.0000 0.0000 0.0000 -32.7251 0.0000 -6.8127
#
#
#
# Elastic Compliance Matrix: (Units=1/GPa)
#
#
# Indices 1 2 3 4 5 6 
#
# 1 0.037797 -0.006733 -0.007192 0.000000 -0.004843 0.000000
# 2 -0.006733 0.011318 -0.005095 0.000000 0.009856 0.000000
# 3 -0.007192 -0.005095 0.015902 0.000000 -0.006963 0.000000
# 4 0.000000 0.000000 0.000000 0.005018 0.000000 -0.024105
# 5 -0.004843 0.009856 -0.006963 0.000000 0.044655 0.000000
# 6 0.000000 0.000000 0.000000 -0.024105 0.000000 -0.030997
#
#
# Mechanical properties :
#
#
# Convention : Reuss Voigt Hill
#
# Bulk Modulus (GPa) = 37.06860 58.46374 47.76617
# Shear Modulus (GPa) = 38.24816 23.86912 31.05864
#
# Velocity S-wave (km/s) = 4.52580 3.57526 4.07832
# Velocity P-wave (km/s) = 6.86743 6.95357 6.91063
#
# Compressibility (1/GPa) = 0.02697701
#
# Stress axis : x y z
#
# Youngs Moduli (GPa) = 26.45705 88.35486 62.88515
#
# Poissons Ratio (x) = 0.59493 0.45228
# Poissons Ratio (y) = 0.17815 0.32037
# Poissons Ratio (z) = 0.19028 0.45012
#
# Static dielectric constant tensor:
#      x y z
#    x 1.660590 0.000000 0.010310 
#    y 0.000000 1.797670 0.000000 
#    z 0.010310 0.000000 1.649130 
# 
# From -- ./inp_files/45872.got.cif
#   From: 2010.05.17/outbox.cif.g08.bks.cpg/sg10_23_cif.got.tgz:45872.got - 2010.06.03 11:33:40.
