data_PCOD9153974
_publ_section_title
;
Structure prediction by ZEFSAII (Michael W. Deem and Ramdas Pophale) SiO2 
 PCOD9153974
Probable space group: P 2/M
;
_chemical_formula_sum "Si O2"
_cell_formula_units_Z 32
_cell_length_a 29.268505
_cell_length_b 8.154824
_cell_length_c 12.308613
_cell_angle_alpha 90.000000
_cell_angle_beta 147.162049
_cell_angle_gamma 90.000000
_cell_volume 1593.073118
_symmetry_space_group_name_H-M "P 2/M"
_symmetry_group_IT_number 10
_symmetry_cell_setting 'monoclinic'
loop_
_space_group_symop_operation_xyz
x,y,z
-x,y,-z
-x,-y,-z
x,-y,z
loop_
_atom_site_type_symbol
_atom_site_label
_atom_site_fract_x
_atom_site_fract_y
_atom_site_fract_z
Si Si1 0.910231 0.200249 0.363011
Si Si2 0.595399 0.192154 0.195742
Si Si3 0.904514 0.694516 0.812796
Si Si4 0.249434 0.304511 0.345679
Si Si5 0.157006 0.196826 0.542715
Si Si6 0.588699 0.698079 0.721606
Si Si7 0.250507 0.804062 0.097398
Si Si8 0.654792 0.696358 0.081737
O O1 0.898810 0.245679 0.465824
O O2 0.000000 0.257480 0.500000
O O3 0.909131 0.000000 0.357262
O O4 0.832271 0.257345 0.132952
O O5 0.664473 0.260647 0.418027
O O6 0.631172 0.219143 0.146824
O O7 0.588215 0.000000 0.206631
O O8 0.500000 0.262818 0.000000
O O9 0.911757 0.500000 0.849703
O O10 0.833919 0.760804 0.756288
O O11 0.868668 0.721687 0.621054
O O12 0.000000 0.763784 0.000000
O O13 0.243655 0.500000 0.335780
O O14 0.251454 0.249044 0.224860
O O15 0.250617 0.253744 0.757582
O O16 0.154539 0.000000 0.525168
O O17 0.500000 0.759514 0.500000
O O18 0.587738 0.500000 0.719590
O O19 0.666527 0.749902 0.802093
O O20 0.600196 0.749406 0.869466
O O21 0.247814 0.000000 0.089818
O O22 0.648715 0.500000 0.083940
#
# Coordination Sequence:
#
# PCOD9153974 Si02
#       8
#     4   4   4   4   4   4   4   4
#     4   9  20  38  59  88 124 160 198 245 302 361
#     4  11  25  43  64  93 125 158 202 255 308 364
#     4  10  23  42  62  88 124 162 202 252 308 366
#     4  11  24  42  63  88 124 167 205 247 304 367
#     4  11  21  37  64  91 119 158 206 257 305 357
#     4  10  23  42  63  90 122 161 205 248 301 369
#     4  11  23  40  63  90 124 162 202 253 306 356
#     4  11  22  39  64  90 122 162 204 253 307 363
#
# _framework density 20.086962
#
# number of rings (size 3 to 8) (size 9 to 14) (size 15 to 20)
#    0.000    1.500    2.500    1.875    3.500    2.500 
#    0.000    0.000    0.000    3.000    0.000    0.000 
#    0.000    0.000    0.000    0.000    0.000    0.000 
#
# Total GULP energy -178715.296964 kJ/mol
# GULP energy per Si atom -5584.853030 kJ/mol
# Density = 2.004124 g / cm^3
# Si number density = 20.086962 Si / 1000 Ang^3
#
#
#
# Elastic Constant Matrix: (Units=GPa)
#
#
# Indices 1 2 3 4 5 6 
#
# 1 90.6556 -9.8837 -0.6960 0.0000 1.1457 0.0000
# 2 -9.8837 11.0338 -3.5557 0.0000 2.0056 0.0000
# 3 -0.6960 -3.5557 108.0222 0.0000 -10.1406 0.0000
# 4 0.0000 0.0000 0.0000 10.2033 0.0000 4.7819
# 5 1.1457 2.0056 -10.1406 0.0000 44.5224 0.0000
# 6 0.0000 0.0000 0.0000 4.7819 0.0000 10.1335
#
#
#
# Elastic Compliance Matrix: (Units=1/GPa)
#
#
# Indices 1 2 3 4 5 6 
#
# 1 0.012269 0.011246 0.000380 0.000000 -0.000736 0.000000
# 2 0.011246 0.102452 0.003050 0.000000 -0.004210 0.000000
# 3 0.000380 0.003050 0.009551 0.000000 0.002028 0.000000
# 4 0.000000 0.000000 0.000000 0.125838 0.000000 -0.059382
# 5 -0.000736 -0.004210 0.002028 0.000000 0.023131 0.000000
# 6 0.000000 0.000000 0.000000 -0.059382 0.000000 0.126704
#
#
# Mechanical properties :
#
#
# Convention : Reuss Voigt Hill
#
# Bulk Modulus (GPa) = 6.50937 20.16009 13.33473
# Shear Modulus (GPa) = 11.85393 27.89498 19.87445
#
# Velocity S-wave (km/s) = 2.43190 3.73058 3.14892
# Velocity P-wave (km/s) = 3.33663 5.34926 4.45801
#
# Compressibility (1/GPa) = 0.15362464
#
# Stress axis : x y z
#
# Youngs Moduli (GPa) = 81.50552 9.76063 104.70564
#
# Poissons Ratio (x) = -0.10977 -0.03981
# Poissons Ratio (y) = -0.91665 -0.31932
# Poissons Ratio (z) = -0.03099 -0.02977
#
# Static dielectric constant tensor:
#      x y z
#    x 1.722170 0.000000 0.008750 
#    y 0.000000 1.718720 0.000000 
#    z 0.008750 0.000000 1.717200 
# 
# From -- ./inp_files/58316.got.cif
#   From: 2010.05.17/outbox.cif.g08.bks.cpg/sg10_30_cif.got.tgz:58316.got - 2010.06.03 11:33:40.
