data_PCOD9153982
_publ_section_title
;
Structure prediction by ZEFSAII (Michael W. Deem and Ramdas Pophale) SiO2 
 PCOD9153982
Probable space group: P 2/M
;
_chemical_formula_sum "Si O2"
_cell_formula_units_Z 24
_cell_length_a 14.931752
_cell_length_b 8.945229
_cell_length_c 9.552057
_cell_angle_alpha 90.000000
_cell_angle_beta 97.598894
_cell_angle_gamma 90.000000
_cell_volume 1264.644202
_symmetry_space_group_name_H-M "P 2/M"
_symmetry_group_IT_number 10
_symmetry_cell_setting 'monoclinic'
loop_
_space_group_symop_operation_xyz
x,y,z
-x,y,-z
-x,-y,-z
x,-y,z
loop_
_atom_site_type_symbol
_atom_site_label
_atom_site_fract_x
_atom_site_fract_y
_atom_site_fract_z
Si Si1 0.249991 0.321900 0.051213
Si Si2 0.925711 0.831084 0.106000
Si Si3 0.759590 0.179734 0.647456
Si Si4 0.953355 0.328211 0.641097
Si Si5 0.413708 0.819868 0.576038
Si Si6 0.416660 0.679678 0.884498
O O1 0.250491 0.500000 0.074328
O O2 0.263158 0.240220 0.202252
O O3 0.155959 0.268172 0.966433
O O4 0.327210 0.284734 0.954729
O O5 0.977679 0.758516 0.245360
O O6 0.894281 0.000000 0.130858
O O7 0.000000 0.839322 0.000000
O O8 0.855589 0.250027 0.623294
O O9 0.678895 0.220279 0.524171
O O10 0.767593 0.000000 0.653821
O O11 0.942086 0.500000 0.686731
O O12 0.000000 0.328919 0.500000
O O13 0.500000 0.773082 0.500000
O O14 0.417684 0.752178 0.731833
O O15 0.416363 0.000000 0.587527
O O16 0.421493 0.500000 0.868119
O O17 0.500000 0.726737 0.000000
#
# Coordination Sequence:
#
# PCOD9153982 Si02
#       6
#     4   4   4   4   4   4
#     4  11  23  39  63  92 123 161 205 254 304 360
#     4  11  23  40  63  91 122 162 207 251 303 361
#     4  11  23  40  62  91 123 161 206 251 304 364
#     4  11  25  42  62  89 123 163 206 253 305 362
#     4  10  23  42  64  92 125 161 202 248 302 364
#     4  10  23  42  64  93 125 158 202 250 302 363
#
# _framework density 18.97767
#
# number of rings (size 3 to 8) (size 9 to 14) (size 15 to 20)
#    0.000    1.333    1.667    3.000    2.333    5.333 
#    0.000    0.000    0.000    0.000    0.000    0.000 
#    0.000    0.000    0.000    0.000    0.000    0.000 
#
# Total GULP energy -134153.798977 kJ/mol
# GULP energy per Si atom -5589.741624 kJ/mol
# Density = 1.893448 g / cm^3
# Si number density = 18.977670 Si / 1000 Ang^3
#
#
#
# Elastic Constant Matrix: (Units=GPa)
#
#
# Indices 1 2 3 4 5 6 
#
# 1 111.1406 24.1312 67.3871 0.0000 -0.2403 0.0000
# 2 24.1312 46.2517 34.4228 0.0000 -8.9758 0.0000
# 3 67.3871 34.4228 147.8913 0.0000 3.2489 0.0000
# 4 0.0000 0.0000 0.0000 44.8346 0.0000 -5.3881
# 5 -0.2403 -8.9758 3.2489 0.0000 31.9996 0.0000
# 6 0.0000 0.0000 0.0000 -5.3881 0.0000 36.5128
#
#
#
# Elastic Compliance Matrix: (Units=1/GPa)
#
#
# Indices 1 2 3 4 5 6 
#
# 1 0.012729 -0.002859 -0.005130 0.000000 -0.000185 0.000000
# 2 -0.002859 0.028992 -0.005636 0.000000 0.008683 0.000000
# 3 -0.005130 -0.005636 0.010470 0.000000 -0.002683 0.000000
# 4 0.000000 0.000000 0.000000 0.022707 0.000000 0.003351
# 5 -0.000185 0.008683 -0.002683 0.000000 0.033957 0.000000
# 6 0.000000 0.000000 0.000000 0.003351 0.000000 0.027882
#
#
# Mechanical properties :
#
#
# Convention : Reuss Voigt Hill
#
# Bulk Modulus (GPa) = 40.09584 61.90730 51.00157
# Shear Modulus (GPa) = 29.01900 34.62559 31.82229
#
# Velocity S-wave (km/s) = 3.91463 4.27610 4.09935
# Velocity P-wave (km/s) = 6.45029 7.55460 7.02418
#
# Compressibility (1/GPa) = 0.02494025
#
# Stress axis : x y z
#
# Youngs Moduli (GPa) = 78.56363 34.49206 95.50903
#
# Poissons Ratio (x) = 0.09860 0.48999
# Poissons Ratio (y) = 0.22459 0.53832
# Poissons Ratio (z) = 0.40306 0.19441
#
# Static dielectric constant tensor:
#      x y z
#    x 1.580380 0.000000 0.078810 
#    y 0.000000 1.653170 0.000000 
#    z 0.078810 0.000000 1.491690 
# 
# From -- ./inp_files/27071.got.cif
#   From: 2010.05.17/outbox.cif.g08.bks.cpg/sg10_14_cif.got.tgz:27071.got - 2010.06.03 11:33:40.
