data_PCOD9153215
_publ_section_title
;
Structure prediction by ZEFSAII (Michael W. Deem and Ramdas Pophale) SiO2 
 PCOD9153215
Probable space group: P 2/M
;
_chemical_formula_sum "Si O2"
_cell_formula_units_Z 16
_cell_length_a 5.246362
_cell_length_b 25.092017
_cell_length_c 4.686568
_cell_angle_alpha 90.000000
_cell_angle_beta 89.830286
_cell_angle_gamma 90.000000
_cell_volume 616.945562
_symmetry_space_group_name_H-M "P 2/M"
_symmetry_group_IT_number 10
_symmetry_cell_setting 'monoclinic'
loop_
_space_group_symop_operation_xyz
x,y,z
-x,y,-z
-x,-y,-z
x,-y,z
loop_
_atom_site_type_symbol
_atom_site_label
_atom_site_fract_x
_atom_site_fract_y
_atom_site_fract_z
Si Si1 0.748228 0.594990 0.200254
Si Si2 0.749272 0.710702 0.196527
Si Si3 0.000000 0.500000 0.500000
Si Si4 0.746751 0.825908 0.197262
Si Si5 0.000000 0.000000 0.000000
Si Si6 0.000000 0.915555 0.500000
O O1 0.745172 0.653403 0.346976
O O2 0.793615 0.546764 0.412144
O O3 0.500000 0.589397 0.000000
O O4 0.000000 0.592266 0.000000
O O5 0.747087 0.767862 0.349619
O O6 0.500000 0.710874 0.000000
O O7 0.000000 0.710504 0.000000
O O8 0.777224 0.875426 0.406534
O O9 0.500000 0.829953 0.000000
O O10 0.000000 0.827534 0.000000
O O11 0.932477 0.046531 0.763097
#
# Coordination Sequence:
#
# PCOD9153215 Si02
#       6
#     4   4   1   4   1   2
#     4  10  22  39  57  84 122 159 206 266 316 383
#     4   8  16  34  59  88 123 158 202 261 329 386
#     4  12  24  36  60  82 116 166 224 244 328 372
#     4  10  21  40  69 101 131 170 219 278 339 401
#     4  10  24  46  70 104 138 194 224 286 324 408
#     4  11  22  45  72  99 144 177 240 272 344 389
#
# _framework density 25.934217
#
# number of rings (size 3 to 8) (size 9 to 14) (size 15 to 20)
#    0.000    2.250    1.250    0.750    0.000    4.000 
#    0.000    3.750    0.000   18.000    0.000    0.000 
#    0.000    0.000    0.000    0.000    0.000    0.000 
#
# Total GULP energy -89071.000516 kJ/mol
# GULP energy per Si atom -5566.937532 kJ/mol
# Density = 2.587519 g / cm^3
# Si number density = 25.934217 Si / 1000 Ang^3
#
#
#
# Elastic Constant Matrix: (Units=GPa)
#
#
# Indices 1 2 3 4 5 6 
#
# 1 220.3232 31.5784 57.5705 0.0000 25.5141 0.0000
# 2 31.5784 344.5883 83.9745 0.0000 42.7730 0.0000
# 3 57.5705 83.9745 97.9844 0.0000 28.8984 0.0000
# 4 0.0000 0.0000 0.0000 198.1561 0.0000 172.7249
# 5 25.5141 42.7730 28.8984 0.0000 73.1475 0.0000
# 6 0.0000 0.0000 0.0000 172.7249 0.0000 110.1958
#
#
#
# Elastic Compliance Matrix: (Units=1/GPa)
#
#
# Indices 1 2 3 4 5 6 
#
# 1 0.005439 0.000409 -0.003301 0.000000 -0.000832 0.000000
# 2 0.000409 0.003768 -0.003144 0.000000 -0.001104 0.000000
# 3 -0.003301 -0.003144 0.015799 0.000000 -0.003252 0.000000
# 4 0.000000 0.000000 0.000000 -0.013778 0.000000 0.021596
# 5 -0.000832 -0.001104 -0.003252 0.000000 0.015891 0.000000
# 6 0.000000 0.000000 0.000000 0.021596 0.000000 -0.024776
#
#
# Mechanical properties :
#
#
# Convention : Reuss Voigt Hill
#
# Bulk Modulus (GPa) = 77.31450 112.12697 94.72073
# Shear Modulus (GPa) = 267.01591 108.95137 187.98364
#
# Velocity S-wave (km/s) = 10.15788 6.48859 8.52304
# Velocity P-wave (km/s) = 12.94037 9.97321 11.55244
#
# Compressibility (1/GPa) = 0.01293418
#
# Stress axis : x y z
#
# Youngs Moduli (GPa) = 183.85500 265.41559 63.29658
#
# Poissons Ratio (x) = -0.10864 0.20894
# Poissons Ratio (y) = -0.07526 0.19900
# Poissons Ratio (z) = 0.60691 0.83444
#
# Static dielectric constant tensor:
#      x y z
#    x 2.041950 0.000000 -0.060670 
#    y 0.000000 2.036180 0.000000 
#    z -0.060670 0.000000 1.864770 
# 
# From -- ./inp_files/1798.got.cif
#   From: 2010.05.17/outbox.cif.g08.bks.cpg/sg10_1_cif.got.tgz:1798.got - 2010.06.03 11:33:40.
