data_PCOD9153838
_publ_section_title
;
Structure prediction by ZEFSAII (Michael W. Deem and Ramdas Pophale) SiO2 
 PCOD9153838
Probable space group: P 2/M
;
_chemical_formula_sum "Si O2"
_cell_formula_units_Z 26
_cell_length_a 13.683086
_cell_length_b 15.871860
_cell_length_c 8.626908
_cell_angle_alpha 90.000000
_cell_angle_beta 41.999805
_cell_angle_gamma 90.000000
_cell_volume 1253.649988
_symmetry_space_group_name_H-M "P 2/M"
_symmetry_group_IT_number 10
_symmetry_cell_setting 'monoclinic'
loop_
_space_group_symop_operation_xyz
x,y,z
-x,y,-z
-x,-y,-z
x,-y,z
loop_
_atom_site_type_symbol
_atom_site_label
_atom_site_fract_x
_atom_site_fract_y
_atom_site_fract_z
Si Si1 0.500000 0.639971 0.500000
Si Si2 0.826821 0.906396 0.397238
Si Si3 0.985933 0.594955 0.705284
Si Si4 0.824309 0.092483 0.031219
Si Si5 0.742350 0.271578 0.010717
Si Si6 0.683196 0.408475 0.567597
Si Si7 0.654431 0.760789 0.774391
O O1 0.385085 0.592224 0.523933
O O2 0.396508 0.693652 0.734473
O O3 0.799268 0.901708 0.245363
O O4 0.752722 0.828585 0.570342
O O5 0.779277 0.000000 0.507552
O O6 0.002123 0.903200 0.205362
O O7 0.926419 0.500000 0.804118
O O8 0.880394 0.669062 0.887518
O O9 0.000000 0.601907 0.500000
O O10 0.142123 0.599553 0.608750
O O11 0.772234 0.000000 0.040145
O O12 0.757555 0.174016 0.033937
O O13 0.728018 0.272861 0.843295
O O14 0.643199 0.500000 0.685129
O O15 0.623321 0.323601 0.714434
O O16 0.500000 0.801482 0.000000
#
# Coordination Sequence:
#
# PCOD9153838 Si02
#       7
#     2   4   4   4   4   4   4
#     4  12  27  46  61  96 136 182 221 268 329 406
#     4   9  20  41  67  95 130 170 219 269 327 392
#     4  10  22  42  69  99 129 167 221 278 332 382
#     4   9  20  40  67  96 128 171 214 269 331 389
#     4  12  25  41  68  96 135 173 221 273 332 391
#     4  11  24  44  68  96 132 175 222 274 329 393
#     4  12  24  41  64  95 135 175 221 268 330 396
#
# _framework density 20.739440999999999
#
# number of rings (size 3 to 8) (size 9 to 14) (size 15 to 20)
#    0.000    1.385    3.077    3.000    0.000    4.308 
#    0.000    3.462    0.000    0.000    0.000    0.000 
#    0.000    0.000    0.000    0.000    0.000    0.000 
#
# Total GULP energy -145083.207326 kJ/mol
# GULP energy per Si atom -5580.123359 kJ/mol
# Density = 2.069224 g / cm^3
# Si number density = 20.739441 Si / 1000 Ang^3
#
#
#
# Elastic Constant Matrix: (Units=GPa)
#
#
# Indices 1 2 3 4 5 6 
#
# 1 114.6846 47.2053 24.1718 0.0000 -3.2767 0.0000
# 2 47.2053 157.6048 70.3462 0.0000 8.2686 0.0000
# 3 24.1718 70.3462 87.0295 0.0000 0.5938 0.0000
# 4 0.0000 0.0000 0.0000 -116.3118 0.0000 34.0057
# 5 -3.2767 8.2686 0.5938 0.0000 11.6209 0.0000
# 6 0.0000 0.0000 0.0000 34.0057 0.0000 1.8240
#
#
#
# Elastic Compliance Matrix: (Units=1/GPa)
#
#
# Indices 1 2 3 4 5 6 
#
# 1 0.010252 -0.003217 -0.000282 0.000000 0.005194 0.000000
# 2 -0.003217 0.011478 -0.008325 0.000000 -0.008649 0.000000
# 3 -0.000282 -0.008325 0.018265 0.000000 0.004911 0.000000
# 4 0.000000 0.000000 0.000000 -0.001333 0.000000 0.024848
# 5 0.005194 -0.008649 0.004911 0.000000 0.093420 0.000000
# 6 0.000000 0.000000 0.000000 0.024848 0.000000 0.084989
#
#
# Mechanical properties :
#
#
# Convention : Reuss Voigt Hill
#
# Bulk Modulus (GPa) = 61.18097 71.41840 66.29969
# Shear Modulus (GPa) = 20.31126 -6.06701 7.12212
#
# Velocity S-wave (km/s) = 3.13286 -1.71222 1.85514
# Velocity P-wave (km/s) = 6.53072 5.53189 6.05195
#
# Compressibility (1/GPa) = 0.01634495
#
# Stress axis : x y z
#
# Youngs Moduli (GPa) = 97.54551 87.12102 54.75016
#
# Poissons Ratio (x) = 0.28026 0.01547
# Poissons Ratio (y) = 0.31380 0.45582
# Poissons Ratio (z) = 0.02756 0.72532
#
# Static dielectric constant tensor:
#      x y z
#    x 1.773120 0.000000 0.007520 
#    y 0.000000 1.725820 0.000000 
#    z 0.007520 0.000000 1.731950 
# 
# From -- ./inp_files/29762.got.cif
#   From: 2010.05.17/outbox.cif.g08.bks.cpg/sg10_15_cif.got.tgz:29762.got - 2010.06.03 11:33:40.
