data_PCOD9153714
_publ_section_title
;
Structure prediction by ZEFSAII (Michael W. Deem and Ramdas Pophale) SiO2 
 PCOD9153714
Probable space group: P 2/M
;
_chemical_formula_sum "Si O2"
_cell_formula_units_Z 21
_cell_length_a 12.142933
_cell_length_b 11.800443
_cell_length_c 14.756074
_cell_angle_alpha 90.000000
_cell_angle_beta 147.897666
_cell_angle_gamma 90.000000
_cell_volume 1123.676569
_symmetry_space_group_name_H-M "P 2/M"
_symmetry_group_IT_number 10
_symmetry_cell_setting 'monoclinic'
loop_
_space_group_symop_operation_xyz
x,y,z
-x,y,-z
-x,-y,-z
x,-y,z
loop_
_atom_site_type_symbol
_atom_site_label
_atom_site_fract_x
_atom_site_fract_y
_atom_site_fract_z
Si Si1 0.448580 0.758366 0.177674
Si Si2 0.084180 0.242423 0.796778
Si Si3 0.921012 0.000000 0.297598
Si Si4 0.602427 0.238275 0.482397
Si Si5 0.500000 0.000000 0.500000
Si Si6 0.654605 0.000000 0.290690
Si Si7 0.793275 0.364845 0.299831
O O1 0.485647 0.731810 0.308543
O O2 0.600576 0.685395 0.220050
O O3 0.522140 0.887922 0.215283
O O4 0.217491 0.742639 0.980100
O O5 0.182624 0.313954 0.783318
O O6 0.842697 0.269262 0.640082
O O7 0.097303 0.112063 0.774559
O O8 0.743769 0.000000 0.250812
O O9 0.140928 0.000000 0.503433
O O10 0.500000 0.292597 0.500000
O O11 0.580708 0.102557 0.487278
O O12 0.781282 0.500000 0.287501
O O13 0.000000 0.331260 0.500000
#
# Coordination Sequence:
#
# PCOD9153714 Si02
#       7
#     4   4   2   4   1   2   4
#     4  12  23  38  62  91 125 163 202 252 309 368
#     4  12  23  38  62  91 125 163 202 252 309 368
#     4  11  20  33  55  84 126 163 197 238 302 380
#     4  10  22  41  58  83 121 163 205 253 294 355
#     4   8  20  40  62  82 122 166 212 256 300 354
#     4  11  20  33  55  84 126 163 197 238 302 380
#     4  11  23  42  67  95 127 163 202 250 313 376
#
# _framework density 18.688649999999999
#
# number of rings (size 3 to 8) (size 9 to 14) (size 15 to 20)
#    0.571    0.381    5.714    2.286    0.000    3.048 
#    0.000    0.952    0.000    2.286    0.000    2.667 
#    0.000    0.000    0.000    0.000    0.000    0.000 
#
# Total GULP energy -117060.744784 kJ/mol
# GULP energy per Si atom -5574.321180 kJ/mol
# Density = 1.864611 g / cm^3
# Si number density = 18.688650 Si / 1000 Ang^3
#
#
#
# Elastic Constant Matrix: (Units=GPa)
#
#
# Indices 1 2 3 4 5 6 
#
# 1 130.7562 9.1563 53.6139 0.0000 -24.8834 0.0000
# 2 9.1563 30.1567 15.7319 0.0000 -4.2032 0.0000
# 3 53.6139 15.7319 136.9370 0.0000 -36.3344 0.0000
# 4 0.0000 0.0000 0.0000 64.1149 0.0000 0.6396
# 5 -24.8834 -4.2032 -36.3344 0.0000 11.0225 0.0000
# 6 0.0000 0.0000 0.0000 0.6396 0.0000 -4.6594
#
#
#
# Elastic Compliance Matrix: (Units=1/GPa)
#
#
# Indices 1 2 3 4 5 6 
#
# 1 0.036648 -0.003586 0.061049 0.000000 0.282604 0.000000
# 2 -0.003586 0.035626 -0.009830 0.000000 -0.026912 0.000000
# 3 0.061049 -0.009830 0.160375 0.000000 0.662724 0.000000
# 4 0.000000 0.000000 0.000000 0.015576 0.000000 0.002138
# 5 0.282604 -0.026912 0.662724 0.000000 2.903024 0.000000
# 6 0.000000 0.000000 0.000000 0.002138 0.000000 -0.214328
#
#
# Mechanical properties :
#
#
# Convention : Reuss Voigt Hill
#
# Bulk Modulus (GPa) = 3.04957 50.53937 26.79447
# Shear Modulus (GPa) = 1.69436 28.71881 15.20659
#
# Velocity S-wave (km/s) = 0.95320 3.92433 2.85560
# Velocity P-wave (km/s) = 1.68724 6.90183 5.02405
#
# Compressibility (1/GPa) = 0.32791494
#
# Stress axis : x y z
#
# Youngs Moduli (GPa) = 27.28678 28.06955 6.23539
#
# Poissons Ratio (x) = 0.10065 -0.38066
# Poissons Ratio (y) = 0.09784 0.06129
# Poissons Ratio (z) = -1.66582 0.27592
#
# Static dielectric constant tensor:
#      x y z
#    x 1.640540 0.000000 -0.008180 
#    y 0.000000 1.630720 0.000000 
#    z -0.008180 0.000000 1.665300 
# 
# From -- ./inp_files/27739.got.cif
#   From: 2010.05.17/outbox.cif.g08.bks.cpg/sg10_14_cif.got.tgz:27739.got - 2010.06.03 11:33:40.
