data_PCOD9153396
_publ_section_title
;
Structure prediction by ZEFSAII (Michael W. Deem and Ramdas Pophale) SiO2 
 PCOD9153396
Probable space group: P 2/M
;
_chemical_formula_sum "Si O2"
_cell_formula_units_Z 32
_cell_length_a 11.926981
_cell_length_b 14.898460
_cell_length_c 18.078438
_cell_angle_alpha 90.000000
_cell_angle_beta 30.196726
_cell_angle_gamma 90.000000
_cell_volume 1615.754506
_symmetry_space_group_name_H-M "P 2/M"
_symmetry_group_IT_number 10
_symmetry_cell_setting 'monoclinic'
loop_
_space_group_symop_operation_xyz
x,y,z
-x,y,-z
-x,-y,-z
x,-y,z
loop_
_atom_site_type_symbol
_atom_site_label
_atom_site_fract_x
_atom_site_fract_y
_atom_site_fract_z
Si Si1 0.969443 0.095785 0.853399
Si Si2 0.498395 0.098368 0.202734
Si Si3 0.305659 0.395708 0.403731
Si Si4 0.559236 0.288634 0.817291
Si Si5 0.570145 0.703093 0.379716
Si Si6 0.941044 0.290405 0.850324
Si Si7 0.144578 0.395638 0.247323
Si Si8 0.453269 0.099559 0.648650
O O1 0.956566 0.186647 0.813740
O O2 0.191480 0.097438 0.776618
O O3 0.967359 0.000000 0.813785
O O4 0.753760 0.097702 0.028910
O O5 0.389689 0.183640 0.225029
O O6 0.505053 0.108441 0.287588
O O7 0.401658 0.000000 0.240204
O O8 0.353495 0.500000 0.363311
O O9 0.340623 0.341939 0.308771
O O10 0.468034 0.354102 0.372474
O O11 0.058880 0.388938 0.578654
O O12 0.661994 0.331871 0.832039
O O13 0.291509 0.299348 0.973803
O O14 0.500000 0.667982 0.500000
O O15 0.475409 0.805673 0.427560
O O16 0.838463 0.700008 0.225799
O O17 0.938176 0.358695 0.784078
O O18 0.212394 0.500000 0.203893
O O19 0.541167 0.000000 0.574848
#
# Coordination Sequence:
#
# PCOD9153396 Si02
#       8
#     4   4   4   4   4   4   4   4
#     4   8  15  28  50  83 120 154 189 227 278 347
#     4   9  16  29  52  82 117 154 188 229 287 346
#     4  11  24  42  64  86 111 153 199 243 298 359
#     4  11  22  39  62  90 119 148 199 254 284 332
#     4  11  21  38  60  85 123 157 189 236 298 362
#     4  10  22  37  61  92 121 153 191 241 300 343
#     4  11  24  43  64  83 112 158 203 242 293 355
#     4   9  16  28  51  82 115 153 192 232 281 341
#
# _framework density 19.804988999999999
#
# number of rings (size 3 to 8) (size 9 to 14) (size 15 to 20)
#    0.000    2.000    2.500    1.500    0.000    5.500 
#    0.000    1.250    0.000    6.000    0.000    0.000 
#    0.000    0.000    0.000    0.000    0.000    0.000 
#
# Total GULP energy -178471.050030 kJ/mol
# GULP energy per Si atom -5577.220313 kJ/mol
# Density = 1.975991 g / cm^3
# Si number density = 19.804989 Si / 1000 Ang^3
#
#
#
# Elastic Constant Matrix: (Units=GPa)
#
#
# Indices 1 2 3 4 5 6 
#
# 1 49.6598 37.5548 5.1502 0.0000 -2.5931 0.0000
# 2 37.5548 126.2633 24.1953 0.0000 0.9870 0.0000
# 3 5.1502 24.1953 32.8564 0.0000 3.7719 0.0000
# 4 0.0000 0.0000 0.0000 15.9943 0.0000 8.1553
# 5 -2.5931 0.9870 3.7719 0.0000 21.6313 0.0000
# 6 0.0000 0.0000 0.0000 8.1553 0.0000 23.1464
#
#
#
# Elastic Compliance Matrix: (Units=1/GPa)
#
#
# Indices 1 2 3 4 5 6 
#
# 1 0.026305 -0.008136 0.001493 0.000000 0.003264 0.000000
# 2 -0.008136 0.011750 -0.007351 0.000000 -0.000230 0.000000
# 3 0.001493 -0.007351 0.036282 0.000000 -0.005812 0.000000
# 4 0.000000 0.000000 0.000000 0.076214 0.000000 -0.026853
# 5 0.003264 -0.000230 -0.005812 0.000000 0.047645 0.000000
# 6 0.000000 0.000000 0.000000 -0.026853 0.000000 0.052664
#
#
# Mechanical properties :
#
#
# Convention : Reuss Voigt Hill
#
# Bulk Modulus (GPa) = 21.57507 38.06444 29.81976
# Shear Modulus (GPa) = 16.98957 21.61302 19.30130
#
# Velocity S-wave (km/s) = 2.93207 3.30705 3.12519
# Velocity P-wave (km/s) = 4.73077 5.81752 5.30206
#
# Compressibility (1/GPa) = 0.04634979
#
# Stress axis : x y z
#
# Youngs Moduli (GPa) = 38.01550 85.10483 27.56179
#
# Poissons Ratio (x) = 0.69238 -0.04115
# Poissons Ratio (y) = 0.30928 0.20261
# Poissons Ratio (z) = -0.05676 0.62562
#
# Static dielectric constant tensor:
#      x y z
#    x 1.648790 0.000000 -0.013550 
#    y 0.000000 1.739720 0.000000 
#    z -0.013550 0.000000 1.711900 
# 
# From -- ./inp_files/54048.got.cif
#   From: 2010.05.17/outbox.cif.g08.bks.cpg/sg10_28_cif.got.tgz:54048.got - 2010.06.03 11:33:40.
