data_PCOD9153917
_publ_section_title
;
Structure prediction by ZEFSAII (Michael W. Deem and Ramdas Pophale) SiO2 
 PCOD9153917
Probable space group: P 2/M
;
_chemical_formula_sum "Si O2"
_cell_formula_units_Z 20
_cell_length_a 10.014949
_cell_length_b 10.744398
_cell_length_c 9.457953
_cell_angle_alpha 90.000000
_cell_angle_beta 77.115308
_cell_angle_gamma 90.000000
_cell_volume 992.093881
_symmetry_space_group_name_H-M "P 2/M"
_symmetry_group_IT_number 10
_symmetry_cell_setting 'monoclinic'
loop_
_space_group_symop_operation_xyz
x,y,z
-x,y,-z
-x,-y,-z
x,-y,z
loop_
_atom_site_type_symbol
_atom_site_label
_atom_site_fract_x
_atom_site_fract_y
_atom_site_fract_z
Si Si1 0.073123 0.355027 0.634875
Si Si2 0.472198 0.636691 0.839409
Si Si3 0.637720 0.350700 0.543891
Si Si4 0.939212 0.858690 0.855671
Si Si5 0.646548 0.865837 0.046646
O O1 0.074640 0.500000 0.688486
O O2 0.224926 0.305927 0.560784
O O3 0.000000 0.360302 0.500000
O O4 0.998027 0.255273 0.751623
O O5 0.424808 0.500000 0.801302
O O6 0.607007 0.669926 0.717243
O O7 0.500000 0.626387 0.000000
O O8 0.363932 0.746897 0.850086
O O9 0.500000 0.306718 0.500000
O O10 0.646366 0.500000 0.527685
O O11 0.774769 0.849763 0.912860
O O12 0.970095 0.000000 0.795075
O O13 0.000000 0.850906 0.000000
O O14 0.664700 0.000000 0.114100
O O15 0.500000 0.870288 0.000000
#
# Coordination Sequence:
#
# PCOD9153917 Si02
#       5
#     4   4   4   4   4
#     4  10  23  40  60  87 121 156 193 240 291 348
#     4   9  18  31  55  84 109 141 185 231 279 334
#     4   9  19  36  55  81 117 150 183 231 288 339
#     4  10  23  42  61  84 119 157 193 241 296 347
#     4   9  19  35  56  81 110 144 187 235 281 331
#
# _framework density 20.159382000000001
#
# number of rings (size 3 to 8) (size 9 to 14) (size 15 to 20)
#    0.000    2.600    0.000    0.000    8.400    1.600 
#    0.000    1.000    0.000    1.200    0.000    0.000 
#    0.000    0.000    0.000    0.000    0.000    0.000 
#
# Total GULP energy -111353.550215 kJ/mol
# GULP energy per Si atom -5567.677511 kJ/mol
# Density = 2.011350 g / cm^3
# Si number density = 20.159382 Si / 1000 Ang^3
#
#
#
# Elastic Constant Matrix: (Units=GPa)
#
#
# Indices 1 2 3 4 5 6 
#
# 1 117.8381 33.2782 41.8492 0.0000 -27.9262 0.0000
# 2 33.2782 179.1964 54.3230 0.0000 -38.6558 0.0000
# 3 41.8492 54.3230 90.3945 0.0000 -18.6716 0.0000
# 4 0.0000 0.0000 0.0000 50.0693 0.0000 0.5523
# 5 -27.9262 -38.6558 -18.6716 0.0000 35.2872 0.0000
# 6 0.0000 0.0000 0.0000 0.5523 0.0000 24.2560
#
#
#
# Elastic Compliance Matrix: (Units=1/GPa)
#
#
# Indices 1 2 3 4 5 6 
#
# 1 0.011626 0.000825 -0.004256 0.000000 0.007852 0.000000
# 2 0.000825 0.008215 -0.003733 0.000000 0.007677 0.000000
# 3 -0.004256 -0.003733 0.015422 0.000000 0.000702 0.000000
# 4 0.000000 0.000000 0.000000 0.019977 0.000000 -0.000455
# 5 0.007852 0.007677 0.000702 0.000000 0.043334 0.000000
# 6 0.000000 0.000000 0.000000 -0.000455 0.000000 0.041237
#
#
# Mechanical properties :
#
#
# Convention : Reuss Voigt Hill
#
# Bulk Modulus (GPa) = 47.76946 71.81445 59.79195
# Shear Modulus (GPa) = 31.03328 39.12108 35.07718
#
# Velocity S-wave (km/s) = 3.92777 4.40999 4.17585
# Velocity P-wave (km/s) = 6.65711 7.85056 7.27834
#
# Compressibility (1/GPa) = 0.02093388
#
# Stress axis : x y z
#
# Youngs Moduli (GPa) = 86.01687 121.72938 64.84436
#
# Poissons Ratio (x) = -0.10044 0.27599
# Poissons Ratio (y) = -0.07098 0.24207
# Poissons Ratio (z) = 0.36610 0.45443
#
# Static dielectric constant tensor:
#      x y z
#    x 2.159270 0.000000 0.141330 
#    y 0.000000 1.790420 0.000000 
#    z 0.141330 0.000000 1.764150 
# 
# From -- ./inp_files/23035.got.cif
#   From: 2010.05.17/outbox.cif.g08.bks.cpg/sg10_12_cif.got.tgz:23035.got - 2010.06.03 11:33:40.
