data_PCOD9153338
_publ_section_title
;
Structure prediction by ZEFSAII (Michael W. Deem and Ramdas Pophale) SiO2 
 PCOD9153338
Probable space group: P 2/M
;
_chemical_formula_sum "Si O2"
_cell_formula_units_Z 24
_cell_length_a 13.594318
_cell_length_b 15.626250
_cell_length_c 9.523621
_cell_angle_alpha 90.000000
_cell_angle_beta 35.612576
_cell_angle_gamma 90.000000
_cell_volume 1178.045733
_symmetry_space_group_name_H-M "P 2/M"
_symmetry_group_IT_number 10
_symmetry_cell_setting 'monoclinic'
loop_
_space_group_symop_operation_xyz
x,y,z
-x,y,-z
-x,-y,-z
x,-y,z
loop_
_atom_site_type_symbol
_atom_site_label
_atom_site_fract_x
_atom_site_fract_y
_atom_site_fract_z
Si Si1 0.205395 0.901186 0.241245
Si Si2 0.819252 0.639702 0.743121
Si Si3 0.557127 0.500000 0.091748
Si Si4 0.129530 0.211284 0.089977
Si Si5 0.253111 0.232652 0.417321
Si Si6 0.679221 0.692725 0.368433
Si Si7 0.673586 0.500000 0.389356
O O1 0.224589 0.865872 0.060006
O O2 0.294939 0.842729 0.256422
O O3 0.000000 0.892827 0.500000
O O4 0.251413 0.000000 0.201540
O O5 0.854605 0.713833 0.812910
O O6 0.759271 0.684677 0.669682
O O7 0.000000 0.597290 0.500000
O O8 0.678138 0.580398 0.972904
O O9 0.393593 0.500000 0.374913
O O10 0.500000 0.500000 0.000000
O O11 0.928357 0.201222 0.312253
O O12 0.207180 0.244156 0.856185
O O13 0.348016 0.266826 0.445121
O O14 0.500000 0.687119 0.500000
O O15 0.753970 0.594764 0.278002
O O16 0.500000 0.500000 0.500000
#
# Coordination Sequence:
#
# PCOD9153338 Si02
#       7
#     4   4   2   4   4   4   2
#     4   8  15  32  59  85 104 126 163 212 260 306
#     4   9  18  32  49  71  98 129 166 213 263 302
#     4  12  21  31  48  71  98 131 174 216 251 298
#     4   9  18  33  54  76 101 132 168 210 254 305
#     4   9  18  33  53  78 103 129 167 211 257 306
#     4  11  21  35  51  72 104 142 178 211 251 298
#     4  10  22  35  47  67  99 139 181 216 244 286
#
# _framework density 20.372723000000001
#
# number of rings (size 3 to 8) (size 9 to 14) (size 15 to 20)
#    0.000    2.500    0.000    5.750    0.000    0.000 
#    0.000    6.667    0.000    7.000    0.000    0.000 
#    0.000    0.000    0.000    0.000    0.000    0.000 
#
# Total GULP energy -133734.614396 kJ/mol
# GULP energy per Si atom -5572.275600 kJ/mol
# Density = 2.032635 g / cm^3
# Si number density = 20.372723 Si / 1000 Ang^3
#
#
#
# Elastic Constant Matrix: (Units=GPa)
#
#
# Indices 1 2 3 4 5 6 
#
# 1 92.5294 37.3830 8.3981 0.0000 28.9534 0.0000
# 2 37.3830 121.5340 16.8700 0.0000 11.3328 0.0000
# 3 8.3981 16.8700 51.6745 0.0000 17.0822 0.0000
# 4 0.0000 0.0000 0.0000 26.6720 0.0000 7.9264
# 5 28.9534 11.3328 17.0822 0.0000 33.4653 0.0000
# 6 0.0000 0.0000 0.0000 7.9264 0.0000 14.4760
#
#
#
# Elastic Compliance Matrix: (Units=1/GPa)
#
#
# Indices 1 2 3 4 5 6 
#
# 1 0.016922 -0.004307 0.003625 0.000000 -0.015033 0.000000
# 2 -0.004307 0.009804 -0.003170 0.000000 0.002024 0.000000
# 3 0.003625 -0.003170 0.024637 0.000000 -0.014639 0.000000
# 4 0.000000 0.000000 0.000000 0.044779 0.000000 -0.024519
# 5 -0.015033 0.002024 -0.014639 0.000000 0.049675 0.000000
# 6 0.000000 0.000000 0.000000 -0.024519 0.000000 0.082506
#
#
# Mechanical properties :
#
#
# Convention : Reuss Voigt Hill
#
# Bulk Modulus (GPa) = 22.90391 43.44887 33.17639
# Shear Modulus (GPa) = 19.95383 28.46177 24.20780
#
# Velocity S-wave (km/s) = 3.13299 3.74177 3.45083
# Velocity P-wave (km/s) = 4.93502 6.32780 5.67430
#
# Compressibility (1/GPa) = 0.04366066
#
# Stress axis : x y z
#
# Youngs Moduli (GPa) = 59.09406 101.99814 40.58970
#
# Poissons Ratio (x) = 0.43926 -0.14715
# Poissons Ratio (y) = 0.25449 0.12866
# Poissons Ratio (z) = -0.21423 0.32332
#
# Static dielectric constant tensor:
#      x y z
#    x 1.782940 0.000000 -0.041240 
#    y 0.000000 1.776840 0.000000 
#    z -0.041240 0.000000 1.754070 
# 
# From -- ./inp_files/29345.got.cif
#   From: 2010.05.17/outbox.cif.g08.bks.cpg/sg10_15_cif.got.tgz:29345.got - 2010.06.03 11:33:40.
