data_PCOD9153737
_publ_section_title
;
Structure prediction by ZEFSAII (Michael W. Deem and Ramdas Pophale) SiO2 
 PCOD9153737
Probable space group: P 2/M
;
_chemical_formula_sum "Si O2"
_cell_formula_units_Z 30
_cell_length_a 21.690357
_cell_length_b 9.536776
_cell_length_c 7.921559
_cell_angle_alpha 90.000000
_cell_angle_beta 121.239140
_cell_angle_gamma 90.000000
_cell_volume 1401.039022
_symmetry_space_group_name_H-M "P 2/M"
_symmetry_group_IT_number 10
_symmetry_cell_setting 'monoclinic'
loop_
_space_group_symop_operation_xyz
x,y,z
-x,y,-z
-x,-y,-z
x,-y,z
loop_
_atom_site_type_symbol
_atom_site_label
_atom_site_fract_x
_atom_site_fract_y
_atom_site_fract_z
Si Si1 0.665932 0.670828 0.176980
Si Si2 0.272751 0.166343 0.411501
Si Si3 0.941586 0.837928 0.274762
Si Si4 0.812391 0.661055 0.220185
Si Si5 0.473752 0.337827 0.197564
Si Si6 0.000000 0.254203 0.000000
Si Si7 0.149852 0.652355 0.330107
Si Si8 0.612960 0.336780 0.575549
O O1 0.665659 0.500000 0.199786
O O2 0.693666 0.754866 0.377577
O O3 0.727588 0.697319 0.122188
O O4 0.584804 0.717925 0.016663
O O5 0.191523 0.222027 0.298430
O O6 0.319174 0.235718 0.329691
O O7 0.277563 0.000000 0.425476
O O8 0.867097 0.753300 0.189879
O O9 0.000000 0.788492 0.500000
O O10 0.926589 0.000000 0.292063
O O11 0.974416 0.825953 0.133300
O O12 0.816485 0.500000 0.168518
O O13 0.841429 0.668201 0.455738
O O14 0.487144 0.500000 0.172348
O O15 0.552211 0.281640 0.356857
O O16 0.427949 0.338048 0.305341
O O17 0.067912 0.342329 0.158870
O O18 0.182287 0.500000 0.332352
O O19 0.631608 0.500000 0.564094
#
# Coordination Sequence:
#
# PCOD9153737 Si02
#       8
#     4   4   4   4   4   2   4   4
#     4   9  18  36  59  85 114 151 197 242 292 347
#     4  11  23  37  55  83 120 158 192 236 291 349
#     4  11  24  41  61  87 122 165 200 241 298 359
#     4   9  19  37  60  85 116 153 196 251 301 351
#     4   8  16  32  58  85 110 147 198 249 295 347
#     4  12  24  42  66  96 120 152 204 256 298 364
#     4  10  22  41  64  89 115 149 195 247 303 360
#     4   9  17  34  58  84 114 150 194 246 297 346
#
# _framework density 21.412680000000002
#
# number of rings (size 3 to 8) (size 9 to 14) (size 15 to 20)
#    0.000    2.267    1.333    3.200    0.000    6.133 
#    0.000    6.667    0.000    0.000    0.000    0.000 
#    0.000    0.000    0.000    0.000    0.000    0.000 
#
# Total GULP energy -167379.415640 kJ/mol
# GULP energy per Si atom -5579.313855 kJ/mol
# Density = 2.136394 g / cm^3
# Si number density = 21.412680 Si / 1000 Ang^3
#
#
#
# Elastic Constant Matrix: (Units=GPa)
#
#
# Indices 1 2 3 4 5 6 
#
# 1 81.4663 34.9776 -0.1745 0.0000 -13.2642 0.0000
# 2 34.9776 81.5419 -0.3384 0.0000 -3.7697 0.0000
# 3 -0.1745 -0.3384 74.3158 0.0000 -2.2357 0.0000
# 4 0.0000 0.0000 0.0000 3.9758 0.0000 -7.7208
# 5 -13.2642 -3.7697 -2.2357 0.0000 34.4728 0.0000
# 6 0.0000 0.0000 0.0000 -7.7208 0.0000 6.2515
#
#
#
# Elastic Compliance Matrix: (Units=1/GPa)
#
#
# Indices 1 2 3 4 5 6 
#
# 1 0.016000 -0.006611 0.000171 0.000000 0.005445 0.000000
# 2 -0.006611 0.015058 0.000026 0.000000 -0.000895 0.000000
# 3 0.000171 0.000026 0.013485 0.000000 0.000943 0.000000
# 4 0.000000 0.000000 0.000000 -0.179865 0.000000 -0.222140
# 5 0.005445 -0.000895 0.000943 0.000000 0.031067 0.000000
# 6 0.000000 0.000000 0.000000 -0.222140 0.000000 -0.114389
#
#
# Mechanical properties :
#
#
# Convention : Reuss Voigt Hill
#
# Bulk Modulus (GPa) = 31.52957 34.02815 32.77886
# Shear Modulus (GPa) = -25.60884 22.46396 -1.57244
#
# Velocity S-wave (km/s) = -3.46203 3.24249 -0.85787
# Velocity P-wave (km/s) = 1.10641 5.47215 3.78948
#
# Compressibility (1/GPa) = 0.03171626
#
# Stress axis : x y z
#
# Youngs Moduli (GPa) = 62.49885 66.40931 74.15653
#
# Poissons Ratio (x) = 0.43903 -0.01270
# Poissons Ratio (y) = 0.41318 -0.00194
# Poissons Ratio (z) = -0.01070 -0.00173
#
# Static dielectric constant tensor:
#      x y z
#    x 1.811950 0.000000 -0.014690 
#    y 0.000000 1.717120 0.000000 
#    z -0.014690 0.000000 1.857890 
# 
# From -- ./inp_files/35830.got.cif
#   From: 2010.05.17/outbox.cif.g08.bks.cpg/sg10_18_cif.got.tgz:35830.got - 2010.06.03 11:33:40.
