data_PCOD9153493
_publ_section_title
;
Structure prediction by ZEFSAII (Michael W. Deem and Ramdas Pophale) SiO2 
 PCOD9153493
Probable space group: P 2/M
;
_chemical_formula_sum "Si O2"
_cell_formula_units_Z 16
_cell_length_a 11.600446
_cell_length_b 8.084858
_cell_length_c 9.200822
_cell_angle_alpha 90.000000
_cell_angle_beta 125.198221
_cell_angle_gamma 90.000000
_cell_volume 705.151279
_symmetry_space_group_name_H-M "P 2/M"
_symmetry_group_IT_number 10
_symmetry_cell_setting 'monoclinic'
loop_
_space_group_symop_operation_xyz
x,y,z
-x,y,-z
-x,-y,-z
x,-y,z
loop_
_atom_site_type_symbol
_atom_site_label
_atom_site_fract_x
_atom_site_fract_y
_atom_site_fract_z
Si Si1 0.036024 0.320822 0.696719
Si Si2 0.551879 0.000000 0.203692
Si Si3 0.854076 0.192209 0.805728
Si Si4 0.852369 0.000000 0.304862
Si Si5 0.566242 0.685553 0.709431
O O1 0.090126 0.500000 0.783659
O O2 0.000000 0.331902 0.500000
O O3 0.895175 0.276690 0.683376
O O4 0.141476 0.165717 0.786760
O O5 0.496777 0.835063 0.242589
O O6 0.500000 0.000000 0.000000
O O7 0.278919 0.000000 0.684476
O O8 0.731395 0.283685 0.801469
O O9 0.814743 0.000000 0.755641
O O10 0.000000 0.198406 0.000000
O O11 0.000000 0.000000 0.500000
O O12 0.500000 0.695289 0.500000
O O13 0.539868 0.500000 0.748311
#
# Coordination Sequence:
#
# PCOD9153493 Si02
#       5
#     4   2   4   2   4
#     4  10  22  38  64  99 133 169 221 277 332 399
#     4  12  29  48  71 101 146 186 231 296 365 417
#     4  11  24  43  73 104 139 182 230 288 350 413
#     4  10  24  42  67  95 130 181 225 279 334 405
#     4  11  27  48  73 104 142 191 240 288 353 428
#
# _framework density 22.690168
#
# number of rings (size 3 to 8) (size 9 to 14) (size 15 to 20)
#    0.000    1.250    2.500    1.125   10.500    3.500 
#    0.000    0.000    0.000    0.000    0.000    0.000 
#    0.000    0.000    0.000    0.000    0.000    0.000 
#
# Total GULP energy -89525.329891 kJ/mol
# GULP energy per Si atom -5595.333118 kJ/mol
# Density = 2.263852 g / cm^3
# Si number density = 22.690168 Si / 1000 Ang^3
#
#
#
# Elastic Constant Matrix: (Units=GPa)
#
#
# Indices 1 2 3 4 5 6 
#
# 1 168.2943 84.8978 27.4051 0.0000 -4.9209 0.0000
# 2 84.8978 263.5391 28.1882 0.0000 -14.9336 0.0000
# 3 27.4051 28.1882 69.6016 0.0000 -8.8315 0.0000
# 4 0.0000 0.0000 0.0000 -0.6073 0.0000 16.3414
# 5 -4.9209 -14.9336 -8.8315 0.0000 30.8079 0.0000
# 6 0.0000 0.0000 0.0000 16.3414 0.0000 -1.9191
#
#
#
# Elastic Compliance Matrix: (Units=1/GPa)
#
#
# Indices 1 2 3 4 5 6 
#
# 1 0.007365 -0.002177 -0.002078 0.000000 -0.000475 0.000000
# 2 -0.002177 0.004679 -0.000824 0.000000 0.001684 0.000000
# 3 -0.002078 -0.000824 0.016009 0.000000 0.003858 0.000000
# 4 0.000000 0.000000 0.000000 0.007218 0.000000 0.061463
# 5 -0.000475 0.001684 0.003858 0.000000 0.034306 0.000000
# 6 0.000000 0.000000 0.000000 0.061463 0.000000 0.002284
#
#
# Mechanical properties :
#
#
# Convention : Reuss Voigt Hill
#
# Bulk Modulus (GPa) = 55.88468 86.93526 71.40997
# Shear Modulus (GPa) = 56.82750 29.71921 43.27335
#
# Velocity S-wave (km/s) = 5.00993 3.62302 4.37182
# Velocity P-wave (km/s) = 7.62553 7.47656 7.55141
#
# Compressibility (1/GPa) = 0.01789399
#
# Stress axis : x y z
#
# Youngs Moduli (GPa) = 135.78083 213.70011 62.46440
#
# Poissons Ratio (x) = 0.46525 0.12982
# Poissons Ratio (y) = 0.29561 0.05148
# Poissons Ratio (z) = 0.28220 0.17613
#
# Static dielectric constant tensor:
#      x y z
#    x 1.782620 0.000000 -0.039700 
#    y 0.000000 1.916980 0.000000 
#    z -0.039700 0.000000 1.793400 
# 
# From -- ./inp_files/21839.got.cif
#   From: 2010.05.17/outbox.cif.g08.bks.cpg/sg10_11_cif.got.tgz:21839.got - 2010.06.03 11:33:40.
