data_PCOD9153353
_publ_section_title
;
Structure prediction by ZEFSAII (Michael W. Deem and Ramdas Pophale) SiO2 
 PCOD9153353
Probable space group: P 2/M
;
_chemical_formula_sum "Si O2"
_cell_formula_units_Z 28
_cell_length_a 19.028788
_cell_length_b 14.192643
_cell_length_c 10.276475
_cell_angle_alpha 90.000000
_cell_angle_beta 34.506286
_cell_angle_gamma 90.000000
_cell_volume 1572.229432
_symmetry_space_group_name_H-M "P 2/M"
_symmetry_group_IT_number 10
_symmetry_cell_setting 'monoclinic'
loop_
_space_group_symop_operation_xyz
x,y,z
-x,y,-z
-x,-y,-z
x,-y,z
loop_
_atom_site_type_symbol
_atom_site_label
_atom_site_fract_x
_atom_site_fract_y
_atom_site_fract_z
Si Si1 0.146924 0.210538 0.551791
Si Si2 0.850059 0.000000 0.378812
Si Si3 0.850600 0.000000 0.078379
Si Si4 0.717092 0.242638 0.914513
Si Si5 0.498768 0.887741 0.158808
Si Si6 0.483257 0.611489 0.679988
Si Si7 0.302371 0.264159 0.556245
Si Si8 0.148471 0.200917 0.029617
O O1 0.185151 0.098843 0.501642
O O2 0.208676 0.255837 0.331759
O O3 0.201517 0.260861 0.595613
O O4 0.997993 0.213252 0.772073
O O5 0.808220 0.000000 0.292626
O O6 0.999424 0.000000 0.146570
O O7 0.814784 0.093613 0.058975
O O8 0.812788 0.222758 0.883724
O O9 0.623540 0.155340 0.031015
O O10 0.632004 0.330041 0.087411
O O11 0.389425 0.826797 0.392445
O O12 0.487816 0.000000 0.194043
O O13 0.500000 0.869604 0.000000
O O14 0.500000 0.633685 0.500000
O O15 0.467551 0.500000 0.716788
O O16 0.603288 0.649133 0.575067
O O17 0.228849 0.258562 0.803422
#
# Coordination Sequence:
#
# PCOD9153353 Si02
#       8
#     4   2   2   4   4   4   4   4
#     4  11  22  36  59  84 130 162 199 241 289 355
#     4   9  18  31  51  78 113 176 206 221 270 333
#     4   9  18  31  49  80 117 164 214 233 256 321
#     4  11  23  39  59  90 116 155 199 245 310 352
#     4  10  22  36  55  81 118 164 198 245 296 338
#     4  10  22  44  69  89 112 150 198 251 307 365
#     4  11  21  37  61  89 112 157 202 240 295 354
#     4  11  22  36  56  88 124 162 203 244 283 349
#
# _framework density 17.809106
#
# number of rings (size 3 to 8) (size 9 to 14) (size 15 to 20)
#    0.000    1.571    4.286    0.857    4.000    0.000 
#    0.000    4.286    0.000    5.143    0.000    0.000 
#    0.000    0.000    0.000    0.000    0.000    0.000 
#
# Total GULP energy -156278.108546 kJ/mol
# GULP energy per Si atom -5581.361020 kJ/mol
# Density = 1.776857 g / cm^3
# Si number density = 17.809106 Si / 1000 Ang^3
#
#
#
# Elastic Constant Matrix: (Units=GPa)
#
#
# Indices 1 2 3 4 5 6 
#
# 1 106.0055 20.9554 4.5421 0.0000 -3.5285 0.0000
# 2 20.9554 78.9024 23.5703 0.0000 2.8429 0.0000
# 3 4.5421 23.5703 67.0176 0.0000 0.4230 0.0000
# 4 0.0000 0.0000 0.0000 18.5986 0.0000 3.7443
# 5 -3.5285 2.8429 0.4230 0.0000 29.8489 0.0000
# 6 0.0000 0.0000 0.0000 3.7443 0.0000 15.5232
#
#
#
# Elastic Compliance Matrix: (Units=1/GPa)
#
#
# Indices 1 2 3 4 5 6 
#
# 1 0.010023 -0.002803 0.000297 0.000000 0.001448 0.000000
# 2 -0.002803 0.014995 -0.005073 0.000000 -0.001688 0.000000
# 3 0.000297 -0.005073 0.016684 0.000000 0.000282 0.000000
# 4 0.000000 0.000000 0.000000 0.056512 0.000000 -0.013631
# 5 0.001448 -0.001688 0.000282 0.000000 0.033830 0.000000
# 6 0.000000 0.000000 0.000000 -0.013631 0.000000 0.067707
#
#
# Mechanical properties :
#
#
# Convention : Reuss Voigt Hill
#
# Bulk Modulus (GPa) = 37.67321 38.89569 38.28445
# Shear Modulus (GPa) = 22.34583 26.31799 24.33191
#
# Velocity S-wave (km/s) = 3.54608 3.84836 3.70031
# Velocity P-wave (km/s) = 6.16166 6.45246 6.30874
#
# Compressibility (1/GPa) = 0.02654406
#
# Stress axis : x y z
#
# Youngs Moduli (GPa) = 99.77045 66.69081 59.93868
#
# Poissons Ratio (x) = 0.18693 -0.01782
# Poissons Ratio (y) = 0.27965 0.30407
# Poissons Ratio (z) = -0.02967 0.33832
#
# Static dielectric constant tensor:
#      x y z
#    x 1.604660 0.000000 -0.014870 
#    y 0.000000 1.583480 0.000000 
#    z -0.014870 0.000000 1.619340 
# 
# From -- ./inp_files/25083.got.cif
#   From: 2010.05.17/outbox.cif.g08.bks.cpg/sg10_13_cif.got.tgz:25083.got - 2010.06.03 11:33:40.
