data_PCOD9153531
_publ_section_title
;
Structure prediction by ZEFSAII (Michael W. Deem and Ramdas Pophale) SiO2 
 PCOD9153531
Probable space group: P 2/M
;
_chemical_formula_sum "Si O2"
_cell_formula_units_Z 21
_cell_length_a 6.969465
_cell_length_b 12.727155
_cell_length_c 10.619929
_cell_angle_alpha 90.000000
_cell_angle_beta 82.520720
_cell_angle_gamma 90.000000
_cell_volume 933.988657
_symmetry_space_group_name_H-M "P 2/M"
_symmetry_group_IT_number 10
_symmetry_cell_setting 'monoclinic'
loop_
_space_group_symop_operation_xyz
x,y,z
-x,y,-z
-x,-y,-z
x,-y,z
loop_
_atom_site_type_symbol
_atom_site_label
_atom_site_fract_x
_atom_site_fract_y
_atom_site_fract_z
Si Si1 0.678260 0.500000 0.715747
Si Si2 0.213687 0.500000 0.758815
Si Si3 0.000000 0.500000 0.500000
Si Si4 0.731092 0.121773 0.615958
Si Si5 0.715700 0.278935 0.835024
Si Si6 0.753844 0.278937 0.114711
Si Si7 0.261258 0.878654 0.666385
O O1 0.446698 0.500000 0.715000
O O2 0.783101 0.500000 0.574089
O O3 0.739974 0.397442 0.787411
O O4 0.183792 0.393816 0.842560
O O5 0.089742 0.500000 0.641369
O O6 0.789374 0.199454 0.721824
O O7 0.795303 0.155519 0.470322
O O8 0.496238 0.123300 0.640854
O O9 0.788066 0.000000 0.628823
O O10 0.481875 0.270745 0.864007
O O11 0.803598 0.259679 0.964825
O O12 0.809458 0.193959 0.215125
O O13 0.206535 0.000000 0.689572
#
# Coordination Sequence:
#
# PCOD9153531 Si02
#       7
#     2   2   1   4   4   4   4
#     4  10  22  39  59  85 118 149 186 238 284 334
#     4  10  22  39  59  85 118 149 186 238 284 334
#     4  12  26  40  58  90 114 152 196 228 284 348
#     4   8  14  24  40  69 110 150 189 235 281 328
#     4   9  17  30  51  78 111 152 191 231 284 340
#     4   9  17  30  51  78 111 152 191 231 284 340
#     4   8  14  24  40  69 110 150 189 235 281 328
#
# _framework density 22.484213
#
# number of rings (size 3 to 8) (size 9 to 14) (size 15 to 20)
#    0.000    3.048    0.000    2.000    2.667    3.048 
#    0.000    5.714    0.000    0.000    0.000    2.667 
#    0.000    3.048    0.000    0.381    0.000    0.000 
#
# Total GULP energy -117114.239108 kJ/mol
# GULP energy per Si atom -5576.868529 kJ/mol
# Density = 2.243304 g / cm^3
# Si number density = 22.484213 Si / 1000 Ang^3
#
#
#
# Elastic Constant Matrix: (Units=GPa)
#
#
# Indices 1 2 3 4 5 6 
#
# 1 112.4461 16.4010 35.2672 0.0000 28.2018 0.0000
# 2 16.4010 142.3520 144.5606 0.0000 17.7666 0.0000
# 3 35.2672 144.5606 261.5517 0.0000 26.7675 0.0000
# 4 0.0000 0.0000 0.0000 123.9240 0.0000 79.1750
# 5 28.2018 17.7666 26.7675 0.0000 38.6538 0.0000
# 6 0.0000 0.0000 0.0000 79.1750 0.0000 39.6867
#
#
#
# Elastic Compliance Matrix: (Units=1/GPa)
#
#
# Indices 1 2 3 4 5 6 
#
# 1 0.011058 0.000911 -0.001212 0.000000 -0.007648 0.000000
# 2 0.000911 0.016150 -0.008849 0.000000 -0.001961 0.000000
# 3 -0.001212 -0.008849 0.009009 0.000000 -0.001287 0.000000
# 4 0.000000 0.000000 0.000000 -0.029386 0.000000 0.058625
# 5 -0.007648 -0.001961 -0.001287 0.000000 0.033243 0.000000
# 6 0.000000 0.000000 0.000000 0.058625 0.000000 -0.091759
#
#
# Mechanical properties :
#
#
# Convention : Reuss Voigt Hill
#
# Bulk Modulus (GPa) = 55.80594 100.97860 78.39227
# Shear Modulus (GPa) = -182.40723 61.79431 -60.30646
#
# Velocity S-wave (km/s) = -9.01681 5.24815 -5.18458
# Velocity P-wave (km/s) = 9.13947 9.04060 0.94801
#
# Compressibility (1/GPa) = 0.01791924
#
# Stress axis : x y z
#
# Youngs Moduli (GPa) = 90.42845 61.91760 110.99746
#
# Poissons Ratio (x) = -0.05643 0.13454
# Poissons Ratio (y) = -0.08241 0.98218
# Poissons Ratio (z) = 0.10961 0.54789
#
# Static dielectric constant tensor:
#      x y z
#    x 1.887160 0.000000 -0.001790 
#    y 0.000000 1.777590 0.000000 
#    z -0.001790 0.000000 1.784720 
# 
# From -- ./inp_files/18580.got.cif
#   From: 2010.05.17/outbox.cif.g08.bks.cpg/sg10_10_cif.got.tgz:18580.got - 2010.06.03 11:33:40.
