data_PCOD9153969
_publ_section_title
;
Structure prediction by ZEFSAII (Michael W. Deem and Ramdas Pophale) SiO2 
 PCOD9153969
Probable space group: P 2/M
;
_chemical_formula_sum "Si O2"
_cell_formula_units_Z 18
_cell_length_a 9.447195
_cell_length_b 17.651685
_cell_length_c 5.178383
_cell_angle_alpha 90.000000
_cell_angle_beta 74.486502
_cell_angle_gamma 90.000000
_cell_volume 832.080504
_symmetry_space_group_name_H-M "P 2/M"
_symmetry_group_IT_number 10
_symmetry_cell_setting 'monoclinic'
loop_
_space_group_symop_operation_xyz
x,y,z
-x,y,-z
-x,-y,-z
x,-y,z
loop_
_atom_site_type_symbol
_atom_site_label
_atom_site_fract_x
_atom_site_fract_y
_atom_site_fract_z
Si Si1 0.166098 0.710327 0.031209
Si Si2 0.000000 0.787631 0.500000
Si Si3 0.662481 0.862021 0.031593
Si Si4 0.185762 0.084392 0.566887
Si Si5 0.401723 0.410960 0.791438
O O1 0.128944 0.731948 0.346612
O O2 0.275483 0.779680 0.919484
O O3 0.253651 0.635884 0.911937
O O4 0.000000 0.710258 0.000000
O O5 0.066975 0.848654 0.668989
O O6 0.754145 0.898346 0.749510
O O7 0.500000 0.856520 0.000000
O O8 0.688084 0.908809 0.279641
O O9 0.124341 0.000000 0.615795
O O10 0.500000 0.384617 0.500000
O O11 0.369202 0.500000 0.767000
O O12 0.500000 0.403107 0.000000
#
# Coordination Sequence:
#
# PCOD9153969 Si02
#       5
#     4   2   4   4   4
#     4  11  23  42  68  96 134 173 222 272 322 388
#     4  10  23  42  61 100 132 172 224 276 329 398
#     4  11  24  40  61  93 127 169 220 274 333 390
#     4  11  23  40  63  88 127 172 218 276 335 391
#     4  10  24  45  70 101 136 174 214 261 326 393
#
# _framework density 21.632521000000001
#
# number of rings (size 3 to 8) (size 9 to 14) (size 15 to 20)
#    0.000    1.333    2.222    2.333    3.111    4.889 
#    0.000    3.889    0.000    0.000    0.000    0.000 
#    0.000    0.000    0.000    0.000    0.000    0.000 
#
# Total GULP energy -100374.062869 kJ/mol
# GULP energy per Si atom -5576.336826 kJ/mol
# Density = 2.158328 g / cm^3
# Si number density = 21.632521 Si / 1000 Ang^3
#
#
#
# Elastic Constant Matrix: (Units=GPa)
#
#
# Indices 1 2 3 4 5 6 
#
# 1 154.4536 63.1371 34.4790 0.0000 7.3601 0.0000
# 2 63.1371 113.0501 51.4304 0.0000 -16.4986 0.0000
# 3 34.4790 51.4304 87.8110 0.0000 1.1388 0.0000
# 4 0.0000 0.0000 0.0000 13.9451 0.0000 -6.8792
# 5 7.3601 -16.4986 1.1388 0.0000 40.8056 0.0000
# 6 0.0000 0.0000 0.0000 -6.8792 0.0000 12.8970
#
#
#
# Elastic Compliance Matrix: (Units=1/GPa)
#
#
# Indices 1 2 3 4 5 6 
#
# 1 0.008931 -0.005409 -0.000289 0.000000 -0.003790 0.000000
# 2 -0.005409 0.016486 -0.007633 0.000000 0.007854 0.000000
# 3 -0.000289 -0.007633 0.016018 0.000000 -0.003481 0.000000
# 4 0.000000 0.000000 0.000000 0.097316 0.000000 0.051908
# 5 -0.003790 0.007854 -0.003481 0.000000 0.028463 0.000000
# 6 0.000000 0.000000 0.000000 0.051908 0.000000 0.105226
#
#
# Mechanical properties :
#
#
# Convention : Reuss Voigt Hill
#
# Bulk Modulus (GPa) = 67.70459 72.60086 70.15273
# Shear Modulus (GPa) = 16.44596 27.28075 21.86336
#
# Velocity S-wave (km/s) = 2.76024 3.55505 3.18255
# Velocity P-wave (km/s) = 6.44392 7.10528 6.78267
#
# Compressibility (1/GPa) = 0.01477005
#
# Stress axis : x y z
#
# Youngs Moduli (GPa) = 111.97246 60.65932 62.43077
#
# Poissons Ratio (x) = 0.32811 0.01807
# Poissons Ratio (y) = 0.60567 0.47656
# Poissons Ratio (z) = 0.03241 0.46304
#
# Static dielectric constant tensor:
#      x y z
#    x 1.819690 0.000000 0.020890 
#    y 0.000000 1.782920 0.000000 
#    z 0.020890 0.000000 1.893210 
# 
# From -- ./inp_files/4035.got.cif
#   From: 2010.05.17/outbox.cif.g08.bks.cpg/sg10_3_cif.got.tgz:4035.got - 2010.06.03 11:33:40.
