data_PCOD9153227
_publ_section_title
;
Structure prediction by ZEFSAII (Michael W. Deem and Ramdas Pophale) SiO2 
 PCOD9153227
Probable space group: P 2/M
;
_chemical_formula_sum "Si O2"
_cell_formula_units_Z 16
_cell_length_a 9.785866
_cell_length_b 12.462100
_cell_length_c 7.247680
_cell_angle_alpha 90.000000
_cell_angle_beta 64.385080
_cell_angle_gamma 90.000000
_cell_volume 797.005281
_symmetry_space_group_name_H-M "P 2/M"
_symmetry_group_IT_number 10
_symmetry_cell_setting 'monoclinic'
loop_
_space_group_symop_operation_xyz
x,y,z
-x,y,-z
-x,-y,-z
x,-y,z
loop_
_atom_site_type_symbol
_atom_site_label
_atom_site_fract_x
_atom_site_fract_y
_atom_site_fract_z
Si Si1 0.878914 0.000000 0.897200
Si Si2 0.821741 0.379632 0.070036
Si Si3 0.327149 0.000000 0.673250
Si Si4 0.851460 0.774245 0.707169
Si Si5 0.324397 0.772291 0.547364
O O1 0.886341 0.107977 0.771556
O O2 0.000000 0.000000 0.000000
O O3 0.711087 0.000000 0.089023
O O4 0.759389 0.500000 0.081330
O O5 0.752141 0.319830 0.287018
O O6 0.810784 0.304369 0.898079
O O7 0.000000 0.388096 0.000000
O O8 0.500000 0.000000 0.500000
O O9 0.258916 0.888915 0.641707
O O10 0.712241 0.767403 0.646055
O O11 0.000000 0.742053 0.500000
O O12 0.500000 0.770950 0.500000
#
# Coordination Sequence:
#
# PCOD9153227 Si02
#       5
#     2   4   2   4   4
#     4  12  22  39  70  98 132 166 219 275 316 386
#     4  11  24  44  68  95 128 171 221 274 322 380
#     4  10  21  41  63  91 134 170 199 254 329 381
#     4  12  23  40  68  99 127 171 218 266 329 387
#     4  11  24  44  65  96 136 170 212 268 328 387
#
# _framework density 20.075149
#
# number of rings (size 3 to 8) (size 9 to 14) (size 15 to 20)
#    0.000    0.750    5.000    3.375    0.000    3.000 
#    0.000    3.750    0.000    0.000    0.000    0.000 
#    0.000    0.000    0.000    0.000    0.000    0.000 
#
# Total GULP energy -89303.144849 kJ/mol
# GULP energy per Si atom -5581.446553 kJ/mol
# Density = 2.002946 g / cm^3
# Si number density = 20.075149 Si / 1000 Ang^3
#
#
#
# Elastic Constant Matrix: (Units=GPa)
#
#
# Indices 1 2 3 4 5 6 
#
# 1 113.1132 30.7123 39.7995 0.0000 26.4217 0.0000
# 2 30.7123 180.0285 60.6473 0.0000 24.9312 0.0000
# 3 39.7995 60.6473 102.6571 0.0000 23.7650 0.0000
# 4 0.0000 0.0000 0.0000 32.0283 0.0000 -17.3536
# 5 26.4217 24.9312 23.7650 0.0000 45.0261 0.0000
# 6 0.0000 0.0000 0.0000 -17.3536 0.0000 -16.7674
#
#
#
# Elastic Compliance Matrix: (Units=1/GPa)
#
#
# Indices 1 2 3 4 5 6 
#
# 1 0.011093 -0.000193 -0.003081 0.000000 -0.004776 0.000000
# 2 -0.000193 0.007086 -0.003679 0.000000 -0.001868 0.000000
# 3 -0.003081 -0.003679 0.013920 0.000000 -0.003502 0.000000
# 4 0.000000 0.000000 0.000000 0.020005 0.000000 -0.020704
# 5 -0.004776 -0.001868 -0.003502 0.000000 0.027895 0.000000
# 6 0.000000 0.000000 0.000000 -0.020704 0.000000 -0.038212
#
#
# Mechanical properties :
#
#
# Convention : Reuss Voigt Hill
#
# Bulk Modulus (GPa) = 54.96634 73.12410 64.04522
# Shear Modulus (GPa) = 80.96473 29.70005 55.33239
#
# Velocity S-wave (km/s) = 6.35754 3.85053 5.25571
# Velocity P-wave (km/s) = 9.01836 7.50153 8.29469
#
# Compressibility (1/GPa) = 0.01819295
#
# Stress axis : x y z
#
# Youngs Moduli (GPa) = 90.14833 141.13139 71.84149
#
# Poissons Ratio (x) = 0.02725 0.22133
# Poissons Ratio (y) = 0.01741 0.26428
# Poissons Ratio (z) = 0.27773 0.51916
#
# Static dielectric constant tensor:
#      x y z
#    x 1.750350 0.000000 -0.010610 
#    y 0.000000 1.744310 0.000000 
#    z -0.010610 0.000000 1.707560 
# 
# From -- ./inp_files/6133.got.cif
#   From: 2010.05.17/outbox.cif.g08.bks.cpg/sg10_4_cif.got.tgz:6133.got - 2010.06.03 11:33:40.
