data_PCOD9153741
_publ_section_title
;
Structure prediction by ZEFSAII (Michael W. Deem and Ramdas Pophale) SiO2 
 PCOD9153741
Probable space group: P 2/M
;
_chemical_formula_sum "Si O2"
_cell_formula_units_Z 32
_cell_length_a 8.707251
_cell_length_b 15.813299
_cell_length_c 24.931553
_cell_angle_alpha 90.000000
_cell_angle_beta 150.816770
_cell_angle_gamma 90.000000
_cell_volume 1673.864365
_symmetry_space_group_name_H-M "P 2/M"
_symmetry_group_IT_number 10
_symmetry_cell_setting 'monoclinic'
loop_
_space_group_symop_operation_xyz
x,y,z
-x,y,-z
-x,-y,-z
x,-y,z
loop_
_atom_site_type_symbol
_atom_site_label
_atom_site_fract_x
_atom_site_fract_y
_atom_site_fract_z
Si Si1 0.128428 0.252645 0.377692
Si Si2 0.183375 0.350443 0.000043
Si Si3 0.253617 0.904676 0.775183
Si Si4 0.682398 0.838075 0.000051
Si Si5 0.734775 0.404471 0.767419
Si Si6 0.239938 0.252709 0.622311
Si Si7 0.102049 0.404461 0.767317
Si Si8 0.377906 0.904669 0.224942
O O1 0.500000 0.251451 0.500000
O O2 0.006332 0.167972 0.310835
O O3 0.953613 0.256093 0.381438
O O4 0.022844 0.333359 0.310908
O O5 0.232818 0.252290 0.999985
O O6 0.526633 0.391203 0.110214
O O7 0.000000 0.357313 0.000000
O O8 0.976046 0.391268 0.889937
O O9 0.460733 0.886837 0.890748
O O10 0.480665 0.898149 0.792241
O O11 0.124560 0.000000 0.737107
O O12 0.500000 0.824579 0.000000
O O13 0.007249 0.886787 0.109423
O O14 0.605967 0.500000 0.730305
O O15 0.468638 0.333352 0.689273
O O16 0.925830 0.394603 0.770335
O O17 0.451741 0.167965 0.688990
O O18 0.000000 0.251680 0.500000
O O19 0.045362 0.500000 0.730240
O O20 0.439192 0.000000 0.262997
#
# Coordination Sequence:
#
# PCOD9153741 Si02
#       8
#     4   4   4   4   4   4   4   4
#     4  11  24  42  65  90 122 165 211 259 309 363
#     4  12  23  38  63  94 128 166 203 247 308 373
#     4  10  22  41  64  91 125 165 206 252 309 370
#     4  12  23  36  61  94 128 164 205 253 306 365
#     4  11  24  42  65  94 127 162 203 255 310 366
#     4  11  24  42  65  90 122 165 211 259 309 363
#     4  11  24  42  65  94 127 162 203 255 310 366
#     4  10  22  41  64  91 125 165 206 252 309 370
#
# _framework density 19.117439000000001
#
# number of rings (size 3 to 8) (size 9 to 14) (size 15 to 20)
#    0.000    1.000    2.500    4.500    0.000    7.500 
#    0.000    0.000    0.000    0.000    0.000    0.000 
#    0.000    0.000    0.000    0.000    0.000    0.000 
#
# Total GULP energy -179017.735990 kJ/mol
# GULP energy per Si atom -5594.304250 kJ/mol
# Density = 1.907393 g / cm^3
# Si number density = 19.117439 Si / 1000 Ang^3
#
#
#
# Elastic Constant Matrix: (Units=GPa)
#
#
# Indices 1 2 3 4 5 6 
#
# 1 68.2055 64.8776 56.1688 0.0000 2.9077 0.0000
# 2 64.8776 180.1433 92.3215 0.0000 2.2375 0.0000
# 3 56.1688 92.3215 169.2124 0.0000 4.7797 0.0000
# 4 0.0000 0.0000 0.0000 -0.5410 0.0000 -1.5226
# 5 2.9077 2.2375 4.7797 0.0000 25.4069 0.0000
# 6 0.0000 0.0000 0.0000 -1.5226 0.0000 20.0386
#
#
#
# Elastic Compliance Matrix: (Units=1/GPa)
#
#
# Indices 1 2 3 4 5 6 
#
# 1 0.024721 -0.006525 -0.004607 0.000000 -0.001388 0.000000
# 2 -0.006525 0.009428 -0.002992 0.000000 0.000479 0.000000
# 3 -0.004607 -0.002992 0.009097 0.000000 -0.000921 0.000000
# 4 0.000000 0.000000 0.000000 -1.522880 0.000000 -0.115713
# 5 -0.001388 0.000479 -0.000921 0.000000 0.039649 0.000000
# 6 0.000000 0.000000 0.000000 -0.115713 0.000000 0.041112
#
#
# Mechanical properties :
#
#
# Convention : Reuss Voigt Hill
#
# Bulk Modulus (GPa) = 66.66780 93.81077 80.23929
# Shear Modulus (GPa) = -3.66133 22.59379 9.46623
#
# Velocity S-wave (km/s) = -1.38540 3.44152 2.22764
# Velocity P-wave (km/s) = 5.69117 8.06036 6.97706
#
# Compressibility (1/GPa) = 0.01499975
#
# Stress axis : x y z
#
# Youngs Moduli (GPa) = 40.45109 106.06343 109.92438
#
# Poissons Ratio (x) = 0.69207 0.50640
# Poissons Ratio (y) = 0.26394 0.32885
# Poissons Ratio (z) = 0.18635 0.31730
#
# Static dielectric constant tensor:
#      x y z
#    x 1.639240 0.000000 -0.001370 
#    y 0.000000 1.672630 0.000000 
#    z -0.001370 0.000000 1.619680 
# 
# From -- ./inp_files/88289.got.cif
#   From: 2010.05.17/outbox.cif.g08.bks.cpg/sg10_45_cif.got.tgz:88289.got - 2010.06.03 11:33:40.
