data_PCOD9153347
_publ_section_title
;
Structure prediction by ZEFSAII (Michael W. Deem and Ramdas Pophale) SiO2 
 PCOD9153347
Probable space group: P 2/M
;
_chemical_formula_sum "Si O2"
_cell_formula_units_Z 28
_cell_length_a 28.928155
_cell_length_b 9.105706
_cell_length_c 9.773058
_cell_angle_alpha 90.000000
_cell_angle_beta 140.382781
_cell_angle_gamma 90.000000
_cell_volume 1641.538076
_symmetry_space_group_name_H-M "P 2/M"
_symmetry_group_IT_number 10
_symmetry_cell_setting 'monoclinic'
loop_
_space_group_symop_operation_xyz
x,y,z
-x,y,-z
-x,-y,-z
x,-y,z
loop_
_atom_site_type_symbol
_atom_site_label
_atom_site_fract_x
_atom_site_fract_y
_atom_site_fract_z
Si Si1 0.897714 0.322632 0.378430
Si Si2 0.187990 0.674100 0.287327
Si Si3 0.300488 0.824839 0.735510
Si Si4 0.947231 0.322033 0.182822
Si Si5 0.415779 0.676761 0.803755
Si Si6 0.307426 0.327629 0.321782
Si Si7 0.255612 0.825160 0.933653
O O1 0.890586 0.500000 0.368870
O O2 0.915801 0.284358 0.261358
O O3 0.968732 0.277477 0.627190
O O4 0.823660 0.247938 0.252527
O O5 0.185811 0.500000 0.316088
O O6 0.228429 0.761046 0.498433
O O7 0.239195 0.688659 0.269594
O O8 0.108305 0.726973 0.060780
O O9 0.368275 0.752505 0.812719
O O10 0.302475 0.000000 0.722728
O O11 0.297341 0.789584 0.888689
O O12 0.946761 0.500000 0.177144
O O13 0.409278 0.500000 0.804436
O O14 0.377179 0.713773 0.571599
O O15 0.500000 0.716673 0.000000
O O16 0.311736 0.500000 0.295983
O O17 0.295059 0.235571 0.157992
O O18 0.247923 0.000000 0.925246
#
# Coordination Sequence:
#
# PCOD9153347 Si02
#       7
#     4   4   4   4   4   4   4
#     4   9  16  29  50  72  98 132 169 216 265 302
#     4   9  16  31  53  76  98 127 173 222 259 299
#     4  10  22  36  50  73 106 142 172 201 245 300
#     4   8  14  27  49  75  98 124 167 222 267 300
#     4   9  19  38  62  85 104 124 159 207 252 298
#     4   9  17  31  55  80 100 128 166 206 250 299
#     4  11  22  34  47  71 108 142 174 208 244 295
#
# _framework density 17.057174
#
# number of rings (size 3 to 8) (size 9 to 14) (size 15 to 20)
#    0.000    2.714    1.429    2.571    0.000    4.857 
#    0.000    3.571    0.000    8.571    0.000    0.000 
#    0.000    0.000    0.000    0.000    0.000    0.000 
#
# Total GULP energy -156079.828217 kJ/mol
# GULP energy per Si atom -5574.279579 kJ/mol
# Density = 1.701835 g / cm^3
# Si number density = 17.057174 Si / 1000 Ang^3
#
#
#
# Elastic Constant Matrix: (Units=GPa)
#
#
# Indices 1 2 3 4 5 6 
#
# 1 75.6687 42.5190 59.8992 0.0000 -0.1215 0.0000
# 2 42.5190 35.6637 41.6430 0.0000 -4.5376 0.0000
# 3 59.8992 41.6430 121.3360 0.0000 15.6378 0.0000
# 4 0.0000 0.0000 0.0000 10.5851 0.0000 -9.4853
# 5 -0.1215 -4.5376 15.6378 0.0000 24.9347 0.0000
# 6 0.0000 0.0000 0.0000 -9.4853 0.0000 21.6836
#
#
#
# Elastic Compliance Matrix: (Units=1/GPa)
#
#
# Indices 1 2 3 4 5 6 
#
# 1 0.043041 -0.046772 -0.004489 0.000000 -0.005487 0.000000
# 2 -0.046772 0.109334 -0.018462 0.000000 0.031247 0.000000
# 3 -0.004489 -0.018462 0.018744 0.000000 -0.015137 0.000000
# 4 0.000000 0.000000 0.000000 0.155379 0.000000 0.067969
# 5 -0.005487 0.031247 -0.015137 0.000000 0.055258 0.000000
# 6 0.000000 0.000000 0.000000 0.067969 0.000000 0.075851
#
#
# Mechanical properties :
#
#
# Convention : Reuss Voigt Hill
#
# Bulk Modulus (GPa) = 31.56936 57.86564 44.71750
# Shear Modulus (GPa) = 8.22896 17.34784 12.78840
#
# Velocity S-wave (km/s) = 2.19882 3.19257 2.74110
# Velocity P-wave (km/s) = 4.99946 6.89842 6.02423
#
# Compressibility (1/GPa) = 0.03167629
#
# Stress axis : x y z
#
# Youngs Moduli (GPa) = 23.23348 9.14625 53.34924
#
# Poissons Ratio (x) = 0.42779 0.23946
# Poissons Ratio (y) = 1.08667 0.98492
# Poissons Ratio (z) = 0.10428 0.16886
#
# Static dielectric constant tensor:
#      x y z
#    x 1.555990 0.000000 0.003680 
#    y 0.000000 1.562640 0.000000 
#    z 0.003680 0.000000 1.596960 
# 
# From -- ./inp_files/37264.got.cif
#   From: 2010.05.17/outbox.cif.g08.bks.cpg/sg10_19_cif.got.tgz:37264.got - 2010.06.03 11:33:40.
