data_PCOD9153244
_publ_section_title
;
Structure prediction by ZEFSAII (Michael W. Deem and Ramdas Pophale) SiO2 
 PCOD9153244
Probable space group: P 2/M
;
_chemical_formula_sum "Si O2"
_cell_formula_units_Z 18
_cell_length_a 11.757488
_cell_length_b 14.015464
_cell_length_c 7.195955
_cell_angle_alpha 90.000000
_cell_angle_beta 54.401902
_cell_angle_gamma 90.000000
_cell_volume 964.195615
_symmetry_space_group_name_H-M "P 2/M"
_symmetry_group_IT_number 10
_symmetry_cell_setting 'monoclinic'
loop_
_space_group_symop_operation_xyz
x,y,z
-x,y,-z
-x,-y,-z
x,-y,z
loop_
_atom_site_type_symbol
_atom_site_label
_atom_site_fract_x
_atom_site_fract_y
_atom_site_fract_z
Si Si1 0.413668 0.104135 0.891460
Si Si2 0.509333 0.313142 0.215156
Si Si3 0.000000 0.740361 0.000000
Si Si4 0.726952 0.611866 0.290127
Si Si5 0.918997 0.107688 0.770777
O O1 0.468369 0.201836 0.750716
O O2 0.430377 0.000000 0.781044
O O3 0.500000 0.098634 0.000000
O O4 0.248783 0.116543 0.090190
O O5 0.373054 0.354236 0.446405
O O6 0.639406 0.368332 0.184215
O O7 0.500000 0.320366 0.000000
O O8 0.865680 0.674466 0.157653
O O9 0.027462 0.810496 0.145746
O O10 0.756058 0.500000 0.279055
O O11 0.000000 0.115335 0.500000
O O12 0.945629 0.000000 0.818194
#
# Coordination Sequence:
#
# PCOD9153244 Si02
#       5
#     4   4   2   4   4
#     4   9  18  35  60  92 122 151 194 242 293 354
#     4  10  21  41  66  89 117 159 199 248 307 359
#     4  12  24  40  62  90 122 164 202 242 298 368
#     4  11  25  42  61  88 120 156 205 259 304 349
#     4  10  22  40  62  90 127 164 196 240 295 359
#
# _framework density 18.668410000000002
#
# number of rings (size 3 to 8) (size 9 to 14) (size 15 to 20)
#    0.000    1.778    2.222    2.000    6.222    1.778 
#    0.000    3.333    0.000    4.000    0.000    0.000 
#    0.000    0.000    0.000    0.000    0.000    0.000 
#
# Total GULP energy -100431.894931 kJ/mol
# GULP energy per Si atom -5579.549718 kJ/mol
# Density = 1.862592 g / cm^3
# Si number density = 18.668410 Si / 1000 Ang^3
#
#
#
# Elastic Constant Matrix: (Units=GPa)
#
#
# Indices 1 2 3 4 5 6 
#
# 1 118.8121 71.6822 87.7507 0.0000 -13.8792 0.0000
# 2 71.6822 199.7637 78.1519 0.0000 -11.7732 0.0000
# 3 87.7507 78.1519 92.7240 0.0000 -1.9629 0.0000
# 4 0.0000 0.0000 0.0000 52.2066 0.0000 -13.0863
# 5 -13.8792 -11.7732 -1.9629 0.0000 28.5188 0.0000
# 6 0.0000 0.0000 0.0000 -13.0863 0.0000 42.7962
#
#
#
# Elastic Compliance Matrix: (Units=1/GPa)
#
#
# Indices 1 2 3 4 5 6 
#
# 1 0.032934 0.001655 -0.032256 0.000000 0.014491 0.000000
# 2 0.001655 0.007758 -0.008032 0.000000 0.003455 0.000000
# 3 -0.032256 -0.008032 0.047748 0.000000 -0.015728 0.000000
# 4 0.000000 0.000000 0.000000 0.020745 0.000000 0.006343
# 5 0.014491 0.003455 -0.015728 0.000000 0.042461 0.000000
# 6 0.000000 0.000000 0.000000 0.006343 0.000000 0.025306
#
#
# Mechanical properties :
#
#
# Convention : Reuss Voigt Hill
#
# Bulk Modulus (GPa) = 89.49445 98.49658 93.99552
# Shear Modulus (GPa) = 19.38423 36.28531 27.83477
#
# Velocity S-wave (km/s) = 3.22583 4.41350 3.86555
# Velocity P-wave (km/s) = 7.86878 8.87961 8.38944
#
# Compressibility (1/GPa) = 0.01117388
#
# Stress axis : x y z
#
# Youngs Moduli (GPa) = 30.36384 128.90064 20.94346
#
# Poissons Ratio (x) = -0.21339 0.67555
# Poissons Ratio (y) = -0.05027 0.16822
# Poissons Ratio (z) = 0.97942 1.03536
#
# Static dielectric constant tensor:
#      x y z
#    x 1.631630 0.000000 0.007810 
#    y 0.000000 1.672200 0.000000 
#    z 0.007810 0.000000 1.617530 
# 
# From -- ./inp_files/24331.got.cif
#   From: 2010.05.17/outbox.cif.g08.bks.cpg/sg10_13_cif.got.tgz:24331.got - 2010.06.03 11:33:40.
