data_PCOD9153354
_publ_section_title
;
Structure prediction by ZEFSAII (Michael W. Deem and Ramdas Pophale) SiO2 
 PCOD9153354
Probable space group: P 2/M
;
_chemical_formula_sum "Si O2"
_cell_formula_units_Z 28
_cell_length_a 8.891152
_cell_length_b 30.666473
_cell_length_c 5.226878
_cell_angle_alpha 90.000000
_cell_angle_beta 71.483767
_cell_angle_gamma 90.000000
_cell_volume 1351.386645
_symmetry_space_group_name_H-M "P 2/M"
_symmetry_group_IT_number 10
_symmetry_cell_setting 'monoclinic'
loop_
_space_group_symop_operation_xyz
x,y,z
-x,y,-z
-x,-y,-z
x,-y,z
loop_
_atom_site_type_symbol
_atom_site_label
_atom_site_fract_x
_atom_site_fract_y
_atom_site_fract_z
Si Si1 0.604287 0.378376 0.694680
Si Si2 0.388261 0.000000 0.308301
Si Si3 0.830577 0.450401 0.447996
Si Si4 0.149845 0.315144 0.275324
Si Si5 0.691913 0.768526 0.925687
Si Si6 0.612859 0.094832 0.686260
Si Si7 0.000000 0.611757 0.000000
Si Si8 0.307883 0.183001 0.570921
O O1 0.500000 0.381791 0.500000
O O2 0.700431 0.423533 0.673249
O O3 0.724489 0.337744 0.604120
O O4 0.500000 0.370060 0.000000
O O5 0.500000 0.000000 0.500000
O O6 0.304865 0.952684 0.336463
O O7 0.500000 0.000000 0.000000
O O8 0.785538 0.500000 0.413324
O O9 0.866951 0.420032 0.185829
O O10 0.000000 0.451290 0.500000
O O11 0.237329 0.278978 0.060128
O O12 0.000000 0.295150 0.500000
O O13 0.079514 0.356023 0.159183
O O14 0.746085 0.783114 0.614539
O O15 0.500000 0.766999 0.000000
O O16 0.744369 0.802515 0.117928
O O17 0.500000 0.090585 0.500000
O O18 0.720261 0.135787 0.545264
O O19 0.500000 0.103185 0.000000
O O20 0.500000 0.184828 0.500000
#
# Coordination Sequence:
#
# PCOD9153354 Si02
#       8
#     4   2   4   4   4   4   2   4
#     4  12  26  45  69 100 135 163 200 251 306 358
#     4   8  14  20  32  60  92 132 191 237 272 334
#     4  11  24  44  70  98 129 170 208 243 290 365
#     4  12  26  43  67  90 119 163 206 250 304 366
#     4  10  22  36  55  84 111 144 193 244 294 350
#     4   9  14  23  40  62  96 143 189 234 283 343
#     4  12  21  46  70  92 122 162 210 245 294 360
#     4   9  17  31  48  71 107 147 186 232 293 355
#
# _framework density 20.719460000000002
#
# number of rings (size 3 to 8) (size 9 to 14) (size 15 to 20)
#    0.000    1.571    2.857    3.643    2.000    2.286 
#    0.000    0.000    0.000    0.000    0.000    0.000 
#    0.000    0.000    0.000    3.857    0.000    5.071 
#
# Total GULP energy -156105.636486 kJ/mol
# GULP energy per Si atom -5575.201303 kJ/mol
# Density = 2.067230 g / cm^3
# Si number density = 20.719460 Si / 1000 Ang^3
#
#
#
# Elastic Constant Matrix: (Units=GPa)
#
#
# Indices 1 2 3 4 5 6 
#
# 1 49.2465 26.3359 28.0233 0.0000 3.8511 0.0000
# 2 26.3359 140.9013 30.2764 0.0000 -3.9902 0.0000
# 3 28.0233 30.2764 96.0834 0.0000 17.0941 0.0000
# 4 0.0000 0.0000 0.0000 15.2562 0.0000 -2.8168
# 5 3.8511 -3.9902 17.0941 0.0000 21.6395 0.0000
# 6 0.0000 0.0000 0.0000 -2.8168 0.0000 2.1975
#
#
#
# Elastic Compliance Matrix: (Units=1/GPa)
#
#
# Indices 1 2 3 4 5 6 
#
# 1 0.025813 -0.003452 -0.006411 0.000000 -0.000166 0.000000
# 2 -0.003452 0.008358 -0.002339 0.000000 0.004003 0.000000
# 3 -0.006411 -0.002339 0.014996 0.000000 -0.011136 0.000000
# 4 0.000000 0.000000 0.000000 0.085870 0.000000 0.110070
# 5 -0.000166 0.004003 -0.011136 0.000000 0.055777 0.000000
# 6 0.000000 0.000000 0.000000 0.110070 0.000000 0.596157
#
#
# Mechanical properties :
#
#
# Convention : Reuss Voigt Hill
#
# Bulk Modulus (GPa) = 40.38350 50.61135 45.49743
# Shear Modulus (GPa) = 6.10031 21.25835 13.67933
#
# Velocity S-wave (km/s) = 1.71774 3.20661 2.57226
# Velocity P-wave (km/s) = 4.84429 6.17979 5.55234
#
# Compressibility (1/GPa) = 0.02476259
#
# Stress axis : x y z
#
# Youngs Moduli (GPa) = 38.73972 119.64053 66.68475
#
# Poissons Ratio (x) = 0.41297 0.42754
# Poissons Ratio (y) = 0.13372 0.15599
# Poissons Ratio (z) = 0.24838 0.27987
#
# Static dielectric constant tensor:
#      x y z
#    x 1.753290 0.000000 -0.017070 
#    y 0.000000 1.817160 0.000000 
#    z -0.017070 0.000000 1.778050 
# 
# From -- ./inp_files/5457.got.cif
#   From: 2010.05.17/outbox.cif.g08.bks.cpg/sg10_3_cif.got.tgz:5457.got - 2010.06.03 11:33:40.
