data_PCOD9153705
_publ_section_title
;
Structure prediction by ZEFSAII (Michael W. Deem and Ramdas Pophale) SiO2 
 PCOD9153705
Probable space group: P 2/M
;
_chemical_formula_sum "Si O2"
_cell_formula_units_Z 20
_cell_length_a 9.073089
_cell_length_b 21.524889
_cell_length_c 5.361170
_cell_angle_alpha 90.000000
_cell_angle_beta 73.702450
_cell_angle_gamma 90.000000
_cell_volume 1004.949504
_symmetry_space_group_name_H-M "P 2/M"
_symmetry_group_IT_number 10
_symmetry_cell_setting 'monoclinic'
loop_
_space_group_symop_operation_xyz
x,y,z
-x,y,-z
-x,-y,-z
x,-y,z
loop_
_atom_site_type_symbol
_atom_site_label
_atom_site_fract_x
_atom_site_fract_y
_atom_site_fract_z
Si Si1 0.898084 0.000000 0.299418
Si Si2 0.671144 0.749012 0.304676
Si Si3 0.901165 0.362330 0.298615
Si Si4 0.500000 0.678468 0.000000
Si Si5 0.893602 0.862028 0.299213
Si Si6 0.639887 0.566471 0.624102
O O1 0.822701 0.068097 0.341030
O O2 0.000000 0.000000 0.500000
O O3 0.000000 0.000000 0.000000
O O4 0.500000 0.747294 0.500000
O O5 0.787452 0.696093 0.337697
O O6 0.758733 0.812388 0.322903
O O7 0.627619 0.725315 0.049462
O O8 0.792913 0.421514 0.394089
O O9 0.000000 0.355630 0.500000
O O10 0.000000 0.365839 0.000000
O O11 0.600666 0.627969 0.798954
O O12 0.000000 0.852695 0.500000
O O13 0.000000 0.857622 0.000000
O O14 0.500000 0.563288 0.500000
O O15 0.650882 0.500000 0.756093
#
# Coordination Sequence:
#
# PCOD9153705 Si02
#       6
#     2   4   4   2   4   4
#     4   8  16  36  63  91 132 174 210 257 310 379
#     4  12  25  40  64  93 128 173 217 266 323 389
#     4  12  25  43  65  94 131 163 209 273 331 384
#     4  12  21  44  66  89 128 168 220 262 328 385
#     4  10  22  40  66 100 132 171 219 263 317 375
#     4  11  24  44  68  92 122 171 218 263 329 405
#
# _framework density 19.901496999999999
#
# number of rings (size 3 to 8) (size 9 to 14) (size 15 to 20)
#    0.000    1.000    4.000    2.700    2.800    0.800 
#    0.000    0.500    0.000    0.600    0.000    0.000 
#    0.000    0.000    0.000    0.000    0.000    0.000 
#
# Total GULP energy -111390.092512 kJ/mol
# GULP energy per Si atom -5569.504626 kJ/mol
# Density = 1.985620 g / cm^3
# Si number density = 19.901497 Si / 1000 Ang^3
#
#
#
# Elastic Constant Matrix: (Units=GPa)
#
#
# Indices 1 2 3 4 5 6 
#
# 1 133.1159 60.5995 50.3982 0.0000 7.6673 0.0000
# 2 60.5995 140.3522 28.1535 0.0000 9.8425 0.0000
# 3 50.3982 28.1535 113.7855 0.0000 -2.0235 0.0000
# 4 0.0000 0.0000 0.0000 28.8432 0.0000 -2.5924
# 5 7.6673 9.8425 -2.0235 0.0000 42.5900 0.0000
# 6 0.0000 0.0000 0.0000 -2.5924 0.0000 32.2399
#
#
#
# Elastic Compliance Matrix: (Units=1/GPa)
#
#
# Indices 1 2 3 4 5 6 
#
# 1 0.010768 -0.003789 -0.003854 0.000000 -0.001246 0.000000
# 2 -0.003789 0.008974 -0.000568 0.000000 -0.001419 0.000000
# 3 -0.003854 -0.000568 0.010660 0.000000 0.001331 0.000000
# 4 0.000000 0.000000 0.000000 0.034923 0.000000 0.002808
# 5 -0.001246 -0.001419 0.001331 0.000000 0.024095 0.000000
# 6 0.000000 0.000000 0.000000 0.002808 0.000000 0.031243
#
#
# Mechanical properties :
#
#
# Convention : Reuss Voigt Hill
#
# Bulk Modulus (GPa) = 71.52597 73.95067 72.73832
# Shear Modulus (GPa) = 35.27487 37.27479 36.27483
#
# Velocity S-wave (km/s) = 4.21464 4.33247 4.27396
# Velocity P-wave (km/s) = 7.72673 7.89089 7.80924
#
# Compressibility (1/GPa) = 0.01398094
#
# Stress axis : x y z
#
# Youngs Moduli (GPa) = 92.86774 111.43127 93.81185
#
# Poissons Ratio (x) = 0.42219 0.36156
# Poissons Ratio (y) = 0.35186 0.05324
# Poissons Ratio (z) = 0.35792 0.06324
#
# Static dielectric constant tensor:
#      x y z
#    x 1.695040 0.000000 0.040420 
#    y 0.000000 1.743130 0.000000 
#    z 0.040420 0.000000 1.865400 
# 
# From -- ./inp_files/4768.got.cif
#   From: 2010.05.17/outbox.cif.g08.bks.cpg/sg10_3_cif.got.tgz:4768.got - 2010.06.03 11:33:40.
