data_PCOD9153808
_publ_section_title
;
Structure prediction by ZEFSAII (Michael W. Deem and Ramdas Pophale) SiO2 
 PCOD9153808
Probable space group: P 2/M
;
_chemical_formula_sum "Si O2"
_cell_formula_units_Z 32
_cell_length_a 12.663872
_cell_length_b 13.572263
_cell_length_c 14.893837
_cell_angle_alpha 90.000000
_cell_angle_beta 38.523773
_cell_angle_gamma 90.000000
_cell_volume 1594.415045
_symmetry_space_group_name_H-M "P 2/M"
_symmetry_group_IT_number 10
_symmetry_cell_setting 'monoclinic'
loop_
_space_group_symop_operation_xyz
x,y,z
-x,y,-z
-x,-y,-z
x,-y,z
loop_
_atom_site_type_symbol
_atom_site_label
_atom_site_fract_x
_atom_site_fract_y
_atom_site_fract_z
Si Si1 0.249704 0.275536 0.487844
Si Si2 0.624909 0.888262 0.000810
Si Si3 0.807976 0.260923 0.119033
Si Si4 0.596266 0.385803 0.773531
Si Si5 0.242275 0.309398 0.049968
Si Si6 0.503023 0.114287 0.284850
Si Si7 0.068290 0.389199 0.330190
Si Si8 0.704331 0.613558 0.359340
O O1 0.380285 0.337349 0.339169
O O2 0.329337 0.167333 0.430562
O O3 0.241107 0.319711 0.592875
O O4 0.069031 0.303731 0.565439
O O5 0.766795 0.803767 0.910579
O O6 0.523395 0.880017 0.162776
O O7 0.692335 0.000000 0.951091
O O8 0.500000 0.873728 0.000000
O O9 0.799482 0.312498 0.027081
O O10 0.663405 0.176402 0.215462
O O11 0.767560 0.336824 0.225627
O O12 0.000000 0.221792 0.000000
O O13 0.557992 0.500000 0.787923
O O14 0.439480 0.337005 0.927930
O O15 0.768196 0.376544 0.715981
O O16 0.134268 0.378957 0.184860
O O17 0.509640 0.000000 0.306228
O O18 0.996478 0.500000 0.393119
O O19 0.500000 0.613492 0.500000
O O20 0.761388 0.500000 0.330014
#
# Coordination Sequence:
#
# PCOD9153808 Si02
#       8
#     4   4   4   4   4   4   4   4
#     4  12  22  41  60  86 122 168 204 253 304 366
#     4   9  17  33  60  89 116 153 201 250 304 363
#     4  11  23  41  63  92 123 157 207 267 320 366
#     4  11  21  37  61  89 123 165 206 243 304 377
#     4  11  21  38  60  90 124 165 203 259 311 367
#     4  10  22  42  66  92 121 161 208 260 318 376
#     4  11  24  37  58  93 131 164 203 250 303 374
#     4  11  22  38  61  88 123 167 213 249 302 373
#
# _framework density 20.070056000000001
#
# number of rings (size 3 to 8) (size 9 to 14) (size 15 to 20)
#    0.000    1.250    3.750    3.750    0.000    4.500 
#    0.000    1.875    0.000    3.750    0.000    0.000 
#    0.000    0.000    0.000    0.000    0.000    0.000 
#
# Total GULP energy -178756.003317 kJ/mol
# GULP energy per Si atom -5586.125104 kJ/mol
# Density = 2.002438 g / cm^3
# Si number density = 20.070056 Si / 1000 Ang^3
#
#
#
# Elastic Constant Matrix: (Units=GPa)
#
#
# Indices 1 2 3 4 5 6 
#
# 1 68.1386 28.0475 21.4012 0.0000 7.9300 0.0000
# 2 28.0475 107.1871 35.4749 0.0000 5.0665 0.0000
# 3 21.4012 35.4749 68.5119 0.0000 2.6236 0.0000
# 4 0.0000 0.0000 0.0000 19.6643 0.0000 5.8329
# 5 7.9300 5.0665 2.6236 0.0000 35.7020 0.0000
# 6 0.0000 0.0000 0.0000 5.8329 0.0000 16.4474
#
#
#
# Elastic Compliance Matrix: (Units=1/GPa)
#
#
# Indices 1 2 3 4 5 6 
#
# 1 0.017527 -0.003216 -0.003688 0.000000 -0.003166 0.000000
# 2 -0.003216 0.011898 -0.005133 0.000000 -0.000597 0.000000
# 3 -0.003688 -0.005133 0.018399 0.000000 0.000196 0.000000
# 4 0.000000 0.000000 0.000000 0.056832 0.000000 -0.020155
# 5 -0.003166 -0.000597 0.000196 0.000000 0.028783 0.000000
# 6 0.000000 0.000000 0.000000 -0.020155 0.000000 0.067948
#
#
# Mechanical properties :
#
#
# Convention : Reuss Voigt Hill
#
# Bulk Modulus (GPa) = 42.10861 45.96500 44.03680
# Shear Modulus (GPa) = 21.42450 24.95700 23.19075
#
# Velocity S-wave (km/s) = 3.27078 3.53015 3.40294
# Velocity P-wave (km/s) = 5.94057 6.29030 6.11794
#
# Compressibility (1/GPa) = 0.02374811
#
# Stress axis : x y z
#
# Youngs Moduli (GPa) = 57.05629 84.04688 54.35159
#
# Poissons Ratio (x) = 0.27028 0.20048
# Poissons Ratio (y) = 0.18348 0.27901
# Poissons Ratio (z) = 0.21045 0.43144
#
# Static dielectric constant tensor:
#      x y z
#    x 1.739100 0.000000 -0.011340 
#    y 0.000000 1.707740 0.000000 
#    z -0.011340 0.000000 1.718150 
# 
# From -- ./inp_files/65069.got.cif
#   From: 2010.05.17/outbox.cif.g08.bks.cpg/sg10_33_cif.got.tgz:65069.got - 2010.06.03 11:33:40.
