data_PCOD9153724
_publ_section_title
;
Structure prediction by ZEFSAII (Michael W. Deem and Ramdas Pophale) SiO2 
 PCOD9153724
Probable space group: P 2/M
;
_chemical_formula_sum "Si O2"
_cell_formula_units_Z 28
_cell_length_a 11.623537
_cell_length_b 7.521910
_cell_length_c 14.817351
_cell_angle_alpha 90.000000
_cell_angle_beta 121.038703
_cell_angle_gamma 90.000000
_cell_volume 1110.008217
_symmetry_space_group_name_H-M "P 2/M"
_symmetry_group_IT_number 10
_symmetry_cell_setting 'monoclinic'
loop_
_space_group_symop_operation_xyz
x,y,z
-x,y,-z
-x,-y,-z
x,-y,z
loop_
_atom_site_type_symbol
_atom_site_label
_atom_site_fract_x
_atom_site_fract_y
_atom_site_fract_z
Si Si1 0.324651 0.286219 0.342829
Si Si2 0.382698 0.714865 0.569751
Si Si3 0.675244 0.798738 0.263610
Si Si4 0.130825 0.700564 0.998501
Si Si5 0.963709 0.217099 0.385689
Si Si6 0.039963 0.794670 0.229222
Si Si7 0.421955 0.296266 0.057756
O O1 0.319984 0.500000 0.341224
O O2 0.462301 0.233673 0.351707
O O3 0.342991 0.226317 0.454020
O O4 0.187663 0.218309 0.246352
O O5 0.372377 0.500000 0.568719
O O6 0.303964 0.796318 0.620165
O O7 0.817418 0.724348 0.290476
O O8 0.540332 0.703310 0.179656
O O9 0.661516 0.000000 0.225876
O O10 0.149263 0.500000 0.043877
O O11 0.068235 0.694666 0.873083
O O12 0.281786 0.778439 0.043119
O O13 0.000000 0.780323 0.000000
O O14 0.000000 0.284379 0.500000
O O15 0.056601 0.269418 0.339294
O O16 0.962464 0.000000 0.391108
O O17 0.998233 0.000000 0.214551
O O18 0.386377 0.500000 0.018950
O O19 0.500000 0.220972 0.000000
#
# Coordination Sequence:
#
# PCOD9153724 Si02
#       7
#     4   4   4   4   4   4   4
#     4   9  19  36  57  80 112 153 191 230 281 344
#     4   9  19  36  56  80 112 151 192 232 279 339
#     4  11  22  35  58  87 116 150 191 238 294 350
#     4  10  23  42  62  84 114 158 204 246 303 367
#     4   9  19  36  56  83 122 162 192 226 285 356
#     4  11  22  36  59  87 117 151 192 243 295 347
#     4  10  22  41  63  85 113 153 203 254 299 353
#
# _framework density 25.225038000000001
#
# number of rings (size 3 to 8) (size 9 to 14) (size 15 to 20)
#    0.000    2.143    0.000    3.429    2.000    3.429 
#    0.000    3.571    0.000    5.143    0.000    0.000 
#    0.000    0.000    0.000    0.000    0.000    0.000 
#
# Total GULP energy -156268.247970 kJ/mol
# GULP energy per Si atom -5581.008856 kJ/mol
# Density = 2.516763 g / cm^3
# Si number density = 25.225038 Si / 1000 Ang^3
#
#
#
# Elastic Constant Matrix: (Units=GPa)
#
#
# Indices 1 2 3 4 5 6 
#
# 1 164.9137 2.6907 27.2221 0.0000 22.5075 0.0000
# 2 2.6907 66.9974 1.9467 0.0000 3.2971 0.0000
# 3 27.2221 1.9467 74.3868 0.0000 11.1936 0.0000
# 4 0.0000 0.0000 0.0000 -6.1852 0.0000 -19.0970
# 5 22.5075 3.2971 11.1936 0.0000 52.4932 0.0000
# 6 0.0000 0.0000 0.0000 -19.0970 0.0000 -8.6560
#
#
#
# Elastic Compliance Matrix: (Units=1/GPa)
#
#
# Indices 1 2 3 4 5 6 
#
# 1 0.006745 -0.000090 -0.002099 0.000000 -0.002439 0.000000
# 2 -0.000090 0.014978 -0.000231 0.000000 -0.000853 0.000000
# 3 -0.002099 -0.000231 0.014547 0.000000 -0.002187 0.000000
# 4 0.000000 0.000000 0.000000 0.027819 0.000000 -0.061374
# 5 -0.002439 -0.000853 -0.002187 0.000000 0.020616 0.000000
# 6 0.000000 0.000000 0.000000 -0.061374 0.000000 0.019878
#
#
# Mechanical properties :
#
#
# Convention : Reuss Voigt Hill
#
# Bulk Modulus (GPa) = 31.81632 41.11298 36.46465
# Shear Modulus (GPa) = 41.70234 25.82630 33.76432
#
# Velocity S-wave (km/s) = 4.07038 3.20322 3.66255
# Velocity P-wave (km/s) = 5.89331 5.47856 5.68971
#
# Compressibility (1/GPa) = 0.03143041
#
# Stress axis : x y z
#
# Youngs Moduli (GPa) = 148.26836 66.76346 68.74488
#
# Poissons Ratio (x) = 0.00600 0.14429
# Poissons Ratio (y) = 0.01333 0.01586
# Poissons Ratio (z) = 0.31120 0.01540
#
# Static dielectric constant tensor:
#      x y z
#    x 1.999580 0.000000 -0.017080 
#    y 0.000000 1.973810 0.000000 
#    z -0.017080 0.000000 1.956810 
# 
# From -- ./inp_files/63925.got.cif
#   From: 2010.05.17/outbox.cif.g08.bks.cpg/sg10_32_cif.got.tgz:63925.got - 2010.06.03 11:33:40.
