data_PCOD9153030
_publ_section_title
;
Structure prediction by ZEFSAII (Michael W. Deem and Ramdas Pophale) SiO2 
 PCOD9153030
Probable space group: P 2/M
;
_chemical_formula_sum "Si O2"
_cell_formula_units_Z 28
_cell_length_a 7.673869
_cell_length_b 34.217828
_cell_length_c 5.395567
_cell_angle_alpha 90.000000
_cell_angle_beta 64.257140
_cell_angle_gamma 90.000000
_cell_volume 1276.172330
_symmetry_space_group_name_H-M "P 2/M"
_symmetry_group_IT_number 10
_symmetry_cell_setting 'monoclinic'
loop_
_space_group_symop_operation_xyz
x,y,z
-x,y,-z
-x,-y,-z
x,-y,z
loop_
_atom_site_type_symbol
_atom_site_label
_atom_site_fract_x
_atom_site_fract_y
_atom_site_fract_z
Si Si1 0.781464 0.213210 0.243579
Si Si2 0.228075 0.086286 0.355333
Si Si3 0.000000 0.754278 0.500000
Si Si4 0.701760 0.288681 0.023747
Si Si5 0.375486 0.000000 0.325444
Si Si6 0.762013 0.871512 0.152651
Si Si7 0.368195 0.457841 0.831410
Si Si8 0.629904 0.373387 0.171434
O O1 0.692663 0.173387 0.199777
O O2 0.832541 0.216944 0.500526
O O3 0.682599 0.253474 0.230464
O O4 0.000000 0.214150 0.000000
O O5 0.300101 0.109390 0.550503
O O6 0.000000 0.093120 0.500000
O O7 0.260863 0.040495 0.379890
O O8 0.297171 0.102747 0.047554
O O9 0.883829 0.725337 0.750511
O O10 0.500000 0.289837 0.000000
O O11 0.738989 0.332083 0.102241
O O12 0.500000 0.000000 0.500000
O O13 0.500000 0.000000 0.000000
O O14 0.000000 0.870333 0.000000
O O15 0.500000 0.457786 0.500000
O O16 0.262743 0.500000 0.896983
O O17 0.264192 0.415598 0.894710
O O18 0.500000 0.457882 0.000000
O O19 0.500000 0.372469 0.500000
O O20 0.500000 0.373498 0.000000
#
# Coordination Sequence:
#
# PCOD9153030 Si02
#       8
#     4   4   2   4   2   4   4   4
#     4   9  20  35  57  85 114 153 192 237 295 347
#     4  10  21  39  64  91 111 149 196 232 274 338
#     4  10  22  38  60  82 115 157 204 242 298 356
#     4  10  22  36  57  82 117 155 200 243 297 354
#     4  12  25  42  63  84 126 160 182 232 293 332
#     4   9  19  34  62  89 114 143 188 240 281 325
#     4   8  13  23  40  65  98 136 179 229 288 347
#     4   9  18  30  48  74 108 147 187 240 293 349
#
# _framework density 21.940612000000002
#
# number of rings (size 3 to 8) (size 9 to 14) (size 15 to 20)
#    0.000    2.571    0.000    1.071   11.000    0.000 
#    0.000    5.000    3.143    0.000    0.000    0.500 
#    0.000    5.143    0.000    0.143    0.000    0.286 
#
# Total GULP energy -156019.315398 kJ/mol
# GULP energy per Si atom -5572.118407 kJ/mol
# Density = 2.189067 g / cm^3
# Si number density = 21.940612 Si / 1000 Ang^3
#
#
#
# Elastic Constant Matrix: (Units=GPa)
#
#
# Indices 1 2 3 4 5 6 
#
# 1 67.3306 32.6766 24.1913 0.0000 13.7690 0.0000
# 2 32.6766 226.3905 31.1255 0.0000 28.2622 0.0000
# 3 24.1913 31.1255 104.0202 0.0000 30.0112 0.0000
# 4 0.0000 0.0000 0.0000 44.9936 0.0000 9.5220
# 5 13.7690 28.2622 30.0112 0.0000 29.7594 0.0000
# 6 0.0000 0.0000 0.0000 9.5220 0.0000 18.9554
#
#
#
# Elastic Compliance Matrix: (Units=1/GPa)
#
#
# Indices 1 2 3 4 5 6 
#
# 1 0.017341 -0.001672 -0.002364 0.000000 -0.004052 0.000000
# 2 -0.001672 0.005175 0.000050 0.000000 -0.004191 0.000000
# 3 -0.002364 0.000050 0.013887 0.000000 -0.012958 0.000000
# 4 0.000000 0.000000 0.000000 0.024869 0.000000 -0.012493
# 5 -0.004052 -0.004191 -0.012958 0.000000 0.052525 0.000000
# 6 0.000000 0.000000 0.000000 -0.012493 0.000000 0.059031
#
#
# Mechanical properties :
#
#
# Convention : Reuss Voigt Hill
#
# Bulk Modulus (GPa) = 35.17343 63.74756 49.46050
# Shear Modulus (GPa) = 26.27739 39.39155 32.83447
#
# Velocity S-wave (km/s) = 3.46448 4.24178 3.87268
# Velocity P-wave (km/s) = 5.66299 7.28752 6.52600
#
# Compressibility (1/GPa) = 0.02843055
#
# Stress axis : x y z
#
# Youngs Moduli (GPa) = 57.66527 193.24162 72.01043
#
# Poissons Ratio (x) = 0.32315 0.17021
# Poissons Ratio (y) = 0.09643 -0.00357
# Poissons Ratio (z) = 0.13630 -0.00957
#
# Static dielectric constant tensor:
#      x y z
#    x 2.014530 0.000000 0.126490 
#    y 0.000000 2.045270 0.000000 
#    z 0.126490 0.000000 1.943900 
# 
# From -- ./inp_files/5512.got.cif
#   From: 2010.05.17/outbox.cif.g08.bks.cpg/sg10_3_cif.got.tgz:5512.got - 2010.06.03 11:33:40.
