data_PCOD9153229
_publ_section_title
;
Structure prediction by ZEFSAII (Michael W. Deem and Ramdas Pophale) SiO2 
 PCOD9153229
Probable space group: P 2/M
;
_chemical_formula_sum "Si O2"
_cell_formula_units_Z 20
_cell_length_a 14.474694
_cell_length_b 13.731608
_cell_length_c 9.722326
_cell_angle_alpha 90.000000
_cell_angle_beta 152.983876
_cell_angle_gamma 90.000000
_cell_volume 877.783706
_symmetry_space_group_name_H-M "P 2/M"
_symmetry_group_IT_number 10
_symmetry_cell_setting 'monoclinic'
loop_
_space_group_symop_operation_xyz
x,y,z
-x,y,-z
-x,-y,-z
x,-y,z
loop_
_atom_site_type_symbol
_atom_site_label
_atom_site_fract_x
_atom_site_fract_y
_atom_site_fract_z
Si Si1 0.779156 0.500000 0.273220
Si Si2 0.998899 0.894618 0.664473
Si Si3 0.340802 0.232334 0.126930
Si Si4 0.567379 0.500000 0.426573
Si Si5 0.230116 0.699829 0.265980
Si Si6 0.268579 0.714292 0.725504
O O1 0.762900 0.599577 0.339530
O O2 0.000000 0.500000 0.500000
O O3 0.611295 0.500000 0.926254
O O4 0.867655 0.798272 0.524145
O O5 0.000000 0.901220 0.500000
O O6 0.930161 0.000000 0.626853
O O7 0.229615 0.868951 0.010781
O O8 0.584101 0.229662 0.441836
O O9 0.267451 0.302765 0.151496
O O10 0.249884 0.272492 0.865062
O O11 0.500000 0.500000 0.500000
O O12 0.702883 0.595955 0.586443
O O13 0.000000 0.724444 0.000000
O O14 0.500000 0.737861 0.000000
#
# Coordination Sequence:
#
# PCOD9153229 Si02
#       6
#     2   4   4   2   4   4
#     4  12  23  40  60  97 139 177 219 270 337 389
#     4   9  20  40  67  94 126 172 214 266 334 393
#     4  10  21  41  63  92 128 163 215 271 319 381
#     4  12  21  40  62  92 131 180 226 266 317 400
#     4  11  23  39  64  90 124 177 220 270 320 386
#     4  11  23  38  64  97 134 171 211 269 327 398
#
# _framework density 22.784655999999998
#
# number of rings (size 3 to 8) (size 9 to 14) (size 15 to 20)
#    0.000    1.400    4.000    2.400    2.800    0.400 
#    0.000    2.000    0.000    1.200    0.000    0.000 
#    0.000    0.000    0.000    0.000    0.000    0.000 
#
# Total GULP energy -111650.288506 kJ/mol
# GULP energy per Si atom -5582.514425 kJ/mol
# Density = 2.273280 g / cm^3
# Si number density = 22.784656 Si / 1000 Ang^3
#
#
#
# Elastic Constant Matrix: (Units=GPa)
#
#
# Indices 1 2 3 4 5 6 
#
# 1 86.0288 16.7123 40.8107 0.0000 4.7875 0.0000
# 2 16.7123 168.6468 79.4956 0.0000 12.4588 0.0000
# 3 40.8107 79.4956 156.0117 0.0000 38.0269 0.0000
# 4 0.0000 0.0000 0.0000 8.6522 0.0000 -1.7992
# 5 4.7875 12.4588 38.0269 0.0000 47.0440 0.0000
# 6 0.0000 0.0000 0.0000 -1.7992 0.0000 -7.5096
#
#
#
# Elastic Compliance Matrix: (Units=1/GPa)
#
#
# Indices 1 2 3 4 5 6 
#
# 1 0.013432 0.000532 -0.004256 0.000000 0.001932 0.000000
# 2 0.000532 0.007903 -0.004537 0.000000 0.001520 0.000000
# 3 -0.004256 -0.004537 0.011752 0.000000 -0.007865 0.000000
# 4 0.000000 0.000000 0.000000 0.110093 0.000000 -0.026376
# 5 0.001932 0.001520 -0.007865 0.000000 0.027015 0.000000
# 6 0.000000 0.000000 0.000000 -0.026376 0.000000 -0.126844
#
#
# Mechanical properties :
#
#
# Convention : Reuss Voigt Hill
#
# Bulk Modulus (GPa) = 60.36395 76.08050 68.22223
# Shear Modulus (GPa) = 76.46139 27.88190 52.17165
#
# Velocity S-wave (km/s) = 5.79924 3.50196 4.79035
# Velocity P-wave (km/s) = 8.44939 7.05799 7.78484
#
# Compressibility (1/GPa) = 0.01656618
#
# Stress axis : x y z
#
# Youngs Moduli (GPa) = 74.44921 126.53442 85.09438
#
# Poissons Ratio (x) = -0.06735 0.36215
# Poissons Ratio (y) = -0.03963 0.38605
# Poissons Ratio (z) = 0.31684 0.57405
#
# Static dielectric constant tensor:
#      x y z
#    x 1.872570 0.000000 -0.028030 
#    y 0.000000 1.887880 0.000000 
#    z -0.028030 0.000000 1.896310 
# 
# From -- ./inp_files/53958.got.cif
#   From: 2010.05.17/outbox.cif.g08.bks.cpg/sg10_27_cif.got.tgz:53958.got - 2010.06.03 11:33:40.
