data_PCOD9153056
_publ_section_title
;
Structure prediction by ZEFSAII (Michael W. Deem and Ramdas Pophale) SiO2 
 PCOD9153056
Probable space group: P 2/M
;
_chemical_formula_sum "Si O2"
_cell_formula_units_Z 24
_cell_length_a 5.128470
_cell_length_b 13.424142
_cell_length_c 18.699421
_cell_angle_alpha 90.000000
_cell_angle_beta 104.902243
_cell_angle_gamma 90.000000
_cell_volume 1244.068127
_symmetry_space_group_name_H-M "P 2/M"
_symmetry_group_IT_number 10
_symmetry_cell_setting 'monoclinic'
loop_
_space_group_symop_operation_xyz
x,y,z
-x,y,-z
-x,-y,-z
x,-y,z
loop_
_atom_site_type_symbol
_atom_site_label
_atom_site_fract_x
_atom_site_fract_y
_atom_site_fract_z
Si Si1 0.933263 0.500000 0.156192
Si Si2 0.993491 0.182886 0.808833
Si Si3 0.805884 0.614528 0.549971
Si Si4 0.201603 0.307444 0.947902
Si Si5 0.349427 0.697200 0.315110
Si Si6 0.467507 0.500000 0.741821
Si Si7 0.559210 0.889607 0.268849
O O1 0.838434 0.404916 0.103738
O O2 0.782895 0.500000 0.222212
O O3 0.255496 0.500000 0.191879
O O4 0.129485 0.214707 0.891637
O O5 0.200127 0.133470 0.768433
O O6 0.875939 0.282094 0.761372
O O7 0.722621 0.117940 0.794863
O O8 0.500000 0.612850 0.500000
O O9 0.884116 0.500000 0.573420
O O10 0.795957 0.679528 0.620402
O O11 0.000000 0.649059 0.500000
O O12 0.500000 0.301921 0.000000
O O13 0.000000 0.312319 0.000000
O O14 0.516257 0.599117 0.305520
O O15 0.526176 0.798212 0.322342
O O16 0.587029 0.000000 0.301823
#
# Coordination Sequence:
#
# PCOD9153056 Si02
#       7
#     2   4   4   4   4   2   4
#     4  12  22  37  50  85 116 165 195 240 288 358
#     4  10  22  38  61  88 109 158 197 245 302 334
#     4  10  22  37  56  88 127 164 194 229 286 350
#     4  12  23  37  55  80 122 158 197 242 294 361
#     4  10  23  38  64  90 119 161 191 254 283 356
#     4  12  22  35  62  87 126 143 209 238 292 349
#     4  10  21  39  65  91 113 147 205 256 295 343
#
# _framework density 19.291549
#
# number of rings (size 3 to 8) (size 9 to 14) (size 15 to 20)
#    1.000    0.333    2.500    4.000    2.333    0.000 
#    0.000    0.000    0.000   11.000    0.000    0.000 
#    0.000    0.000    0.000    0.000    0.000    0.000 
#
# Total GULP energy -133971.565733 kJ/mol
# GULP energy per Si atom -5582.148572 kJ/mol
# Density = 1.924764 g / cm^3
# Si number density = 19.291549 Si / 1000 Ang^3
#
#
#
# Elastic Constant Matrix: (Units=GPa)
#
#
# Indices 1 2 3 4 5 6 
#
# 1 93.3305 10.4367 6.4846 0.0000 -18.1076 0.0000
# 2 10.4367 115.2488 24.4513 0.0000 -17.4847 0.0000
# 3 6.4846 24.4513 58.4722 0.0000 -24.1243 0.0000
# 4 0.0000 0.0000 0.0000 20.8748 0.0000 -9.4949
# 5 -18.1076 -17.4847 -24.1243 0.0000 34.0122 0.0000
# 6 0.0000 0.0000 0.0000 -9.4949 0.0000 -12.9144
#
#
#
# Elastic Compliance Matrix: (Units=1/GPa)
#
#
# Indices 1 2 3 4 5 6 
#
# 1 0.012103 -0.000351 0.001963 0.000000 0.007655 0.000000
# 2 -0.000351 0.009743 -0.002892 0.000000 0.002770 0.000000
# 3 0.001963 -0.002892 0.025322 0.000000 0.017518 0.000000
# 4 0.000000 0.000000 0.000000 0.035899 0.000000 -0.026394
# 5 0.007655 0.002770 0.017518 0.000000 0.047326 0.000000
# 6 0.000000 0.000000 0.000000 -0.026394 0.000000 -0.058028
#
#
# Mechanical properties :
#
#
# Convention : Reuss Voigt Hill
#
# Bulk Modulus (GPa) = 22.41856 38.86631 30.64243
# Shear Modulus (GPa) = 55.68313 23.43979 39.56146
#
# Velocity S-wave (km/s) = 5.37835 3.48951 4.53339
# Velocity P-wave (km/s) = 7.08626 6.03540 6.58184
#
# Compressibility (1/GPa) = 0.04460590
#
# Stress axis : x y z
#
# Youngs Moduli (GPa) = 82.62625 102.64261 39.49210
#
# Poissons Ratio (x) = 0.03604 -0.07752
# Poissons Ratio (y) = 0.02901 0.11422
# Poissons Ratio (z) = -0.16219 0.29687
#
# Static dielectric constant tensor:
#      x y z
#    x 1.690190 0.000000 0.022660 
#    y 0.000000 1.779250 0.000000 
#    z 0.022660 0.000000 1.651020 
# 
# From -- ./inp_files/59097.got.cif
#   From: 2010.05.17/outbox.cif.g08.bks.cpg/sg10_30_cif.got.tgz:59097.got - 2010.06.03 11:33:40.
