data_PCOD9153893
_publ_section_title
;
Structure prediction by ZEFSAII (Michael W. Deem and Ramdas Pophale) SiO2 
 PCOD9153893
Probable space group: P 2/M
;
_chemical_formula_sum "Si O2"
_cell_formula_units_Z 32
_cell_length_a 20.691939
_cell_length_b 8.624324
_cell_length_c 25.663246
_cell_angle_alpha 90.000000
_cell_angle_beta 23.355167
_cell_angle_gamma 90.000000
_cell_volume 1815.532216
_symmetry_space_group_name_H-M "P 2/M"
_symmetry_group_IT_number 10
_symmetry_cell_setting 'monoclinic'
loop_
_space_group_symop_operation_xyz
x,y,z
-x,y,-z
-x,-y,-z
x,-y,z
loop_
_atom_site_type_symbol
_atom_site_label
_atom_site_fract_x
_atom_site_fract_y
_atom_site_fract_z
Si Si1 0.934980 0.313041 0.849444
Si Si2 0.960486 0.186969 0.613538
Si Si3 0.924852 0.685525 0.366240
Si Si4 0.460775 0.188339 0.611431
Si Si5 0.430396 0.685542 0.855051
Si Si6 0.764105 0.187254 0.314016
Si Si7 0.439038 0.186175 0.350350
Si Si8 0.736438 0.186609 0.685445
O O1 0.935464 0.500000 0.849679
O O2 0.998856 0.263254 0.745206
O O3 0.063561 0.254136 0.796817
O O4 0.751289 0.259677 0.996325
O O5 0.812248 0.231662 0.685107
O O6 0.965684 0.264426 0.665788
O O7 0.126663 0.228144 0.459210
O O8 0.959275 0.000000 0.619800
O O9 0.906853 0.500000 0.378963
O O10 0.747941 0.761196 0.505339
O O11 0.627077 0.233752 0.458256
O O12 0.309805 0.237456 0.687002
O O13 0.468508 0.238773 0.665403
O O14 0.459648 0.000000 0.612193
O O15 0.430714 0.500000 0.853848
O O16 0.484507 0.746816 0.758577
O O17 0.565472 0.741700 0.796174
O O18 0.772532 0.000000 0.308149
O O19 0.442965 0.000000 0.344662
O O20 0.723716 0.000000 0.694051
#
# Coordination Sequence:
#
# PCOD9153893 Si02
#       8
#     4   4   4   4   4   4   4   4
#     4  10  23  39  52  75 114 149 179 217 264 316
#     4   9  18  33  55  82 110 136 170 223 271 311
#     4  11  21  34  54  81 109 140 180 221 261 315
#     4   8  16  30  53  83 109 132 170 227 274 310
#     4  11  23  38  54  76 110 149 182 217 261 317
#     4   9  16  32  56  80 105 138 179 220 266 318
#     4  11  20  34  56  82 109 137 175 226 273 313
#     4   9  18  34  55  80 109 139 174 218 268 316
#
# _framework density 17.625686000000002
#
# number of rings (size 3 to 8) (size 9 to 14) (size 15 to 20)
#    0.000    2.250    2.500    2.625    0.000    2.000 
#    0.000    5.000    0.000    7.500    0.000    0.000 
#    0.000    0.000    0.000    0.000    0.000    0.000 
#
# Total GULP energy -178525.886255 kJ/mol
# GULP energy per Si atom -5578.933945 kJ/mol
# Density = 1.758557 g / cm^3
# Si number density = 17.625686 Si / 1000 Ang^3
#
#
#
# Elastic Constant Matrix: (Units=GPa)
#
#
# Indices 1 2 3 4 5 6 
#
# 1 144.5341 23.3657 75.5033 0.0000 -22.1812 0.0000
# 2 23.3657 18.1760 24.4825 0.0000 -4.5929 0.0000
# 3 75.5033 24.4825 126.1363 0.0000 -18.1627 0.0000
# 4 0.0000 0.0000 0.0000 17.2338 0.0000 32.1533
# 5 -22.1812 -4.5929 -18.1627 0.0000 27.3693 0.0000
# 6 0.0000 0.0000 0.0000 32.1533 0.0000 408.0841
#
#
#
# Elastic Compliance Matrix: (Units=1/GPa)
#
#
# Indices 1 2 3 4 5 6 
#
# 1 0.011221 -0.006897 -0.004683 0.000000 0.004829 0.000000
# 2 -0.006897 0.078989 -0.011166 0.000000 0.000255 0.000000
# 3 -0.004683 -0.011166 0.013358 0.000000 0.003196 0.000000
# 4 0.000000 0.000000 0.000000 0.068025 0.000000 -0.005360
# 5 0.004829 0.000255 0.003196 0.000000 0.042615 0.000000
# 6 0.000000 0.000000 0.000000 -0.005360 0.000000 0.002873
#
#
# Mechanical properties :
#
#
# Convention : Reuss Voigt Hill
#
# Bulk Modulus (GPa) = 17.21860 59.50548 38.36204
# Shear Modulus (GPa) = 17.73471 101.57044 59.65257
#
# Velocity S-wave (km/s) = 3.17548 7.59944 5.82388
# Velocity P-wave (km/s) = 4.82029 10.52786 8.18752
#
# Compressibility (1/GPa) = 0.05807673
#
# Stress axis : x y z
#
# Youngs Moduli (GPa) = 89.11762 12.65992 74.85913
#
# Poissons Ratio (x) = 0.08732 0.35054
# Poissons Ratio (y) = 0.61467 0.83588
# Poissons Ratio (z) = 0.41731 0.14136
#
# Static dielectric constant tensor:
#      x y z
#    x 1.615290 0.000000 -0.006780 
#    y 0.000000 1.597480 0.000000 
#    z -0.006780 0.000000 1.576480 
# 
# From -- ./inp_files/93615.got.cif
#   From: 2010.05.17/outbox.cif.g08.bks.cpg/sg10_47_cif.got.tgz:93615.got - 2010.06.03 11:33:40.
