data_PCOD9153419
_publ_section_title
;
Structure prediction by ZEFSAII (Michael W. Deem and Ramdas Pophale) SiO2 
 PCOD9153419
Probable space group: P 2/M
;
_chemical_formula_sum "Si O2"
_cell_formula_units_Z 32
_cell_length_a 22.977168
_cell_length_b 13.472023
_cell_length_c 8.324513
_cell_angle_alpha 90.000000
_cell_angle_beta 143.507807
_cell_angle_gamma 90.000000
_cell_volume 1532.483352
_symmetry_space_group_name_H-M "P 2/M"
_symmetry_group_IT_number 10
_symmetry_cell_setting 'monoclinic'
loop_
_space_group_symop_operation_xyz
x,y,z
-x,y,-z
-x,-y,-z
x,-y,z
loop_
_atom_site_type_symbol
_atom_site_label
_atom_site_fract_x
_atom_site_fract_y
_atom_site_fract_z
Si Si1 0.038860 0.617062 0.904413
Si Si2 0.172151 0.614430 0.668589
Si Si3 0.783353 0.302023 0.897226
Si Si4 0.536022 0.884355 0.762995
Si Si5 0.885518 0.883912 0.284944
Si Si6 0.416206 0.274934 0.711149
Si Si7 0.283533 0.780118 0.713568
Si Si8 0.901531 0.116148 0.702599
O O1 0.057085 0.500000 0.920804
O O2 0.941902 0.646308 0.590409
O O3 0.136545 0.670961 0.061462
O O4 0.000000 0.628880 0.000000
O O5 0.177187 0.500000 0.625009
O O6 0.239724 0.684655 0.708082
O O7 0.202056 0.626286 0.918478
O O8 0.670720 0.315644 0.593891
O O9 0.815098 0.193044 0.036765
O O10 0.500000 0.876670 0.500000
O O11 0.470690 0.811653 0.730268
O O12 0.529799 0.000000 0.799712
O O13 0.648688 0.847075 0.020492
O O14 0.884446 0.869530 0.474874
O O15 0.000000 0.867711 0.500000
O O16 0.862423 0.000000 0.197744
O O17 0.352834 0.238491 0.719043
O O18 0.500000 0.334398 0.000000
O O19 0.193046 0.836102 0.434215
O O20 0.901652 0.000000 0.733327
O O21 0.000000 0.156668 0.000000
#
# Coordination Sequence:
#
# PCOD9153419 Si02
#       8
#     4   4   4   4   4   4   4   4
#     4  10  22  40  64  97 133 168 211 262 318 383
#     4  11  23  40  65  99 133 167 211 262 319 388
#     4  12  22  40  66  92 125 173 214 265 321 386
#     4  10  22  42  68  95 125 161 209 271 328 378
#     4  10  22  38  55  87 130 171 212 255 306 377
#     4  10  25  42  63  91 124 161 209 266 321 380
#     4  11  22  40  63  92 126 166 213 259 317 389
#     4  10  22  38  58  88 129 171 212 255 302 375
#
# _framework density 20.881141
#
# number of rings (size 3 to 8) (size 9 to 14) (size 15 to 20)
#    0.000    1.500    1.250    3.375    1.750    4.750 
#    0.000    0.625    0.000   17.625    0.000    0.000 
#    0.000    0.000    0.000    0.000    0.000    0.000 
#
# Total GULP energy -178540.088330 kJ/mol
# GULP energy per Si atom -5579.377760 kJ/mol
# Density = 2.083361 g / cm^3
# Si number density = 20.881141 Si / 1000 Ang^3
#
#
#
# Elastic Constant Matrix: (Units=GPa)
#
#
# Indices 1 2 3 4 5 6 
#
# 1 83.3225 19.6044 27.2738 0.0000 18.4329 0.0000
# 2 19.6044 85.0799 32.4872 0.0000 13.7425 0.0000
# 3 27.2738 32.4872 170.6368 0.0000 14.2762 0.0000
# 4 0.0000 0.0000 0.0000 15.6076 0.0000 -5.3056
# 5 18.4329 13.7425 14.2762 0.0000 24.5217 0.0000
# 6 0.0000 0.0000 0.0000 -5.3056 0.0000 20.3265
#
#
#
# Elastic Compliance Matrix: (Units=1/GPa)
#
#
# Indices 1 2 3 4 5 6 
#
# 1 0.014890 -0.001370 -0.001311 0.000000 -0.009662 0.000000
# 2 -0.001370 0.013697 -0.001927 0.000000 -0.005525 0.000000
# 3 -0.001311 -0.001927 0.006585 0.000000 -0.001768 0.000000
# 4 0.000000 0.000000 0.000000 0.070310 0.000000 0.018352
# 5 -0.009662 -0.005525 -0.001768 0.000000 0.052169 0.000000
# 6 0.000000 0.000000 0.000000 0.018352 0.000000 0.053987
#
#
# Mechanical properties :
#
#
# Convention : Reuss Voigt Hill
#
# Bulk Modulus (GPa) = 38.52401 55.30779 46.91590
# Shear Modulus (GPa) = 21.78594 29.40276 25.59435
#
# Velocity S-wave (km/s) = 3.23357 3.75654 3.50482
# Velocity P-wave (km/s) = 5.69478 6.73498 6.23660
#
# Compressibility (1/GPa) = 0.02595784
#
# Stress axis : x y z
#
# Youngs Moduli (GPa) = 67.15713 73.00661 151.86779
#
# Poissons Ratio (x) = 0.10001 0.19907
# Poissons Ratio (y) = 0.09200 0.29259
# Poissons Ratio (z) = 0.08803 0.14066
#
# Static dielectric constant tensor:
#      x y z
#    x 1.783500 0.000000 -0.097540 
#    y 0.000000 1.775560 0.000000 
#    z -0.097540 0.000000 1.571550 
# 
# From -- ./inp_files/36384.got.cif
#   From: 2010.05.17/outbox.cif.g08.bks.cpg/sg10_19_cif.got.tgz:36384.got - 2010.06.03 11:33:40.
