data_PCOD9153378
_publ_section_title
;
Structure prediction by ZEFSAII (Michael W. Deem and Ramdas Pophale) SiO2 
 PCOD9153378
Probable space group: P 2/M
;
_chemical_formula_sum "Si O2"
_cell_formula_units_Z 16
_cell_length_a 10.697312
_cell_length_b 7.581662
_cell_length_c 10.275308
_cell_angle_alpha 90.000000
_cell_angle_beta 96.871636
_cell_angle_gamma 90.000000
_cell_volume 827.376157
_symmetry_space_group_name_H-M "P 2/M"
_symmetry_group_IT_number 10
_symmetry_cell_setting 'monoclinic'
loop_
_space_group_symop_operation_xyz
x,y,z
-x,y,-z
-x,-y,-z
x,-y,z
loop_
_atom_site_type_symbol
_atom_site_label
_atom_site_fract_x
_atom_site_fract_y
_atom_site_fract_z
Si Si1 0.624180 0.787804 0.430052
Si Si2 0.309080 0.500000 0.065003
Si Si3 0.110537 0.205982 0.424891
Si Si4 0.079292 0.300293 0.126669
Si Si5 0.589396 0.500000 0.209770
O O1 0.500000 0.751457 0.500000
O O2 0.749757 0.728819 0.523350
O O3 0.617956 0.672525 0.299115
O O4 0.626839 0.000000 0.406202
O O5 0.222201 0.334860 0.097213
O O6 0.442286 0.500000 0.152688
O O7 0.333095 0.500000 0.914470
O O8 0.079352 0.220247 0.269017
O O9 0.000000 0.285803 0.500000
O O10 0.116760 0.000000 0.458918
O O11 0.025348 0.500000 0.136839
O O12 0.000000 0.215674 0.000000
#
# Coordination Sequence:
#
# PCOD9153378 Si02
#       5
#     4   2   4   4   2
#     4  10  22  38  59  88 118 150 196 240 289 350
#     4   9  21  38  52  88 114 144 196 244 271 360
#     4  10  22  37  56  86 118 147 193 245 285 342
#     4   9  20  36  56  78 114 148 189 233 282 344
#     4  11  21  36  64  81 118 155 190 244 292 333
#
# _framework density 19.338242999999999
#
# number of rings (size 3 to 8) (size 9 to 14) (size 15 to 20)
#    0.750    1.500    0.000    1.875    5.250    1.000 
#    0.000    3.750    0.000    0.000    0.000    0.000 
#    0.000    0.000    0.000    0.000    0.000    0.000 
#
# Total GULP energy -89159.518509 kJ/mol
# GULP energy per Si atom -5572.469907 kJ/mol
# Density = 1.929423 g / cm^3
# Si number density = 19.338243 Si / 1000 Ang^3
#
#
#
# Elastic Constant Matrix: (Units=GPa)
#
#
# Indices 1 2 3 4 5 6 
#
# 1 140.9447 10.8409 80.0183 0.0000 -1.8684 0.0000
# 2 10.8409 40.2662 9.3657 0.0000 -1.5278 0.0000
# 3 80.0183 9.3657 146.4495 0.0000 2.4500 0.0000
# 4 0.0000 0.0000 0.0000 -19.8357 0.0000 5.4399
# 5 -1.8684 -1.5278 2.4500 0.0000 30.9207 0.0000
# 6 0.0000 0.0000 0.0000 5.4399 0.0000 -1.8996
#
#
#
# Elastic Compliance Matrix: (Units=1/GPa)
#
#
# Indices 1 2 3 4 5 6 
#
# 1 0.010404 -0.001459 -0.005608 0.000000 0.001001 0.000000
# 2 -0.001459 0.025473 -0.000853 0.000000 0.001238 0.000000
# 3 -0.005608 -0.000853 0.009967 0.000000 -0.001171 0.000000
# 4 0.000000 0.000000 0.000000 -0.234892 0.000000 -0.672672
# 5 0.001001 0.001238 -0.001171 0.000000 0.032555 0.000000
# 6 0.000000 0.000000 0.000000 -0.672672 0.000000 -2.452803
#
#
# Mechanical properties :
#
#
# Convention : Reuss Voigt Hill
#
# Bulk Modulus (GPa) = 33.32841 58.67891 46.00366
# Shear Modulus (GPa) = -1.93539 16.99945 7.53203
#
# Velocity S-wave (km/s) = -1.00149 2.96811 1.97569
# Velocity P-wave (km/s) = 3.99181 6.49273 5.38935
#
# Compressibility (1/GPa) = 0.03000443
#
# Stress axis : x y z
#
# Youngs Moduli (GPa) = 96.11262 39.25756 100.33378
#
# Poissons Ratio (x) = 0.05727 0.56270
# Poissons Ratio (y) = 0.14020 0.08555
# Poissons Ratio (z) = 0.53903 0.03347
#
# Static dielectric constant tensor:
#      x y z
#    x 1.697580 0.000000 0.014870 
#    y 0.000000 1.687740 0.000000 
#    z 0.014870 0.000000 1.647000 
# 
# From -- ./inp_files/21721.got.cif
#   From: 2010.05.17/outbox.cif.g08.bks.cpg/sg10_11_cif.got.tgz:21721.got - 2010.06.03 11:33:40.
