data_PCOD9153763
_publ_section_title
;
Structure prediction by ZEFSAII (Michael W. Deem and Ramdas Pophale) SiO2 
 PCOD9153763
Probable space group: P 2/M
;
_chemical_formula_sum "Si O2"
_cell_formula_units_Z 18
_cell_length_a 8.386349
_cell_length_b 13.860206
_cell_length_c 10.238170
_cell_angle_alpha 90.000000
_cell_angle_beta 123.526376
_cell_angle_gamma 90.000000
_cell_volume 992.062763
_symmetry_space_group_name_H-M "P 2/M"
_symmetry_group_IT_number 10
_symmetry_cell_setting 'monoclinic'
loop_
_space_group_symop_operation_xyz
x,y,z
-x,y,-z
-x,-y,-z
x,-y,z
loop_
_atom_site_type_symbol
_atom_site_label
_atom_site_fract_x
_atom_site_fract_y
_atom_site_fract_z
Si Si1 0.073204 0.791613 0.775575
Si Si2 0.000000 0.666915 0.000000
Si Si3 0.936791 0.000000 0.774028
Si Si4 0.000000 0.339327 0.500000
Si Si5 0.718627 0.500000 0.447583
Si Si6 0.736521 0.500000 0.767609
Si Si7 0.500000 0.848297 0.000000
Si Si8 0.670466 0.000000 0.885193
O O1 0.999877 0.726024 0.626681
O O2 0.033079 0.738236 0.893770
O O3 0.303429 0.797581 0.873352
O O4 0.972412 0.897159 0.720239
O O5 0.830218 0.593735 0.879357
O O6 0.737204 0.000000 0.764943
O O7 0.123792 0.000000 0.951553
O O8 0.816015 0.408086 0.424669
O O9 0.775423 0.500000 0.628128
O O10 0.492153 0.500000 0.327496
O O11 0.442627 0.910783 0.102669
#
# Coordination Sequence:
#
# PCOD9153763 Si02
#       8
#     4   2   2   2   2   2   2   2
#     4  11  22  37  60  89 124 157 200 241 297 350
#     4  11  22  39  62  98 114 153 206 251 282 366
#     4   9  18  35  57  81 122 165 188 240 292 351
#     4  11  24  41  60  90 120 161 192 251 302 362
#     4  10  22  45  62  83 124 161 189 244 320 360
#     4  10  22  41  66  89 118 155 199 252 298 362
#     4   9  18  30  56  85 114 150 202 245 280 339
#     4   8  14  32  53  80 112 156 195 237 296 332
#
# _framework density 18.144013999999999
#
# number of rings (size 3 to 8) (size 9 to 14) (size 15 to 20)
#    0.000    2.000    2.222    3.333    3.111    0.444 
#    0.000    1.111    0.000    1.333    0.000    0.000 
#    0.000    0.000    0.000    0.000    0.000    0.000 
#
# Total GULP energy -100234.193362 kJ/mol
# GULP energy per Si atom -5568.566298 kJ/mol
# Density = 1.810272 g / cm^3
# Si number density = 18.144014 Si / 1000 Ang^3
#
#
#
# Elastic Constant Matrix: (Units=GPa)
#
#
# Indices 1 2 3 4 5 6 
#
# 1 111.7991 56.8898 30.6346 0.0000 -3.5671 0.0000
# 2 56.8898 132.9290 42.1669 0.0000 -6.0161 0.0000
# 3 30.6346 42.1669 61.3425 0.0000 -8.8403 0.0000
# 4 0.0000 0.0000 0.0000 -387.3785 0.0000 637.8821
# 5 -3.5671 -6.0161 -8.8403 0.0000 28.1716 0.0000
# 6 0.0000 0.0000 0.0000 637.8821 0.0000-1092.9140
#
#
#
# Elastic Compliance Matrix: (Units=1/GPa)
#
#
# Indices 1 2 3 4 5 6 
#
# 1 0.011887 -0.004098 -0.003173 0.000000 -0.000365 0.000000
# 2 -0.004098 0.011033 -0.005523 0.000000 0.000104 0.000000
# 3 -0.003173 -0.005523 0.022471 0.000000 0.005470 0.000000
# 4 0.000000 0.000000 0.000000 -0.066327 0.000000 -0.038712
# 5 -0.000365 0.000104 0.005470 0.000000 0.037189 0.000000
# 6 0.000000 0.000000 0.000000 -0.038712 0.000000 -0.023509
#
#
# Mechanical properties :
#
#
# Convention : Reuss Voigt Hill
#
# Bulk Modulus (GPa) = 50.49077 62.82812 56.65944
# Shear Modulus (GPa) = 200.53950 -278.66557 -39.06304
#
# Velocity S-wave (km/s) = 10.52457 -12.40640 -4.64502
# Velocity P-wave (km/s) = 13.25054 13.05843 1.58971
#
# Compressibility (1/GPa) = 0.01980560
#
# Stress axis : x y z
#
# Youngs Moduli (GPa) = 84.12272 90.63640 44.50178
#
# Poissons Ratio (x) = 0.37139 0.14118
# Poissons Ratio (y) = 0.34470 0.24577
# Poissons Ratio (z) = 0.26688 0.50056
#
# Static dielectric constant tensor:
#      x y z
#    x 1.647840 0.000000 -0.025690 
#    y 0.000000 1.648380 0.000000 
#    z -0.025690 0.000000 1.596280 
# 
# From -- ./inp_files/42188.got.cif
#   From: 2010.05.17/outbox.cif.g08.bks.cpg/sg10_22_cif.got.tgz:42188.got - 2010.06.03 11:33:40.
