data_PCOD9153697
_publ_section_title
;
Structure prediction by ZEFSAII (Michael W. Deem and Ramdas Pophale) SiO2 
 PCOD9153697
Probable space group: P 2/M
;
_chemical_formula_sum "Si O2"
_cell_formula_units_Z 17
_cell_length_a 8.833686
_cell_length_b 19.054259
_cell_length_c 10.109599
_cell_angle_alpha 90.000000
_cell_angle_beta 150.531837
_cell_angle_gamma 90.000000
_cell_volume 837.105059
_symmetry_space_group_name_H-M "P 2/M"
_symmetry_group_IT_number 10
_symmetry_cell_setting 'monoclinic'
loop_
_space_group_symop_operation_xyz
x,y,z
-x,y,-z
-x,-y,-z
x,-y,z
loop_
_atom_site_type_symbol
_atom_site_label
_atom_site_fract_x
_atom_site_fract_y
_atom_site_fract_z
Si Si1 0.737347 0.917443 0.564336
Si Si2 0.390398 0.141072 0.062230
Si Si3 0.411458 0.644603 0.572894
Si Si4 0.255540 0.694596 0.925805
Si Si5 0.500000 0.500000 0.500000
O O1 0.500000 0.899110 0.500000
O O2 0.084966 0.900907 0.869717
O O3 0.704272 0.000000 0.510145
O O4 0.650908 0.873544 0.368382
O O5 0.303824 0.222883 0.987605
O O6 0.500000 0.118545 0.000000
O O7 0.500000 0.680472 0.500000
O O8 0.388635 0.562873 0.517258
O O9 0.090853 0.676389 0.377981
O O10 0.668370 0.655918 0.878824
O O11 0.500000 0.673137 0.000000
#
# Coordination Sequence:
#
# PCOD9153697 Si02
#       5
#     4   4   4   4   1
#     4  11  24  41  61  88 123 160 205 257 303 358
#     4  11  24  40  61  89 124 159 204 253 304 362
#     4  10  22  40  65  86 123 160 201 241 300 358
#     4  11  23  40  61  93 125 157 200 257 302 350
#     4   8  24  42  66  90 128 154 204 246 292 350
#
# _framework density 20.308085999999999
#
# number of rings (size 3 to 8) (size 9 to 14) (size 15 to 20)
#    0.706    0.706    0.000    4.941    0.000   16.000 
#    0.000    3.529    0.000    0.000    0.000    0.000 
#    0.000    0.000    0.000    0.000    0.000    0.000 
#
# Total GULP energy -94726.616719 kJ/mol
# GULP energy per Si atom -5572.153925 kJ/mol
# Density = 2.026186 g / cm^3
# Si number density = 20.308086 Si / 1000 Ang^3
#
#
#
# Elastic Constant Matrix: (Units=GPa)
#
#
# Indices 1 2 3 4 5 6 
#
# 1 73.2111 11.5816 -18.9305 0.0000 1.1571 0.0000
# 2 11.5816 43.4707 -13.3006 0.0000 -4.5046 0.0000
# 3 -18.9305 -13.3006 47.7181 0.0000 -1.4494 0.0000
# 4 0.0000 0.0000 0.0000 0.8675 0.0000 -12.7008
# 5 1.1571 -4.5046 -1.4494 0.0000 32.9707 0.0000
# 6 0.0000 0.0000 0.0000 -12.7008 0.0000 12.9836
#
#
#
# Elastic Compliance Matrix: (Units=1/GPa)
#
#
# Indices 1 2 3 4 5 6 
#
# 1 0.015469 -0.002533 0.005411 0.000000 -0.000651 0.000000
# 2 -0.002533 0.026035 0.006371 0.000000 0.003926 0.000000
# 3 0.005411 0.006371 0.024933 0.000000 0.001777 0.000000
# 4 0.000000 0.000000 0.000000 -0.086531 0.000000 -0.084646
# 5 -0.000651 0.003926 0.001777 0.000000 0.030967 0.000000
# 6 0.000000 0.000000 0.000000 -0.084646 0.000000 -0.005782
#
#
# Mechanical properties :
#
#
# Convention : Reuss Voigt Hill
#
# Bulk Modulus (GPa) = 11.77372 13.67789 12.72581
# Shear Modulus (GPa) = 335.43577 21.70100 178.56838
#
# Velocity S-wave (km/s) = 12.86593 3.27247 9.38726
# Velocity P-wave (km/s) = 15.05057 4.58570 11.12538
#
# Compressibility (1/GPa) = 0.08493492
#
# Stress axis : x y z
#
# Youngs Moduli (GPa) = 64.64407 38.40973 40.10773
#
# Poissons Ratio (x) = 0.09730 -0.21702
# Poissons Ratio (y) = 0.16376 -0.25553
# Poissons Ratio (z) = -0.34979 -0.24471
#
# Static dielectric constant tensor:
#      x y z
#    x 1.726710 0.000000 -0.010910 
#    y 0.000000 1.683830 0.000000 
#    z -0.010910 0.000000 1.678090 
# 
# From -- ./inp_files/20036.got.cif
#   From: 2010.05.17/outbox.cif.g08.bks.cpg/sg10_11_cif.got.tgz:20036.got - 2010.06.03 11:33:40.
