data_PCOD9153898
_publ_section_title
;
Structure prediction by ZEFSAII (Michael W. Deem and Ramdas Pophale) SiO2 
 PCOD9153898
Probable space group: P 2/M
;
_chemical_formula_sum "Si O2"
_cell_formula_units_Z 24
_cell_length_a 10.194300
_cell_length_b 8.070715
_cell_length_c 22.845752
_cell_angle_alpha 90.000000
_cell_angle_beta 142.040606
_cell_angle_gamma 90.000000
_cell_volume 1156.172457
_symmetry_space_group_name_H-M "P 2/M"
_symmetry_group_IT_number 10
_symmetry_cell_setting 'monoclinic'
loop_
_space_group_symop_operation_xyz
x,y,z
-x,y,-z
-x,-y,-z
x,-y,z
loop_
_atom_site_type_symbol
_atom_site_label
_atom_site_fract_x
_atom_site_fract_y
_atom_site_fract_z
Si Si1 0.689642 0.817620 0.114397
Si Si2 0.174105 0.697086 0.402214
Si Si3 0.570651 0.297519 0.620150
Si Si4 0.308026 0.804067 0.753230
Si Si5 0.037223 0.500000 0.081078
Si Si6 0.340106 0.195620 0.217630
Si Si7 0.755228 0.500000 0.084949
O O1 0.607306 0.776383 0.150624
O O2 0.834209 0.665588 0.144558
O O3 0.791331 0.000000 0.152204
O O4 0.500000 0.828090 0.000000
O O5 0.196525 0.500000 0.406940
O O6 0.256130 0.757610 0.367699
O O7 0.343311 0.749599 0.511132
O O8 0.931094 0.735886 0.331438
O O9 0.580466 0.500000 0.630178
O O10 0.598581 0.217422 0.693097
O O11 0.467671 0.750422 0.758468
O O12 0.289562 0.000000 0.739436
O O13 0.158287 0.331054 0.141204
O O14 0.821181 0.500000 0.041756
O O15 0.000000 0.500000 0.000000
O O16 0.287948 0.000000 0.187861
O O17 0.500000 0.500000 0.000000
#
# Coordination Sequence:
#
# PCOD9153898 Si02
#       7
#     4   4   4   4   2   4   2
#     4   9  20  38  62  90 126 161 207 271 319 367
#     4   9  20  36  66  95 129 172 217 270 322 381
#     4   9  19  41  62  95 134 171 216 268 327 388
#     4  10  23  39  59  93 127 169 220 265 320 386
#     4  12  30  48  68  97 133 174 213 261 329 395
#     4  11  26  45  67  95 134 173 214 268 323 387
#     4  10  24  42  68  97 116 159 220 252 313 381
#
# _framework density 20.758147999999998
#
# number of rings (size 3 to 8) (size 9 to 14) (size 15 to 20)
#    0.000    2.167    0.833    1.000    9.333    3.000 
#    0.000    5.000    0.000    0.000    0.000    0.000 
#    0.000    0.000    0.000    0.000    0.000    0.000 
#
# Total GULP energy -133920.534082 kJ/mol
# GULP energy per Si atom -5580.022253 kJ/mol
# Density = 2.071090 g / cm^3
# Si number density = 20.758148 Si / 1000 Ang^3
#
#
#
# Elastic Constant Matrix: (Units=GPa)
#
#
# Indices 1 2 3 4 5 6 
#
# 1 151.2440 41.4456 61.1313 0.0000 -16.4703 0.0000
# 2 41.4456 89.3015 27.3687 0.0000 -8.7605 0.0000
# 3 61.1313 27.3687 112.5860 0.0000 -15.7603 0.0000
# 4 0.0000 0.0000 0.0000 -13.3668 0.0000 -21.6296
# 5 -16.4703 -8.7605 -15.7603 0.0000 38.2467 0.0000
# 6 0.0000 0.0000 0.0000 -21.6296 0.0000 21.5117
#
#
#
# Elastic Compliance Matrix: (Units=1/GPa)
#
#
# Indices 1 2 3 4 5 6 
#
# 1 0.009227 -0.002871 -0.004083 0.000000 0.001633 0.000000
# 2 -0.002871 0.013092 -0.001461 0.000000 0.001160 0.000000
# 3 -0.004083 -0.001461 0.011845 0.000000 0.002788 0.000000
# 4 0.000000 0.000000 0.000000 -0.028478 0.000000 -0.028634
# 5 0.001633 0.001160 0.002788 0.000000 0.028264 0.000000
# 6 0.000000 0.000000 0.000000 -0.028634 0.000000 0.017695
#
#
# Mechanical properties :
#
#
# Convention : Reuss Voigt Hill
#
# Bulk Modulus (GPa) = 57.69473 68.11362 62.90417
# Shear Modulus (GPa) = 67.33674 24.15737 45.74705
#
# Velocity S-wave (km/s) = 5.70168 3.41508 4.69957
# Velocity P-wave (km/s) = 8.43799 6.95950 7.73415
#
# Compressibility (1/GPa) = 0.01733261
#
# Stress axis : x y z
#
# Youngs Moduli (GPa) = 108.37990 76.38245 84.42496
#
# Poissons Ratio (x) = 0.21926 0.34475
# Poissons Ratio (y) = 0.31111 0.12339
# Poissons Ratio (z) = 0.44257 0.11163
#
# Static dielectric constant tensor:
#      x y z
#    x 1.757180 0.000000 -0.000270 
#    y 0.000000 1.753830 0.000000 
#    z -0.000270 0.000000 1.670970 
# 
# From -- ./inp_files/82063.got.cif
#   From: 2010.05.17/outbox.cif.g08.bks.cpg/sg10_42_cif.got.tgz:82063.got - 2010.06.03 11:33:40.
