data_PCOD9153620
_publ_section_title
;
Structure prediction by ZEFSAII (Michael W. Deem and Ramdas Pophale) SiO2 
 PCOD9153620
Probable space group: P 2/M
;
_chemical_formula_sum "Si O2"
_cell_formula_units_Z 28
_cell_length_a 9.609358
_cell_length_b 13.706876
_cell_length_c 24.157579
_cell_angle_alpha 90.000000
_cell_angle_beta 26.229995
_cell_angle_gamma 90.000000
_cell_volume 1406.321054
_symmetry_space_group_name_H-M "P 2/M"
_symmetry_group_IT_number 10
_symmetry_cell_setting 'monoclinic'
loop_
_space_group_symop_operation_xyz
x,y,z
-x,y,-z
-x,-y,-z
x,-y,z
loop_
_atom_site_type_symbol
_atom_site_label
_atom_site_fract_x
_atom_site_fract_y
_atom_site_fract_z
Si Si1 0.357014 0.887799 0.799597
Si Si2 0.600335 0.889923 0.087344
Si Si3 0.349594 0.382227 0.492847
Si Si4 0.377619 0.711906 0.369849
Si Si5 0.669436 0.614139 0.771358
Si Si6 0.177820 0.612006 0.864992
Si Si7 0.536824 0.698969 0.051013
O O1 0.471818 0.870093 0.822045
O O2 0.482656 0.808819 0.710500
O O3 0.441947 0.000000 0.754340
O O4 0.977486 0.885778 0.942125
O O5 0.497231 0.000000 0.111918
O O6 0.460188 0.808160 0.097848
O O7 0.500000 0.369846 0.500000
O O8 0.367987 0.500000 0.473504
O O9 0.473712 0.314532 0.398711
O O10 0.984895 0.350723 0.630326
O O11 0.528608 0.623211 0.281180
O O12 0.000000 0.714425 0.500000
O O13 0.657353 0.500000 0.765003
O O14 0.339419 0.651236 0.863653
O O15 0.677822 0.632236 0.833436
O O16 0.074985 0.500000 0.907613
O O17 0.892622 0.672040 0.941418
O O18 0.500000 0.683469 0.000000
#
# Coordination Sequence:
#
# PCOD9153620 Si02
#       7
#     4   4   4   4   4   4   4
#     4   9  19  37  64  93 116 146 194 251 301 352
#     4   9  19  38  63  87 116 152 192 241 304 365
#     4  10  23  40  59  84 122 168 205 240 287 350
#     4  12  22  36  62  91 116 157 204 249 288 349
#     4  10  22  40  59  83 118 161 204 243 292 355
#     4  11  23  39  59  85 120 158 200 250 298 350
#     4  12  25  37  59  91 119 154 197 250 311 358
#
# _framework density 19.910105000000001
#
# number of rings (size 3 to 8) (size 9 to 14) (size 15 to 20)
#    0.000    1.571    2.857    3.000    4.000    3.429 
#    0.000    0.000    0.000    0.429    0.000    0.000 
#    0.000    0.000    0.000    0.000    0.000    0.000 
#
# Total GULP energy -156170.363105 kJ/mol
# GULP energy per Si atom -5577.512968 kJ/mol
# Density = 1.986479 g / cm^3
# Si number density = 19.910105 Si / 1000 Ang^3
#
#
#
# Elastic Constant Matrix: (Units=GPa)
#
#
# Indices 1 2 3 4 5 6 
#
# 1 113.1922 39.5498 38.0294 0.0000 33.5943 0.0000
# 2 39.5498 104.1028 30.5243 0.0000 10.1396 0.0000
# 3 38.0294 30.5243 85.8490 0.0000 22.7479 0.0000
# 4 0.0000 0.0000 0.0000 34.9971 0.0000 15.6957
# 5 33.5943 10.1396 22.7479 0.0000 32.3623 0.0000
# 6 0.0000 0.0000 0.0000 15.6957 0.0000 -4.9967
#
#
#
# Elastic Compliance Matrix: (Units=1/GPa)
#
#
# Indices 1 2 3 4 5 6 
#
# 1 0.014481 -0.003764 -0.001728 0.000000 -0.012639 0.000000
# 2 -0.003764 0.011721 -0.003149 0.000000 0.002448 0.000000
# 3 -0.001728 -0.003149 0.015726 0.000000 -0.008274 0.000000
# 4 0.000000 0.000000 0.000000 0.011862 0.000000 0.037262
# 5 -0.012639 0.002448 -0.008274 0.000000 0.049069 0.000000
# 6 0.000000 0.000000 0.000000 0.037262 0.000000 -0.083084
#
#
# Mechanical properties :
#
#
# Convention : Reuss Voigt Hill
#
# Bulk Modulus (GPa) = 40.57324 57.70567 49.13945
# Shear Modulus (GPa) = 110.44582 25.47522 67.96052
#
# Velocity S-wave (km/s) = 7.45605 3.58091 5.84874
# Velocity P-wave (km/s) = 9.72348 6.79288 8.38717
#
# Compressibility (1/GPa) = 0.02464679
#
# Stress axis : x y z
#
# Youngs Moduli (GPa) = 69.05529 85.31955 63.59067
#
# Poissons Ratio (x) = 0.32114 0.10986
# Poissons Ratio (y) = 0.25992 0.20023
# Poissons Ratio (z) = 0.11930 0.26865
#
# Static dielectric constant tensor:
#      x y z
#    x 1.736100 0.000000 0.000630 
#    y 0.000000 1.724210 0.000000 
#    z 0.000630 0.000000 1.738440 
# 
# From -- ./inp_files/43051.got.cif
#   From: 2010.05.17/outbox.cif.g08.bks.cpg/sg10_22_cif.got.tgz:43051.got - 2010.06.03 11:33:40.
