data_PCOD9153826
_publ_section_title
;
Structure prediction by ZEFSAII (Michael W. Deem and Ramdas Pophale) SiO2 
 PCOD9153826
Probable space group: P 2/M
;
_chemical_formula_sum "Si O2"
_cell_formula_units_Z 30
_cell_length_a 12.802918
_cell_length_b 12.341297
_cell_length_c 24.845177
_cell_angle_alpha 90.000000
_cell_angle_beta 22.364867
_cell_angle_gamma 90.000000
_cell_volume 1493.724101
_symmetry_space_group_name_H-M "P 2/M"
_symmetry_group_IT_number 10
_symmetry_cell_setting 'monoclinic'
loop_
_space_group_symop_operation_xyz
x,y,z
-x,y,-z
-x,-y,-z
x,-y,z
loop_
_atom_site_type_symbol
_atom_site_label
_atom_site_fract_x
_atom_site_fract_y
_atom_site_fract_z
Si Si1 0.201530 0.877047 0.954243
Si Si2 0.326150 0.121651 0.350926
Si Si3 0.186062 0.256085 0.144826
Si Si4 0.872708 0.628403 0.713367
Si Si5 0.794867 0.500000 0.196096
Si Si6 0.415768 0.290415 0.400225
Si Si7 0.673174 0.877216 0.362416
Si Si8 0.760804 0.327888 0.996236
O O1 0.507668 0.869545 0.783836
O O2 0.146903 0.000000 0.997383
O O3 0.174584 0.792533 0.014589
O O4 0.000000 0.853205 0.000000
O O5 0.419337 0.217115 0.345318
O O6 0.000000 0.127730 0.500000
O O7 0.392469 0.000000 0.340524
O O8 0.109106 0.318805 0.235904
O O9 0.180058 0.335638 0.095888
O O10 0.978842 0.159262 0.232345
O O11 0.500000 0.218534 0.000000
O O12 0.920645 0.500000 0.693834
O O13 0.103886 0.682859 0.566328
O O14 0.560223 0.647106 0.842499
O O15 0.574829 0.402659 0.315817
O O16 0.034422 0.407157 0.071556
O O17 0.552904 0.214375 0.380331
O O18 0.500000 0.874968 0.500000
O O19 0.661187 0.000000 0.346349
#
# Coordination Sequence:
#
# PCOD9153826 Si02
#       8
#     4   4   4   4   2   4   4   4
#     4  10  22  42  68  94 121 162 212 263 323 384
#     4  10  22  43  70  95 122 162 215 267 318 384
#     4  10  23  39  63  93 126 170 216 259 312 376
#     4  11  23  40  65  90 130 176 216 256 313 382
#     4  12  24  38  64  94 126 165 215 252 315 384
#     4  12  23  41  65  97 127 166 213 267 319 378
#     4  11  23  40  61  91 131 167 207 261 322 381
#     4  11  23  42  63  93 129 165 213 269 316 377
#
# _framework density 20.084029999999998
#
# number of rings (size 3 to 8) (size 9 to 14) (size 15 to 20)
#    0.000    1.200    4.000    2.000    0.933    1.600 
#    0.000    7.667    0.000    0.000    0.000    0.000 
#    0.000    0.000    0.000    0.000    0.000    0.000 
#
# Total GULP energy -167104.267221 kJ/mol
# GULP energy per Si atom -5570.142241 kJ/mol
# Density = 2.003832 g / cm^3
# Si number density = 20.084030 Si / 1000 Ang^3
#
#
#
# Elastic Constant Matrix: (Units=GPa)
#
#
# Indices 1 2 3 4 5 6 
#
# 1 28.5194 41.2435 -2.8563 0.0000 4.5060 0.0000
# 2 41.2435 158.6396 30.9856 0.0000 0.6404 0.0000
# 3 -2.8563 30.9856 81.8510 0.0000 -6.5524 0.0000
# 4 0.0000 0.0000 0.0000 29.3221 0.0000 -1.1911
# 5 4.5060 0.6404 -6.5524 0.0000 18.5374 0.0000
# 6 0.0000 0.0000 0.0000 -1.1911 0.0000 9.3985
#
#
#
# Elastic Compliance Matrix: (Units=1/GPa)
#
#
# Indices 1 2 3 4 5 6 
#
# 1 0.064144 -0.018223 0.008170 0.000000 -0.012074 0.000000
# 2 -0.018223 0.012009 -0.005002 0.000000 0.002247 0.000000
# 3 0.008170 -0.005002 0.014666 0.000000 0.003371 0.000000
# 4 0.000000 0.000000 0.000000 0.034280 0.000000 0.004345
# 5 -0.012074 0.002247 0.003371 0.000000 0.057994 0.000000
# 6 0.000000 0.000000 0.000000 0.004345 0.000000 0.106951
#
#
# Mechanical properties :
#
#
# Convention : Reuss Voigt Hill
#
# Bulk Modulus (GPa) = 16.47219 45.30619 30.88919
# Shear Modulus (GPa) = 14.68902 24.76074 19.72488
#
# Velocity S-wave (km/s) = 2.70733 3.51502 3.13728
# Velocity P-wave (km/s) = 4.24174 6.25149 5.34197
#
# Compressibility (1/GPa) = 0.06070839
#
# Stress axis : x y z
#
# Youngs Moduli (GPa) = 15.59002 83.26853 68.18506
#
# Poissons Ratio (x) = 1.51743 -0.55710
# Poissons Ratio (y) = 0.28410 0.34109
# Poissons Ratio (z) = -0.12738 0.41654
#
# Static dielectric constant tensor:
#      x y z
#    x 1.728270 0.000000 -0.003630 
#    y 0.000000 1.687500 0.000000 
#    z -0.003630 0.000000 1.722370 
# 
# From -- ./inp_files/95343.got.cif
#   From: 2010.05.17/outbox.cif.g08.bks.cpg/sg10_48_cif.got.tgz:95343.got - 2010.06.03 11:33:40.
