data_PCOD9153913
_publ_section_title
;
Structure prediction by ZEFSAII (Michael W. Deem and Ramdas Pophale) SiO2 
 PCOD9153913
Probable space group: P 2/M
;
_chemical_formula_sum "Si O2"
_cell_formula_units_Z 18
_cell_length_a 5.087557
_cell_length_b 7.248331
_cell_length_c 21.890565
_cell_angle_alpha 90.000000
_cell_angle_beta 60.112506
_cell_angle_gamma 90.000000
_cell_volume 699.884130
_symmetry_space_group_name_H-M "P 2/M"
_symmetry_group_IT_number 10
_symmetry_cell_setting 'monoclinic'
loop_
_space_group_symop_operation_xyz
x,y,z
-x,y,-z
-x,-y,-z
x,-y,z
loop_
_atom_site_type_symbol
_atom_site_label
_atom_site_fract_x
_atom_site_fract_y
_atom_site_fract_z
Si Si1 0.772297 0.224542 0.924898
Si Si2 0.591825 0.214434 0.291636
Si Si3 0.050135 0.785749 0.564103
Si Si4 0.447693 0.776128 0.843471
Si Si5 0.778204 0.500000 0.361827
O O1 0.692620 0.282196 0.864955
O O2 0.110200 0.278791 0.904266
O O3 0.771737 0.000000 0.926268
O O4 0.500000 0.284815 0.000000
O O5 0.274493 0.235154 0.364475
O O6 0.534895 0.278604 0.229181
O O7 0.812444 0.339735 0.304970
O O8 0.685769 0.000000 0.280367
O O9 0.000000 0.728755 0.500000
O O10 0.260280 0.660024 0.580769
O O11 0.139696 0.000000 0.554855
O O12 0.461754 0.000000 0.841019
#
# Coordination Sequence:
#
# PCOD9153913 Si02
#       5
#     4   4   4   4   2
#     4   9  16  28  50  83 121 160 206 261 320 381
#     4  10  23  40  59  89 126 166 211 263 325 385
#     4  10  23  42  63  90 127 166 208 264 326 386
#     4   9  18  31  52  82 122 164 206 262 321 381
#     4  12  23  39  65  91 121 164 215 268 312 391
#
# _framework density 25.718540999999998
#
# number of rings (size 3 to 8) (size 9 to 14) (size 15 to 20)
#    0.000    2.222    0.000    2.333    3.111    4.444 
#    0.000    3.333    0.000    0.000    0.000    4.667 
#    0.000    0.000    0.000    0.000    0.000    0.222 
#
# Total GULP energy -100311.195915 kJ/mol
# GULP energy per Si atom -5572.844217 kJ/mol
# Density = 2.566000 g / cm^3
# Si number density = 25.718541 Si / 1000 Ang^3
#
#
#
# Elastic Constant Matrix: (Units=GPa)
#
#
# Indices 1 2 3 4 5 6 
#
# 1 73.6149 2.3917 1.8576 0.0000 5.8631 0.0000
# 2 2.3917 92.1790 19.9957 0.0000 7.8313 0.0000
# 3 1.8576 19.9957 104.6716 0.0000 22.0119 0.0000
# 4 0.0000 0.0000 0.0000 -3.7865 0.0000 33.6114
# 5 5.8631 7.8313 22.0119 0.0000 42.1727 0.0000
# 6 0.0000 0.0000 0.0000 33.6114 0.0000 11.0520
#
#
#
# Elastic Compliance Matrix: (Units=1/GPa)
#
#
# Indices 1 2 3 4 5 6 
#
# 1 0.013744 -0.000236 0.000218 0.000000 -0.001981 0.000000
# 2 -0.000236 0.011367 -0.001944 0.000000 -0.001064 0.000000
# 3 0.000218 -0.001944 0.011066 0.000000 -0.005445 0.000000
# 4 0.000000 0.000000 0.000000 -0.009433 0.000000 0.028689
# 5 -0.001981 -0.001064 -0.005445 0.000000 0.027027 0.000000
# 6 0.000000 0.000000 0.000000 0.028689 0.000000 0.003232
#
#
# Mechanical properties :
#
#
# Convention : Reuss Voigt Hill
#
# Bulk Modulus (GPa) = 31.00401 35.43950 33.22176
# Shear Modulus (GPa) = 69.75765 26.30234 48.02999
#
# Velocity S-wave (km/s) = 5.21367 3.20144 4.32617
# Velocity P-wave (km/s) = 6.95158 5.24168 6.15629
#
# Compressibility (1/GPa) = 0.03225389
#
# Stress axis : x y z
#
# Youngs Moduli (GPa) = 72.75843 87.97767 90.36496
#
# Poissons Ratio (x) = 0.02072 -0.01966
# Poissons Ratio (y) = 0.01714 0.17563
# Poissons Ratio (z) = -0.01583 0.17099
#
# Static dielectric constant tensor:
#      x y z
#    x 2.053950 0.000000 -0.070270 
#    y 0.000000 2.015950 0.000000 
#    z -0.070270 0.000000 1.992470 
# 
# From -- ./inp_files/80876.got.cif
#   From: 2010.05.17/outbox.cif.g08.bks.cpg/sg10_41_cif.got.tgz:80876.got - 2010.06.03 11:33:40.
