data_PCOD9153811
_publ_section_title
;
Structure prediction by ZEFSAII (Michael W. Deem and Ramdas Pophale) SiO2 
 PCOD9153811
Probable space group: P 2/M
;
_chemical_formula_sum "Si O2"
_cell_formula_units_Z 28
_cell_length_a 15.340289
_cell_length_b 8.867975
_cell_length_c 11.934118
_cell_angle_alpha 90.000000
_cell_angle_beta 53.390108
_cell_angle_gamma 90.000000
_cell_volume 1303.195139
_symmetry_space_group_name_H-M "P 2/M"
_symmetry_group_IT_number 10
_symmetry_cell_setting 'monoclinic'
loop_
_space_group_symop_operation_xyz
x,y,z
-x,y,-z
-x,-y,-z
x,-y,z
loop_
_atom_site_type_symbol
_atom_site_label
_atom_site_fract_x
_atom_site_fract_y
_atom_site_fract_z
Si Si1 0.395545 0.830519 0.003471
Si Si2 0.448179 0.319340 0.728322
Si Si3 0.234503 0.677778 0.290968
Si Si4 0.205242 0.319230 0.893703
Si Si5 0.089551 0.681800 0.210555
Si Si6 0.888430 0.174175 0.245442
Si Si7 0.671726 0.174640 0.554831
O O1 0.320339 0.714143 0.127435
O O2 0.347631 0.000000 0.025246
O O3 0.500000 0.847928 0.000000
O O4 0.436073 0.757923 0.858245
O O5 0.454075 0.500000 0.731562
O O6 0.330211 0.280931 0.767134
O O7 0.563300 0.259315 0.596011
O O8 0.227030 0.500000 0.320408
O O9 0.125833 0.730215 0.307839
O O10 0.278692 0.759173 0.367541
O O11 0.195424 0.500000 0.896139
O O12 0.124708 0.246823 0.866292
O O13 0.172180 0.272709 0.045724
O O14 0.089143 0.500000 0.212937
O O15 0.974151 0.741648 0.258423
O O16 0.770107 0.183701 0.392569
O O17 0.920420 0.000000 0.211862
O O18 0.642594 0.000000 0.596253
#
# Coordination Sequence:
#
# PCOD9153811 Si02
#       7
#     4   4   4   4   4   4   4
#     4  11  21  33  55  90 128 163 196 242 309 365
#     4  11  22  38  63  93 123 158 205 251 301 364
#     4  11  22  38  63  93 123 158 205 251 301 364
#     4  10  22  42  66  93 123 155 199 259 312 356
#     4  10  22  42  66  93 123 155 199 259 312 356
#     4  11  26  44  62  87 122 165 210 254 301 366
#     4  11  25  43  59  87 130 167 203 248 305 363
#
# _framework density 21.485652999999999
#
# number of rings (size 3 to 8) (size 9 to 14) (size 15 to 20)
#    0.000    1.286    2.857    2.571    0.000    8.571 
#    0.000    5.714    0.000    0.000    0.000    0.000 
#    0.000    0.000    0.000    0.000    0.000    0.000 
#
# Total GULP energy -156362.021428 kJ/mol
# GULP energy per Si atom -5584.357908 kJ/mol
# Density = 2.143675 g / cm^3
# Si number density = 21.485653 Si / 1000 Ang^3
#
#
#
# Elastic Constant Matrix: (Units=GPa)
#
#
# Indices 1 2 3 4 5 6 
#
# 1 91.6101 28.7908 2.9778 0.0000 -14.2416 0.0000
# 2 28.7908 39.2265 10.6111 0.0000 -5.9456 0.0000
# 3 2.9778 10.6111 28.7169 0.0000 -7.6131 0.0000
# 4 0.0000 0.0000 0.0000 11.8728 0.0000 -22.7021
# 5 -14.2416 -5.9456 -7.6131 0.0000 14.9358 0.0000
# 6 0.0000 0.0000 0.0000 -22.7021 0.0000 -14.0851
#
#
#
# Elastic Compliance Matrix: (Units=1/GPa)
#
#
# Indices 1 2 3 4 5 6 
#
# 1 0.016662 -0.011782 0.006468 0.000000 0.014494 0.000000
# 2 -0.011782 0.037278 -0.013409 0.000000 -0.003229 0.000000
# 3 0.006468 -0.013409 0.045471 0.000000 0.024007 0.000000
# 4 0.000000 0.000000 0.000000 0.020634 0.000000 -0.033258
# 5 0.014494 -0.003229 0.024007 0.000000 0.091725 0.000000
# 6 0.000000 0.000000 0.000000 -0.033258 0.000000 -0.017393
#
#
# Mechanical properties :
#
#
# Convention : Reuss Voigt Hill
#
# Bulk Modulus (GPa) = 16.13795 27.14589 21.64192
# Shear Modulus (GPa) = 19.80375 10.35627 15.08001
#
# Velocity S-wave (km/s) = 3.03928 2.19785 2.65215
# Velocity P-wave (km/s) = 4.45462 4.37065 4.41283
#
# Compressibility (1/GPa) = 0.06196575
#
# Stress axis : x y z
#
# Youngs Moduli (GPa) = 60.01853 26.82534 21.99194
#
# Poissons Ratio (x) = 0.31605 -0.14225
# Poissons Ratio (y) = 0.70713 0.29489
# Poissons Ratio (z) = -0.38821 0.35970
#
# Static dielectric constant tensor:
#      x y z
#    x 1.815930 0.000000 -0.026530 
#    y 0.000000 1.741680 0.000000 
#    z -0.026530 0.000000 1.789350 
# 
# From -- ./inp_files/49660.got.cif
#   From: 2010.05.17/outbox.cif.g08.bks.cpg/sg10_25_cif.got.tgz:49660.got - 2010.06.03 11:33:40.
