data_PCOD9153590
_publ_section_title
;
Structure prediction by ZEFSAII (Michael W. Deem and Ramdas Pophale) SiO2 
 PCOD9153590
Probable space group: P 2/M
;
_chemical_formula_sum "Si O2"
_cell_formula_units_Z 26
_cell_length_a 8.812368
_cell_length_b 16.003910
_cell_length_c 11.418736
_cell_angle_alpha 90.000000
_cell_angle_beta 119.121517
_cell_angle_gamma 90.000000
_cell_volume 1406.838270
_symmetry_space_group_name_H-M "P 2/M"
_symmetry_group_IT_number 10
_symmetry_cell_setting 'monoclinic'
loop_
_space_group_symop_operation_xyz
x,y,z
-x,y,-z
-x,-y,-z
x,-y,z
loop_
_atom_site_type_symbol
_atom_site_label
_atom_site_fract_x
_atom_site_fract_y
_atom_site_fract_z
Si Si1 0.000000 0.668484 0.500000
Si Si2 0.500000 0.282683 0.500000
Si Si3 0.318796 0.902479 0.861193
Si Si4 0.211791 0.500000 0.156603
Si Si5 0.397330 0.645804 0.075896
Si Si6 0.353854 0.766034 0.681359
Si Si7 0.866676 0.641882 0.693285
Si Si8 0.086817 0.225227 0.906469
O O1 0.165445 0.726047 0.589987
O O2 0.047170 0.619264 0.399033
O O3 0.554732 0.227758 0.409860
O O4 0.337077 0.341331 0.405881
O O5 0.340087 0.850185 0.750029
O O6 0.168279 0.856761 0.878761
O O7 0.283930 0.000000 0.829554
O O8 0.500000 0.894290 0.000000
O O9 0.311945 0.572997 0.119020
O O10 0.115005 0.572661 0.200453
O O11 0.532840 0.699379 0.203193
O O12 0.500000 0.615373 0.000000
O O13 0.245604 0.709659 0.980956
O O14 0.950558 0.727824 0.771158
O O15 0.000000 0.210330 0.000000
#
# Coordination Sequence:
#
# PCOD9153590 Si02
#       8
#     2   2   4   2   4   4   4   4
#     4  10  22  39  65  84 120 174 212 240 305 377
#     4  10  22  39  65  84 122 176 210 242 303 377
#     4  11  23  41  70  99 123 153 203 259 309 379
#     4  12  25  39  58  97 124 158 219 264 299 353
#     4  12  22  40  63  91 124 166 209 256 313 371
#     4  11  19  42  64  91 120 168 205 245 315 367
#     4  11  23  39  61  90 122 167 209 259 301 358
#     4  12  21  39  68  91 125 162 200 250 324 373
#
# _framework density 18.481158000000001
#
# number of rings (size 3 to 8) (size 9 to 14) (size 15 to 20)
#    0.000    0.769    7.692    0.231    0.000    2.154 
#    0.000    3.077    0.000    0.000    0.000    0.000 
#    0.000    0.000    0.000    0.000    0.000    0.000 
#
# Total GULP energy -144745.901485 kJ/mol
# GULP energy per Si atom -5567.150057 kJ/mol
# Density = 1.843909 g / cm^3
# Si number density = 18.481158 Si / 1000 Ang^3
#
#
#
# Elastic Constant Matrix: (Units=GPa)
#
#
# Indices 1 2 3 4 5 6 
#
# 1 134.7951 38.2321 33.0301 0.0000 -37.1184 0.0000
# 2 38.2321 105.0514 10.2122 0.0000 -16.8021 0.0000
# 3 33.0301 10.2122 50.2158 0.0000 -1.4783 0.0000
# 4 0.0000 0.0000 0.0000 66.9697 0.0000 107.0950
# 5 -37.1184 -16.8021 -1.4783 0.0000 57.6643 0.0000
# 6 0.0000 0.0000 0.0000 107.0950 0.0000 59.5390
#
#
#
# Elastic Compliance Matrix: (Units=1/GPa)
#
#
# Indices 1 2 3 4 5 6 
#
# 1 0.011650 -0.002510 -0.006959 0.000000 0.006590 0.000000
# 2 -0.002510 0.010719 -0.000485 0.000000 0.001495 0.000000
# 3 -0.006959 -0.000485 0.024472 0.000000 -0.003993 0.000000
# 4 0.000000 0.000000 0.000000 -0.007958 0.000000 0.014314
# 5 0.006590 0.001495 -0.003993 0.000000 0.021917 0.000000
# 6 0.000000 0.000000 0.000000 0.014314 0.000000 -0.008951
#
#
# Mechanical properties :
#
#
# Convention : Reuss Voigt Hill
#
# Bulk Modulus (GPa) = 37.12703 50.33455 43.73079
# Shear Modulus (GPa) = 61.93120 50.74046 56.33583
#
# Velocity S-wave (km/s) = 5.79510 5.24546 5.52712
# Velocity P-wave (km/s) = 8.05670 7.99882 8.02781
#
# Compressibility (1/GPa) = 0.02693456
#
# Stress axis : x y z
#
# Youngs Moduli (GPa) = 85.83563 93.29401 40.86246
#
# Poissons Ratio (x) = 0.23412 0.28435
# Poissons Ratio (y) = 0.21541 0.01982
# Poissons Ratio (z) = 0.59731 0.04526
#
# Static dielectric constant tensor:
#      x y z
#    x 1.649690 0.000000 -0.006480 
#    y 0.000000 1.578860 0.000000 
#    z -0.006480 0.000000 1.683970 
# 
# From -- ./inp_files/42852.got.cif
#   From: 2010.05.17/outbox.cif.g08.bks.cpg/sg10_22_cif.got.tgz:42852.got - 2010.06.03 11:33:40.
