data_PCOD9153375
_publ_section_title
;
Structure prediction by ZEFSAII (Michael W. Deem and Ramdas Pophale) SiO2 
 PCOD9153375
Probable space group: P 2/M
;
_chemical_formula_sum "Si O2"
_cell_formula_units_Z 32
_cell_length_a 27.471651
_cell_length_b 7.785714
_cell_length_c 21.327902
_cell_angle_alpha 90.000000
_cell_angle_beta 19.643029
_cell_angle_gamma 90.000000
_cell_volume 1533.472642
_symmetry_space_group_name_H-M "P 2/M"
_symmetry_group_IT_number 10
_symmetry_cell_setting 'monoclinic'
loop_
_space_group_symop_operation_xyz
x,y,z
-x,y,-z
-x,-y,-z
x,-y,z
loop_
_atom_site_type_symbol
_atom_site_label
_atom_site_fract_x
_atom_site_fract_y
_atom_site_fract_z
Si Si1 0.037067 0.796330 0.219715
Si Si2 0.232109 0.290004 0.203595
Si Si3 0.489880 0.697547 0.201130
Si Si4 0.642782 0.200102 0.141408
Si Si5 0.960149 0.707495 0.448962
Si Si6 0.455058 0.701412 0.486321
Si Si7 0.838766 0.208207 0.216455
Si Si8 0.819592 0.201567 0.381443
O O1 0.953706 0.771905 0.386272
O O2 0.944842 0.723724 0.273863
O O3 0.054065 0.000000 0.188105
O O4 0.199058 0.727513 0.033485
O O5 0.235081 0.500000 0.198771
O O6 0.167624 0.237882 0.348946
O O7 0.111753 0.238355 0.297856
O O8 0.391303 0.229694 0.991306
O O9 0.461670 0.500000 0.218723
O O10 0.569158 0.706216 0.172407
O O11 0.335035 0.783938 0.397230
O O12 0.541360 0.211047 0.325101
O O13 0.656695 0.000000 0.105911
O O14 0.960341 0.500000 0.447422
O O15 0.500000 0.768682 0.500000
O O16 0.492269 0.500000 0.438839
O O17 0.285534 0.723677 0.678237
O O18 0.811182 0.271555 0.321041
O O19 0.827891 0.000000 0.228299
O O20 0.000000 0.255541 0.000000
O O21 0.851814 0.000000 0.334446
#
# Coordination Sequence:
#
# PCOD9153375 Si02
#       8
#     4   4   4   4   4   4   4   4
#     4  10  22  37  55  83 118 150 188 237 285 333
#     4   8  16  30  53  82 112 146 186 234 285 337
#     4  11  20  35  59  86 113 147 189 236 286 336
#     4  11  22  37  60  86 113 149 191 234 281 337
#     4   9  16  32  55  80 111 148 189 235 284 335
#     4  11  25  42  60  88 121 149 184 238 288 329
#     4  10  22  40  64  87 112 153 196 230 276 338
#     4  10  22  40  57  80 116 153 190 233 277 336
#
# _framework density 20.86767
#
# number of rings (size 3 to 8) (size 9 to 14) (size 15 to 20)
#    0.000    2.000    2.500    1.875    1.750    2.250 
#    0.000    3.125    0.000    3.750    0.000    0.000 
#    0.000    0.000    0.000    0.000    0.000    0.000 
#
# Total GULP energy -178706.124646 kJ/mol
# GULP energy per Si atom -5584.566395 kJ/mol
# Density = 2.082017 g / cm^3
# Si number density = 20.867670 Si / 1000 Ang^3
#
#
#
# Elastic Constant Matrix: (Units=GPa)
#
#
# Indices 1 2 3 4 5 6 
#
# 1 69.5714 -7.4891 21.2222 0.0000 -17.9627 0.0000
# 2 -7.4891 29.8312 -10.7853 0.0000 -1.4505 0.0000
# 3 21.2222 -10.7853 86.4220 0.0000 1.2094 0.0000
# 4 0.0000 0.0000 0.0000 8.9759 0.0000 4.4322
# 5 -17.9627 -1.4505 1.2094 0.0000 27.3888 0.0000
# 6 0.0000 0.0000 0.0000 4.4322 0.0000 13.8862
#
#
#
# Elastic Compliance Matrix: (Units=1/GPa)
#
#
# Indices 1 2 3 4 5 6 
#
# 1 0.019595 0.003935 -0.004506 0.000000 0.013259 0.000000
# 2 0.003935 0.035972 0.003462 0.000000 0.004333 0.000000
# 3 -0.004506 0.003462 0.013157 0.000000 -0.003353 0.000000
# 4 0.000000 0.000000 0.000000 0.132254 0.000000 -0.042213
# 5 0.013259 0.004333 -0.003353 0.000000 0.045584 0.000000
# 6 0.000000 0.000000 0.000000 -0.042213 0.000000 0.085487
#
#
# Mechanical properties :
#
#
# Convention : Reuss Voigt Hill
#
# Bulk Modulus (GPa) = 13.42181 21.30226 17.36203
# Shear Modulus (GPa) = 14.24081 22.24197 18.24139
#
# Velocity S-wave (km/s) = 2.61518 3.26829 2.95980
# Velocity P-wave (km/s) = 3.94521 4.94699 4.47423
#
# Compressibility (1/GPa) = 0.07450562
#
# Stress axis : x y z
#
# Youngs Moduli (GPa) = 51.03296 27.79926 76.00653
#
# Poissons Ratio (x) = -0.10938 0.34251
# Poissons Ratio (y) = -0.20080 -0.26316
# Poissons Ratio (z) = 0.22997 -0.09625
#
# Static dielectric constant tensor:
#      x y z
#    x 1.733000 0.000000 0.001600 
#    y 0.000000 1.762940 0.000000 
#    z 0.001600 0.000000 1.743630 
# 
# From -- ./inp_files/86863.got.cif
#   From: 2010.05.17/outbox.cif.g08.bks.cpg/sg10_44_cif.got.tgz:86863.got - 2010.06.03 11:33:40.
