data_PCOD9153334
_publ_section_title
;
Structure prediction by ZEFSAII (Michael W. Deem and Ramdas Pophale) SiO2 
 PCOD9153334
Probable space group: P 2/M
;
_chemical_formula_sum "Si O2"
_cell_formula_units_Z 32
_cell_length_a 12.891029
_cell_length_b 28.407578
_cell_length_c 5.283301
_cell_angle_alpha 90.000000
_cell_angle_beta 74.053208
_cell_angle_gamma 90.000000
_cell_volume 1860.305323
_symmetry_space_group_name_H-M "P 2/M"
_symmetry_group_IT_number 10
_symmetry_cell_setting 'monoclinic'
loop_
_space_group_symop_operation_xyz
x,y,z
-x,y,-z
-x,-y,-z
x,-y,z
loop_
_atom_site_type_symbol
_atom_site_label
_atom_site_fract_x
_atom_site_fract_y
_atom_site_fract_z
Si Si1 0.868547 0.945707 0.086377
Si Si2 0.130604 0.723452 0.923324
Si Si3 0.131653 0.110423 0.413788
Si Si4 0.130565 0.781516 0.420750
Si Si5 0.886146 0.448739 0.441766
Si Si6 0.760064 0.371905 0.263947
Si Si7 0.565632 0.373388 0.714289
Si Si8 0.323719 0.552589 0.068027
O O1 0.834680 0.919195 0.363835
O O2 0.833493 0.000000 0.100785
O O3 0.834726 0.916189 0.863679
O O4 0.000000 0.946252 0.000000
O O5 0.160204 0.751731 0.648453
O O6 0.191955 0.673993 0.896427
O O7 0.160604 0.754776 0.144657
O O8 0.000000 0.716237 0.000000
O O9 0.168493 0.164498 0.402152
O O10 0.000000 0.111160 0.500000
O O11 0.000000 0.783634 0.500000
O O12 0.882427 0.500000 0.310692
O O13 0.858169 0.405002 0.285928
O O14 0.791233 0.449315 0.713046
O O15 0.000000 0.443981 0.500000
O O16 0.685407 0.356334 0.552359
O O17 0.689573 0.407225 0.135770
O O18 0.500000 0.368273 0.500000
O O19 0.592577 0.427075 0.781653
O O20 0.500000 0.352865 0.000000
O O21 0.349558 0.500000 0.959731
#
# Coordination Sequence:
#
# PCOD9153334 Si02
#       8
#     4   4   4   4   4   4   4   4
#     4   9  15  21  32  53  76 105 146 194 247 292
#     4  10  22  33  51  72  97 123 159 201 244 293
#     4   9  15  24  38  50  77 112 147 193 241 288
#     4   9  18  32  44  64  87 121 161 196 242 293
#     4   9  20  35  52  75 106 138 164 190 231 293
#     4  11  23  36  57  77 105 126 164 199 248 288
#     4  11  23  43  60  80 102 128 157 193 242 295
#     4  10  22  38  57  81 105 129 161 194 235 300
#
# _framework density 17.201477000000001
#
# number of rings (size 3 to 8) (size 9 to 14) (size 15 to 20)
#    0.000    2.250    1.250    1.500    5.250    6.000 
#    0.000    1.875    0.000    0.000    0.000    0.000 
#    0.000    0.000    0.000    0.000    0.000    0.000 
#
# Total GULP energy -178345.605520 kJ/mol
# GULP energy per Si atom -5573.300173 kJ/mol
# Density = 1.716233 g / cm^3
# Si number density = 17.201477 Si / 1000 Ang^3
#
#
#
# Elastic Constant Matrix: (Units=GPa)
#
#
# Indices 1 2 3 4 5 6 
#
# 1 18.5490 8.3330 14.3733 0.0000 5.6248 0.0000
# 2 8.3330 129.1739 56.6002 0.0000 16.7479 0.0000
# 3 14.3733 56.6002 100.4802 0.0000 27.4807 0.0000
# 4 0.0000 0.0000 0.0000 24.1834 0.0000 6.0297
# 5 5.6248 16.7479 27.4807 0.0000 22.7263 0.0000
# 6 0.0000 0.0000 0.0000 6.0297 0.0000 3.3137
#
#
#
# Elastic Compliance Matrix: (Units=1/GPa)
#
#
# Indices 1 2 3 4 5 6 
#
# 1 0.061334 -0.000060 -0.006873 0.000000 -0.006825 0.000000
# 2 -0.000060 0.010290 -0.005555 0.000000 -0.000851 0.000000
# 3 -0.006873 -0.005555 0.018646 0.000000 -0.016752 0.000000
# 4 0.000000 0.000000 0.000000 0.075692 0.000000 -0.137731
# 5 -0.006825 -0.000851 -0.016752 0.000000 0.066575 0.000000
# 6 0.000000 0.000000 0.000000 -0.137731 0.000000 0.552397
#
#
# Mechanical properties :
#
#
# Convention : Reuss Voigt Hill
#
# Bulk Modulus (GPa) = 15.31548 45.20178 30.25863
# Shear Modulus (GPa) = 6.01198 21.30446 13.65822
#
# Velocity S-wave (km/s) = 1.87153 3.52309 2.82088
# Velocity P-wave (km/s) = 3.68688 6.54862 5.31401
#
# Compressibility (1/GPa) = 0.06529340
#
# Stress axis : x y z
#
# Youngs Moduli (GPa) = 16.30424 97.18496 53.63095
#
# Poissons Ratio (x) = 0.00585 0.36861
# Poissons Ratio (y) = 0.00098 0.29791
# Poissons Ratio (z) = 0.11206 0.53984
#
# Static dielectric constant tensor:
#      x y z
#    x 1.596830 0.000000 0.011910 
#    y 0.000000 1.579790 0.000000 
#    z 0.011910 0.000000 1.636290 
# 
# From -- ./inp_files/8074.got.cif
#   From: 2010.05.17/outbox.cif.g08.bks.cpg/sg10_5_cif.got.tgz:8074.got - 2010.06.03 11:33:40.
