data_PCOD9153661
_publ_section_title
;
Structure prediction by ZEFSAII (Michael W. Deem and Ramdas Pophale) SiO2 
 PCOD9153661
Probable space group: P 2/M
;
_chemical_formula_sum "Si O2"
_cell_formula_units_Z 32
_cell_length_a 22.986470
_cell_length_b 8.925569
_cell_length_c 15.332757
_cell_angle_alpha 90.000000
_cell_angle_beta 148.449449
_cell_angle_gamma 90.000000
_cell_volume 1646.031745
_symmetry_space_group_name_H-M "P 2/M"
_symmetry_group_IT_number 10
_symmetry_cell_setting 'monoclinic'
loop_
_space_group_symop_operation_xyz
x,y,z
-x,y,-z
-x,-y,-z
x,-y,z
loop_
_atom_site_type_symbol
_atom_site_label
_atom_site_fract_x
_atom_site_fract_y
_atom_site_fract_z
Si Si1 0.015694 0.320793 0.755787
Si Si2 0.296115 0.320586 0.423298
Si Si3 0.339407 0.179057 0.930990
Si Si4 0.771063 0.321289 0.374261
Si Si5 0.063205 0.825536 0.172421
Si Si6 0.244442 0.821283 0.000209
Si Si7 0.592274 0.820705 0.276608
Si Si8 0.369498 0.320209 0.324007
O O1 0.026015 0.500000 0.773646
O O2 0.898564 0.283323 0.559959
O O3 0.006939 0.252484 0.841399
O O4 0.122623 0.251745 0.846209
O O5 0.300363 0.500000 0.436051
O O6 0.179464 0.259325 0.309632
O O7 0.389194 0.248374 0.604017
O O8 0.312228 0.279430 0.342753
O O9 0.264538 0.265716 0.766287
O O10 0.304560 0.212274 0.985602
O O11 0.327151 0.000000 0.901197
O O12 0.469382 0.216828 0.085244
O O13 0.759235 0.500000 0.366870
O O14 0.687246 0.244120 0.335331
O O15 0.082632 0.000000 0.219137
O O16 0.000000 0.817985 0.000000
O O17 0.234680 0.000000 0.995930
O O18 0.313276 0.758539 0.170103
O O19 0.601449 0.000000 0.292889
O O20 0.500000 0.284384 0.500000
O O21 0.359456 0.500000 0.299987
#
# Coordination Sequence:
#
# PCOD9153661 Si02
#       8
#     4   4   4   4   4   4   4   4
#     4  11  24  42  63  89 125 163 205 257 313 368
#     4  11  22  36  58  89 123 160 202 249 306 365
#     4  10  24  43  63  91 124 163 207 257 316 372
#     4  11  24  41  64  94 124 160 206 259 316 374
#     4  11  23  38  59  88 119 157 204 249 303 366
#     4  11  24  42  64  91 125 165 213 260 308 369
#     4  11  22  39  64  92 126 163 204 256 313 373
#     4  10  22  40  62  90 126 168 210 254 309 369
#
# _framework density 19.440695000000002
#
# number of rings (size 3 to 8) (size 9 to 14) (size 15 to 20)
#    0.000    1.250    1.250    4.125    0.000    9.750 
#    0.000    2.500    0.000    0.000    0.000    0.000 
#    0.000    0.000    0.000    0.000    0.000    0.000 
#
# Total GULP energy -179006.334999 kJ/mol
# GULP energy per Si atom -5593.947969 kJ/mol
# Density = 1.939645 g / cm^3
# Si number density = 19.440695 Si / 1000 Ang^3
#
#
#
# Elastic Constant Matrix: (Units=GPa)
#
#
# Indices 1 2 3 4 5 6 
#
# 1 78.8187 38.0825 42.7195 0.0000 4.1378 0.0000
# 2 38.0825 59.8928 53.3162 0.0000 -3.1405 0.0000
# 3 42.7195 53.3162 113.0276 0.0000 -4.0257 0.0000
# 4 0.0000 0.0000 0.0000 36.8497 0.0000 -5.9557
# 5 4.1378 -3.1405 -4.0257 0.0000 36.1389 0.0000
# 6 0.0000 0.0000 0.0000 -5.9557 0.0000 41.9289
#
#
#
# Elastic Compliance Matrix: (Units=1/GPa)
#
#
# Indices 1 2 3 4 5 6 
#
# 1 0.019115 -0.009985 -0.002634 0.000000 -0.003350 0.000000
# 2 -0.009985 0.034034 -0.012183 0.000000 0.002744 0.000000
# 3 -0.002634 -0.012183 0.015625 0.000000 0.000983 0.000000
# 4 0.000000 0.000000 0.000000 0.027775 0.000000 0.003945
# 5 -0.003350 0.002744 0.000983 0.000000 0.028403 0.000000
# 6 0.000000 0.000000 0.000000 0.003945 0.000000 0.024410
#
#
# Mechanical properties :
#
#
# Convention : Reuss Voigt Hill
#
# Bulk Modulus (GPa) = 52.16316 57.77504 54.96910
# Shear Modulus (GPa) = 24.34797 30.82488 27.58643
#
# Velocity S-wave (km/s) = 3.54280 3.98626 3.77105
# Velocity P-wave (km/s) = 6.60495 7.13934 6.87734
#
# Compressibility (1/GPa) = 0.01917062
#
# Stress axis : x y z
#
# Youngs Moduli (GPa) = 52.31402 29.38205 64.00180
#
# Poissons Ratio (x) = 0.29339 0.16857
# Poissons Ratio (y) = 0.52237 0.77971
# Poissons Ratio (z) = 0.13779 0.35795
#
# Static dielectric constant tensor:
#      x y z
#    x 1.663790 0.000000 0.000430 
#    y 0.000000 1.649560 0.000000 
#    z 0.000430 0.000000 1.672360 
# 
# From -- ./inp_files/71612.got.cif
#   From: 2010.05.17/outbox.cif.g08.bks.cpg/sg10_36_cif.got.tgz:71612.got - 2010.06.03 11:33:40.
