data_PCOD9153192
_publ_section_title
;
Structure prediction by ZEFSAII (Michael W. Deem and Ramdas Pophale) SiO2 
 PCOD9153192
Probable space group: P 2/M
;
_chemical_formula_sum "Si O2"
_cell_formula_units_Z 17
_cell_length_a 5.045956
_cell_length_b 24.450543
_cell_length_c 5.075759
_cell_angle_alpha 90.000000
_cell_angle_beta 87.413107
_cell_angle_gamma 90.000000
_cell_volume 625.590514
_symmetry_space_group_name_H-M "P 2/M"
_symmetry_group_IT_number 10
_symmetry_cell_setting 'monoclinic'
loop_
_space_group_symop_operation_xyz
x,y,z
-x,y,-z
-x,-y,-z
x,-y,z
loop_
_atom_site_type_symbol
_atom_site_label
_atom_site_fract_x
_atom_site_fract_y
_atom_site_fract_z
Si Si1 0.323072 0.380493 0.268387
Si Si2 0.500000 0.000000 0.500000
Si Si3 0.803702 0.896991 0.752799
Si Si4 0.500000 0.190919 0.500000
Si Si5 0.218376 0.733793 0.175468
Si Si6 0.761016 0.500000 0.810950
O O1 0.500000 0.361713 0.500000
O O2 0.134598 0.329155 0.229529
O O3 0.231691 0.442054 0.336167
O O4 0.500000 0.385993 0.000000
O O5 0.651556 0.952492 0.675574
O O6 0.573902 0.850969 0.732981
O O7 0.000000 0.884333 0.500000
O O8 0.000000 0.901260 0.000000
O O9 0.728245 0.234800 0.556442
O O10 0.500000 0.733348 0.000000
O O11 0.000000 0.761293 0.000000
O O12 0.500000 0.500000 0.000000
O O13 0.000000 0.500000 0.000000
#
# Coordination Sequence:
#
# PCOD9153192 Si02
#       6
#     4   1   4   2   4   2
#     4  10  21  43  65  99 133 180 232 296 362 436
#     4  10  24  46  76 108 144 188 236 292 350 424
#     4  11  26  45  72 105 145 187 238 292 353 418
#     4  11  26  41  68  99 140 189 240 296 352 425
#     4  11  25  44  68  99 141 188 243 299 363 431
#     4  10  21  40  66  96 132 176 228 293 365 435
#
# _framework density 27.174327999999999
#
# number of rings (size 3 to 8) (size 9 to 14) (size 15 to 20)
#    0.000    1.412    1.176    2.471    6.588    3.765 
#    0.000   16.471    0.000    0.000    0.000    0.000 
#    0.000    0.000    0.000    0.000    0.000    0.000 
#
# Total GULP energy -94660.948469 kJ/mol
# GULP energy per Si atom -5568.291086 kJ/mol
# Density = 2.711248 g / cm^3
# Si number density = 27.174328 Si / 1000 Ang^3
#
#
#
# Elastic Constant Matrix: (Units=GPa)
#
#
# Indices 1 2 3 4 5 6 
#
# 1 129.7949 11.9618 70.4850 0.0000 11.7987 0.0000
# 2 11.9618 256.5435 47.4482 0.0000 38.6299 0.0000
# 3 70.4850 47.4482 255.5336 0.0000 58.0459 0.0000
# 4 0.0000 0.0000 0.0000 -20.0251 0.0000 -23.4020
# 5 11.7987 38.6299 58.0459 0.0000 85.2950 0.0000
# 6 0.0000 0.0000 0.0000 -23.4020 0.0000 -38.7569
#
#
#
# Elastic Compliance Matrix: (Units=1/GPa)
#
#
# Indices 1 2 3 4 5 6 
#
# 1 0.009082 -0.000019 -0.002624 0.000000 0.000538 0.000000
# 2 -0.000019 0.004220 -0.000408 0.000000 -0.001631 0.000000
# 3 -0.002624 -0.000408 0.005427 0.000000 -0.003146 0.000000
# 4 0.000000 0.000000 0.000000 -0.169647 0.000000 0.102436
# 5 0.000538 -0.001631 -0.003146 0.000000 0.014529 0.000000
# 6 0.000000 0.000000 0.000000 0.102436 0.000000 -0.087654
#
#
# Mechanical properties :
#
#
# Convention : Reuss Voigt Hill
#
# Bulk Modulus (GPa) = 79.18938 100.18467 89.68702
# Shear Modulus (GPa) = -23.39380 39.43440 8.02030
#
# Velocity S-wave (km/s) = -2.93726 3.81355 1.71984
# Velocity P-wave (km/s) = 4.20728 7.50588 6.08439
#
# Compressibility (1/GPa) = 0.01262796
#
# Stress axis : x y z
#
# Youngs Moduli (GPa) = 110.10559 236.97335 184.24863
#
# Poissons Ratio (x) = 0.00455 0.48344
# Poissons Ratio (y) = 0.00211 0.07513
# Poissons Ratio (z) = 0.28890 0.09663
#
# Static dielectric constant tensor:
#      x y z
#    x 2.377290 0.000000 -0.031100 
#    y 0.000000 2.243000 0.000000 
#    z -0.031100 0.000000 2.185380 
# 
# From -- ./inp_files/2218.got.cif
#   From: 2010.05.17/outbox.cif.g08.bks.cpg/sg10_2_cif.got.tgz:2218.got - 2010.06.03 11:33:40.
