data_PCOD9153246
_publ_section_title
;
Structure prediction by ZEFSAII (Michael W. Deem and Ramdas Pophale) SiO2 
 PCOD9153246
Probable space group: P 2/M
;
_chemical_formula_sum "Si O2"
_cell_formula_units_Z 21
_cell_length_a 9.451506
_cell_length_b 7.571876
_cell_length_c 20.358808
_cell_angle_alpha 90.000000
_cell_angle_beta 39.257392
_cell_angle_gamma 90.000000
_cell_volume 921.991495
_symmetry_space_group_name_H-M "P 2/M"
_symmetry_group_IT_number 10
_symmetry_cell_setting 'monoclinic'
loop_
_space_group_symop_operation_xyz
x,y,z
-x,y,-z
-x,-y,-z
x,-y,z
loop_
_atom_site_type_symbol
_atom_site_label
_atom_site_fract_x
_atom_site_fract_y
_atom_site_fract_z
Si Si1 0.973939 0.786527 0.301510
Si Si2 0.517051 0.795170 0.898847
Si Si3 0.872952 0.796364 0.483055
Si Si4 0.773540 0.286444 0.116585
Si Si5 0.370131 0.292940 0.689562
Si Si6 0.500000 0.500000 0.000000
O O1 0.921570 0.719391 0.393644
O O2 0.794807 0.728218 0.312409
O O3 0.224621 0.734124 0.191920
O O4 0.968187 0.000000 0.304351
O O5 0.428936 0.775160 0.856605
O O6 0.395332 0.656777 0.989580
O O7 0.496391 0.000000 0.925189
O O8 0.608756 0.793771 0.590288
O O9 0.000000 0.715559 0.500000
O O10 0.951816 0.000000 0.450641
O O11 0.777127 0.500000 0.115267
O O12 0.741052 0.226401 0.203013
O O13 0.000000 0.224013 0.000000
O O14 0.416871 0.500000 0.681578
#
# Coordination Sequence:
#
# PCOD9153246 Si02
#       6
#     4   4   4   4   4   1
#     4  10  23  41  64  95 128 167 221 273 326 398
#     4  11  25  44  70  99 130 177 227 270 335 398
#     4  10  21  41  66  90 126 172 215 269 332 393
#     4  10  23  43  65  91 131 177 221 275 336 391
#     4  11  24  38  62  97 130 169 217 271 335 394
#     4  12  26  44  70  98 140 176 212 296 320 396
#
# _framework density 22.776782999999998
#
# number of rings (size 3 to 8) (size 9 to 14) (size 15 to 20)
#    0.000    1.524    0.952    2.571    4.000    6.857 
#    0.000    0.000    0.000    0.000    0.000    0.000 
#    0.000    0.000    0.000    0.000    0.000    0.000 
#
# Total GULP energy -117211.629832 kJ/mol
# GULP energy per Si atom -5581.506182 kJ/mol
# Density = 2.272494 g / cm^3
# Si number density = 22.776783 Si / 1000 Ang^3
#
#
#
# Elastic Constant Matrix: (Units=GPa)
#
#
# Indices 1 2 3 4 5 6 
#
# 1 182.7506 3.3854 58.2438 0.0000 21.3290 0.0000
# 2 3.3854 84.2904 10.8379 0.0000 10.1754 0.0000
# 3 58.2438 10.8379 110.4909 0.0000 18.6150 0.0000
# 4 0.0000 0.0000 0.0000-8219.1816 0.0000 195.7409
# 5 21.3290 10.1754 18.6150 0.0000 47.9754 0.0000
# 6 0.0000 0.0000 0.0000 195.7409 0.0000 19.1636
#
#
#
# Elastic Compliance Matrix: (Units=1/GPa)
#
#
# Indices 1 2 3 4 5 6 
#
# 1 0.006718 0.000368 -0.003275 0.000000 -0.001794 0.000000
# 2 0.000368 0.012264 -0.000996 0.000000 -0.002378 0.000000
# 3 -0.003275 -0.000996 0.011335 0.000000 -0.002731 0.000000
# 4 0.000000 0.000000 0.000000 -0.000098 0.000000 0.001000
# 5 -0.001794 -0.002378 -0.002731 0.000000 0.023206 0.000000
# 6 0.000000 0.000000 0.000000 0.001000 0.000000 0.041972
#
#
# Mechanical properties :
#
#
# Convention : Reuss Voigt Hill
#
# Bulk Modulus (GPa) = 44.42474 58.05178 51.23826
# Shear Modulus (GPa) = 45.16381 -1610.07088 -782.45353
#
# Velocity S-wave (km/s) = 4.45779 -26.61627 -18.55470
# Velocity P-wave (km/s) = 6.78547 30.31543 20.89237
#
# Compressibility (1/GPa) = 0.02250998
#
# Stress axis : x y z
#
# Youngs Moduli (GPa) = 148.84542 81.53841 88.22366
#
# Poissons Ratio (x) = -0.03000 0.28896
# Poissons Ratio (y) = -0.05476 0.08789
# Poissons Ratio (z) = 0.48752 0.08123
#
# Static dielectric constant tensor:
#      x y z
#    x 1.841780 0.000000 0.032290 
#    y 0.000000 1.861350 0.000000 
#    z 0.032290 0.000000 1.889570 
# 
# From -- ./inp_files/81909.got.cif
#   From: 2010.05.17/outbox.cif.g08.bks.cpg/sg10_41_cif.got.tgz:81909.got - 2010.06.03 11:33:40.
