data_PCOD9153130
_publ_section_title
;
Structure prediction by ZEFSAII (Michael W. Deem and Ramdas Pophale) SiO2 
 PCOD9153130
Probable space group: P 2/M
;
_chemical_formula_sum "Si O2"
_cell_formula_units_Z 28
_cell_length_a 9.093075
_cell_length_b 18.372545
_cell_length_c 15.334564
_cell_angle_alpha 90.000000
_cell_angle_beta 31.645631
_cell_angle_gamma 90.000000
_cell_volume 1344.103911
_symmetry_space_group_name_H-M "P 2/M"
_symmetry_group_IT_number 10
_symmetry_cell_setting 'monoclinic'
loop_
_space_group_symop_operation_xyz
x,y,z
-x,y,-z
-x,-y,-z
x,-y,z
loop_
_atom_site_type_symbol
_atom_site_label
_atom_site_fract_x
_atom_site_fract_y
_atom_site_fract_z
Si Si1 0.988495 0.622364 0.101920
Si Si2 0.169157 0.087483 0.176795
Si Si3 0.404787 0.677204 0.378607
Si Si4 0.833665 0.836307 0.500077
Si Si5 0.881592 0.420388 0.347396
Si Si6 0.335984 0.917188 0.676347
Si Si7 0.588624 0.413211 0.795977
O O1 0.900558 0.581304 0.233855
O O2 0.745086 0.682503 0.209911
O O3 0.315322 0.635081 0.956440
O O4 0.000000 0.585310 0.000000
O O5 0.027544 0.137671 0.321899
O O6 0.982947 0.103382 0.184635
O O7 0.125746 0.000000 0.217464
O O8 0.500000 0.099570 0.000000
O O9 0.233554 0.751117 0.457438
O O10 0.327440 0.620703 0.339923
O O11 0.312129 0.640972 0.515299
O O12 0.526533 0.870628 0.643290
O O13 0.000000 0.862517 0.500000
O O14 0.779660 0.500000 0.426824
O O15 0.179418 0.408628 0.245802
O O16 0.500000 0.914270 0.500000
O O17 0.339955 0.000000 0.704684
O O18 0.522181 0.500000 0.821832
#
# Coordination Sequence:
#
# PCOD9153130 Si02
#       7
#     4   4   4   4   4   4   4
#     4  10  23  39  58  82 112 147 191 249 307 359
#     4   9  19  39  66  94 124 160 203 248 294 348
#     4  11  24  40  56  83 121 159 202 249 301 365
#     4  11  22  38  60  88 125 163 202 247 300 361
#     4  11  22  37  60  87 113 149 199 251 308 374
#     4   8  16  33  59  88 118 156 199 238 282 345
#     4  10  21  40  63  84 112 151 198 255 313 367
#
# _framework density 20.831724000000001
#
# number of rings (size 3 to 8) (size 9 to 14) (size 15 to 20)
#    0.000    2.000    0.000    4.286    0.000   13.714 
#    0.000   10.714    0.000    2.571    0.000    0.000 
#    0.000    0.000    0.000    0.000    0.000    0.000 
#
# Total GULP energy -155975.276166 kJ/mol
# GULP energy per Si atom -5570.545577 kJ/mol
# Density = 2.078431 g / cm^3
# Si number density = 20.831724 Si / 1000 Ang^3
#
#
#
# Elastic Constant Matrix: (Units=GPa)
#
#
# Indices 1 2 3 4 5 6 
#
# 1 140.3906 43.4074 47.5721 0.0000 -18.2447 0.0000
# 2 43.4074 46.9792 29.8042 0.0000 -6.7407 0.0000
# 3 47.5721 29.8042 95.4981 0.0000 -26.0392 0.0000
# 4 0.0000 0.0000 0.0000 26.5964 0.0000 -11.0562
# 5 -18.2447 -6.7407 -26.0392 0.0000 44.2859 0.0000
# 6 0.0000 0.0000 0.0000 -11.0562 0.0000 -1.2920
#
#
#
# Elastic Compliance Matrix: (Units=1/GPa)
#
#
# Indices 1 2 3 4 5 6 
#
# 1 0.010642 -0.008134 -0.002269 0.000000 0.001812 0.000000
# 2 -0.008134 0.032794 -0.006831 0.000000 -0.002376 0.000000
# 3 -0.002269 -0.006831 0.015714 0.000000 0.007265 0.000000
# 4 0.000000 0.000000 0.000000 0.008250 0.000000 -0.070601
# 5 0.001812 -0.002376 0.007265 0.000000 0.027237 0.000000
# 6 0.000000 0.000000 0.000000 -0.070601 0.000000 -0.169834
#
#
# Mechanical properties :
#
#
# Convention : Reuss Voigt Hill
#
# Bulk Modulus (GPa) = 40.51172 58.27056 49.39114
# Shear Modulus (GPa) = -153.83683 24.72367 -64.55658
#
# Velocity S-wave (km/s) = -8.60277 3.44877 -5.57287
# Velocity P-wave (km/s) = 8.89874 6.62506 4.20096
#
# Compressibility (1/GPa) = 0.02468421
#
# Stress axis : x y z
#
# Youngs Moduli (GPa) = 93.96627 30.49354 63.63582
#
# Poissons Ratio (x) = 0.24802 0.14437
# Poissons Ratio (y) = 0.76429 0.43468
# Poissons Ratio (z) = 0.21318 0.20829
#
# Static dielectric constant tensor:
#      x y z
#    x 1.784990 0.000000 -0.031400 
#    y 0.000000 1.713090 0.000000 
#    z -0.031400 0.000000 1.815940 
# 
# From -- ./inp_files/62542.got.cif
#   From: 2010.05.17/outbox.cif.g08.bks.cpg/sg10_32_cif.got.tgz:62542.got - 2010.06.03 11:33:40.
