data_PCOD9153136
_publ_section_title
;
Structure prediction by ZEFSAII (Michael W. Deem and Ramdas Pophale) SiO2 
 PCOD9153136
Probable space group: P 2/M
;
_chemical_formula_sum "Si O2"
_cell_formula_units_Z 24
_cell_length_a 14.818917
_cell_length_b 15.834314
_cell_length_c 9.089589
_cell_angle_alpha 90.000000
_cell_angle_beta 34.729949
_cell_angle_gamma 90.000000
_cell_volume 1215.103266
_symmetry_space_group_name_H-M "P 2/M"
_symmetry_group_IT_number 10
_symmetry_cell_setting 'monoclinic'
loop_
_space_group_symop_operation_xyz
x,y,z
-x,y,-z
-x,-y,-z
x,-y,z
loop_
_atom_site_type_symbol
_atom_site_label
_atom_site_fract_x
_atom_site_fract_y
_atom_site_fract_z
Si Si1 0.180868 0.500000 0.296734
Si Si2 0.160761 0.315688 0.459771
Si Si3 0.472662 0.500000 0.709092
Si Si4 0.328575 0.096701 0.808308
Si Si5 0.608798 0.193645 0.001197
Si Si6 0.118380 0.748289 0.984655
Si Si7 0.622002 0.322545 0.550416
O O1 0.199297 0.410462 0.354802
O O2 0.000000 0.500000 0.500000
O O3 0.294226 0.500000 0.004475
O O4 0.234718 0.245141 0.254714
O O5 0.260814 0.306135 0.473182
O O6 0.982108 0.294996 0.749459
O O7 0.500000 0.500000 0.500000
O O8 0.553774 0.415386 0.657490
O O9 0.500000 0.109511 0.500000
O O10 0.281250 0.000000 0.844061
O O11 0.351662 0.113556 0.951848
O O12 0.198141 0.162906 0.922895
O O13 0.500000 0.179846 0.000000
O O14 0.514988 0.254813 0.240141
O O15 0.269443 0.690628 0.737713
O O16 0.000000 0.756890 0.000000
#
# Coordination Sequence:
#
# PCOD9153136 Si02
#       7
#     2   4   2   4   4   4   4
#     4  12  27  39  54  90 130 167 210 262 314 365
#     4  10  23  40  63  88 126 171 206 258 318 366
#     4  12  27  37  58  90 124 167 217 265 303 360
#     4  11  24  42  70  98 126 166 210 263 322 389
#     4  10  21  40  67  96 126 167 214 259 316 376
#     4  10  23  42  67  96 129 168 210 261 321 380
#     4  10  21  40  63  89 120 170 217 255 304 373
#
# _framework density 19.751408999999999
#
# number of rings (size 3 to 8) (size 9 to 14) (size 15 to 20)
#    0.000    1.500    3.333    0.500    7.000    1.333 
#    0.000    4.167    0.000    0.000    0.000    0.000 
#    0.000    0.000    0.000    0.000    0.000    0.000 
#
# Total GULP energy -133882.506436 kJ/mol
# GULP energy per Si atom -5578.437768 kJ/mol
# Density = 1.970645 g / cm^3
# Si number density = 19.751409 Si / 1000 Ang^3
#
#
#
# Elastic Constant Matrix: (Units=GPa)
#
#
# Indices 1 2 3 4 5 6 
#
# 1 40.3530 1.8037 18.3359 0.0000 3.9148 0.0000
# 2 1.8037 86.7640 36.3361 0.0000 0.7381 0.0000
# 3 18.3359 36.3361 171.1420 0.0000 -1.2795 0.0000
# 4 0.0000 0.0000 0.0000 26.9245 0.0000 -1.7767
# 5 3.9148 0.7381 -1.2795 0.0000 19.1320 0.0000
# 6 0.0000 0.0000 0.0000 -1.7767 0.0000 28.7734
#
#
#
# Elastic Compliance Matrix: (Units=1/GPa)
#
#
# Indices 1 2 3 4 5 6 
#
# 1 0.026693 0.000778 -0.003068 0.000000 -0.005697 0.000000
# 2 0.000778 0.012682 -0.002782 0.000000 -0.000835 0.000000
# 3 -0.003068 -0.002782 0.006771 0.000000 0.001188 0.000000
# 4 0.000000 0.000000 0.000000 0.037293 0.000000 0.002303
# 5 -0.005697 -0.000835 0.001188 0.000000 0.053546 0.000000
# 6 0.000000 0.000000 0.000000 0.002303 0.000000 0.034897
#
#
# Mechanical properties :
#
#
# Convention : Reuss Voigt Hill
#
# Bulk Modulus (GPa) = 27.77548 45.69004 36.73276
# Shear Modulus (GPa) = 25.76983 31.08486 28.42735
#
# Velocity S-wave (km/s) = 3.61599 3.97142 3.79787
# Velocity P-wave (km/s) = 5.61489 6.64924 6.15383
#
# Compressibility (1/GPa) = 0.03600297
#
# Stress axis : x y z
#
# Youngs Moduli (GPa) = 37.46278 78.85460 147.68138
#
# Poissons Ratio (x) = -0.06137 0.45304
# Poissons Ratio (y) = -0.02916 0.41087
# Poissons Ratio (z) = 0.11492 0.21938
#
# Static dielectric constant tensor:
#      x y z
#    x 1.721170 0.000000 0.020030 
#    y 0.000000 1.248820 0.000000 
#    z 0.020030 0.000000 1.730700 
# 
# From -- ./inp_files/29354.got.cif
#   From: 2010.05.17/outbox.cif.g08.bks.cpg/sg10_15_cif.got.tgz:29354.got - 2010.06.03 11:33:40.
