data_PCOD9153240
_publ_section_title
;
Structure prediction by ZEFSAII (Michael W. Deem and Ramdas Pophale) SiO2 
 PCOD9153240
Probable space group: P 2/M
;
_chemical_formula_sum "Si O2"
_cell_formula_units_Z 16
_cell_length_a 5.176811
_cell_length_b 8.104882
_cell_length_c 19.521945
_cell_angle_alpha 90.000000
_cell_angle_beta 120.186421
_cell_angle_gamma 90.000000
_cell_volume 708.017237
_symmetry_space_group_name_H-M "P 2/M"
_symmetry_group_IT_number 10
_symmetry_cell_setting 'monoclinic'
loop_
_space_group_symop_operation_xyz
x,y,z
-x,y,-z
-x,-y,-z
x,-y,z
loop_
_atom_site_type_symbol
_atom_site_label
_atom_site_fract_x
_atom_site_fract_y
_atom_site_fract_z
Si Si1 0.351601 0.000000 0.555962
Si Si2 0.081055 0.194599 0.175828
Si Si3 0.145121 0.500000 0.944706
Si Si4 0.629960 0.674823 0.594115
Si Si5 0.776370 0.192176 0.284098
O O1 0.500000 0.000000 0.500000
O O2 0.475387 0.834311 0.606305
O O3 0.000000 0.000000 0.500000
O O4 0.429516 0.235057 0.235000
O O5 0.954608 0.333347 0.108230
O O6 0.902503 0.206593 0.223283
O O7 0.064770 0.000000 0.151104
O O8 0.500000 0.500000 0.000000
O O9 0.000000 0.500000 0.000000
O O10 0.500000 0.666881 0.500000
O O11 0.565494 0.500000 0.619679
O O12 0.983943 0.705220 0.640335
O O13 0.809466 0.000000 0.308853
#
# Coordination Sequence:
#
# PCOD9153240 Si02
#       5
#     2   4   2   4   4
#     4  10  22  40  58  80 120 160 208 272 320 368
#     4  10  24  43  66  98 132 168 210 258 314 382
#     4  12  26  44  72 104 131 166 207 248 318 390
#     4  10  22  39  61  92 126 172 224 275 325 372
#     4  10  21  41  65  91 129 175 218 263 321 371
#
# _framework density 22.598319
#
# number of rings (size 3 to 8) (size 9 to 14) (size 15 to 20)
#    0.000    1.750    1.250    1.500    3.500    5.500 
#    0.000    5.000    0.000    0.000    0.000    0.000 
#    0.000    0.000    0.000    0.000    0.000    0.000 
#
# Total GULP energy -89542.576717 kJ/mol
# GULP energy per Si atom -5596.411045 kJ/mol
# Density = 2.254688 g / cm^3
# Si number density = 22.598319 Si / 1000 Ang^3
#
#
#
# Elastic Constant Matrix: (Units=GPa)
#
#
# Indices 1 2 3 4 5 6 
#
# 1 148.0353 49.5473 65.8240 0.0000 26.5450 0.0000
# 2 49.5473 191.3392 89.4344 0.0000 23.9746 0.0000
# 3 65.8240 89.4344 162.1955 0.0000 26.6006 0.0000
# 4 0.0000 0.0000 0.0000 68.3916 0.0000 12.2049
# 5 26.5450 23.9746 26.6006 0.0000 44.6381 0.0000
# 6 0.0000 0.0000 0.0000 12.2049 0.0000 25.3055
#
#
#
# Elastic Compliance Matrix: (Units=1/GPa)
#
#
# Indices 1 2 3 4 5 6 
#
# 1 0.008733 -0.000600 -0.002676 0.000000 -0.003277 0.000000
# 2 -0.000600 0.007191 -0.003487 0.000000 -0.001427 0.000000
# 3 -0.002676 -0.003487 0.009538 0.000000 -0.002220 0.000000
# 4 0.000000 0.000000 0.000000 0.015999 0.000000 -0.007716
# 5 -0.003277 -0.001427 -0.002220 0.000000 0.026440 0.000000
# 6 0.000000 0.000000 0.000000 -0.007716 0.000000 0.043239
#
#
# Mechanical properties :
#
#
# Convention : Reuss Voigt Hill
#
# Bulk Modulus (GPa) = 83.78440 101.24240 92.51340
# Shear Modulus (GPa) = 38.86665 47.45132 43.15898
#
# Velocity S-wave (km/s) = 4.15166 4.58730 4.37490
# Velocity P-wave (km/s) = 7.75485 8.54142 8.15762
#
# Compressibility (1/GPa) = 0.01193540
#
# Stress axis : x y z
#
# Youngs Moduli (GPa) = 114.50236 139.07215 104.84032
#
# Poissons Ratio (x) = 0.08347 0.28055
# Poissons Ratio (y) = 0.06872 0.36560
# Poissons Ratio (z) = 0.30641 0.48498
#
# Static dielectric constant tensor:
#      x y z
#    x 2.621770 0.000000 -0.515180 
#    y 0.000000 1.896890 0.000000 
#    z -0.515180 0.000000 2.107890 
# 
# From -- ./inp_files/10500.got.cif
#   From: 2010.05.17/outbox.cif.g08.bks.cpg/sg10_6_cif.got.tgz:10500.got - 2010.06.03 11:33:40.
