data_PCOD9153179
_publ_section_title
;
Structure prediction by ZEFSAII (Michael W. Deem and Ramdas Pophale) SiO2 
 PCOD9153179
Probable space group: P 2/M
;
_chemical_formula_sum "Si O2"
_cell_formula_units_Z 24
_cell_length_a 11.651469
_cell_length_b 11.364894
_cell_length_c 12.471025
_cell_angle_alpha 90.000000
_cell_angle_beta 131.660727
_cell_angle_gamma 90.000000
_cell_volume 1233.739481
_symmetry_space_group_name_H-M "P 2/M"
_symmetry_group_IT_number 10
_symmetry_cell_setting 'monoclinic'
loop_
_space_group_symop_operation_xyz
x,y,z
-x,y,-z
-x,-y,-z
x,-y,z
loop_
_atom_site_type_symbol
_atom_site_label
_atom_site_fract_x
_atom_site_fract_y
_atom_site_fract_z
Si Si1 0.152888 0.287116 0.647561
Si Si2 0.833456 0.500000 0.974996
Si Si3 0.790565 0.861114 0.708970
Si Si4 0.310780 0.500000 0.867722
Si Si5 0.673656 0.252586 0.851747
Si Si6 0.870162 0.139716 0.154716
Si Si7 0.650382 0.856512 0.393667
O O1 0.263261 0.386824 0.766471
O O2 0.118584 0.202607 0.725613
O O3 0.219280 0.198641 0.599694
O O4 0.000000 0.341737 0.500000
O O5 0.737008 0.384590 0.886060
O O6 0.799256 0.500000 0.089443
O O7 0.000000 0.500000 0.000000
O O8 0.740716 0.806387 0.787813
O O9 0.692635 0.828904 0.543248
O O10 0.968638 0.834803 0.802226
O O11 0.773223 0.000000 0.708191
O O12 0.500000 0.500000 0.000000
O O13 0.496642 0.218116 0.733809
O O14 0.738211 0.194262 0.999742
O O15 0.851107 0.000000 0.153570
O O16 0.633885 0.000000 0.372610
#
# Coordination Sequence:
#
# PCOD9153179 Si02
#       7
#     4   2   4   2   4   4   4
#     4  12  25  44  69  98 136 182 234 280 340 421
#     4  12  26  45  73  99 137 186 236 296 348 407
#     4  10  21  40  65  95 136 177 214 273 352 419
#     4  12  27  51  72 101 142 191 235 297 353 398
#     4  12  24  42  65  99 134 177 234 287 348 412
#     4  11  22  38  66  97 130 171 223 284 341 407
#     4  11  24  42  68 101 141 182 222 286 361 423
#
# _framework density 19.453053000000001
#
# number of rings (size 3 to 8) (size 9 to 14) (size 15 to 20)
#    0.000    0.667    3.333    5.250    0.000    3.333 
#    0.000    4.167    0.000    0.000    0.000    0.000 
#    0.000    0.000    0.000    0.000    0.000    0.000 
#
# Total GULP energy -133747.893442 kJ/mol
# GULP energy per Si atom -5572.828893 kJ/mol
# Density = 1.940878 g / cm^3
# Si number density = 19.453053 Si / 1000 Ang^3
#
#
#
# Elastic Constant Matrix: (Units=GPa)
#
#
# Indices 1 2 3 4 5 6 
#
# 1 69.5586 -5.8779 30.6086 0.0000 -2.9696 0.0000
# 2 -5.8779 230.5034 104.4608 0.0000 -11.6212 0.0000
# 3 30.6086 104.4608 179.6581 0.0000 4.5096 0.0000
# 4 0.0000 0.0000 0.0000 24.9642 0.0000 -12.1309
# 5 -2.9696 -11.6212 4.5096 0.0000 48.0669 0.0000
# 6 0.0000 0.0000 0.0000 -12.1309 0.0000 18.2735
#
#
#
# Elastic Compliance Matrix: (Units=1/GPa)
#
#
# Indices 1 2 3 4 5 6 
#
# 1 0.016572 0.002481 -0.004317 0.000000 0.002029 0.000000
# 2 0.002481 0.006413 -0.004204 0.000000 0.002098 0.000000
# 3 -0.004317 -0.004204 0.008799 0.000000 -0.002109 0.000000
# 4 0.000000 0.000000 0.000000 0.059133 0.000000 0.039256
# 5 0.002029 0.002098 -0.002109 0.000000 0.021635 0.000000
# 6 0.000000 0.000000 0.000000 0.039256 0.000000 0.080784
#
#
# Mechanical properties :
#
#
# Convention : Reuss Voigt Hill
#
# Bulk Modulus (GPa) = 50.75013 82.01147 66.38080
# Shear Modulus (GPa) = 23.58673 41.62946 32.60810
#
# Velocity S-wave (km/s) = 3.48587 4.63103 4.09864
# Velocity P-wave (km/s) = 6.50745 8.41697 7.52304
#
# Compressibility (1/GPa) = 0.01970438
#
# Stress axis : x y z
#
# Youngs Moduli (GPa) = 60.34132 155.94418 113.65023
#
# Poissons Ratio (x) = -0.38695 0.49065
# Poissons Ratio (y) = -0.14973 0.47778
# Poissons Ratio (z) = 0.26050 0.65558
#
# Static dielectric constant tensor:
#      x y z
#    x 1.768600 0.000000 -0.011220 
#    y 0.000000 1.696080 0.000000 
#    z -0.011220 0.000000 1.651400 
# 
# From -- ./inp_files/46819.got.cif
#   From: 2010.05.17/outbox.cif.g08.bks.cpg/sg10_24_cif.got.tgz:46819.got - 2010.06.03 11:33:40.
