data_PCOD9153961
_publ_section_title
;
Structure prediction by ZEFSAII (Michael W. Deem and Ramdas Pophale) SiO2 
 PCOD9153961
Probable space group: P 2/M
;
_chemical_formula_sum "Si O2"
_cell_formula_units_Z 26
_cell_length_a 5.548159
_cell_length_b 12.129892
_cell_length_c 20.115754
_cell_angle_alpha 90.000000
_cell_angle_beta 64.680982
_cell_angle_gamma 90.000000
_cell_volume 1223.720019
_symmetry_space_group_name_H-M "P 2/M"
_symmetry_group_IT_number 10
_symmetry_cell_setting 'monoclinic'
loop_
_space_group_symop_operation_xyz
x,y,z
-x,y,-z
-x,-y,-z
x,-y,z
loop_
_atom_site_type_symbol
_atom_site_label
_atom_site_fract_x
_atom_site_fract_y
_atom_site_fract_z
Si Si1 0.682658 0.740730 0.044078
Si Si2 0.033069 0.500000 0.791832
Si Si3 0.606270 0.500000 0.116525
Si Si4 0.812621 0.500000 0.453969
Si Si5 0.354811 0.704962 0.705114
Si Si6 0.907450 0.294990 0.586505
Si Si7 0.962533 0.122519 0.329530
Si Si8 0.502330 0.871582 0.193142
O O1 0.654999 0.613364 0.071061
O O2 0.571746 0.824265 0.113035
O O3 0.500000 0.753719 0.000000
O O4 0.000000 0.762047 0.000000
O O5 0.188342 0.500000 0.845125
O O6 0.141107 0.610576 0.744415
O O7 0.711548 0.500000 0.829391
O O8 0.500000 0.500000 0.500000
O O9 0.890106 0.386893 0.409755
O O10 0.000000 0.500000 0.500000
O O11 0.268088 0.796724 0.663451
O O12 0.394216 0.777986 0.767594
O O13 0.623657 0.655585 0.642166
O O14 0.910149 0.176990 0.620882
O O15 0.000000 0.279635 0.500000
O O16 0.186449 0.125367 0.245698
O O17 0.870850 0.000000 0.351085
O O18 0.595120 0.000000 0.192512
#
# Coordination Sequence:
#
# PCOD9153961 Si02
#       8
#     4   2   2   2   4   4   4   4
#     4  12  26  44  71 102 142 180 223 278 345 409
#     4  12  25  40  77 101 136 178 234 279 337 405
#     4  12  24  47  68 104 139 181 218 285 340 411
#     4  10  23  41  68  94 134 180 214 270 348 410
#     4  11  23  42  67 101 133 179 230 286 338 411
#     4  10  24  42  65  98 139 178 225 286 352 411
#     4  10  23  42  70  97 131 183 234 285 340 402
#     4  10  23  44  67  95 136 180 230 284 336 400
#
# _framework density 21.246687999999999
#
# number of rings (size 3 to 8) (size 9 to 14) (size 15 to 20)
#    0.000    1.231    1.538    3.231    8.615    2.154 
#    0.000    0.769    0.000    0.000    0.000    0.000 
#    0.000    0.000    0.000    0.000    0.000    0.000 
#
# Total GULP energy -145089.450797 kJ/mol
# GULP energy per Si atom -5580.363492 kJ/mol
# Density = 2.119833 g / cm^3
# Si number density = 21.246688 Si / 1000 Ang^3
#
#
#
# Elastic Constant Matrix: (Units=GPa)
#
#
# Indices 1 2 3 4 5 6 
#
# 1 83.6820 14.7246 33.4165 0.0000 -10.2505 0.0000
# 2 14.7246 121.9744 37.8334 0.0000 -14.7922 0.0000
# 3 33.4165 37.8334 119.4593 0.0000 -3.6120 0.0000
# 4 0.0000 0.0000 0.0000 12.2658 0.0000 -10.3184
# 5 -10.2505 -14.7922 -3.6120 0.0000 34.2250 0.0000
# 6 0.0000 0.0000 0.0000 -10.3184 0.0000 14.3486
#
#
#
# Elastic Compliance Matrix: (Units=1/GPa)
#
#
# Indices 1 2 3 4 5 6 
#
# 1 0.013922 -0.000059 -0.003762 0.000000 0.003747 0.000000
# 2 -0.000059 0.009567 -0.002898 0.000000 0.003811 0.000000
# 3 -0.003762 -0.002898 0.010302 0.000000 -0.001292 0.000000
# 4 0.000000 0.000000 0.000000 0.206373 0.000000 0.148408
# 5 0.003747 0.003811 -0.001292 0.000000 0.031851 0.000000
# 6 0.000000 0.000000 0.000000 0.148408 0.000000 0.176417
#
#
# Mechanical properties :
#
#
# Convention : Reuss Voigt Hill
#
# Bulk Modulus (GPa) = 49.13623 55.22942 52.18282
# Shear Modulus (GPa) = 10.66882 28.11063 19.38972
#
# Velocity S-wave (km/s) = 2.24328 3.64133 3.02420
# Velocity P-wave (km/s) = 5.46685 6.61286 6.06697
#
# Compressibility (1/GPa) = 0.02035158
#
# Stress axis : x y z
#
# Youngs Moduli (GPa) = 71.82982 104.52946 97.06628
#
# Poissons Ratio (x) = 0.00619 0.36519
# Poissons Ratio (y) = 0.00426 0.28130
# Poissons Ratio (z) = 0.27025 0.30293
#
# Static dielectric constant tensor:
#      x y z
#    x 1.860080 0.000000 0.050730 
#    y 0.000000 1.774830 0.000000 
#    z 0.050730 0.000000 1.807900 
# 
# From -- ./inp_files/81165.got.cif
#   From: 2010.05.17/outbox.cif.g08.bks.cpg/sg10_41_cif.got.tgz:81165.got - 2010.06.03 11:33:40.
