data_PCOD9153312
_publ_section_title
;
Structure prediction by ZEFSAII (Michael W. Deem and Ramdas Pophale) SiO2 
 PCOD9153312
Probable space group: P 2/M
;
_chemical_formula_sum "Si O2"
_cell_formula_units_Z 26
_cell_length_a 11.809449
_cell_length_b 19.674739
_cell_length_c 5.565130
_cell_angle_alpha 90.000000
_cell_angle_beta 123.451419
_cell_angle_gamma 90.000000
_cell_volume 1078.857351
_symmetry_space_group_name_H-M "P 2/M"
_symmetry_group_IT_number 10
_symmetry_cell_setting 'monoclinic'
loop_
_space_group_symop_operation_xyz
x,y,z
-x,y,-z
-x,-y,-z
x,-y,z
loop_
_atom_site_type_symbol
_atom_site_label
_atom_site_fract_x
_atom_site_fract_y
_atom_site_fract_z
Si Si1 0.356799 0.846066 0.417337
Si Si2 0.138920 0.235515 0.952867
Si Si3 0.260994 0.573772 0.539905
Si Si4 0.000000 0.636255 0.000000
Si Si5 0.358980 0.703509 0.944214
Si Si6 0.000000 0.872137 0.500000
Si Si7 0.500000 0.384401 0.500000
Si Si8 0.298750 0.078486 0.842179
O O1 0.500000 0.814965 0.500000
O O2 0.361654 0.883513 0.680377
O O3 0.237969 0.789576 0.280278
O O4 0.326017 0.894245 0.147298
O O5 0.071078 0.308774 0.905601
O O6 0.246200 0.241058 0.860628
O O7 0.031813 0.178553 0.758620
O O8 0.251832 0.500000 0.654857
O O9 0.292294 0.641794 0.722333
O O10 0.394836 0.572385 0.530615
O O11 0.119567 0.589792 0.243260
O O12 0.500000 0.729241 0.000000
O O13 0.404422 0.665180 0.237180
O O14 0.864109 0.914257 0.381979
O O15 0.339098 0.000000 0.879869
#
# Coordination Sequence:
#
# PCOD9153312 Si02
#       8
#     4   4   4   2   4   2   2   4
#     4  11  26  43  70 105 138 183 231 283 347 410
#     4  11  23  42  67  94 135 171 222 280 337 408
#     4  11  24  41  65  96 131 171 225 279 341 414
#     4  12  23  42  66  94 135 176 222 278 350 410
#     4  10  23  41  67  96 126 172 220 276 343 406
#     4  10  23  42  66 102 131 182 228 282 340 412
#     4  10  21  44  64  94 124 172 219 266 348 396
#     4  11  24  45  70 102 141 184 230 285 343 410
#
# _framework density 24.09957
#
# number of rings (size 3 to 8) (size 9 to 14) (size 15 to 20)
#    0.000    1.231    1.538    3.462    1.077   10.769 
#    0.000    4.615    0.000    0.000    0.000    0.000 
#    0.000    0.000    0.000    0.000    0.000    0.000 
#
# Total GULP energy -145348.351032 kJ/mol
# GULP energy per Si atom -5590.321194 kJ/mol
# Density = 2.404472 g / cm^3
# Si number density = 24.099570 Si / 1000 Ang^3
#
#
#
# Elastic Constant Matrix: (Units=GPa)
#
#
# Indices 1 2 3 4 5 6 
#
# 1 97.7812 29.4159 25.8000 0.0000 5.8535 0.0000
# 2 29.4159 104.6195 21.2756 0.0000 -5.2738 0.0000
# 3 25.8000 21.2756 96.2851 0.0000 4.9912 0.0000
# 4 0.0000 0.0000 0.0000 14.3818 0.0000 20.0776
# 5 5.8535 -5.2738 4.9912 0.0000 46.0173 0.0000
# 6 0.0000 0.0000 0.0000 20.0776 0.0000 -2.7471
#
#
#
# Elastic Compliance Matrix: (Units=1/GPa)
#
#
# Indices 1 2 3 4 5 6 
#
# 1 0.011843 -0.002911 -0.002448 0.000000 -0.001575 0.000000
# 2 -0.002911 0.010814 -0.001702 0.000000 0.001794 0.000000
# 3 -0.002448 -0.001702 0.011477 0.000000 -0.001128 0.000000
# 4 0.000000 0.000000 0.000000 0.006206 0.000000 0.045361
# 5 -0.001575 0.001794 -0.001128 0.000000 0.022259 0.000000
# 6 0.000000 0.000000 0.000000 0.045361 0.000000 -0.032492
#
#
# Mechanical properties :
#
#
# Convention : Reuss Voigt Hill
#
# Bulk Modulus (GPa) = 49.97768 50.18544 50.08156
# Shear Modulus (GPa) = 98.23077 26.34334 62.28705
#
# Velocity S-wave (km/s) = 6.39131 3.30980 5.08938
# Velocity P-wave (km/s) = 8.67457 5.95615 7.44056
#
# Compressibility (1/GPa) = 0.02000893
#
# Stress axis : x y z
#
# Youngs Moduli (GPa) = 84.43766 92.47549 87.13417
#
# Poissons Ratio (x) = 0.26923 0.21335
# Poissons Ratio (y) = 0.24583 0.14833
# Poissons Ratio (z) = 0.20674 0.15742
#
# Static dielectric constant tensor:
#      x y z
#    x 1.923220 0.000000 -0.054950 
#    y 0.000000 1.939350 0.000000 
#    z -0.054950 0.000000 1.976700 
# 
# From -- ./inp_files/7812.got.cif
#   From: 2010.05.17/outbox.cif.g08.bks.cpg/sg10_4_cif.got.tgz:7812.got - 2010.06.03 11:33:40.
