data_PCOD9153669
_publ_section_title
;
Structure prediction by ZEFSAII (Michael W. Deem and Ramdas Pophale) SiO2 
 PCOD9153669
Probable space group: P 2/M
;
_chemical_formula_sum "Si O2"
_cell_formula_units_Z 32
_cell_length_a 22.362282
_cell_length_b 8.996415
_cell_length_c 14.583936
_cell_angle_alpha 90.000000
_cell_angle_beta 150.496392
_cell_angle_gamma 90.000000
_cell_volume 1444.932330
_symmetry_space_group_name_H-M "P 2/M"
_symmetry_group_IT_number 10
_symmetry_cell_setting 'monoclinic'
loop_
_space_group_symop_operation_xyz
x,y,z
-x,y,-z
-x,-y,-z
x,-y,z
loop_
_atom_site_type_symbol
_atom_site_label
_atom_site_fract_x
_atom_site_fract_y
_atom_site_fract_z
Si Si1 0.505000 0.325693 0.110556
Si Si2 0.732845 0.672936 0.740545
Si Si3 0.144385 0.174124 0.810811
Si Si4 0.222930 0.327419 0.740094
Si Si5 0.373500 0.322329 0.211246
Si Si6 0.009388 0.325508 0.118096
Si Si7 0.399385 0.824159 0.588855
Si Si8 0.112806 0.826232 0.428095
O O1 0.539255 0.500000 0.153445
O O2 0.589972 0.241710 0.295178
O O3 0.500000 0.268154 0.000000
O O4 0.364771 0.316233 0.956021
O O5 0.713364 0.500000 0.690655
O O6 0.642608 0.712908 0.702562
O O7 0.711464 0.766926 0.620979
O O8 0.868691 0.685913 0.960623
O O9 0.146044 0.229456 0.708248
O O10 0.016413 0.191065 0.691205
O O11 0.177301 0.000000 0.857989
O O12 0.248446 0.270758 0.997862
O O13 0.187248 0.500000 0.697611
O O14 0.204549 0.267752 0.612787
O O15 0.388910 0.500000 0.222486
O O16 0.483952 0.239389 0.310352
O O17 0.044969 0.500000 0.166036
O O18 0.091743 0.235363 0.298082
O O19 0.000000 0.276231 0.000000
O O20 0.401871 0.000000 0.595883
O O21 0.145001 0.000000 0.469705
#
# Coordination Sequence:
#
# PCOD9153669 Si02
#       8
#     4   4   4   4   4   4   4   4
#     4  10  23  44  66  87 116 158 208 257 302 354
#     4  10  22  40  63  90 122 160 202 251 300 358
#     4  11  22  37  60  91 126 161 194 243 308 365
#     4  11  23  39  64  92 120 160 205 251 299 360
#     4  11  21  37  63  91 121 160 201 246 299 359
#     4  10  22  42  66  90 118 158 210 259 300 352
#     4  12  25  39  61  92 126 161 197 248 306 367
#     4  11  24  40  61  90 128 164 196 246 308 367
#
# _framework density 22.146364999999999
#
# number of rings (size 3 to 8) (size 9 to 14) (size 15 to 20)
#    0.000    1.250    2.500    3.375    0.000    8.000 
#    0.000    5.000    0.000    0.000    0.000    0.000 
#    0.000    0.000    0.000    0.000    0.000    0.000 
#
# Total GULP energy -179083.573065 kJ/mol
# GULP energy per Si atom -5596.361658 kJ/mol
# Density = 2.209596 g / cm^3
# Si number density = 22.146365 Si / 1000 Ang^3
#
#
#
# Elastic Constant Matrix: (Units=GPa)
#
#
# Indices 1 2 3 4 5 6 
#
# 1 83.4241 20.0263 6.2468 0.0000 -29.5201 0.0000
# 2 20.0263 67.1644 33.6225 0.0000 -25.3451 0.0000
# 3 6.2468 33.6225 86.6233 0.0000 -33.2443 0.0000
# 4 0.0000 0.0000 0.0000 67.1142 0.0000 -47.4099
# 5 -29.5201 -25.3451 -33.2443 0.0000 42.6291 0.0000
# 6 0.0000 0.0000 0.0000 -47.4099 0.0000 60.3087
#
#
#
# Elastic Compliance Matrix: (Units=1/GPa)
#
#
# Indices 1 2 3 4 5 6 
#
# 1 0.017381 -0.002240 0.005315 0.000000 0.014849 0.000000
# 2 -0.002240 0.020725 -0.005350 0.000000 0.006599 0.000000
# 3 0.005315 -0.005350 0.019165 0.000000 0.015445 0.000000
# 4 0.000000 0.000000 0.000000 0.033507 0.000000 0.026341
# 5 0.014849 0.006599 0.015445 0.000000 0.049710 0.000000
# 6 0.000000 0.000000 0.000000 0.026341 0.000000 0.037288
#
#
# Mechanical properties :
#
#
# Convention : Reuss Voigt Hill
#
# Bulk Modulus (GPa) = 18.96769 39.66700 29.31734
# Shear Modulus (GPa) = 25.01240 45.83147 35.42193
#
# Velocity S-wave (km/s) = 3.36432 4.55409 4.00365
# Velocity P-wave (km/s) = 4.86568 6.75301 5.88549
#
# Compressibility (1/GPa) = 0.05272123
#
# Stress axis : x y z
#
# Youngs Moduli (GPa) = 57.53363 48.25069 52.17757
#
# Poissons Ratio (x) = 0.10806 -0.27731
# Poissons Ratio (y) = 0.12885 0.27917
# Poissons Ratio (z) = -0.30578 0.25816
#
# Static dielectric constant tensor:
#      x y z
#    x 1.862160 0.000000 0.011330 
#    y 0.000000 1.733680 0.000000 
#    z 0.011330 0.000000 1.829950 
# 
# From -- ./inp_files/71655.got.cif
#   From: 2010.05.17/outbox.cif.g08.bks.cpg/sg10_36_cif.got.tgz:71655.got - 2010.06.03 11:33:40.
