data_PCOD9153959
_publ_section_title
;
Structure prediction by ZEFSAII (Michael W. Deem and Ramdas Pophale) SiO2 
 PCOD9153959
Probable space group: P 2/M
;
_chemical_formula_sum "Si O2"
_cell_formula_units_Z 18
_cell_length_a 8.602583
_cell_length_b 13.499213
_cell_length_c 8.169302
_cell_angle_alpha 90.000000
_cell_angle_beta 86.029794
_cell_angle_gamma 90.000000
_cell_volume 946.408856
_symmetry_space_group_name_H-M "P 2/M"
_symmetry_group_IT_number 10
_symmetry_cell_setting 'monoclinic'
loop_
_space_group_symop_operation_xyz
x,y,z
-x,y,-z
-x,-y,-z
x,-y,z
loop_
_atom_site_type_symbol
_atom_site_label
_atom_site_fract_x
_atom_site_fract_y
_atom_site_fract_z
Si Si1 0.590376 0.300696 0.831394
Si Si2 0.076800 0.500000 0.678764
Si Si3 0.948617 0.300496 0.828724
Si Si4 0.000000 0.830597 0.500000
Si Si5 0.348697 0.107814 0.394431
Si Si6 0.444308 0.500000 0.687973
O O1 0.767605 0.326759 0.857224
O O2 0.613042 0.205835 0.712633
O O3 0.505889 0.398809 0.767306
O O4 0.500000 0.269603 0.000000
O O5 0.261125 0.500000 0.674865
O O6 0.000000 0.500000 0.500000
O O7 0.027999 0.403138 0.779431
O O8 0.987476 0.231647 0.669775
O O9 0.000000 0.257830 0.000000
O O10 0.173866 0.881215 0.487051
O O11 0.500000 0.103301 0.500000
O O12 0.343864 0.000000 0.306974
O O13 0.500000 0.500000 0.500000
#
# Coordination Sequence:
#
# PCOD9153959 Si02
#       6
#     4   2   4   2   4   2
#     4  11  24  41  63  93 133 165 214 267 324 389
#     4  12  23  38  59  89 131 169 218 262 318 391
#     4  11  23  39  62  92 125 174 213 264 323 387
#     4  10  23  41  68  92 132 163 218 272 331 386
#     4  10  23  42  69  95 125 173 218 268 329 386
#     4  12  25  38  63  94 128 172 210 265 321 392
#
# _framework density 19.019262999999999
#
# number of rings (size 3 to 8) (size 9 to 14) (size 15 to 20)
#    0.000    1.111    1.111    5.000    9.333    0.444 
#    0.000    0.000    0.000    3.333    0.000    0.000 
#    0.000    0.000    0.000    0.000    0.000    0.000 
#
# Total GULP energy -100245.697722 kJ/mol
# GULP energy per Si atom -5569.205429 kJ/mol
# Density = 1.897597 g / cm^3
# Si number density = 19.019263 Si / 1000 Ang^3
#
#
#
# Elastic Constant Matrix: (Units=GPa)
#
#
# Indices 1 2 3 4 5 6 
#
# 1 191.2350 55.9430 53.1842 0.0000 -17.3080 0.0000
# 2 55.9430 109.0505 33.7681 0.0000 -7.2115 0.0000
# 3 53.1842 33.7681 103.3101 0.0000 -6.4285 0.0000
# 4 0.0000 0.0000 0.0000 -15.3703 0.0000 35.6855
# 5 -17.3080 -7.2115 -6.4285 0.0000 35.9379 0.0000
# 6 0.0000 0.0000 0.0000 35.6855 0.0000 -21.1899
#
#
#
# Elastic Compliance Matrix: (Units=1/GPa)
#
#
# Indices 1 2 3 4 5 6 
#
# 1 0.006915 -0.002598 -0.002564 0.000000 0.002350 0.000000
# 2 -0.002598 0.011256 -0.002305 0.000000 0.000595 0.000000
# 3 -0.002564 -0.002305 0.011779 0.000000 0.000409 0.000000
# 4 0.000000 0.000000 0.000000 0.022358 0.000000 0.037653
# 5 0.002350 0.000595 0.000409 0.000000 0.029150 0.000000
# 6 0.000000 0.000000 0.000000 0.037653 0.000000 0.016218
#
#
# Mechanical properties :
#
#
# Convention : Reuss Voigt Hill
#
# Bulk Modulus (GPa) = 66.59842 76.59847 71.59844
# Shear Modulus (GPa) = 42.51177 17.25556 29.88367
#
# Velocity S-wave (km/s) = 4.73291 3.01536 3.96818
# Velocity P-wave (km/s) = 8.05975 7.24464 7.66304
#
# Compressibility (1/GPa) = 0.01501537
#
# Stress axis : x y z
#
# Youngs Moduli (GPa) = 144.61166 88.84311 84.89996
#
# Poissons Ratio (x) = 0.23081 0.21772
# Poissons Ratio (y) = 0.37569 0.19566
# Poissons Ratio (z) = 0.37085 0.20475
#
# Static dielectric constant tensor:
#      x y z
#    x 1.756160 0.000000 -0.012340 
#    y 0.000000 1.424600 0.000000 
#    z -0.012340 0.000000 1.684900 
# 
# From -- ./inp_files/17816.got.cif
#   From: 2010.05.17/outbox.cif.g08.bks.cpg/sg10_9_cif.got.tgz:17816.got - 2010.06.03 11:33:40.
