data_PCOD9153605
_publ_section_title
;
Structure prediction by ZEFSAII (Michael W. Deem and Ramdas Pophale) SiO2 
 PCOD9153605
Probable space group: P 2/M
;
_chemical_formula_sum "Si O2"
_cell_formula_units_Z 18
_cell_length_a 10.229956
_cell_length_b 12.196704
_cell_length_c 14.632905
_cell_angle_alpha 90.000000
_cell_angle_beta 27.256162
_cell_angle_gamma 90.000000
_cell_volume 836.148435
_symmetry_space_group_name_H-M "P 2/M"
_symmetry_group_IT_number 10
_symmetry_cell_setting 'monoclinic'
loop_
_space_group_symop_operation_xyz
x,y,z
-x,y,-z
-x,-y,-z
x,-y,z
loop_
_atom_site_type_symbol
_atom_site_label
_atom_site_fract_x
_atom_site_fract_y
_atom_site_fract_z
Si Si1 0.000000 0.206740 0.000000
Si Si2 0.927815 0.378624 0.204293
Si Si3 0.596613 0.874928 0.692547
Si Si4 0.155867 0.673143 0.544821
Si Si5 0.579402 0.333417 0.806534
O O1 0.272068 0.136301 0.859499
O O2 0.100302 0.285994 0.854991
O O3 0.865742 0.500000 0.207461
O O4 0.771539 0.359490 0.397971
O O5 0.264005 0.371020 0.023104
O O6 0.794735 0.803985 0.500533
O O7 0.597047 0.799070 0.782973
O O8 0.679702 0.000000 0.651940
O O9 0.350117 0.628155 0.341157
O O10 0.837051 0.638255 0.713128
#
# Coordination Sequence:
#
# PCOD9153605 Si02
#       5
#     2   4   4   4   4
#     4  10  22  40  56  82 114 144 200 242 266 326
#     4  11  22  38  58  80 114 156 189 229 281 324
#     4   9  18  37  62  82 112 151 181 229 287 331
#     4   9  19  36  57  87 115 142 182 231 275 339
#     4   8  19  36  57  85 119 139 180 231 274 339
#
# _framework density 21.527276000000001
#
# number of rings (size 3 to 8) (size 9 to 14) (size 15 to 20)
#    1.333    1.333    0.000    1.333    0.000    5.333 
#    0.000   10.000    0.000    6.667    0.000    0.000 
#    0.000    0.000    0.000    0.000    0.000    0.000 
#
# Total GULP energy -100316.940617 kJ/mol
# GULP energy per Si atom -5573.163368 kJ/mol
# Density = 2.147828 g / cm^3
# Si number density = 21.527276 Si / 1000 Ang^3
#
#
#
# Elastic Constant Matrix: (Units=GPa)
#
#
# Indices 1 2 3 4 5 6 
#
# 1 83.1877 2.5567 25.5585 0.0000 13.7959 0.0000
# 2 2.5567 130.6270 -1.2940 0.0000 7.9420 0.0000
# 3 25.5585 -1.2940 53.7481 0.0000 0.2803 0.0000
# 4 0.0000 0.0000 0.0000 15.8333 0.0000 15.5836
# 5 13.7959 7.9420 0.2803 0.0000 41.2678 0.0000
# 6 0.0000 0.0000 0.0000 15.5836 0.0000 -25.4272
#
#
#
# Elastic Compliance Matrix: (Units=1/GPa)
#
#
# Indices 1 2 3 4 5 6 
#
# 1 0.015036 -0.000063 -0.007125 0.000000 -0.004966 0.000000
# 2 -0.000063 0.007748 0.000224 0.000000 -0.001472 0.000000
# 3 -0.007125 0.000224 0.021988 0.000000 0.002190 0.000000
# 4 0.000000 0.000000 0.000000 0.039395 0.000000 0.024144
# 5 -0.004966 -0.001472 0.002190 0.000000 0.026160 0.000000
# 6 0.000000 0.000000 0.000000 0.024144 0.000000 -0.024531
#
#
# Mechanical properties :
#
#
# Convention : Reuss Voigt Hill
#
# Bulk Modulus (GPa) = 32.42215 35.68947 34.05581
# Shear Modulus (GPa) = 45.45224 22.38424 33.91824
#
# Velocity S-wave (km/s) = 4.59996 3.22810 3.97368
# Velocity P-wave (km/s) = 6.58077 5.52349 6.07517
#
# Compressibility (1/GPa) = 0.03084311
#
# Stress axis : x y z
#
# Youngs Moduli (GPa) = 66.50823 129.06034 45.48012
#
# Poissons Ratio (x) = 0.00812 0.32407
# Poissons Ratio (y) = 0.00419 -0.01019
# Poissons Ratio (z) = 0.47390 -0.02893
#
# Static dielectric constant tensor:
#      x y z
#    x 1.792200 0.000000 -0.022990 
#    y 0.000000 1.781340 0.000000 
#    z -0.022990 0.000000 1.801590 
# 
# From -- ./inp_files/76302.got.cif
#   From: 2010.05.17/outbox.cif.g08.bks.cpg/sg10_39_cif.got.tgz:76302.got - 2010.06.03 11:33:40.
