data_PCOD9153306
_publ_section_title
;
Structure prediction by ZEFSAII (Michael W. Deem and Ramdas Pophale) SiO2 
 PCOD9153306
Probable space group: P 2/M
;
_chemical_formula_sum "Si O2"
_cell_formula_units_Z 15
_cell_length_a 5.139160
_cell_length_b 21.193640
_cell_length_c 5.691964
_cell_angle_alpha 90.000000
_cell_angle_beta 89.982579
_cell_angle_gamma 90.000000
_cell_volume 619.954500
_symmetry_space_group_name_H-M "P 2/M"
_symmetry_group_IT_number 10
_symmetry_cell_setting 'monoclinic'
loop_
_space_group_symop_operation_xyz
x,y,z
-x,y,-z
-x,-y,-z
x,-y,z
loop_
_atom_site_type_symbol
_atom_site_label
_atom_site_fract_x
_atom_site_fract_y
_atom_site_fract_z
Si Si1 0.249558 0.431627 0.832446
Si Si2 0.245232 0.293595 0.646863
Si Si3 0.000000 0.000000 0.000000
Si Si4 0.254012 0.106470 0.338340
Si Si5 0.500000 0.789913 0.000000
O O1 0.257345 0.500000 0.707540
O O2 0.236691 0.368908 0.680980
O O3 0.500000 0.427350 0.000000
O O4 0.000000 0.431001 0.000000
O O5 0.500000 0.279303 0.500000
O O6 0.000000 0.272952 0.500000
O O7 0.286168 0.256203 0.886680
O O8 0.843597 0.054653 0.847124
O O9 0.500000 0.084580 0.500000
O O10 0.366194 0.165184 0.192010
O O11 0.000000 0.119998 0.500000
#
# Coordination Sequence:
#
# PCOD9153306 Si02
#       5
#     4   4   1   4   2
#     4  10  21  43  72 102 143 193 247 316 385 444
#     4  12  28  46  73 109 145 201 258 309 383 456
#     4  12  28  54  88 118 160 194 246 326 364 442
#     4  12  29  53  82 118 154 204 253 304 381 452
#     4  12  30  53  75 112 164 204 250 328 364 450
#
# _framework density 24.195325
#
# number of rings (size 3 to 8) (size 9 to 14) (size 15 to 20)
#    0.000    0.533    1.333    4.800    0.000   15.467 
#    0.000    0.000    0.000    0.000    0.000    0.000 
#    0.000    0.000    0.000    0.000    0.000    0.000 
#
# Total GULP energy -83844.829241 kJ/mol
# GULP energy per Si atom -5589.655283 kJ/mol
# Density = 2.414026 g / cm^3
# Si number density = 24.195325 Si / 1000 Ang^3
#
#
#
# Elastic Constant Matrix: (Units=GPa)
#
#
# Indices 1 2 3 4 5 6 
#
# 1 220.2832 49.8749 80.8623 0.0000 30.1487 0.0000
# 2 49.8749 194.9120 72.1598 0.0000 30.7455 0.0000
# 3 80.8623 72.1598 102.5320 0.0000 42.7082 0.0000
# 4 0.0000 0.0000 0.0000 137.4384 0.0000 106.6057
# 5 30.1487 30.7455 42.7082 0.0000 66.5780 0.0000
# 6 0.0000 0.0000 0.0000 106.6057 0.0000 -37.1636
#
#
#
# Elastic Compliance Matrix: (Units=1/GPa)
#
#
# Indices 1 2 3 4 5 6 
#
# 1 0.006414 0.000311 -0.005469 0.000000 0.000460 0.000000
# 2 0.000311 0.006954 -0.005108 0.000000 -0.000076 0.000000
# 3 -0.005469 -0.005108 0.021352 0.000000 -0.008862 0.000000
# 4 0.000000 0.000000 0.000000 0.002256 0.000000 0.006472
# 5 0.000460 -0.000076 -0.008862 0.000000 0.020531 0.000000
# 6 0.000000 0.000000 0.000000 0.006472 0.000000 -0.008344
#
#
# Mechanical properties :
#
#
# Convention : Reuss Voigt Hill
#
# Bulk Modulus (GPa) = 70.47988 102.61346 86.54667
# Shear Modulus (GPa) = 67.18359 54.35925 60.77142
#
# Velocity S-wave (km/s) = 5.27517 4.74506 5.01712
# Velocity P-wave (km/s) = 8.14224 8.51606 8.33125
#
# Compressibility (1/GPa) = 0.01418845
#
# Stress axis : x y z
#
# Youngs Moduli (GPa) = 155.91647 143.80560 46.83482
#
# Poissons Ratio (x) = -0.04470 0.25612
# Poissons Ratio (y) = -0.04846 0.23921
# Poissons Ratio (z) = 0.85264 0.73450
#
# Static dielectric constant tensor:
#      x y z
#    x 1.876750 0.000000 -0.003150 
#    y 0.000000 1.914230 0.000000 
#    z -0.003150 0.000000 1.948250 
# 
# From -- ./inp_files/1289.got.cif
#   From: 2010.05.17/outbox.cif.g08.bks.cpg/sg10_1_cif.got.tgz:1289.got - 2010.06.03 11:33:40.
