data_PCOD9153920
_publ_section_title
;
Structure prediction by ZEFSAII (Michael W. Deem and Ramdas Pophale) SiO2 
 PCOD9153920
Probable space group: P 2/M
;
_chemical_formula_sum "Si O2"
_cell_formula_units_Z 32
_cell_length_a 12.738964
_cell_length_b 15.095443
_cell_length_c 19.627799
_cell_angle_alpha 90.000000
_cell_angle_beta 153.364845
_cell_angle_gamma 90.000000
_cell_volume 1692.106546
_symmetry_space_group_name_H-M "P 2/M"
_symmetry_group_IT_number 10
_symmetry_cell_setting 'monoclinic'
loop_
_space_group_symop_operation_xyz
x,y,z
-x,y,-z
-x,-y,-z
x,-y,z
loop_
_atom_site_type_symbol
_atom_site_label
_atom_site_fract_x
_atom_site_fract_y
_atom_site_fract_z
Si Si1 0.091874 0.142576 0.448558
Si Si2 0.572503 0.405463 0.119287
Si Si3 0.518292 0.896211 0.429529
Si Si4 0.064918 0.647428 0.457834
Si Si5 0.849495 0.758550 0.843068
Si Si6 0.406484 0.601778 0.241295
Si Si7 0.629731 0.902677 0.253648
Si Si8 0.681988 0.270397 0.939388
O O1 0.226226 0.118419 0.457042
O O2 0.089252 0.248327 0.456948
O O3 0.240122 0.103560 0.597904
O O4 0.828097 0.110165 0.310400
O O5 0.511292 0.500000 0.118573
O O6 0.435064 0.321601 0.067276
O O7 0.847469 0.390585 0.290115
O O8 0.500000 0.412325 0.000000
O O9 0.500000 0.876166 0.500000
O O10 0.340498 0.832770 0.284934
O O11 0.458241 0.000000 0.386148
O O12 0.313988 0.604037 0.587122
O O13 0.000000 0.636723 0.500000
O O14 0.724276 0.663514 0.779739
O O15 0.000000 0.778006 0.000000
O O16 0.044958 0.750118 0.898442
O O17 0.326049 0.500000 0.191954
O O18 0.358836 0.659547 0.145732
O O19 0.453455 0.820959 0.150697
O O20 0.521860 0.000000 0.184171
#
# Coordination Sequence:
#
# PCOD9153920 Si02
#       8
#     4   4   4   4   4   4   4   4
#     4  11  17  35  60  88 124 153 194 253 309 353
#     4  11  24  39  57  85 120 157 194 237 298 365
#     4  11  24  41  62  88 120 162 206 249 304 368
#     4  12  19  36  66  92 118 152 195 254 310 352
#     4  10  23  40  61  86 119 158 204 248 299 352
#     4  11  21  36  62  93 120 150 201 256 298 350
#     4  11  20  33  60  96 124 151 195 257 312 354
#     4  11  21  38  57  86 122 159 193 246 305 356
#
# _framework density 18.911338000000001
#
# number of rings (size 3 to 8) (size 9 to 14) (size 15 to 20)
#    0.000    1.000    6.250    3.000    0.000    5.000 
#    0.000    0.000    0.000    0.750    0.000    0.000 
#    0.000    0.000    0.000    0.000    0.000    0.000 
#
# Total GULP energy -178571.312843 kJ/mol
# GULP energy per Si atom -5580.353526 kJ/mol
# Density = 1.886830 g / cm^3
# Si number density = 18.911338 Si / 1000 Ang^3
#
#
#
# Elastic Constant Matrix: (Units=GPa)
#
#
# Indices 1 2 3 4 5 6 
#
# 1 79.3173 26.4501 33.2365 0.0000 16.2811 0.0000
# 2 26.4501 165.8625 36.6109 0.0000 4.0818 0.0000
# 3 33.2365 36.6109 60.6078 0.0000 7.0711 0.0000
# 4 0.0000 0.0000 0.0000 11.1296 0.0000 -12.0258
# 5 16.2811 4.0818 7.0711 0.0000 24.9028 0.0000
# 6 0.0000 0.0000 0.0000 -12.0258 0.0000 16.6512
#
#
#
# Elastic Compliance Matrix: (Units=1/GPa)
#
#
# Indices 1 2 3 4 5 6 
#
# 1 0.018379 -0.000827 -0.008474 0.000000 -0.009474 0.000000
# 2 -0.000827 0.006994 -0.003827 0.000000 0.000481 0.000000
# 3 -0.008474 -0.003827 0.023518 0.000000 -0.000511 0.000000
# 4 0.000000 0.000000 0.000000 0.409116 0.000000 0.295472
# 5 -0.009474 0.000481 -0.000511 0.000000 0.046416 0.000000
# 6 0.000000 0.000000 0.000000 0.295472 0.000000 0.273451
#
#
# Mechanical properties :
#
#
# Convention : Reuss Voigt Hill
#
# Bulk Modulus (GPa) = 44.18076 55.37586 49.77831
# Shear Modulus (GPa) = 6.16010 24.50274 15.33142
#
# Velocity S-wave (km/s) = 1.80677 3.60344 2.85037
# Velocity P-wave (km/s) = 5.26928 6.83070 6.10015
#
# Compressibility (1/GPa) = 0.02263429
#
# Stress axis : x y z
#
# Youngs Moduli (GPa) = 54.41012 142.98032 42.52097
#
# Poissons Ratio (x) = 0.11829 0.36031
# Poissons Ratio (y) = 0.04502 0.16274
# Poissons Ratio (z) = 0.46105 0.54722
#
# Static dielectric constant tensor:
#      x y z
#    x 1.671960 0.000000 0.029020 
#    y 0.000000 1.416460 0.000000 
#    z 0.029020 0.000000 1.634380 
# 
# From -- ./inp_files/77046.got.cif
#   From: 2010.05.17/outbox.cif.g08.bks.cpg/sg10_39_cif.got.tgz:77046.got - 2010.06.03 11:33:40.
