data_PCOD9153806
_publ_section_title
;
Structure prediction by ZEFSAII (Michael W. Deem and Ramdas Pophale) SiO2 
 PCOD9153806
Probable space group: P 2/M
;
_chemical_formula_sum "Si O2"
_cell_formula_units_Z 24
_cell_length_a 11.823016
_cell_length_b 11.297207
_cell_length_c 17.864150
_cell_angle_alpha 90.000000
_cell_angle_beta 149.547871
_cell_angle_gamma 90.000000
_cell_volume 1209.299850
_symmetry_space_group_name_H-M "P 2/M"
_symmetry_group_IT_number 10
_symmetry_cell_setting 'monoclinic'
loop_
_space_group_symop_operation_xyz
x,y,z
-x,y,-z
-x,-y,-z
x,-y,z
loop_
_atom_site_type_symbol
_atom_site_label
_atom_site_fract_x
_atom_site_fract_y
_atom_site_fract_z
Si Si1 0.253415 0.000000 0.548706
Si Si2 0.495556 0.755405 0.655801
Si Si3 0.063177 0.362062 0.372480
Si Si4 0.728607 0.000000 0.260524
Si Si5 0.819462 0.639101 0.731240
Si Si6 0.717081 0.636825 0.917074
Si Si7 0.597006 0.745179 0.137998
O O1 0.383895 0.884114 0.594397
O O2 0.263742 0.000000 0.644993
O O3 0.987268 0.000000 0.378984
O O4 0.286773 0.666544 0.544810
O O5 0.627261 0.720025 0.656098
O O6 0.662013 0.726330 0.818738
O O7 0.010783 0.500000 0.343342
O O8 0.110945 0.328290 0.313282
O O9 0.853864 0.293377 0.285273
O O10 0.599963 0.883122 0.160700
O O11 0.749308 0.500000 0.691121
O O12 0.036780 0.648895 0.907861
O O13 0.692294 0.500000 0.877946
O O14 0.545196 0.668748 0.884999
O O15 0.500000 0.726516 0.000000
#
# Coordination Sequence:
#
# PCOD9153806 Si02
#       7
#     2   4   4   2   4   4   4
#     4  11  24  42  66  86 124 169 206 274 316 353
#     4  12  23  42  63  92 125 167 218 255 305 374
#     4  11  23  39  65  97 129 164 204 260 321 375
#     4  11  23  46  62  88 123 173 212 256 322 364
#     4  10  22  42  65  91 132 173 201 246 319 382
#     4  11  23  39  65  97 129 164 204 260 321 375
#     4  12  23  41  67  93 126 163 214 261 311 379
#
# _framework density 19.846194000000001
#
# number of rings (size 3 to 8) (size 9 to 14) (size 15 to 20)
#    0.000    0.833    5.000    3.250    0.000    4.000 
#    0.000    6.667    0.000    0.000    0.000    0.000 
#    0.000    0.000    0.000    0.000    0.000    0.000 
#
# Total GULP energy -134208.685788 kJ/mol
# GULP energy per Si atom -5592.028574 kJ/mol
# Density = 1.980102 g / cm^3
# Si number density = 19.846194 Si / 1000 Ang^3
#
#
#
# Elastic Constant Matrix: (Units=GPa)
#
#
# Indices 1 2 3 4 5 6 
#
# 1 69.2176 20.1488 -7.1166 0.0000 20.5744 0.0000
# 2 20.1488 50.5271 -6.1141 0.0000 19.4833 0.0000
# 3 -7.1166 -6.1141 52.6129 0.0000 10.3597 0.0000
# 4 0.0000 0.0000 0.0000 903.6472 0.0000 -391.1752
# 5 20.5744 19.4833 10.3597 0.0000 34.5377 0.0000
# 6 0.0000 0.0000 0.0000 -391.1752 0.0000 177.7618
#
#
#
# Elastic Compliance Matrix: (Units=1/GPa)
#
#
# Indices 1 2 3 4 5 6 
#
# 1 0.019005 -0.002765 0.004433 0.000000 -0.011091 0.000000
# 2 -0.002765 0.027689 0.005946 0.000000 -0.015756 0.000000
# 3 0.004433 0.005946 0.022826 0.000000 -0.012842 0.000000
# 4 0.000000 0.000000 0.000000 0.023341 0.000000 0.051363
# 5 -0.011091 -0.015756 -0.012842 0.000000 0.048301 0.000000
# 6 0.000000 0.000000 0.000000 0.051363 0.000000 0.118652
#
#
# Mechanical properties :
#
#
# Convention : Reuss Voigt Hill
#
# Bulk Modulus (GPa) = 11.79975 20.68821 16.24398
# Shear Modulus (GPa) = 18.32605 234.21863 126.27234
#
# Velocity S-wave (km/s) = 3.04205 10.87534 7.98521
# Velocity P-wave (km/s) = 4.27753 12.96705 9.65509
#
# Compressibility (1/GPa) = 0.08474759
#
# Stress axis : x y z
#
# Youngs Moduli (GPa) = 52.61864 36.11509 43.80968
#
# Poissons Ratio (x) = 0.09987 -0.19421
# Poissons Ratio (y) = 0.14551 -0.26050
# Poissons Ratio (z) = -0.23326 -0.21475
#
# Static dielectric constant tensor:
#      x y z
#    x 1.687970 0.000000 -0.006590 
#    y 0.000000 1.663900 0.000000 
#    z -0.006590 0.000000 1.691700 
# 
# From -- ./inp_files/46556.got.cif
#   From: 2010.05.17/outbox.cif.g08.bks.cpg/sg10_24_cif.got.tgz:46556.got - 2010.06.03 11:33:40.
