data_PCOD9153748
_publ_section_title
;
Structure prediction by ZEFSAII (Michael W. Deem and Ramdas Pophale) SiO2 
 PCOD9153748
Probable space group: P 2/M
;
_chemical_formula_sum "Si O2"
_cell_formula_units_Z 20
_cell_length_a 29.685405
_cell_length_b 7.696164
_cell_length_c 9.476071
_cell_angle_alpha 90.000000
_cell_angle_beta 151.577330
_cell_angle_gamma 90.000000
_cell_volume 1030.450663
_symmetry_space_group_name_H-M "P 2/M"
_symmetry_group_IT_number 10
_symmetry_cell_setting 'monoclinic'
loop_
_space_group_symop_operation_xyz
x,y,z
-x,y,-z
-x,-y,-z
x,-y,z
loop_
_atom_site_type_symbol
_atom_site_label
_atom_site_fract_x
_atom_site_fract_y
_atom_site_fract_z
Si Si1 0.595771 0.295545 0.839281
Si Si2 0.214145 0.198963 0.795233
Si Si3 0.225177 0.205735 0.158745
Si Si4 0.066109 0.500000 0.316712
Si Si5 0.587249 0.790936 0.145601
Si Si6 0.079901 0.500000 0.835760
O O1 0.500000 0.228183 0.500000
O O2 0.602398 0.500000 0.825238
O O3 0.690269 0.213742 0.033453
O O4 0.589832 0.273826 0.991908
O O5 0.135565 0.334345 0.525434
O O6 0.179695 0.000000 0.693395
O O7 0.237147 0.238013 0.023687
O O8 0.318449 0.247345 0.506007
O O9 0.204833 0.000000 0.119608
O O10 0.143910 0.330180 0.992482
O O11 0.983819 0.500000 0.204099
O O12 0.000000 0.500000 0.000000
O O13 0.578984 0.000000 0.112771
O O14 0.500000 0.726110 0.000000
O O15 0.000000 0.500000 0.500000
#
# Coordination Sequence:
#
# PCOD9153748 Si02
#       6
#     4   4   4   2   4   2
#     4  11  24  40  63  96 135 173 212 257 314 385
#     4  11  23  44  69  94 129 171 212 262 323 380
#     4  10  23  41  67  98 127 162 214 265 313 381
#     4  12  28  46  65  94 133 164 217 272 319 384
#     4  10  22  41  64  95 130 167 212 260 314 377
#     4  12  24  44  69  92 123 172 209 266 327 372
#
# _framework density 19.408984
#
# number of rings (size 3 to 8) (size 9 to 14) (size 15 to 20)
#    0.000    1.200    3.000    1.800    4.200    5.200 
#    0.000    0.000    0.000    0.000    0.000    0.000 
#    0.000    0.000    0.000    0.000    0.000    0.000 
#
# Total GULP energy -111720.134184 kJ/mol
# GULP energy per Si atom -5586.006709 kJ/mol
# Density = 1.936481 g / cm^3
# Si number density = 19.408984 Si / 1000 Ang^3
#
#
#
# Elastic Constant Matrix: (Units=GPa)
#
#
# Indices 1 2 3 4 5 6 
#
# 1 170.1884 45.5872 94.4708 0.0000 4.9371 0.0000
# 2 45.5872 87.6875 79.6844 0.0000 6.2662 0.0000
# 3 94.4708 79.6844 171.2259 0.0000 -5.4164 0.0000
# 4 0.0000 0.0000 0.0000 15.5885 0.0000 -16.6421
# 5 4.9371 6.2662 -5.4164 0.0000 42.0121 0.0000
# 6 0.0000 0.0000 0.0000 -16.6421 0.0000 7.0150
#
#
#
# Elastic Compliance Matrix: (Units=1/GPa)
#
#
# Indices 1 2 3 4 5 6 
#
# 1 0.008579 0.000007 -0.004788 0.000000 -0.001627 0.000000
# 2 0.000007 0.020509 -0.009685 0.000000 -0.004308 0.000000
# 3 -0.004788 -0.009685 0.013106 0.000000 0.003697 0.000000
# 4 0.000000 0.000000 0.000000 -0.041854 0.000000 -0.099292
# 5 -0.001627 -0.004308 0.003697 0.000000 0.025113 0.000000
# 6 0.000000 0.000000 0.000000 -0.099292 0.000000 -0.093006
#
#
# Mechanical properties :
#
#
# Convention : Reuss Voigt Hill
#
# Bulk Modulus (GPa) = 75.39850 96.50963 85.95406
# Shear Modulus (GPa) = -146.19542 26.88041 -59.65750
#
# Velocity S-wave (km/s) = -8.68833 3.72552 -5.55012
# Velocity P-wave (km/s) = 7.85608 8.26669 1.81938
#
# Compressibility (1/GPa) = 0.01326286
#
# Stress axis : x y z
#
# Youngs Moduli (GPa) = 116.56443 48.75899 76.30087
#
# Poissons Ratio (x) = -0.00036 0.36534
# Poissons Ratio (y) = -0.00085 0.73895
# Poissons Ratio (z) = 0.55813 0.47222
#
# Static dielectric constant tensor:
#      x y z
#    x 1.625690 0.000000 0.024450 
#    y 0.000000 1.683870 0.000000 
#    z 0.024450 0.000000 1.526150 
# 
# From -- ./inp_files/36854.got.cif
#   From: 2010.05.17/outbox.cif.g08.bks.cpg/sg10_19_cif.got.tgz:36854.got - 2010.06.03 11:33:40.
