data_PCOD9153330
_publ_section_title
;
Structure prediction by ZEFSAII (Michael W. Deem and Ramdas Pophale) SiO2 
 PCOD9153330
Probable space group: P 2/M
;
_chemical_formula_sum "Si O2"
_cell_formula_units_Z 14
_cell_length_a 5.301896
_cell_length_b 19.623444
_cell_length_c 5.301898
_cell_angle_alpha 90.000000
_cell_angle_beta 90.000087
_cell_angle_gamma 90.000000
_cell_volume 551.617205
_symmetry_space_group_name_H-M "P 2/M"
_symmetry_group_IT_number 10
_symmetry_cell_setting 'monoclinic'
loop_
_space_group_symop_operation_xyz
x,y,z
-x,y,-z
-x,-y,-z
x,-y,z
loop_
_atom_site_type_symbol
_atom_site_label
_atom_site_fract_x
_atom_site_fract_y
_atom_site_fract_z
Si Si1 0.237861 0.350428 0.839327
Si Si2 0.500000 0.250000 0.500000
Si Si3 0.839328 0.850428 0.762138
Si Si4 0.670072 0.500000 0.251968
Si Si5 0.748032 0.000000 0.670072
O O1 0.289125 0.299962 0.609870
O O2 0.186334 0.428298 0.753666
O O3 0.500000 0.350240 0.000000
O O4 0.000000 0.328415 0.000000
O O5 0.390127 0.200039 0.289126
O O6 0.000000 0.850240 0.500000
O O7 0.753666 0.928298 0.813666
O O8 0.000000 0.828416 0.000000
O O9 0.500000 0.500000 0.500000
O O10 0.500000 0.500000 0.000000
O O11 0.500000 0.000000 0.500000
O O12 0.000000 0.000000 0.500000
#
# Coordination Sequence:
#
# PCOD9153330 Si02
#       5
#     4   2   4   2   2
#     4  11  27  48  78 112 160 209 270 332 404 480
#     4  12  28  46  76 116 164 210 276 328 420 490
#     4  11  27  48  78 112 160 209 270 332 404 480
#     4  10  21  50  78 115 151 207 268 333 395 476
#     4  10  21  50  78 115 151 207 268 333 395 476
#
# _framework density 25.379918
#
# number of rings (size 3 to 8) (size 9 to 14) (size 15 to 20)
#    0.000    1.143    2.857    0.857    8.000    0.000 
#    0.000    5.714    0.000    0.000    0.000    2.000 
#    0.000    0.000    0.000    0.000    0.000    0.000 
#
# Total GULP energy -78567.101241 kJ/mol
# GULP energy per Si atom -5611.935803 kJ/mol
# Density = 2.532215 g / cm^3
# Si number density = 25.379918 Si / 1000 Ang^3
#
#
#
# Elastic Constant Matrix: (Units=GPa)
#
#
# Indices 1 2 3 4 5 6 
#
# 1 140.0055 45.6197 55.0296 0.0000 1.5602 0.0000
# 2 45.6197 244.1645 45.6192 0.0000 0.0003 0.0000
# 3 55.0296 45.6192 140.0048 0.0000 -1.5599 0.0000
# 4 0.0000 0.0000 0.0000 -27.8854 0.0000 -0.0019
# 5 1.5602 0.0003 -1.5599 0.0000 69.5859 0.0000
# 6 0.0000 0.0000 0.0000 -0.0019 0.0000 -27.8805
#
#
#
# Elastic Compliance Matrix: (Units=1/GPa)
#
#
# Indices 1 2 3 4 5 6 
#
# 1 0.008698 -0.001050 -0.003080 0.000000 -0.000264 0.000000
# 2 -0.001050 0.004488 -0.001050 0.000000 0.000000 0.000000
# 3 -0.003080 -0.001050 0.008698 0.000000 0.000264 0.000000
# 4 0.000000 0.000000 0.000000 -0.035861 0.000000 0.000002
# 5 -0.000264 0.000000 0.000264 0.000000 0.014383 0.000000
# 6 0.000000 0.000000 0.000000 0.000002 0.000000 -0.035867
#
#
# Mechanical properties :
#
#
# Convention : Reuss Voigt Hill
#
# Bulk Modulus (GPa) = 86.76284 90.74575 88.75430
# Shear Modulus (GPa) = -235.16604 27.95775 -103.60415
#
# Velocity S-wave (km/s) = -9.63636 3.32259 -6.39609
# Velocity P-wave (km/s) = 9.46323 7.11000 4.41592
#
# Compressibility (1/GPa) = 0.01152567
#
# Stress axis : x y z
#
# Youngs Moduli (GPa) = 114.96822 222.82336 114.96777
#
# Poissons Ratio (x) = 0.23391 0.35407
# Poissons Ratio (y) = 0.12069 0.12068
# Poissons Ratio (z) = 0.35407 0.23390
#
# Static dielectric constant tensor:
#      x y z
#    x 2.041860 0.000000 0.000020 
#    y 0.000000 2.007890 0.000000 
#    z 0.000020 0.000000 2.041850 
# 
# From -- ./inp_files/796.got.cif
#   From: 2010.05.17/outbox.cif.g08.bks.cpg/sg10_1_cif.got.tgz:796.got - 2010.06.03 11:33:40.
