data_PCOD9153310
_publ_section_title
;
Structure prediction by ZEFSAII (Michael W. Deem and Ramdas Pophale) SiO2 
 PCOD9153310
Probable space group: P 2/M
;
_chemical_formula_sum "Si O2"
_cell_formula_units_Z 16
_cell_length_a 5.381935
_cell_length_b 22.012315
_cell_length_c 5.413800
_cell_angle_alpha 90.000000
_cell_angle_beta 90.146494
_cell_angle_gamma 90.000000
_cell_volume 641.364556
_symmetry_space_group_name_H-M "P 2/M"
_symmetry_group_IT_number 10
_symmetry_cell_setting 'monoclinic'
loop_
_space_group_symop_operation_xyz
x,y,z
-x,y,-z
-x,-y,-z
x,-y,z
loop_
_atom_site_type_symbol
_atom_site_label
_atom_site_fract_x
_atom_site_fract_y
_atom_site_fract_z
Si Si1 0.746864 0.800472 0.855566
Si Si2 0.000000 0.718631 0.500000
Si Si3 0.749969 0.934083 0.664535
Si Si4 0.646327 0.365080 0.248109
Si Si5 0.840131 0.500000 0.248656
O O1 0.788064 0.763849 0.602252
O O2 0.741071 0.873025 0.820165
O O3 0.500000 0.783132 0.000000
O O4 0.000000 0.787352 0.000000
O O5 0.896862 0.673352 0.289327
O O6 0.500000 0.933147 0.500000
O O7 0.000000 0.930811 0.500000
O O8 0.755193 0.000000 0.795936
O O9 0.500000 0.352592 0.500000
O O10 0.691829 0.437246 0.244156
O O11 0.500000 0.349350 0.000000
O O12 0.000000 0.500000 0.500000
O O13 0.000000 0.500000 0.000000
#
# Coordination Sequence:
#
# PCOD9153310 Si02
#       5
#     4   2   4   4   2
#     4  12  29  48  78 112 156 211 271 334 411 491
#     4  12  32  51  73 114 168 204 278 330 410 490
#     4  10  21  43  74 107 148 199 261 336 412 483
#     4  12  29  51  84 116 159 215 269 340 415 492
#     4  12  24  50  82 117 161 202 267 346 414 484
#
# _framework density 24.946808999999998
#
# number of rings (size 3 to 8) (size 9 to 14) (size 15 to 20)
#    0.000    0.500    2.500    3.750    7.000    1.000 
#    0.000    0.000    0.000    0.000    0.000    0.000 
#    0.000    0.000    0.000    0.000    0.000    0.000 
#
# Total GULP energy -89716.642712 kJ/mol
# GULP energy per Si atom -5607.290169 kJ/mol
# Density = 2.489003 g / cm^3
# Si number density = 24.946809 Si / 1000 Ang^3
#
#
#
# Elastic Constant Matrix: (Units=GPa)
#
#
# Indices 1 2 3 4 5 6 
#
# 1 162.2074 45.6027 62.5757 0.0000 -2.7598 0.0000
# 2 45.6027 227.7592 44.9404 0.0000 -0.3514 0.0000
# 3 62.5757 44.9404 138.6131 0.0000 5.2762 0.0000
# 4 0.0000 0.0000 0.0000 23.8864 0.0000 222.1777
# 5 -2.7598 -0.3514 5.2762 0.0000 62.2010 0.0000
# 6 0.0000 0.0000 0.0000 222.1777 0.0000 194.8354
#
#
#
# Elastic Compliance Matrix: (Units=1/GPa)
#
#
# Indices 1 2 3 4 5 6 
#
# 1 0.007659 -0.000904 -0.003188 0.000000 0.000605 0.000000
# 2 -0.000904 0.004799 -0.001151 0.000000 0.000085 0.000000
# 3 -0.003188 -0.001151 0.009061 0.000000 -0.000917 0.000000
# 4 0.000000 0.000000 0.000000 -0.004358 0.000000 0.004969
# 5 0.000605 0.000085 -0.000917 0.000000 0.016182 0.000000
# 6 0.000000 0.000000 0.000000 0.004969 0.000000 -0.000534
#
#
# Mechanical properties :
#
#
# Convention : Reuss Voigt Hill
#
# Bulk Modulus (GPa) = 90.62515 92.75746 91.69131
# Shear Modulus (GPa) = 106.44618 81.21530 93.83074
#
# Velocity S-wave (km/s) = 6.53926 5.71192 6.13954
# Velocity P-wave (km/s) = 9.66551 8.98689 9.33237
#
# Compressibility (1/GPa) = 0.01103446
#
# Stress axis : x y z
#
# Youngs Moduli (GPa) = 130.56532 208.38577 110.35732
#
# Poissons Ratio (x) = 0.18830 0.35178
# Poissons Ratio (y) = 0.11798 0.12704
# Poissons Ratio (z) = 0.41620 0.23988
#
# Static dielectric constant tensor:
#      x y z
#    x 1.970770 0.000000 0.009260 
#    y 0.000000 1.953040 0.000000 
#    z 0.009260 0.000000 1.911760 
# 
# From -- ./inp_files/1325.got.cif
#   From: 2010.05.17/outbox.cif.g08.bks.cpg/sg10_1_cif.got.tgz:1325.got - 2010.06.03 11:33:40.
