data_PCOD9153958
_publ_section_title
;
Structure prediction by ZEFSAII (Michael W. Deem and Ramdas Pophale) SiO2 
 PCOD9153958
Probable space group: P 2/M
;
_chemical_formula_sum "Si O2"
_cell_formula_units_Z 18
_cell_length_a 7.761564
_cell_length_b 20.011907
_cell_length_c 5.062085
_cell_angle_alpha 90.000000
_cell_angle_beta 87.081434
_cell_angle_gamma 90.000000
_cell_volume 785.241905
_symmetry_space_group_name_H-M "P 2/M"
_symmetry_group_IT_number 10
_symmetry_cell_setting 'monoclinic'
loop_
_space_group_symop_operation_xyz
x,y,z
-x,y,-z
-x,-y,-z
x,-y,z
loop_
_atom_site_type_symbol
_atom_site_label
_atom_site_fract_x
_atom_site_fract_y
_atom_site_fract_z
Si Si1 0.356394 0.113447 0.330433
Si Si2 0.500000 0.767000 0.000000
Si Si3 0.208249 0.574700 0.495678
Si Si4 0.207852 0.338663 0.995189
Si Si5 0.836781 0.922494 0.166968
O O1 0.500000 0.077304 0.500000
O O2 0.432609 0.184267 0.235616
O O3 0.205703 0.115398 0.559965
O O4 0.303692 0.080485 0.057875
O O5 0.334987 0.722846 0.933723
O O6 0.276994 0.500000 0.445277
O O7 0.247267 0.604219 0.777975
O O8 0.000000 0.570101 0.500000
O O9 0.255145 0.629068 0.272851
O O10 0.000000 0.323685 0.000000
O O11 0.869421 0.000000 0.233797
O O12 0.000000 0.893376 0.000000
#
# Coordination Sequence:
#
# PCOD9153958 Si02
#       5
#     4   2   4   4   4
#     4  12  25  46  68 100 136 184 224 278 347 398
#     4  12  28  46  66  96 142 184 238 280 322 414
#     4   9  18  37  65  97 129 167 221 283 348 408
#     4  10  23  41  66  93 129 180 224 279 341 397
#     4  11  25  47  74 105 136 171 225 290 351 417
#
# _framework density 22.922872000000002
#
# number of rings (size 3 to 8) (size 9 to 14) (size 15 to 20)
#    0.000    1.333    2.222    2.000    3.111    8.000 
#    4.000    3.333    0.000    0.000    0.000    0.000 
#    0.000    0.000    0.000    0.000    0.000    0.222 
#
# Total GULP energy -100536.180985 kJ/mol
# GULP energy per Si atom -5585.343388 kJ/mol
# Density = 2.287070 g / cm^3
# Si number density = 22.922872 Si / 1000 Ang^3
#
#
#
# Elastic Constant Matrix: (Units=GPa)
#
#
# Indices 1 2 3 4 5 6 
#
# 1 82.9963 36.8349 26.8301 0.0000 -17.3894 0.0000
# 2 36.8349 100.7825 26.5726 0.0000 -25.4815 0.0000
# 3 26.8301 26.5726 124.3412 0.0000 -26.5135 0.0000
# 4 0.0000 0.0000 0.0000 -2.2311 0.0000 20.4966
# 5 -17.3894 -25.4815 -26.5135 0.0000 42.3528 0.0000
# 6 0.0000 0.0000 0.0000 20.4966 0.0000 -99.9188
#
#
#
# Elastic Compliance Matrix: (Units=1/GPa)
#
#
# Indices 1 2 3 4 5 6 
#
# 1 0.015104 -0.004438 -0.001798 0.000000 0.002406 0.000000
# 2 -0.004438 0.013152 -0.000640 0.000000 0.005690 0.000000
# 3 -0.001798 -0.000640 0.009610 0.000000 0.004893 0.000000
# 4 0.000000 0.000000 0.000000 0.506750 0.000000 0.103951
# 5 0.002406 0.005690 0.004893 0.000000 0.031086 0.000000
# 6 0.000000 0.000000 0.000000 0.103951 0.000000 0.011316
#
#
# Mechanical properties :
#
#
# Convention : Reuss Voigt Hill
#
# Bulk Modulus (GPa) = 41.46762 54.28835 47.87799
# Shear Modulus (GPa) = 8.21280 2.56607 5.38944
#
# Velocity S-wave (km/s) = 1.89488 1.05918 1.53500
# Velocity P-wave (km/s) = 4.78715 5.02298 4.90648
#
# Compressibility (1/GPa) = 0.02411520
#
# Stress axis : x y z
#
# Youngs Moduli (GPa) = 66.20971 76.03584 104.05416
#
# Poissons Ratio (x) = 0.33744 0.18705
# Poissons Ratio (y) = 0.29383 0.06656
# Poissons Ratio (z) = 0.11902 0.04864
#
# Static dielectric constant tensor:
#      x y z
#    x 2.039670 0.000000 -0.007640 
#    y 0.000000 1.819090 0.000000 
#    z -0.007640 0.000000 1.848470 
# 
# From -- ./inp_files/4126.got.cif
#   From: 2010.05.17/outbox.cif.g08.bks.cpg/sg10_3_cif.got.tgz:4126.got - 2010.06.03 11:33:40.
