data_PCOD9153803
_publ_section_title
;
Structure prediction by ZEFSAII (Michael W. Deem and Ramdas Pophale) SiO2 
 PCOD9153803
Probable space group: P 2/M
;
_chemical_formula_sum "Si O2"
_cell_formula_units_Z 32
_cell_length_a 11.329736
_cell_length_b 13.260587
_cell_length_c 15.860250
_cell_angle_alpha 90.000000
_cell_angle_beta 142.384493
_cell_angle_gamma 90.000000
_cell_volume 1454.381457
_symmetry_space_group_name_H-M "P 2/M"
_symmetry_group_IT_number 10
_symmetry_cell_setting 'monoclinic'
loop_
_space_group_symop_operation_xyz
x,y,z
-x,y,-z
-x,-y,-z
x,-y,z
loop_
_atom_site_type_symbol
_atom_site_label
_atom_site_fract_x
_atom_site_fract_y
_atom_site_fract_z
Si Si1 0.019803 0.699462 0.176377
Si Si2 0.567601 0.789047 0.341016
Si Si3 0.720533 0.881269 0.589845
Si Si4 0.774010 0.386732 0.356631
Si Si5 0.728047 0.104508 0.107179
Si Si6 0.822705 0.853337 0.962116
Si Si7 0.273125 0.322575 0.852542
Si Si8 0.402579 0.393002 0.353795
O O1 0.142661 0.796869 0.286280
O O2 0.177200 0.620951 0.237912
O O3 0.869279 0.646919 0.153693
O O4 0.897821 0.742882 0.029786
O O5 0.702598 0.854276 0.480026
O O6 0.672203 0.715841 0.332782
O O7 0.384452 0.851793 0.201294
O O8 0.477000 0.703201 0.348187
O O9 0.500000 0.871367 0.500000
O O10 0.773905 0.000000 0.634811
O O11 0.717376 0.500000 0.354777
O O12 0.750986 0.384398 0.244060
O O13 0.000000 0.375710 0.500000
O O14 0.791610 0.204948 0.190427
O O15 0.813598 0.000000 0.187783
O O16 0.500000 0.101430 0.000000
O O17 0.773956 0.109190 0.031745
O O18 0.000000 0.891591 0.000000
O O19 0.500000 0.322841 0.000000
O O20 0.500000 0.391810 0.500000
O O21 0.447115 0.500000 0.338749
#
# Coordination Sequence:
#
# PCOD9153803 Si02
#       8
#     4   4   4   4   4   4   4   4
#     4  11  20  41  62  92 127 163 208 266 307 378
#     4  12  21  43  62  91 131 165 201 266 320 374
#     4  11  22  39  64  92 126 167 210 254 311 375
#     4  11  25  42  64  92 122 161 210 264 322 379
#     4   9  19  37  60  88 121 165 213 256 305 373
#     4  11  22  36  64  91 134 172 208 259 331 380
#     4  10  22  42  65  88 120 167 210 261 309 369
#     4  11  22  37  64  94 119 165 211 254 315 379
#
# _framework density 22.002481
#
# number of rings (size 3 to 8) (size 9 to 14) (size 15 to 20)
#    0.000    1.250    3.750    3.375    0.000    3.500 
#    0.000    3.750    0.000    1.500    0.000    0.000 
#    0.000    0.000    0.000    0.000    0.000    0.000 
#
# Total GULP energy -178181.929075 kJ/mol
# GULP energy per Si atom -5568.185284 kJ/mol
# Density = 2.195240 g / cm^3
# Si number density = 22.002481 Si / 1000 Ang^3
#
#
#
# Elastic Constant Matrix: (Units=GPa)
#
#
# Indices 1 2 3 4 5 6 
#
# 1 137.1767 18.3008 1.2402 0.0000 0.7331 0.0000
# 2 18.3008 75.6684 5.9870 0.0000 -4.5050 0.0000
# 3 1.2402 5.9870 60.3256 0.0000 1.3265 0.0000
# 4 0.0000 0.0000 0.0000 -26.7161 0.0000 -107.3458
# 5 0.7331 -4.5050 1.3265 0.0000 21.2624 0.0000
# 6 0.0000 0.0000 0.0000 -107.3458 0.0000 -294.3711
#
#
#
# Elastic Compliance Matrix: (Units=1/GPa)
#
#
# Indices 1 2 3 4 5 6 
#
# 1 0.007542 -0.001867 0.000045 0.000000 -0.000658 0.000000
# 2 -0.001867 0.013964 -0.001416 0.000000 0.003111 0.000000
# 3 0.000045 -0.001416 0.016746 0.000000 -0.001346 0.000000
# 4 0.000000 0.000000 0.000000 0.080458 0.000000 -0.029340
# 5 -0.000658 0.003111 -0.001346 0.000000 0.047797 0.000000
# 6 0.000000 0.000000 0.000000 -0.029340 0.000000 0.007302
#
#
# Mechanical properties :
#
#
# Convention : Reuss Voigt Hill
#
# Bulk Modulus (GPa) = 31.47011 36.02519 33.74765
# Shear Modulus (GPa) = 26.19473 -43.45544 -8.63036
#
# Velocity S-wave (km/s) = 3.45416 -4.44895 -1.98267
# Velocity P-wave (km/s) = 5.49930 3.15944 3.18279
#
# Compressibility (1/GPa) = 0.03177619
#
# Stress axis : x y z
#
# Youngs Moduli (GPa) = 132.59017 71.61108 59.71610
#
# Poissons Ratio (x) = 0.13368 -0.00267
# Poissons Ratio (y) = 0.24752 0.08455
# Poissons Ratio (z) = -0.00593 0.10140
#
# Static dielectric constant tensor:
#      x y z
#    x 1.870090 0.000000 -0.017520 
#    y 0.000000 1.823620 0.000000 
#    z -0.017520 0.000000 1.774100 
# 
# From -- ./inp_files/65119.got.cif
#   From: 2010.05.17/outbox.cif.g08.bks.cpg/sg10_33_cif.got.tgz:65119.got - 2010.06.03 11:33:40.
