data_PCOD9153048
_publ_section_title
;
Structure prediction by ZEFSAII (Michael W. Deem and Ramdas Pophale) SiO2 
 PCOD9153048
Probable space group: P 2/M
;
_chemical_formula_sum "Si O2"
_cell_formula_units_Z 28
_cell_length_a 11.888507
_cell_length_b 8.829430
_cell_length_c 15.368725
_cell_angle_alpha 90.000000
_cell_angle_beta 117.903619
_cell_angle_gamma 90.000000
_cell_volume 1425.674585
_symmetry_space_group_name_H-M "P 2/M"
_symmetry_group_IT_number 10
_symmetry_cell_setting 'monoclinic'
loop_
_space_group_symop_operation_xyz
x,y,z
-x,y,-z
-x,-y,-z
x,-y,z
loop_
_atom_site_type_symbol
_atom_site_label
_atom_site_fract_x
_atom_site_fract_y
_atom_site_fract_z
Si Si1 0.084485 0.818207 0.115233
Si Si2 0.876512 0.182663 0.513223
Si Si3 0.636673 0.320605 0.809345
Si Si4 0.629302 0.172785 0.991430
Si Si5 0.741537 0.326091 0.191341
Si Si6 0.034102 0.673912 0.281736
Si Si7 0.623135 0.818949 0.316929
O O1 0.228418 0.756058 0.162562
O O2 0.033987 0.756591 0.188950
O O3 0.085089 0.000000 0.116043
O O4 0.000000 0.770112 0.000000
O O5 0.885546 0.246578 0.613735
O O6 0.742276 0.226333 0.420657
O O7 0.000000 0.230957 0.500000
O O8 0.119087 0.000000 0.482184
O O9 0.644711 0.500000 0.801867
O O10 0.513406 0.256272 0.714103
O O11 0.614018 0.273872 0.901357
O O12 0.727276 0.248684 0.092684
O O13 0.664303 0.000000 0.980039
O O14 0.500000 0.168129 0.000000
O O15 0.695344 0.500000 0.172256
O O16 0.666854 0.232168 0.236579
O O17 0.890298 0.326045 0.265799
O O18 0.074399 0.500000 0.283462
O O19 0.609048 0.000000 0.313878
#
# Coordination Sequence:
#
# PCOD9153048 Si02
#       7
#     4   4   4   4   4   4   4
#     4  11  25  46  71  95 124 167 217 263 311 377
#     4  10  21  39  64  94 128 170 216 263 316 376
#     4  12  25  41  63  90 127 166 207 262 322 380
#     4  11  22  35  55  84 120 161 205 252 305 373
#     4  11  22  35  56  89 126 163 203 254 316 375
#     4  11  24  40  63  95 130 166 209 264 321 377
#     4  11  22  38  61  90 126 165 209 258 310 374
#
# _framework density 19.639827
#
# number of rings (size 3 to 8) (size 9 to 14) (size 15 to 20)
#    0.000    1.000    2.857    4.286    0.000    7.143 
#    0.000    0.714    0.000    4.286    0.000    0.000 
#    0.000    0.000    0.000    0.000    0.000    0.000 
#
# Total GULP energy -156447.257548 kJ/mol
# GULP energy per Si atom -5587.402055 kJ/mol
# Density = 1.959513 g / cm^3
# Si number density = 19.639827 Si / 1000 Ang^3
#
#
#
# Elastic Constant Matrix: (Units=GPa)
#
#
# Indices 1 2 3 4 5 6 
#
# 1 75.0402 27.4623 40.0664 0.0000 15.5433 0.0000
# 2 27.4623 68.4548 43.0428 0.0000 10.4368 0.0000
# 3 40.0664 43.0428 138.3767 0.0000 18.8727 0.0000
# 4 0.0000 0.0000 0.0000 32.5215 0.0000 -7.2882
# 5 15.5433 10.4368 18.8727 0.0000 33.6395 0.0000
# 6 0.0000 0.0000 0.0000 -7.2882 0.0000 35.2126
#
#
#
# Elastic Compliance Matrix: (Units=1/GPa)
#
#
# Indices 1 2 3 4 5 6 
#
# 1 0.017603 -0.004375 -0.003045 0.000000 -0.005068 0.000000
# 2 -0.004375 0.019471 -0.004593 0.000000 -0.001443 0.000000
# 3 -0.003045 -0.004593 0.009909 0.000000 -0.002727 0.000000
# 4 0.000000 0.000000 0.000000 0.032245 0.000000 0.006674
# 5 -0.005068 -0.001443 -0.002727 0.000000 0.034046 0.000000
# 6 0.000000 0.000000 0.000000 0.006674 0.000000 0.029780
#
#
# Mechanical properties :
#
#
# Convention : Reuss Voigt Hill
#
# Bulk Modulus (GPa) = 43.55850 55.89052 49.72451
# Shear Modulus (GPa) = 28.61530 31.69472 30.15501
#
# Velocity S-wave (km/s) = 3.82121 4.02157 3.92267
# Velocity P-wave (km/s) = 6.45722 7.07697 6.77419
#
# Compressibility (1/GPa) = 0.02295763
#
# Stress axis : x y z
#
# Youngs Moduli (GPa) = 56.80976 51.35788 100.91863
#
# Poissons Ratio (x) = 0.22467 0.30728
# Poissons Ratio (y) = 0.24852 0.46354
# Poissons Ratio (z) = 0.17298 0.23590
#
# Static dielectric constant tensor:
#      x y z
#    x 1.721270 0.000000 0.027040 
#    y 0.000000 1.672940 0.000000 
#    z 0.027040 0.000000 1.696600 
# 
# From -- ./inp_files/49654.got.cif
#   From: 2010.05.17/outbox.cif.g08.bks.cpg/sg10_25_cif.got.tgz:49654.got - 2010.06.03 11:33:40.
