data_PCOD9153880
_publ_section_title
;
Structure prediction by ZEFSAII (Michael W. Deem and Ramdas Pophale) SiO2 
 PCOD9153880
Probable space group: P 2/M
;
_chemical_formula_sum "Si O2"
_cell_formula_units_Z 25
_cell_length_a 23.253377
_cell_length_b 9.914956
_cell_length_c 7.190702
_cell_angle_alpha 90.000000
_cell_angle_beta 54.074396
_cell_angle_gamma 90.000000
_cell_volume 1342.501892
_symmetry_space_group_name_H-M "P 2/M"
_symmetry_group_IT_number 10
_symmetry_cell_setting 'monoclinic'
loop_
_space_group_symop_operation_xyz
x,y,z
-x,y,-z
-x,-y,-z
x,-y,z
loop_
_atom_site_type_symbol
_atom_site_label
_atom_site_fract_x
_atom_site_fract_y
_atom_site_fract_z
Si Si1 0.496736 0.278854 0.210252
Si Si2 0.114980 0.844561 0.060582
Si Si3 0.986313 0.655380 0.249475
Si Si4 0.618301 0.654916 0.274473
Si Si5 0.250708 0.156802 0.068205
Si Si6 0.500000 0.000000 0.000000
Si Si7 0.857122 0.156699 0.429726
O O1 0.424389 0.309602 0.456772
O O2 0.561092 0.325293 0.218162
O O3 0.502505 0.120110 0.154488
O O4 0.500000 0.343959 0.000000
O O5 0.139801 0.830922 0.798466
O O6 0.089423 0.000000 0.132164
O O7 0.182717 0.824852 0.062892
O O8 0.052186 0.737663 0.210209
O O9 0.980747 0.500000 0.320865
O O10 0.915006 0.742471 0.404924
O O11 0.000000 0.653495 0.000000
O O12 0.640903 0.500000 0.237987
O O13 0.685018 0.749765 0.111432
O O14 0.219183 0.183572 0.333795
O O15 0.272162 0.000000 0.017266
O O16 0.875178 0.000000 0.440922
#
# Coordination Sequence:
#
# PCOD9153880 Si02
#       7
#     4   4   4   4   4   1   4
#     4   9  21  40  64  92 117 145 192 233 283 329
#     4   9  18  35  53  75 103 140 181 230 281 329
#     4   9  17  30  53  78 101 135 178 227 277 332
#     4  11  24  39  60  87 123 160 186 229 288 347
#     4  10  23  36  54  79 111 146 189 232 272 329
#     4   8  20  38  66 104 106 148 190 244 284 316
#     4   9  18  35  53  75 103 140 181 230 281 329
#
# _framework density 18.621949000000001
#
# number of rings (size 3 to 8) (size 9 to 14) (size 15 to 20)
#    0.480    2.080    0.000    1.440    2.240    7.040 
#    0.000    3.200    0.000    0.000    0.000    0.000 
#    0.000    0.000    0.000    0.000    0.000    0.000 
#
# Total GULP energy -139187.360793 kJ/mol
# GULP energy per Si atom -5567.494432 kJ/mol
# Density = 1.857956 g / cm^3
# Si number density = 18.621949 Si / 1000 Ang^3
#
#
#
# Elastic Constant Matrix: (Units=GPa)
#
#
# Indices 1 2 3 4 5 6 
#
# 1 23.5364 19.9801 29.6264 0.0000 2.6934 0.0000
# 2 19.9801 115.8766 53.0312 0.0000 -18.5880 0.0000
# 3 29.6264 53.0312 102.1471 0.0000 -3.8133 0.0000
# 4 0.0000 0.0000 0.0000 28.0734 0.0000 -48.0824
# 5 2.6934 -18.5880 -3.8133 0.0000 31.8638 0.0000
# 6 0.0000 0.0000 0.0000 -48.0824 0.0000 110.1712
#
#
#
# Elastic Compliance Matrix: (Units=1/GPa)
#
#
# Indices 1 2 3 4 5 6 
#
# 1 0.071717 -0.005932 -0.018157 0.000000 -0.011696 0.000000
# 2 -0.005932 0.013046 -0.004771 0.000000 0.007541 0.000000
# 3 -0.018157 -0.004771 0.017565 0.000000 0.000854 0.000000
# 4 0.000000 0.000000 0.000000 0.141072 0.000000 0.061568
# 5 -0.011696 0.007541 0.000854 0.000000 0.036873 0.000000
# 6 0.000000 0.000000 0.000000 0.061568 0.000000 0.035947
#
#
# Mechanical properties :
#
#
# Convention : Reuss Voigt Hill
#
# Bulk Modulus (GPa) = 22.41802 49.64839 36.03320
# Shear Modulus (GPa) = 12.85973 43.28316 28.07144
#
# Velocity S-wave (km/s) = 2.63072 4.82634 3.88679
# Velocity P-wave (km/s) = 4.61435 7.60113 6.28766
#
# Compressibility (1/GPa) = 0.04460696
#
# Stress axis : x y z
#
# Youngs Moduli (GPa) = 13.94361 76.65315 56.93184
#
# Poissons Ratio (x) = 0.45473 1.03374
# Poissons Ratio (y) = 0.08272 0.27161
# Poissons Ratio (z) = 0.25318 0.36570
#
# Static dielectric constant tensor:
#      x y z
#    x 1.630110 0.000000 0.043540 
#    y 0.000000 1.626590 0.000000 
#    z 0.043540 0.000000 1.659190 
# 
# From -- ./inp_files/35663.got.cif
#   From: 2010.05.17/outbox.cif.g08.bks.cpg/sg10_18_cif.got.tgz:35663.got - 2010.06.03 11:33:40.
