data_PCOD9153800
_publ_section_title
;
Structure prediction by ZEFSAII (Michael W. Deem and Ramdas Pophale) SiO2 
 PCOD9153800
Probable space group: P 2/M
;
_chemical_formula_sum "Si O2"
_cell_formula_units_Z 17
_cell_length_a 7.360328
_cell_length_b 20.316315
_cell_length_c 8.955125
_cell_angle_alpha 90.000000
_cell_angle_beta 145.519195
_cell_angle_gamma 90.000000
_cell_volume 758.106136
_symmetry_space_group_name_H-M "P 2/M"
_symmetry_group_IT_number 10
_symmetry_cell_setting 'monoclinic'
loop_
_space_group_symop_operation_xyz
x,y,z
-x,y,-z
-x,-y,-z
x,-y,z
loop_
_atom_site_type_symbol
_atom_site_label
_atom_site_fract_x
_atom_site_fract_y
_atom_site_fract_z
Si Si1 0.264099 0.879296 0.984500
Si Si2 0.100665 0.651075 0.395933
Si Si3 0.690802 0.573473 0.895088
Si Si4 0.000000 0.000000 0.000000
Si Si5 0.766376 0.203746 0.485558
O O1 0.196215 0.942529 0.038189
O O2 0.431598 0.821970 0.195418
O O3 0.500000 0.891658 0.000000
O O4 0.926730 0.851411 0.697047
O O5 0.394739 0.600376 0.599110
O O6 0.217347 0.724091 0.432034
O O7 0.000000 0.653802 0.500000
O O8 0.805548 0.624376 0.099332
O O9 0.619582 0.500000 0.904590
O O10 0.000000 0.569602 0.000000
O O11 0.000000 0.206901 0.500000
#
# Coordination Sequence:
#
# PCOD9153800 Si02
#       5
#     4   4   4   1   4
#     4  10  22  42  64  89 128 166 201 256 313 367
#     4  11  22  40  67  93 120 162 220 269 312 373
#     4  11  24  41  58  88 132 172 206 256 327 388
#     4  12  26  42  64 100 124 162 212 250 296 392
#     4   9  20  41  64  88 122 161 200 251 316 364
#
# _framework density 22.424301
#
# number of rings (size 3 to 8) (size 9 to 14) (size 15 to 20)
#    0.000    1.647    0.000    3.882    0.000   11.294 
#   12.706    3.529    0.000    0.000    0.000    0.000 
#    0.000    0.000    0.000    0.000    0.000    0.000 
#
# Total GULP energy -94769.012640 kJ/mol
# GULP energy per Si atom -5574.647802 kJ/mol
# Density = 2.237326 g / cm^3
# Si number density = 22.424301 Si / 1000 Ang^3
#
#
#
# Elastic Constant Matrix: (Units=GPa)
#
#
# Indices 1 2 3 4 5 6 
#
# 1 79.2887 19.4515 -0.3696 0.0000 -3.1247 0.0000
# 2 19.4515 139.6126 7.0045 0.0000 -12.3045 0.0000
# 3 -0.3696 7.0045 77.3563 0.0000 -1.3703 0.0000
# 4 0.0000 0.0000 0.0000 -46.0660 0.0000 3.7953
# 5 -3.1247 -12.3045 -1.3703 0.0000 21.9970 0.0000
# 6 0.0000 0.0000 0.0000 3.7953 0.0000 18.3716
#
#
#
# Elastic Compliance Matrix: (Units=1/GPa)
#
#
# Indices 1 2 3 4 5 6 
#
# 1 0.013079 -0.001756 0.000237 0.000000 0.000891 0.000000
# 2 -0.001756 0.007798 -0.000642 0.000000 0.004073 0.000000
# 3 0.000237 -0.000642 0.012995 0.000000 0.000484 0.000000
# 4 0.000000 0.000000 0.000000 -0.021345 0.000000 0.004409
# 5 0.000891 0.004073 0.000484 0.000000 0.047896 0.000000
# 6 0.000000 0.000000 0.000000 0.004409 0.000000 0.053521
#
#
# Mechanical properties :
#
#
# Convention : Reuss Voigt Hill
#
# Bulk Modulus (GPa) = 33.83981 38.71450 36.27715
# Shear Modulus (GPa) = 39.02702 16.87192 27.94947
#
# Velocity S-wave (km/s) = 4.17632 2.74596 3.53426
# Velocity P-wave (km/s) = 6.19508 5.23027 5.73301
#
# Compressibility (1/GPa) = 0.02955099
#
# Stress axis : x y z
#
# Youngs Moduli (GPa) = 76.45816 128.23038 76.95228
#
# Poissons Ratio (x) = 0.22513 -0.01826
# Poissons Ratio (y) = 0.13423 0.04943
# Poissons Ratio (z) = -0.01814 0.08237
#
# Static dielectric constant tensor:
#      x y z
#    x 2.062770 0.000000 0.026460 
#    y 0.000000 1.799350 0.000000 
#    z 0.026460 0.000000 1.819490 
# 
# From -- ./inp_files/20070.got.cif
#   From: 2010.05.17/outbox.cif.g08.bks.cpg/sg10_11_cif.got.tgz:20070.got - 2010.06.03 11:33:40.
