data_PCOD9153343
_publ_section_title
;
Structure prediction by ZEFSAII (Michael W. Deem and Ramdas Pophale) SiO2 
 PCOD9153343
Probable space group: P 2/M
;
_chemical_formula_sum "Si O2"
_cell_formula_units_Z 24
_cell_length_a 5.605367
_cell_length_b 21.589804
_cell_length_c 9.747856
_cell_angle_alpha 90.000000
_cell_angle_beta 74.163761
_cell_angle_gamma 90.000000
_cell_volume 1134.899772
_symmetry_space_group_name_H-M "P 2/M"
_symmetry_group_IT_number 10
_symmetry_cell_setting 'monoclinic'
loop_
_space_group_symop_operation_xyz
x,y,z
-x,y,-z
-x,-y,-z
x,-y,z
loop_
_atom_site_type_symbol
_atom_site_label
_atom_site_fract_x
_atom_site_fract_y
_atom_site_fract_z
Si Si1 0.015224 0.756489 0.142759
Si Si2 0.577671 0.688456 0.345335
Si Si3 0.105382 0.567212 0.638072
Si Si4 0.906316 0.861543 0.671877
Si Si5 0.290528 0.632135 0.139995
Si Si6 0.408452 0.928888 0.672709
O O1 0.134016 0.797236 0.243049
O O2 0.158930 0.692048 0.095545
O O3 0.747591 0.736036 0.237781
O O4 0.000000 0.790340 0.000000
O O5 0.500000 0.719318 0.500000
O O6 0.728787 0.627635 0.369774
O O7 0.383842 0.660222 0.269873
O O8 0.227721 0.500000 0.640472
O O9 0.893196 0.577907 0.785552
O O10 0.000000 0.567679 0.500000
O O11 0.643301 0.897322 0.711616
O O12 0.000000 0.852800 0.500000
O O13 0.140098 0.895155 0.711068
O O14 0.500000 0.612153 0.000000
O O15 0.500000 0.929861 0.500000
O O16 0.378092 0.000000 0.722847
#
# Coordination Sequence:
#
# PCOD9153343 Si02
#       6
#     4   4   4   4   4   4
#     4  11  25  40  59  87 123 160 201 257 309 374
#     4  11  23  39  63  87 116 159 201 249 309 371
#     4  10  22  39  60  91 119 149 201 254 306 374
#     4  10  22  35  61  95 124 162 215 261 308 370
#     4  11  23  41  61  85 120 161 199 246 314 375
#     4   9  18  36  60  91 128 165 207 261 313 362
#
# _framework density 21.147243
#
# number of rings (size 3 to 8) (size 9 to 14) (size 15 to 20)
#    0.000    1.667    3.333    0.500    4.667    4.000 
#    0.000    0.833    0.000    3.000    0.000    0.000 
#    0.000    0.000    0.000    0.000    0.000    0.000 
#
# Total GULP energy -133942.674000 kJ/mol
# GULP energy per Si atom -5580.944750 kJ/mol
# Density = 2.109911 g / cm^3
# Si number density = 21.147243 Si / 1000 Ang^3
#
#
#
# Elastic Constant Matrix: (Units=GPa)
#
#
# Indices 1 2 3 4 5 6 
#
# 1 82.6093 23.2592 23.8040 0.0000 4.1020 0.0000
# 2 23.2592 84.6245 14.8192 0.0000 3.9526 0.0000
# 3 23.8040 14.8192 92.9619 0.0000 -10.0635 0.0000
# 4 0.0000 0.0000 0.0000 -0.0623 0.0000 31.0255
# 5 4.1020 3.9526 -10.0635 0.0000 38.7994 0.0000
# 6 0.0000 0.0000 0.0000 31.0255 0.0000 -154.5383
#
#
#
# Elastic Compliance Matrix: (Units=1/GPa)
#
#
# Indices 1 2 3 4 5 6 
#
# 1 0.014057 -0.003190 -0.003310 0.000000 -0.002020 0.000000
# 2 -0.003190 0.013002 -0.001402 0.000000 -0.001351 0.000000
# 3 -0.003310 -0.001402 0.012225 0.000000 0.003664 0.000000
# 4 0.000000 0.000000 0.000000 0.162167 0.000000 0.032557
# 5 -0.002020 -0.001351 0.003664 0.000000 0.027075 0.000000
# 6 0.000000 0.000000 0.000000 0.032557 0.000000 0.000065
#
#
# Mechanical properties :
#
#
# Convention : Reuss Voigt Hill
#
# Bulk Modulus (GPa) = 42.58769 42.66229 42.62499
# Shear Modulus (GPa) = 19.82383 -9.93934 4.94225
#
# Velocity S-wave (km/s) = 3.06505 -2.17032 1.53040
# Velocity P-wave (km/s) = 5.71913 3.73328 4.82938
#
# Compressibility (1/GPa) = 0.02348096
#
# Stress axis : x y z
#
# Youngs Moduli (GPa) = 71.13771 76.90969 81.80164
#
# Poissons Ratio (x) = 0.24532 0.27074
# Poissons Ratio (y) = 0.22691 0.11470
# Poissons Ratio (z) = 0.23544 0.10784
#
# Static dielectric constant tensor:
#      x y z
#    x 1.836310 0.000000 0.022560 
#    y 0.000000 1.752480 0.000000 
#    z 0.022560 0.000000 1.802560 
# 
# From -- ./inp_files/15566.got.cif
#   From: 2010.05.17/outbox.cif.g08.bks.cpg/sg10_8_cif.got.tgz:15566.got - 2010.06.03 11:33:40.
