data_PCOD9153239
_publ_section_title
;
Structure prediction by ZEFSAII (Michael W. Deem and Ramdas Pophale) SiO2 
 PCOD9153239
Probable space group: P 2/M
;
_chemical_formula_sum "Si O2"
_cell_formula_units_Z 28
_cell_length_a 13.260632
_cell_length_b 17.066417
_cell_length_c 5.162996
_cell_angle_alpha 90.000000
_cell_angle_beta 105.224174
_cell_angle_gamma 90.000000
_cell_volume 1127.439576
_symmetry_space_group_name_H-M "P 2/M"
_symmetry_group_IT_number 10
_symmetry_cell_setting 'monoclinic'
loop_
_space_group_symop_operation_xyz
x,y,z
-x,y,-z
-x,-y,-z
x,-y,z
loop_
_atom_site_type_symbol
_atom_site_label
_atom_site_fract_x
_atom_site_fract_y
_atom_site_fract_z
Si Si1 0.767867 0.800822 0.465802
Si Si2 0.117462 0.083500 0.175440
Si Si3 0.832627 0.587255 0.749398
Si Si4 0.595378 0.414773 0.771142
Si Si5 0.890181 0.321731 0.289521
Si Si6 0.398842 0.245484 0.252866
Si Si7 0.322598 0.088492 0.952282
O O1 0.869905 0.837700 0.658136
O O2 0.806663 0.748864 0.255262
O O3 0.699967 0.752173 0.619640
O O4 0.702464 0.878514 0.349092
O O5 0.132792 0.000000 0.329708
O O6 0.210031 0.086847 0.024058
O O7 0.000000 0.082065 0.000000
O O8 0.874891 0.500000 0.816944
O O9 0.708676 0.584345 0.715000
O O10 0.850634 0.613434 0.467693
O O11 0.885435 0.643997 0.998527
O O12 0.500000 0.414240 0.500000
O O13 0.590789 0.500000 0.908624
O O14 0.595264 0.327775 0.900487
O O15 0.000000 0.299351 0.500000
O O16 0.500000 0.242713 0.500000
O O17 0.389126 0.161526 0.106301
O O18 0.364832 0.000000 0.990116
#
# Coordination Sequence:
#
# PCOD9153239 Si02
#       7
#     4   4   4   4   4   4   4
#     4  11  23  38  61  90 128 166 217 274 333 397
#     4   9  20  37  59  86 121 167 217 270 329 394
#     4  11  24  46  69  97 136 178 228 285 341 409
#     4   9  18  38  68  98 131 171 220 278 345 407
#     4  12  27  42  67  99 134 180 230 282 340 406
#     4  10  21  41  65  91 126 167 215 274 335 406
#     4  10  22  39  60  89 128 169 219 275 334 401
#
# _framework density 24.835034
#
# number of rings (size 3 to 8) (size 9 to 14) (size 15 to 20)
#    0.000    1.714    1.429    2.143    4.000    3.143 
#    0.000    3.571    0.000    3.429    0.000    0.000 
#    0.000    0.000    0.000    0.000    0.000    0.000 
#
# Total GULP energy -156333.736587 kJ/mol
# GULP energy per Si atom -5583.347735 kJ/mol
# Density = 2.477851 g / cm^3
# Si number density = 24.835034 Si / 1000 Ang^3
#
#
#
# Elastic Constant Matrix: (Units=GPa)
#
#
# Indices 1 2 3 4 5 6 
#
# 1 87.4419 31.6811 11.3449 0.0000 13.7533 0.0000
# 2 31.6811 238.1522 31.7943 0.0000 7.1619 0.0000
# 3 11.3449 31.7943 47.1457 0.0000 11.9259 0.0000
# 4 0.0000 0.0000 0.0000 27.6616 0.0000 21.1388
# 5 13.7533 7.1619 11.9259 0.0000 33.7055 0.0000
# 6 0.0000 0.0000 0.0000 21.1388 0.0000 151.3579
#
#
#
# Elastic Compliance Matrix: (Units=1/GPa)
#
#
# Indices 1 2 3 4 5 6 
#
# 1 0.012801 -0.001438 -0.000952 0.000000 -0.004581 0.000000
# 2 -0.001438 0.004777 -0.003039 0.000000 0.000647 0.000000
# 3 -0.000952 -0.003039 0.025511 0.000000 -0.007992 0.000000
# 4 0.000000 0.000000 0.000000 0.040470 0.000000 -0.005652
# 5 -0.004581 0.000647 -0.007992 0.000000 0.034228 0.000000
# 6 0.000000 0.000000 0.000000 -0.005652 0.000000 0.007396
#
#
# Mechanical properties :
#
#
# Convention : Reuss Voigt Hill
#
# Bulk Modulus (GPa) = 31.02576 58.04227 44.53402
# Shear Modulus (GPa) = 34.06342 62.40631 48.23487
#
# Velocity S-wave (km/s) = 3.70751 5.01826 4.41183
# Velocity P-wave (km/s) = 5.55404 7.54977 6.62746
#
# Compressibility (1/GPa) = 0.03223128
#
# Stress axis : x y z
#
# Youngs Moduli (GPa) = 78.11752 209.35642 39.19888
#
# Poissons Ratio (x) = 0.30108 0.03731
# Poissons Ratio (y) = 0.11234 0.11912
# Poissons Ratio (z) = 0.07435 0.63620
#
# Static dielectric constant tensor:
#      x y z
#    x 1.951540 0.000000 0.005660 
#    y 0.000000 2.021170 0.000000 
#    z 0.005660 0.000000 2.067730 
# 
# From -- ./inp_files/9681.got.cif
#   From: 2010.05.17/outbox.cif.g08.bks.cpg/sg10_5_cif.got.tgz:9681.got - 2010.06.03 11:33:40.
