data_PCOD9153326
_publ_section_title
;
Structure prediction by ZEFSAII (Michael W. Deem and Ramdas Pophale) SiO2 
 PCOD9153326
Probable space group: P 2/M
;
_chemical_formula_sum "Si O2"
_cell_formula_units_Z 17
_cell_length_a 5.039241
_cell_length_b 24.087117
_cell_length_c 5.163802
_cell_angle_alpha 90.000000
_cell_angle_beta 93.378007
_cell_angle_gamma 90.000000
_cell_volume 625.697324
_symmetry_space_group_name_H-M "P 2/M"
_symmetry_group_IT_number 10
_symmetry_cell_setting 'monoclinic'
loop_
_space_group_symop_operation_xyz
x,y,z
-x,y,-z
-x,-y,-z
x,-y,z
loop_
_atom_site_type_symbol
_atom_site_label
_atom_site_fract_x
_atom_site_fract_y
_atom_site_fract_z
Si Si1 0.277110 0.878189 0.179544
Si Si2 0.316843 0.413026 0.234728
Si Si3 0.000000 0.201820 0.500000
Si Si4 0.684438 0.283722 0.766596
Si Si5 0.000000 0.500000 0.500000
Si Si6 0.186719 0.000000 0.260404
O O1 0.225993 0.842553 0.433720
O O2 0.339990 0.942018 0.252168
O O3 0.500000 0.856117 0.000000
O O4 0.000000 0.876743 0.000000
O O5 0.500000 0.421405 0.500000
O O6 0.240741 0.348446 0.211128
O O7 0.072603 0.451747 0.288692
O O8 0.500000 0.427698 0.000000
O O9 0.059972 0.245499 0.273145
O O10 0.500000 0.276918 0.500000
O O11 0.500000 0.270266 0.000000
O O12 0.000000 0.000000 0.500000
O O13 0.000000 0.000000 0.000000
#
# Coordination Sequence:
#
# PCOD9153326 Si02
#       6
#     4   4   2   4   1   2
#     4  11  26  45  70 103 143 184 236 293 357 426
#     4  10  23  42  62  94 130 172 222 273 335 407
#     4  12  25  39  68  97 137 170 240 280 360 398
#     4  10  24  44  66  91 133 179 224 279 345 413
#     4  12  22  38  68  96 130 170 220 276 348 380
#     4  10  21  48  70 103 139 191 228 292 354 435
#
# _framework density 27.169682999999999
#
# number of rings (size 3 to 8) (size 9 to 14) (size 15 to 20)
#    0.000    1.412    1.176    2.471    6.588    1.882 
#    0.000    9.412    0.000    0.000    0.000    0.000 
#    0.000    0.000    0.000    0.000    0.000    0.000 
#
# Total GULP energy -94964.892255 kJ/mol
# GULP energy per Si atom -5586.170133 kJ/mol
# Density = 2.710784 g / cm^3
# Si number density = 27.169683 Si / 1000 Ang^3
#
#
#
# Elastic Constant Matrix: (Units=GPa)
#
#
# Indices 1 2 3 4 5 6 
#
# 1 124.9184 42.9130 77.3116 0.0000 -21.4049 0.0000
# 2 42.9130 225.0692 74.3237 0.0000 -66.5048 0.0000
# 3 77.3116 74.3237 265.7718 0.0000 -55.1353 0.0000
# 4 0.0000 0.0000 0.0000 47.4430 0.0000 -44.2212
# 5 -21.4049 -66.5048 -55.1353 0.0000 79.8239 0.0000
# 6 0.0000 0.0000 0.0000 -44.2212 0.0000 18.0643
#
#
#
# Elastic Compliance Matrix: (Units=1/GPa)
#
#
# Indices 1 2 3 4 5 6 
#
# 1 0.009979 -0.001038 -0.002611 0.000000 0.000007 0.000000
# 2 -0.001038 0.006128 -0.000479 0.000000 0.004496 0.000000
# 3 -0.002611 -0.000479 0.005169 0.000000 0.002471 0.000000
# 4 0.000000 0.000000 0.000000 -0.016445 0.000000 -0.040256
# 5 0.000007 0.004496 0.002471 0.000000 0.017982 0.000000
# 6 0.000000 0.000000 0.000000 -0.040256 0.000000 -0.043189
#
#
# Mechanical properties :
#
#
# Convention : Reuss Voigt Hill
#
# Bulk Modulus (GPa) = 76.80915 111.65065 94.22990
# Shear Modulus (GPa) = -642.65112 57.14699 -292.75207
#
# Velocity S-wave (km/s) = -15.39630 4.59119 -10.39151
# Velocity P-wave (km/s) = 16.96260 8.32397 10.45087
#
# Compressibility (1/GPa) = 0.01301928
#
# Stress axis : x y z
#
# Youngs Moduli (GPa) = 100.20952 163.19316 193.47345
#
# Poissons Ratio (x) = 0.16944 0.50515
# Poissons Ratio (y) = 0.10404 0.09265
# Poissons Ratio (z) = 0.26164 0.07815
#
# Static dielectric constant tensor:
#      x y z
#    x 2.325200 0.000000 0.209220 
#    y 0.000000 2.084120 0.000000 
#    z 0.209220 0.000000 2.052240 
# 
# From -- ./inp_files/1667.got.cif
#   From: 2010.05.17/outbox.cif.g08.bks.cpg/sg10_1_cif.got.tgz:1667.got - 2010.06.03 11:33:40.
