data_PCOD9153761
_publ_section_title
;
Structure prediction by ZEFSAII (Michael W. Deem and Ramdas Pophale) SiO2 
 PCOD9153761
Probable space group: P 2/M
;
_chemical_formula_sum "Si O2"
_cell_formula_units_Z 32
_cell_length_a 10.700661
_cell_length_b 14.574901
_cell_length_c 9.656922
_cell_angle_alpha 90.000000
_cell_angle_beta 87.227673
_cell_angle_gamma 90.000000
_cell_volume 1504.341211
_symmetry_space_group_name_H-M "P 2/M"
_symmetry_group_IT_number 10
_symmetry_cell_setting 'monoclinic'
loop_
_space_group_symop_operation_xyz
x,y,z
-x,y,-z
-x,-y,-z
x,-y,z
loop_
_atom_site_type_symbol
_atom_site_label
_atom_site_fract_x
_atom_site_fract_y
_atom_site_fract_z
Si Si1 0.721140 0.607963 0.707229
Si Si2 0.862069 0.650451 0.975668
Si Si3 0.121665 0.858747 0.914207
Si Si4 0.257712 0.396694 0.753806
Si Si5 0.859298 0.702752 0.458024
Si Si6 0.877575 0.897471 0.408831
Si Si7 0.485671 0.268154 0.664825
Si Si8 0.586528 0.103517 0.129149
O O1 0.686448 0.500000 0.715688
O O2 0.818395 0.632493 0.823164
O O3 0.786531 0.632888 0.559135
O O4 0.606427 0.679370 0.719684
O O5 0.866284 0.756932 0.021244
O O6 0.759069 0.606360 0.081676
O O7 0.000000 0.612331 0.000000
O O8 0.091493 0.871701 0.752251
O O9 0.265298 0.893784 0.916861
O O10 0.000000 0.898718 0.000000
O O11 0.259422 0.500000 0.705111
O O12 0.143439 0.339874 0.694270
O O13 0.375480 0.341025 0.694663
O O14 0.804288 0.806494 0.463477
O O15 0.000000 0.709976 0.500000
O O16 0.000000 0.902909 0.500000
O O17 0.819703 0.000000 0.414117
O O18 0.500000 0.251631 0.500000
O O19 0.447125 0.178132 0.752845
O O20 0.558127 0.000000 0.177931
O O21 0.500000 0.122553 0.000000
#
# Coordination Sequence:
#
# PCOD9153761 Si02
#       8
#     4   4   4   4   4   4   4   4
#     4  12  27  44  69 101 138 187 238 290 348 420
#     4  11  24  43  68 103 140 183 226 285 353 418
#     4  11  23  43  75 106 143 186 229 288 357 423
#     4  12  24  42  68  98 133 179 230 281 344 411
#     4  11  23  41  65  96 137 184 227 288 354 409
#     4  10  22  41  65  99 138 178 229 288 351 419
#     4  12  26  47  70  97 139 181 233 293 347 408
#     4  11  25  49  76 104 140 185 237 292 357 426
#
# _framework density 21.271768999999999
#
# number of rings (size 3 to 8) (size 9 to 14) (size 15 to 20)
#    0.000    0.750    3.750    3.000    5.250    4.750 
#    0.000    1.875    0.000    0.000    0.000    0.000 
#    0.000    0.000    0.000    0.000    0.000    0.000 
#
# Total GULP energy -178632.161333 kJ/mol
# GULP energy per Si atom -5582.255042 kJ/mol
# Density = 2.122335 g / cm^3
# Si number density = 21.271769 Si / 1000 Ang^3
#
#
#
# Elastic Constant Matrix: (Units=GPa)
#
#
# Indices 1 2 3 4 5 6 
#
# 1 106.0989 27.0685 43.4282 0.0000 4.0992 0.0000
# 2 27.0685 171.2195 29.2379 0.0000 -2.2728 0.0000
# 3 43.4282 29.2379 94.2256 0.0000 12.6785 0.0000
# 4 0.0000 0.0000 0.0000 -162.7676 0.0000 60.7355
# 5 4.0992 -2.2728 12.6785 0.0000 32.9855 0.0000
# 6 0.0000 0.0000 0.0000 60.7355 0.0000 -0.0715
#
#
#
# Elastic Compliance Matrix: (Units=1/GPa)
#
#
# Indices 1 2 3 4 5 6 
#
# 1 0.011779 -0.000970 -0.005191 0.000000 0.000464 0.000000
# 2 -0.000970 0.006294 -0.001667 0.000000 0.001195 0.000000
# 3 -0.005191 -0.001667 0.014185 0.000000 -0.004922 0.000000
# 4 0.000000 0.000000 0.000000 0.000019 0.000000 0.016517
# 5 0.000464 0.001195 -0.004922 0.000000 0.032233 0.000000
# 6 0.000000 0.000000 0.000000 0.016517 0.000000 0.044264
#
#
# Mechanical properties :
#
#
# Convention : Reuss Voigt Hill
#
# Bulk Modulus (GPa) = 60.22755 63.44592 61.83673
# Shear Modulus (GPa) = 38.47226 -7.85008 15.31109
#
# Velocity S-wave (km/s) = 4.25738 -1.92312 2.68579
# Velocity P-wave (km/s) = 7.24858 4.99599 6.22502
#
# Compressibility (1/GPa) = 0.01660370
#
# Stress axis : x y z
#
# Youngs Moduli (GPa) = 84.89534 158.87471 70.49870
#
# Poissons Ratio (x) = 0.15406 0.36593
# Poissons Ratio (y) = 0.08232 0.11752
# Poissons Ratio (z) = 0.44066 0.26484
#
# Static dielectric constant tensor:
#      x y z
#    x 1.808330 0.000000 0.023010 
#    y 0.000000 1.789360 0.000000 
#    z 0.023010 0.000000 1.732110 
# 
# From -- ./inp_files/25304.got.cif
#   From: 2010.05.17/outbox.cif.g08.bks.cpg/sg10_13_cif.got.tgz:25304.got - 2010.06.03 11:33:40.
