data_PCOD9153990
_publ_section_title
;
Structure prediction by ZEFSAII (Michael W. Deem and Ramdas Pophale) SiO2 
 PCOD9153990
Probable space group: P 2/M
;
_chemical_formula_sum "Si O2"
_cell_formula_units_Z 26
_cell_length_a 9.240073
_cell_length_b 9.820125
_cell_length_c 19.224421
_cell_angle_alpha 90.000000
_cell_angle_beta 133.890216
_cell_angle_gamma 90.000000
_cell_volume 1257.134759
_symmetry_space_group_name_H-M "P 2/M"
_symmetry_group_IT_number 10
_symmetry_cell_setting 'monoclinic'
loop_
_space_group_symop_operation_xyz
x,y,z
-x,y,-z
-x,-y,-z
x,-y,z
loop_
_atom_site_type_symbol
_atom_site_label
_atom_site_fract_x
_atom_site_fract_y
_atom_site_fract_z
Si Si1 0.272778 0.655591 0.400849
Si Si2 0.198823 0.500000 0.967564
Si Si3 0.270947 0.218568 0.913279
Si Si4 0.215966 0.842476 0.592814
Si Si5 0.929709 0.000000 0.835021
Si Si6 0.271292 0.500000 0.148528
Si Si7 0.360071 0.738773 0.278363
Si Si8 0.098772 0.842266 0.708748
O O1 0.500000 0.686956 0.500000
O O2 0.227810 0.500000 0.406567
O O3 0.264703 0.669152 0.314484
O O4 0.107406 0.761367 0.372071
O O5 0.248560 0.366194 0.940333
O O6 0.964784 0.500000 0.910779
O O7 0.308287 0.500000 0.078705
O O8 0.215819 0.219343 0.813095
O O9 0.500000 0.172108 0.000000
O O10 0.107437 0.118550 0.892819
O O11 0.408102 0.768180 0.627654
O O12 0.222602 0.841622 0.678908
O O13 0.000000 0.784261 0.500000
O O14 0.219222 0.000000 0.569980
O O15 0.756305 0.878832 0.775023
O O16 0.353831 0.635434 0.212244
O O17 0.050300 0.000000 0.711826
#
# Coordination Sequence:
#
# PCOD9153990 Si02
#       8
#     4   2   4   4   2   2   4   4
#     4  11  23  40  66  98 130 173 224 275 326 385
#     4  11  25  46  66  96 128 176 225 267 340 397
#     4  12  25  44  67  98 135 171 224 277 331 395
#     4  10  23  42  66 100 139 174 215 271 333 399
#     4  12  23  42  73 100 123 178 217 278 328 392
#     4  11  24  44  68  90 136 171 221 281 326 397
#     4  12  22  45  69  96 133 179 218 271 334 395
#     4  11  23  42  66  98 133 172 217 272 336 389
#
# _framework density 20.681950000000001
#
# number of rings (size 3 to 8) (size 9 to 14) (size 15 to 20)
#    0.000    0.769    5.385    1.385    3.231    0.308 
#    1.385    1.923    0.000    0.000    0.000    0.000 
#    0.000    0.000    0.000    0.000    0.000    0.000 
#
# Total GULP energy -144837.555181 kJ/mol
# GULP energy per Si atom -5570.675199 kJ/mol
# Density = 2.063488 g / cm^3
# Si number density = 20.681950 Si / 1000 Ang^3
#
#
#
# Elastic Constant Matrix: (Units=GPa)
#
#
# Indices 1 2 3 4 5 6 
#
# 1 50.6872 23.5978 18.6389 0.0000 12.5912 0.0000
# 2 23.5978 113.6052 38.0149 0.0000 -1.9273 0.0000
# 3 18.6389 38.0149 88.0091 0.0000 8.4184 0.0000
# 4 0.0000 0.0000 0.0000 17.6398 0.0000 -1.1817
# 5 12.5912 -1.9273 8.4184 0.0000 45.1674 0.0000
# 6 0.0000 0.0000 0.0000 -1.1817 0.0000 22.9345
#
#
#
# Elastic Compliance Matrix: (Units=1/GPa)
#
#
# Indices 1 2 3 4 5 6 
#
# 1 0.024304 -0.004258 -0.002691 0.000000 -0.006455 0.000000
# 2 -0.004258 0.011110 -0.004130 0.000000 0.002431 0.000000
# 3 -0.002691 -0.004130 0.013909 0.000000 -0.002019 0.000000
# 4 0.000000 0.000000 0.000000 0.056886 0.000000 0.002931
# 5 -0.006455 0.002431 -0.002019 0.000000 0.024419 0.000000
# 6 0.000000 0.000000 0.000000 0.002931 0.000000 0.043753
#
#
# Mechanical properties :
#
#
# Convention : Reuss Voigt Hill
#
# Bulk Modulus (GPa) = 36.80898 45.86719 41.33809
# Shear Modulus (GPa) = 24.31981 28.61833 26.46907
#
# Velocity S-wave (km/s) = 3.43285 3.72389 3.58133
# Velocity P-wave (km/s) = 5.79214 6.38086 6.09362
#
# Compressibility (1/GPa) = 0.02716728
#
# Stress axis : x y z
#
# Youngs Moduli (GPa) = 41.14552 90.00985 71.89495
#
# Poissons Ratio (x) = 0.38322 0.19345
# Poissons Ratio (y) = 0.17518 0.29690
# Poissons Ratio (z) = 0.11071 0.37171
#
# Static dielectric constant tensor:
#      x y z
#    x 1.746070 0.000000 -0.028520 
#    y 0.000000 1.706190 0.000000 
#    z -0.028520 0.000000 1.777410 
# 
# From -- ./inp_files/82268.got.cif
#   From: 2010.05.17/outbox.cif.g08.bks.cpg/sg10_42_cif.got.tgz:82268.got - 2010.06.03 11:33:40.
