data_PCOD9153524
_publ_section_title
;
Structure prediction by ZEFSAII (Michael W. Deem and Ramdas Pophale) SiO2 
 PCOD9153524
Probable space group: P 2/M
;
_chemical_formula_sum "Si O2"
_cell_formula_units_Z 32
_cell_length_a 9.578792
_cell_length_b 13.875290
_cell_length_c 13.806851
_cell_angle_alpha 90.000000
_cell_angle_beta 89.452231
_cell_angle_gamma 90.000000
_cell_volume 1834.964227
_symmetry_space_group_name_H-M "P 2/M"
_symmetry_group_IT_number 10
_symmetry_cell_setting 'monoclinic'
loop_
_space_group_symop_operation_xyz
x,y,z
-x,y,-z
-x,-y,-z
x,-y,z
loop_
_atom_site_type_symbol
_atom_site_label
_atom_site_fract_x
_atom_site_fract_y
_atom_site_fract_z
Si Si1 0.964321 0.294407 0.213987
Si Si2 0.542357 0.293154 0.800296
Si Si3 0.797181 0.385718 0.901264
Si Si4 0.419936 0.887669 0.899074
Si Si5 0.416940 0.386244 0.402375
Si Si6 0.085931 0.612271 0.400922
Si Si7 0.720165 0.387715 0.122590
Si Si8 0.912979 0.886905 0.098456
O O1 0.049259 0.358115 0.134933
O O2 0.027002 0.320157 0.317026
O O3 0.805767 0.328835 0.201854
O O4 0.969058 0.184061 0.180696
O O5 0.695703 0.319667 0.837453
O O6 0.490170 0.185833 0.823610
O O7 0.534020 0.323651 0.688905
O O8 0.440410 0.360730 0.864210
O O9 0.771606 0.500000 0.885068
O O10 0.770171 0.364329 0.013813
O O11 0.253748 0.869512 0.912972
O O12 0.436414 0.000000 0.871930
O O13 0.500000 0.872306 0.000000
O O14 0.500000 0.364494 0.500000
O O15 0.439684 0.500000 0.379572
O O16 0.250654 0.372635 0.416129
O O17 0.068115 0.500000 0.369847
O O18 0.000000 0.625426 0.500000
O O19 0.742325 0.500000 0.138668
O O20 0.931303 0.000000 0.120511
O O21 0.000000 0.866382 0.000000
#
# Coordination Sequence:
#
# PCOD9153524 Si02
#       8
#     4   4   4   4   4   4   4   4
#     4  12  22  36  57  82 114 157 193 235 289 339
#     4  12  22  36  57  82 114 157 193 235 289 339
#     4  11  22  36  52  78 120 157 190 228 274 341
#     4  10  22  39  59  85 116 153 199 247 291 339
#     4  10  22  39  59  83 113 150 194 242 288 340
#     4  10  22  39  59  83 113 150 194 242 288 340
#     4  11  22  32  50  82 116 153 192 224 272 349
#     4  10  22  39  59  85 116 153 199 247 291 339
#
# _framework density 17.439032999999998
#
# number of rings (size 3 to 8) (size 9 to 14) (size 15 to 20)
#    0.000    1.250    2.500    4.500    3.500    2.000 
#    0.000    0.000    0.000    0.750    0.000    0.000 
#    0.000    0.000    0.000    0.000    0.000    0.000 
#
# Total GULP energy -178773.942238 kJ/mol
# GULP energy per Si atom -5586.685695 kJ/mol
# Density = 1.739934 g / cm^3
# Si number density = 17.439033 Si / 1000 Ang^3
#
#
#
# Elastic Constant Matrix: (Units=GPa)
#
#
# Indices 1 2 3 4 5 6 
#
# 1 59.4975 35.6039 38.8932 0.0000 1.6116 0.0000
# 2 35.6039 107.3642 65.6441 0.0000 6.2324 0.0000
# 3 38.8932 65.6441 105.4741 0.0000 7.3085 0.0000
# 4 0.0000 0.0000 0.0000 29.1838 0.0000 0.1037
# 5 1.6116 6.2324 7.3085 0.0000 28.8668 0.0000
# 6 0.0000 0.0000 0.0000 0.1037 0.0000 22.5706
#
#
#
# Elastic Compliance Matrix: (Units=1/GPa)
#
#
# Indices 1 2 3 4 5 6 
#
# 1 0.023182 -0.004001 -0.006136 0.000000 0.001123 0.000000
# 2 -0.004001 0.015749 -0.008251 0.000000 -0.001088 0.000000
# 3 -0.006136 -0.008251 0.017030 0.000000 -0.002188 0.000000
# 4 0.000000 0.000000 0.000000 0.034266 0.000000 -0.000157
# 5 0.001123 -0.001088 -0.002188 0.000000 0.035368 0.000000
# 6 0.000000 0.000000 0.000000 -0.000157 0.000000 0.044306
#
#
# Mechanical properties :
#
#
# Convention : Reuss Voigt Hill
#
# Bulk Modulus (GPa) = 52.12282 61.40202 56.76242
# Shear Modulus (GPa) = 23.46614 24.93722 24.20168
#
# Velocity S-wave (km/s) = 3.67224 3.78559 3.72934
# Velocity P-wave (km/s) = 6.92343 7.37520 7.15288
#
# Compressibility (1/GPa) = 0.01918545
#
# Stress axis : x y z
#
# Youngs Moduli (GPa) = 43.13599 63.49695 58.71898
#
# Poissons Ratio (x) = 0.25407 0.36030
# Poissons Ratio (y) = 0.17260 0.48448
# Poissons Ratio (z) = 0.26468 0.52390
#
# Static dielectric constant tensor:
#      x y z
#    x 1.589000 0.000000 -0.000240 
#    y 0.000000 1.594450 0.000000 
#    z -0.000240 0.000000 1.565320 
# 
# From -- ./inp_files/42960.got.cif
#   From: 2010.05.17/outbox.cif.g08.bks.cpg/sg10_22_cif.got.tgz:42960.got - 2010.06.03 11:33:40.
