data_PCOD9153218
_publ_section_title
;
Structure prediction by ZEFSAII (Michael W. Deem and Ramdas Pophale) SiO2 
 PCOD9153218
Probable space group: P 2/M
;
_chemical_formula_sum "Si O2"
_cell_formula_units_Z 20
_cell_length_a 5.425224
_cell_length_b 28.911756
_cell_length_c 5.485272
_cell_angle_alpha 90.000000
_cell_angle_beta 99.808386
_cell_angle_gamma 90.000000
_cell_volume 847.803816
_symmetry_space_group_name_H-M "P 2/M"
_symmetry_group_IT_number 10
_symmetry_cell_setting 'monoclinic'
loop_
_space_group_symop_operation_xyz
x,y,z
-x,y,-z
-x,-y,-z
x,-y,z
loop_
_atom_site_type_symbol
_atom_site_label
_atom_site_fract_x
_atom_site_fract_y
_atom_site_fract_z
Si Si1 0.216566 0.500000 0.844415
Si Si2 0.661734 0.949466 0.777380
Si Si3 0.000000 0.775822 0.000000
Si Si4 0.215874 0.688973 0.855361
Si Si5 0.347427 0.403522 0.716146
Si Si6 0.777437 0.850985 0.656354
O O1 0.190217 0.450131 0.715577
O O2 0.500000 0.500000 0.000000
O O3 0.000000 0.500000 0.000000
O O4 0.500000 0.950093 0.500000
O O5 0.813258 0.902188 0.774521
O O6 0.789497 0.000000 0.800564
O O7 0.500000 0.946349 0.000000
O O8 0.797334 0.810108 0.855169
O O9 0.107599 0.740777 0.812194
O O10 0.239632 0.648213 0.665425
O O11 0.500000 0.695916 0.000000
O O12 0.000000 0.668968 0.000000
O O13 0.500000 0.412332 0.500000
O O14 0.500000 0.400214 0.000000
O O15 0.500000 0.849595 0.500000
O O16 0.000000 0.844095 0.500000
#
# Coordination Sequence:
#
# PCOD9153218 Si02
#       6
#     2   4   2   4   4   4
#     4  10  21  40  70 104 140 180 226 286 352 424
#     4   9  20  41  71 104 143 186 232 290 359 433
#     4  10  26  46  73  93 150 180 252 294 372 402
#     4   9  21  42  67  95 131 182 230 289 350 418
#     4  10  21  43  68 101 139 180 231 286 354 421
#     4  11  27  44  72 107 140 190 240 297 361 433
#
# _framework density 23.590361000000001
#
# number of rings (size 3 to 8) (size 9 to 14) (size 15 to 20)
#    0.600    1.600    0.000    0.900    8.400    0.400 
#    7.200   20.500    0.000    0.000    0.000    0.000 
#    0.000    0.000    0.000    0.000    0.000    0.000 
#
# Total GULP energy -111399.505592 kJ/mol
# GULP energy per Si atom -5569.975280 kJ/mol
# Density = 2.353667 g / cm^3
# Si number density = 23.590361 Si / 1000 Ang^3
#
#
#
# Elastic Constant Matrix: (Units=GPa)
#
#
# Indices 1 2 3 4 5 6 
#
# 1 120.7591 25.4461 48.4337 0.0000 5.0623 0.0000
# 2 25.4461 251.7019 34.2700 0.0000 -5.6071 0.0000
# 3 48.4337 34.2700 119.8967 0.0000 -1.1203 0.0000
# 4 0.0000 0.0000 0.0000 103.7583 0.0000 -4.0534
# 5 5.0623 -5.6071 -1.1203 0.0000 58.5812 0.0000
# 6 0.0000 0.0000 0.0000 -4.0534 0.0000 30.4395
#
#
#
# Elastic Compliance Matrix: (Units=1/GPa)
#
#
# Indices 1 2 3 4 5 6 
#
# 1 0.009993 -0.000501 -0.003903 0.000000 -0.000986 0.000000
# 2 -0.000501 0.004167 -0.000985 0.000000 0.000423 0.000000
# 3 -0.003903 -0.000985 0.010203 0.000000 0.000438 0.000000
# 4 0.000000 0.000000 0.000000 0.009688 0.000000 0.001290
# 5 -0.000986 0.000423 0.000438 0.000000 0.017204 0.000000
# 6 0.000000 0.000000 0.000000 0.001290 0.000000 0.033024
#
#
# Mechanical properties :
#
#
# Convention : Reuss Voigt Hill
#
# Bulk Modulus (GPa) = 73.60587 78.73970 76.17278
# Shear Modulus (GPa) = 50.20822 64.16965 57.18894
#
# Velocity S-wave (km/s) = 4.61839 5.22118 4.92901
# Velocity P-wave (km/s) = 7.72715 8.35452 8.04695
#
# Compressibility (1/GPa) = 0.01358587
#
# Stress axis : x y z
#
# Youngs Moduli (GPa) = 100.06796 239.97500 98.01297
#
# Poissons Ratio (x) = 0.12019 0.38254
# Poissons Ratio (y) = 0.05012 0.09652
# Poissons Ratio (z) = 0.39056 0.23633
#
# Static dielectric constant tensor:
#      x y z
#    x 1.898540 0.000000 0.082180 
#    y 0.000000 1.894340 0.000000 
#    z 0.082180 0.000000 1.939680 
# 
# From -- ./inp_files/2232.got.cif
#   From: 2010.05.17/outbox.cif.g08.bks.cpg/sg10_2_cif.got.tgz:2232.got - 2010.06.03 11:33:40.
