data_PCOD9153610
_publ_section_title
;
Structure prediction by ZEFSAII (Michael W. Deem and Ramdas Pophale) SiO2 
 PCOD9153610
Probable space group: P 2/M
;
_chemical_formula_sum "Si O2"
_cell_formula_units_Z 28
_cell_length_a 29.630439
_cell_length_b 7.520959
_cell_length_c 9.400033
_cell_angle_alpha 90.000000
_cell_angle_beta 38.895968
_cell_angle_gamma 90.000000
_cell_volume 1315.336592
_symmetry_space_group_name_H-M "P 2/M"
_symmetry_group_IT_number 10
_symmetry_cell_setting 'monoclinic'
loop_
_space_group_symop_operation_xyz
x,y,z
-x,y,-z
-x,-y,-z
x,-y,z
loop_
_atom_site_type_symbol
_atom_site_label
_atom_site_fract_x
_atom_site_fract_y
_atom_site_fract_z
Si Si1 0.568930 0.716556 0.245317
Si Si2 0.868242 0.205628 0.691898
Si Si3 0.013209 0.203434 0.811759
Si Si4 0.728786 0.715284 0.857251
Si Si5 0.569517 0.283286 0.913937
Si Si6 0.131181 0.294635 0.983049
Si Si7 0.270903 0.283224 0.474688
O O1 0.500000 0.780842 0.500000
O O2 0.568595 0.500000 0.252599
O O3 0.648441 0.771874 0.099492
O O4 0.562440 0.765230 0.096320
O O5 0.791310 0.217147 0.804806
O O6 0.867273 0.287662 0.850515
O O7 0.926375 0.284992 0.439122
O O8 0.888205 0.000000 0.666530
O O9 0.938757 0.202524 0.909349
O O10 0.037990 0.000000 0.778101
O O11 0.000000 0.284649 0.000000
O O12 0.731095 0.500000 0.855082
O O13 0.739443 0.768114 0.665543
O O14 0.569250 0.500000 0.906815
O O15 0.649462 0.225635 0.671425
O O16 0.500000 0.219455 0.000000
O O17 0.124819 0.500000 0.954104
O O18 0.205026 0.223475 0.733661
O O19 0.271845 0.500000 0.474952
#
# Coordination Sequence:
#
# PCOD9153610 Si02
#       7
#     4   4   4   4   4   4   4
#     4   8  14  24  41  69 101 130 161 201 249 296
#     4  11  23  37  53  75 104 134 166 207 253 301
#     4  10  22  40  59  77 100 133 170 206 248 301
#     4   9  17  32  53  75 102 134 170 211 251 297
#     4   8  13  22  38  62  96 133 162 193 239 294
#     4  11  22  35  54  79 106 134 166 208 254 298
#     4   8  16  30  47  72 103 132 165 206 250 294
#
# _framework density 21.287327000000001
#
# number of rings (size 3 to 8) (size 9 to 14) (size 15 to 20)
#    0.000    2.714    0.000    3.857    0.000    4.286 
#    0.000    5.000    0.000    0.429    0.000    0.000 
#    0.000    6.857    0.000    0.000    0.000    0.000 
#
# Total GULP energy -156286.386832 kJ/mol
# GULP energy per Si atom -5581.656673 kJ/mol
# Density = 2.123888 g / cm^3
# Si number density = 21.287327 Si / 1000 Ang^3
#
#
#
# Elastic Constant Matrix: (Units=GPa)
#
#
# Indices 1 2 3 4 5 6 
#
# 1 141.3343 -11.4609 78.2715 0.0000 -19.4124 0.0000
# 2 -11.4609 54.9411 -1.6208 0.0000 2.2800 0.0000
# 3 78.2715 -1.6208 194.7182 0.0000 -13.1192 0.0000
# 4 0.0000 0.0000 0.0000 0.9772 0.0000 -8.2435
# 5 -19.4124 2.2800 -13.1192 0.0000 27.5518 0.0000
# 6 0.0000 0.0000 0.0000 -8.2435 0.0000 21.3546
#
#
#
# Elastic Compliance Matrix: (Units=1/GPa)
#
#
# Indices 1 2 3 4 5 6 
#
# 1 0.009933 0.001752 -0.003633 0.000000 0.005124 0.000000
# 2 0.001752 0.018574 -0.000589 0.000000 -0.000583 0.000000
# 3 -0.003633 -0.000589 0.006635 0.000000 0.000648 0.000000
# 4 0.000000 0.000000 0.000000 -0.453514 0.000000 -0.175069
# 5 0.005124 -0.000583 0.000648 0.000000 0.040262 0.000000
# 6 0.000000 0.000000 0.000000 -0.175069 0.000000 -0.020753
#
#
# Mechanical properties :
#
#
# Convention : Reuss Voigt Hill
#
# Bulk Modulus (GPa) = 33.11031 57.93036 45.52034
# Shear Modulus (GPa) = -13.02573 31.69697 9.33562
#
# Velocity S-wave (km/s) = -2.47635 3.86295 2.09644
# Velocity P-wave (km/s) = 2.72238 6.86798 5.22401
#
# Compressibility (1/GPa) = 0.03020207
#
# Stress axis : x y z
#
# Youngs Moduli (GPa) = 100.67131 53.83966 150.72011
#
# Poissons Ratio (x) = -0.09434 0.54758
# Poissons Ratio (y) = -0.17641 0.08878
# Poissons Ratio (z) = 0.36575 0.03171
#
# Static dielectric constant tensor:
#      x y z
#    x 1.707920 0.000000 -0.009270 
#    y 0.000000 1.817670 0.000000 
#    z -0.009270 0.000000 1.777240 
# 
# From -- ./inp_files/37084.got.cif
#   From: 2010.05.17/outbox.cif.g08.bks.cpg/sg10_19_cif.got.tgz:37084.got - 2010.06.03 11:33:40.
