data_PCOD9153180
_publ_section_title
;
Structure prediction by ZEFSAII (Michael W. Deem and Ramdas Pophale) SiO2 
 PCOD9153180
Probable space group: P 2/M
;
_chemical_formula_sum "Si O2"
_cell_formula_units_Z 24
_cell_length_a 11.582755
_cell_length_b 11.094767
_cell_length_c 11.071900
_cell_angle_alpha 90.000000
_cell_angle_beta 126.978936
_cell_angle_gamma 90.000000
_cell_volume 1136.635185
_symmetry_space_group_name_H-M "P 2/M"
_symmetry_group_IT_number 10
_symmetry_cell_setting 'monoclinic'
loop_
_space_group_symop_operation_xyz
x,y,z
-x,y,-z
-x,-y,-z
x,-y,z
loop_
_atom_site_type_symbol
_atom_site_label
_atom_site_fract_x
_atom_site_fract_y
_atom_site_fract_z
Si Si1 0.936830 0.824763 0.835372
Si Si2 0.114608 0.872880 0.463674
Si Si3 0.141961 0.360092 0.857771
Si Si4 0.602733 0.862027 0.680286
Si Si5 0.554784 0.361588 0.823057
Si Si6 0.773786 0.638654 0.354287
O O1 0.957308 0.877232 0.713589
O O2 0.765632 0.828000 0.744562
O O3 0.027416 0.703410 0.871796
O O4 0.000000 0.876035 0.000000
O O5 0.196919 0.745880 0.532656
O O6 0.000000 0.876733 0.500000
O O7 0.202409 0.000000 0.528418
O O8 0.113781 0.500000 0.846756
O O9 0.139457 0.330874 0.713521
O O10 0.305281 0.339161 0.006446
O O11 0.500000 0.865110 0.500000
O O12 0.553032 0.751446 0.731934
O O13 0.604847 0.000000 0.732804
O O14 0.571395 0.500000 0.783230
O O15 0.396785 0.361929 0.783957
O O16 0.809526 0.500000 0.415072
#
# Coordination Sequence:
#
# PCOD9153180 Si02
#       6
#     4   4   4   4   4   4
#     4  12  24  43  68 100 133 182 223 277 334 412
#     4  11  24  42  66  96 131 172 226 285 336 395
#     4  10  21  40  66 100 138 176 222 281 343 400
#     4  11  25  44  66  93 133 179 223 275 342 407
#     4  10  21  40  65  96 132 173 225 279 335 400
#     4  10  21  41  70  98 132 179 226 278 340 406
#
# _framework density 21.114954000000001
#
# number of rings (size 3 to 8) (size 9 to 14) (size 15 to 20)
#    0.000    1.333    3.333    2.000    0.000    7.667 
#    0.000    0.833    0.000    2.000    0.000    0.000 
#    0.000    0.000    0.000    0.000    0.000    0.000 
#
# Total GULP energy -133702.363797 kJ/mol
# GULP energy per Si atom -5570.931825 kJ/mol
# Density = 2.106690 g / cm^3
# Si number density = 21.114954 Si / 1000 Ang^3
#
#
#
# Elastic Constant Matrix: (Units=GPa)
#
#
# Indices 1 2 3 4 5 6 
#
# 1 82.8795 29.2226 37.9694 0.0000 0.5941 0.0000
# 2 29.2226 153.7841 64.3271 0.0000 -12.6770 0.0000
# 3 37.9694 64.3271 107.9609 0.0000 -1.2355 0.0000
# 4 0.0000 0.0000 0.0000 -25.3388 0.0000 127.8549
# 5 0.5941 -12.6770 -1.2355 0.0000 38.8540 0.0000
# 6 0.0000 0.0000 0.0000 127.8549 0.0000 -418.9601
#
#
#
# Elastic Compliance Matrix: (Units=1/GPa)
#
#
# Indices 1 2 3 4 5 6 
#
# 1 0.014478 -0.000896 -0.004566 0.000000 -0.000659 0.000000
# 2 -0.000896 0.009001 -0.005016 0.000000 0.002791 0.000000
# 3 -0.004566 -0.005016 0.013844 0.000000 -0.001127 0.000000
# 4 0.000000 0.000000 0.000000 0.073105 0.000000 0.022310
# 5 -0.000659 0.002791 -0.001127 0.000000 0.026622 0.000000
# 6 0.000000 0.000000 0.000000 0.022310 0.000000 0.004421
#
#
# Mechanical properties :
#
#
# Convention : Reuss Voigt Hill
#
# Bulk Modulus (GPa) = 61.09424 67.51807 64.30615
# Shear Modulus (GPa) = 29.78259 -66.88195 -18.54968
#
# Velocity S-wave (km/s) = 3.75973 -5.63417 -2.96718
# Velocity P-wave (km/s) = 6.91696 3.20615 4.33388
#
# Compressibility (1/GPa) = 0.01636816
#
# Stress axis : x y z
#
# Youngs Moduli (GPa) = 69.07078 111.09640 72.23156
#
# Poissons Ratio (x) = 0.09950 0.32979
# Poissons Ratio (y) = 0.06186 0.36234
# Poissons Ratio (z) = 0.31536 0.55729
#
# Static dielectric constant tensor:
#      x y z
#    x 1.759040 0.000000 0.015060 
#    y 0.000000 1.809220 0.000000 
#    z 0.015060 0.000000 1.799630 
# 
# From -- ./inp_files/46270.got.cif
#   From: 2010.05.17/outbox.cif.g08.bks.cpg/sg10_24_cif.got.tgz:46270.got - 2010.06.03 11:33:40.
