data_PCOD9153269
_publ_section_title
;
Structure prediction by ZEFSAII (Michael W. Deem and Ramdas Pophale) SiO2 
 PCOD9153269
Probable space group: P 2/M
;
_chemical_formula_sum "Si O2"
_cell_formula_units_Z 24
_cell_length_a 9.606488
_cell_length_b 14.135181
_cell_length_c 14.599714
_cell_angle_alpha 90.000000
_cell_angle_beta 143.734072
_cell_angle_gamma 90.000000
_cell_volume 1172.708147
_symmetry_space_group_name_H-M "P 2/M"
_symmetry_group_IT_number 10
_symmetry_cell_setting 'monoclinic'
loop_
_space_group_symop_operation_xyz
x,y,z
-x,y,-z
-x,-y,-z
x,-y,z
loop_
_atom_site_type_symbol
_atom_site_label
_atom_site_fract_x
_atom_site_fract_y
_atom_site_fract_z
Si Si1 0.882185 0.101333 0.037395
Si Si2 0.416394 0.397455 0.851326
Si Si3 0.991435 0.262085 0.602472
Si Si4 0.775918 0.389488 0.626887
Si Si5 0.755604 0.892537 0.604262
Si Si6 0.127622 0.311717 0.969860
O O1 0.770640 0.204821 0.988500
O O2 0.086751 0.101933 0.221422
O O3 0.750798 0.000000 0.978022
O O4 0.000000 0.100659 0.000000
O O5 0.308059 0.500000 0.769467
O O6 0.244059 0.308454 0.756513
O O7 0.500000 0.402422 0.000000
O O8 0.650560 0.380411 0.917134
O O9 0.000000 0.243462 0.500000
O O10 0.822825 0.344764 0.552233
O O11 0.896841 0.171430 0.607459
O O12 0.500000 0.379884 0.500000
O O13 0.839432 0.500000 0.663876
O O14 0.941680 0.336479 0.789933
O O15 0.500000 0.854489 0.500000
O O16 0.718981 0.000000 0.549851
O O17 0.000000 0.317488 0.000000
#
# Coordination Sequence:
#
# PCOD9153269 Si02
#       6
#     4   4   4   4   4   4
#     4   9  18  34  61  94 123 152 196 252 314 375
#     4  11  23  42  63  85 123 172 214 260 317 381
#     4  12  26  41  62  91 131 171 213 257 321 380
#     4  11  24  42  63  90 124 164 214 272 322 375
#     4  10  21  41  69  96 127 166 211 260 314 378
#     4  11  23  39  65  94 125 161 213 265 321 379
#
# _framework density 20.465450000000001
#
# number of rings (size 3 to 8) (size 9 to 14) (size 15 to 20)
#    0.000    1.333    3.333    1.500    2.333    4.333 
#    0.000    0.833    0.000    3.000    0.000    0.000 
#    0.000    0.000    0.000    0.000    0.000    0.000 
#
# Total GULP energy -133836.131263 kJ/mol
# GULP energy per Si atom -5576.505469 kJ/mol
# Density = 2.041887 g / cm^3
# Si number density = 20.465450 Si / 1000 Ang^3
#
#
#
# Elastic Constant Matrix: (Units=GPa)
#
#
# Indices 1 2 3 4 5 6 
#
# 1 140.6759 56.8571 50.3910 0.0000 -4.3977 0.0000
# 2 56.8571 154.2316 32.7320 0.0000 -3.4471 0.0000
# 3 50.3910 32.7320 42.6938 0.0000 -1.8910 0.0000
# 4 0.0000 0.0000 0.0000 15.8123 0.0000 15.5366
# 5 -4.3977 -3.4471 -1.8910 0.0000 35.7224 0.0000
# 6 0.0000 0.0000 0.0000 15.5366 0.0000 7.2006
#
#
#
# Elastic Compliance Matrix: (Units=1/GPa)
#
#
# Indices 1 2 3 4 5 6 
#
# 1 0.012734 -0.001787 -0.013630 0.000000 0.000674 0.000000
# 2 -0.001787 0.008001 -0.004010 0.000000 0.000340 0.000000
# 3 -0.013630 -0.004010 0.042594 0.000000 0.000190 0.000000
# 4 0.000000 0.000000 0.000000 -0.056464 0.000000 0.121830
# 5 0.000674 0.000340 0.000190 0.000000 0.028119 0.000000
# 6 0.000000 0.000000 0.000000 0.121830 0.000000 -0.123992
#
#
# Mechanical properties :
#
#
# Convention : Reuss Voigt Hill
#
# Bulk Modulus (GPa) = 40.85987 68.61791 54.73889
# Shear Modulus (GPa) = -119.06360 24.92180 -47.07090
#
# Velocity S-wave (km/s) = -7.63572 3.49341 -4.80105
# Velocity P-wave (km/s) = 7.59804 7.06211 1.98203
#
# Compressibility (1/GPa) = 0.02447389
#
# Stress axis : x y z
#
# Youngs Moduli (GPa) = 78.52856 124.98276 23.47774
#
# Poissons Ratio (x) = 0.22330 0.32001
# Poissons Ratio (y) = 0.14030 0.09415
# Poissons Ratio (z) = 1.07038 0.50123
#
# Static dielectric constant tensor:
#      x y z
#    x 1.709430 0.000000 -0.001340 
#    y 0.000000 1.817770 0.000000 
#    z -0.001340 0.000000 1.725230 
# 
# From -- ./inp_files/61961.got.cif
#   From: 2010.05.17/outbox.cif.g08.bks.cpg/sg10_31_cif.got.tgz:61961.got - 2010.06.03 11:33:40.
