data_PCOD9153376
_publ_section_title
;
Structure prediction by ZEFSAII (Michael W. Deem and Ramdas Pophale) SiO2 
 PCOD9153376
Probable space group: P 2/M
;
_chemical_formula_sum "Si O2"
_cell_formula_units_Z 26
_cell_length_a 14.264831
_cell_length_b 14.299489
_cell_length_c 20.576954
_cell_angle_alpha 90.000000
_cell_angle_beta 18.322087
_cell_angle_gamma 90.000000
_cell_volume 1319.451232
_symmetry_space_group_name_H-M "P 2/M"
_symmetry_group_IT_number 10
_symmetry_cell_setting 'monoclinic'
loop_
_space_group_symop_operation_xyz
x,y,z
-x,y,-z
-x,-y,-z
x,-y,z
loop_
_atom_site_type_symbol
_atom_site_label
_atom_site_fract_x
_atom_site_fract_y
_atom_site_fract_z
Si Si1 0.367781 0.604575 0.193930
Si Si2 0.213152 0.111176 0.037422
Si Si3 0.178599 0.889287 0.280286
Si Si4 0.156659 0.805342 0.611418
Si Si5 0.673840 0.891406 0.183219
Si Si6 0.019643 0.395674 0.286728
Si Si7 0.000000 0.757895 0.500000
O O1 0.338753 0.500000 0.241407
O O2 0.153596 0.609739 0.271567
O O3 0.267200 0.687157 0.307009
O O4 0.698010 0.614326 0.947583
O O5 0.935863 0.159812 0.256276
O O6 0.149592 0.000000 0.075939
O O7 0.511690 0.121455 0.884975
O O8 0.283678 0.145907 0.918338
O O9 0.950571 0.829315 0.473764
O O10 0.128526 0.840998 0.244150
O O11 0.122459 0.000000 0.312228
O O12 0.439908 0.848031 0.388125
O O13 0.180877 0.693863 0.592786
O O14 0.582476 0.000000 0.235812
O O15 0.000000 0.887576 0.000000
O O16 0.893348 0.500000 0.361317
#
# Coordination Sequence:
#
# PCOD9153376 Si02
#       7
#     4   4   4   4   4   4   2
#     4   9  18  31  47  70 103 145 193 236 276 327
#     4  10  22  37  56  85 118 152 190 231 281 345
#     4  11  22  32  48  82 124 157 186 222 275 350
#     4  12  21  36  61  83 115 159 194 225 288 350
#     4  10  23  42  61  86 117 148 195 251 286 324
#     4   9  19  35  51  73 109 150 191 236 282 336
#     4  12  18  28  46  70 104 156 196 224 264 326
#
# _framework density 19.705161
#
# number of rings (size 3 to 8) (size 9 to 14) (size 15 to 20)
#    0.000    1.692    1.538    5.077    2.154    3.077 
#    0.000    2.308    0.000    0.462    0.000    1.077 
#    0.000    0.000    0.000    0.000    0.000    0.000 
#
# Total GULP energy -145063.464694 kJ/mol
# GULP energy per Si atom -5579.364027 kJ/mol
# Density = 1.966031 g / cm^3
# Si number density = 19.705161 Si / 1000 Ang^3
#
#
#
# Elastic Constant Matrix: (Units=GPa)
#
#
# Indices 1 2 3 4 5 6 
#
# 1 42.2803 8.9352 36.6689 0.0000 20.0337 0.0000
# 2 8.9352 136.4972 39.2224 0.0000 27.6385 0.0000
# 3 36.6689 39.2224 94.8704 0.0000 30.4313 0.0000
# 4 0.0000 0.0000 0.0000 18.9060 0.0000 10.2939
# 5 20.0337 27.6385 30.4313 0.0000 29.6057 0.0000
# 6 0.0000 0.0000 0.0000 10.2939 0.0000 20.0140
#
#
#
# Elastic Compliance Matrix: (Units=1/GPa)
#
#
# Indices 1 2 3 4 5 6 
#
# 1 0.043059 0.004945 -0.011727 0.000000 -0.021700 0.000000
# 2 0.004945 0.009754 -0.002909 0.000000 -0.009462 0.000000
# 3 -0.011727 -0.002909 0.019185 0.000000 -0.009069 0.000000
# 4 0.000000 0.000000 0.000000 0.073467 0.000000 -0.037787
# 5 -0.021700 -0.009462 -0.009069 0.000000 0.066617 0.000000
# 6 0.000000 0.000000 0.000000 -0.037787 0.000000 0.069400
#
#
# Mechanical properties :
#
#
# Convention : Reuss Voigt Hill
#
# Bulk Modulus (GPa) = 19.00521 49.25565 34.13043
# Shear Modulus (GPa) = 15.70335 26.29325 20.99830
#
# Velocity S-wave (km/s) = 2.82603 3.65682 3.26793
# Velocity P-wave (km/s) = 4.50714 6.54831 5.62115
#
# Compressibility (1/GPa) = 0.05261715
#
# Stress axis : x y z
#
# Youngs Moduli (GPa) = 23.22382 102.51908 52.12421
#
# Poissons Ratio (x) = -0.50695 0.61125
# Poissons Ratio (y) = -0.11484 0.15162
# Poissons Ratio (z) = 0.27234 0.29821
#
# Static dielectric constant tensor:
#      x y z
#    x 1.794510 0.000000 0.202160 
#    y 0.000000 1.702790 0.000000 
#    z 0.202160 0.000000 2.192690 
# 
# From -- ./inp_files/85295.got.cif
#   From: 2010.05.17/outbox.cif.g08.bks.cpg/sg10_43_cif.got.tgz:85295.got - 2010.06.03 11:33:40.
