data_PCOD9153482
_publ_section_title
;
Structure prediction by ZEFSAII (Michael W. Deem and Ramdas Pophale) SiO2 
 PCOD9153482
Probable space group: P 2/M
;
_chemical_formula_sum "Si O2"
_cell_formula_units_Z 32
_cell_length_a 9.356900
_cell_length_b 22.703323
_cell_length_c 16.163035
_cell_angle_alpha 90.000000
_cell_angle_beta 153.455415
_cell_angle_gamma 90.000000
_cell_volume 1534.436521
_symmetry_space_group_name_H-M "P 2/M"
_symmetry_group_IT_number 10
_symmetry_cell_setting 'monoclinic'
loop_
_space_group_symop_operation_xyz
x,y,z
-x,y,-z
-x,-y,-z
x,-y,z
loop_
_atom_site_type_symbol
_atom_site_label
_atom_site_fract_x
_atom_site_fract_y
_atom_site_fract_z
Si Si1 0.714043 0.355892 0.283756
Si Si2 0.842549 0.743890 0.212666
Si Si3 0.374481 0.855550 0.696661
Si Si4 0.324766 0.068100 0.822036
Si Si5 0.639023 0.263659 0.804955
Si Si6 0.143098 0.433202 0.980449
Si Si7 0.286531 0.856408 0.471690
Si Si8 0.749436 0.327233 0.698885
O O1 0.814482 0.312344 0.260712
O O2 0.418757 0.320815 0.171389
O O3 0.521614 0.416029 0.166337
O O4 0.000000 0.360879 0.500000
O O5 0.059628 0.797922 0.357874
O O6 0.010124 0.717869 0.218796
O O7 0.500000 0.765021 0.000000
O O8 0.487831 0.892922 0.833636
O O9 0.416561 0.785943 0.728715
O O10 0.493383 0.862490 0.663464
O O11 0.000000 0.870387 0.500000
O O12 0.966239 0.090569 0.654996
O O13 0.324170 0.000000 0.795679
O O14 0.500000 0.074062 0.000000
O O15 0.583737 0.288387 0.684796
O O16 0.000000 0.242126 0.000000
O O17 0.098177 0.500000 0.926850
O O18 0.000000 0.432136 0.000000
O O19 0.931515 0.384815 0.823690
O O20 0.500000 0.854649 0.500000
O O21 0.500000 0.344667 0.500000
#
# Coordination Sequence:
#
# PCOD9153482 Si02
#       8
#     4   4   4   4   4   4   4   4
#     4  12  22  39  63  91 123 165 213 263 324 388
#     4  12  23  38  62  96 134 163 203 266 328 384
#     4  10  22  38  61  95 127 167 217 268 323 391
#     4  10  23  45  67  89 125 175 224 270 326 388
#     4  12  21  39  62  91 129 167 209 253 323 394
#     4  11  24  46  66  89 124 169 222 267 318 392
#     4  11  23  39  61  98 135 168 214 265 330 392
#     4  12  23  40  64  94 127 166 209 264 331 390
#
# _framework density 20.854561
#
# number of rings (size 3 to 8) (size 9 to 14) (size 15 to 20)
#    0.000    0.750    3.750    5.625    0.000    5.000 
#    0.000    1.250    0.000    1.875    0.000    0.000 
#    0.000    0.000    0.000    0.000    0.000    0.000 
#
# Total GULP energy -178529.921467 kJ/mol
# GULP energy per Si atom -5579.060046 kJ/mol
# Density = 2.080710 g / cm^3
# Si number density = 20.854561 Si / 1000 Ang^3
#
#
#
# Elastic Constant Matrix: (Units=GPa)
#
#
# Indices 1 2 3 4 5 6 
#
# 1 112.6852 41.5657 20.5025 0.0000 -8.5171 0.0000
# 2 41.5657 125.5625 42.3048 0.0000 -20.3517 0.0000
# 3 20.5025 42.3048 89.7821 0.0000 -15.5431 0.0000
# 4 0.0000 0.0000 0.0000 21.7395 0.0000 9.0303
# 5 -8.5171 -20.3517 -15.5431 0.0000 23.9238 0.0000
# 6 0.0000 0.0000 0.0000 9.0303 0.0000 -0.6836
#
#
#
# Elastic Compliance Matrix: (Units=1/GPa)
#
#
# Indices 1 2 3 4 5 6 
#
# 1 0.010172 -0.003006 -0.000814 0.000000 0.000535 0.000000
# 2 -0.003006 0.011131 -0.003498 0.000000 0.006126 0.000000
# 3 -0.000814 -0.003498 0.013979 0.000000 0.005817 0.000000
# 4 0.000000 0.000000 0.000000 0.007091 0.000000 0.093667
# 5 0.000535 0.006126 0.005817 0.000000 0.050981 0.000000
# 6 0.000000 0.000000 0.000000 0.093667 0.000000 -0.225494
#
#
# Mechanical properties :
#
#
# Convention : Reuss Voigt Hill
#
# Bulk Modulus (GPa) = 48.43493 59.64178 54.03835
# Shear Modulus (GPa) = -45.19821 23.90638 -10.64592
#
# Velocity S-wave (km/s) = -4.66048 3.38943 -2.26184
# Velocity P-wave (km/s) = 2.38425 6.63164 4.37573
#
# Compressibility (1/GPa) = 0.02064626
#
# Stress axis : x y z
#
# Youngs Moduli (GPa) = 98.31208 89.84112 71.53594
#
# Poissons Ratio (x) = 0.27009 0.05820
# Poissons Ratio (y) = 0.29556 0.25021
# Poissons Ratio (z) = 0.07998 0.31424
#
# Static dielectric constant tensor:
#      x y z
#    x 1.826030 0.000000 -0.041890 
#    y 0.000000 1.729190 0.000000 
#    z -0.041890 0.000000 1.835880 
# 
# From -- ./inp_files/62721.got.cif
#   From: 2010.05.17/outbox.cif.g08.bks.cpg/sg10_32_cif.got.tgz:62721.got - 2010.06.03 11:33:40.
