data_PCOD9153656
_publ_section_title
;
Structure prediction by ZEFSAII (Michael W. Deem and Ramdas Pophale) SiO2 
 PCOD9153656
Probable space group: P 2/M
;
_chemical_formula_sum "Si O2"
_cell_formula_units_Z 20
_cell_length_a 5.151685
_cell_length_b 28.737602
_cell_length_c 5.265187
_cell_angle_alpha 90.000000
_cell_angle_beta 89.947951
_cell_angle_gamma 90.000000
_cell_volume 779.495203
_symmetry_space_group_name_H-M "P 2/M"
_symmetry_group_IT_number 10
_symmetry_cell_setting 'monoclinic'
loop_
_space_group_symop_operation_xyz
x,y,z
-x,y,-z
-x,-y,-z
x,-y,z
loop_
_atom_site_type_symbol
_atom_site_label
_atom_site_fract_x
_atom_site_fract_y
_atom_site_fract_z
Si Si1 0.322998 0.247610 0.245969
Si Si2 0.250372 0.650781 0.333719
Si Si3 0.822315 0.450813 0.753988
Si Si4 0.316972 0.851104 0.250324
Si Si5 0.317464 0.950362 0.250130
O O1 0.500000 0.247476 0.500000
O O2 0.196183 0.298566 0.213384
O O3 0.168452 0.198553 0.253084
O O4 0.500000 0.244357 0.000000
O O5 0.500000 0.659123 0.500000
O O6 0.306134 0.600005 0.215310
O O7 0.000000 0.642630 0.500000
O O8 0.667182 0.500000 0.745523
O O9 0.000000 0.451025 0.500000
O O10 0.000000 0.453185 0.000000
O O11 0.500000 0.851069 0.500000
O O12 0.170556 0.900740 0.250437
O O13 0.500000 0.851561 0.000000
O O14 0.500000 0.950329 0.500000
O O15 0.170945 0.000000 0.250339
O O16 0.500000 0.950428 0.000000
#
# Coordination Sequence:
#
# PCOD9153656 Si02
#       5
#     4   4   4   4   4
#     4   9  18  32  50  73 102 138 179 223 272 326
#     4  10  22  40  62  88 118 152 192 236 284 338
#     4   9  19  37  60  86 116 150 188 231 280 334
#     4   8  13  22  36  55  83 120 161 206 256 310
#     4   8  12  17  27  46  74 110 152 198 248 302
#
# _framework density 25.657627999999999
#
# number of rings (size 3 to 8) (size 9 to 14) (size 15 to 20)
#    0.000    3.200    0.000    0.000    0.000    6.800 
#    0.000    0.000    0.000   11.400    0.000    0.000 
#    0.000    0.800    0.000    0.600    0.000  312.800 
#
# Total GULP energy -111387.617750 kJ/mol
# GULP energy per Si atom -5569.380887 kJ/mol
# Density = 2.559923 g / cm^3
# Si number density = 25.657628 Si / 1000 Ang^3
#
#
#
# Elastic Constant Matrix: (Units=GPa)
#
#
# Indices 1 2 3 4 5 6 
#
# 1 50.7776 5.6211 33.6254 0.0000 7.2271 0.0000
# 2 5.6211 413.7380 -8.1507 0.0000 -1.4631 0.0000
# 3 33.6254 -8.1507 195.6423 0.0000 4.9124 0.0000
# 4 0.0000 0.0000 0.0000 26.6985 0.0000 9.0646
# 5 7.2271 -1.4631 4.9124 0.0000 52.0318 0.0000
# 6 0.0000 0.0000 0.0000 9.0646 0.0000 -3.7797
#
#
#
# Elastic Compliance Matrix: (Units=1/GPa)
#
#
# Indices 1 2 3 4 5 6 
#
# 1 0.022681 -0.000394 -0.003844 0.000000 -0.002799 0.000000
# 2 -0.000394 0.002426 0.000166 0.000000 0.000107 0.000000
# 3 -0.003844 0.000166 0.005779 0.000000 -0.000007 0.000000
# 4 0.000000 0.000000 0.000000 0.020645 0.000000 0.049512
# 5 -0.002799 0.000107 -0.000007 0.000000 0.019611 0.000000
# 6 0.000000 0.000000 0.000000 0.049512 0.000000 -0.145829
#
#
# Mechanical properties :
#
#
# Convention : Reuss Voigt Hill
#
# Bulk Modulus (GPa) = 43.97090 80.26108 62.11599
# Shear Modulus (GPa) = -84.80225 56.92758 -13.93734
#
# Velocity S-wave (km/s) = -5.75528 4.71546 -2.33320
# Velocity P-wave (km/s) = 5.19515 7.81005 4.12355
#
# Compressibility (1/GPa) = 0.02274232
#
# Stress axis : x y z
#
# Youngs Moduli (GPa) = 44.08887 412.20300 173.03390
#
# Poissons Ratio (x) = 0.16232 0.66522
# Poissons Ratio (y) = 0.01736 -0.02873
# Poissons Ratio (z) = 0.16950 -0.06845
#
# Static dielectric constant tensor:
#      x y z
#    x 6.278250 0.000000 -1.151670 
#    y 0.000000 2.313450 0.000000 
#    z -1.151670 0.000000 2.274050 
# 
# From -- ./inp_files/2243.got.cif
#   From: 2010.05.17/outbox.cif.g08.bks.cpg/sg10_2_cif.got.tgz:2243.got - 2010.06.03 11:33:40.
