data_PCOD9153815
_publ_section_title
;
Structure prediction by ZEFSAII (Michael W. Deem and Ramdas Pophale) SiO2 
 PCOD9153815
Probable space group: P 2/M
;
_chemical_formula_sum "Si O2"
_cell_formula_units_Z 28
_cell_length_a 27.974357
_cell_length_b 9.127855
_cell_length_c 9.164096
_cell_angle_alpha 90.000000
_cell_angle_beta 146.182139
_cell_angle_gamma 90.000000
_cell_volume 1302.345694
_symmetry_space_group_name_H-M "P 2/M"
_symmetry_group_IT_number 10
_symmetry_cell_setting 'monoclinic'
loop_
_space_group_symop_operation_xyz
x,y,z
-x,y,-z
-x,-y,-z
x,-y,z
loop_
_atom_site_type_symbol
_atom_site_label
_atom_site_fract_x
_atom_site_fract_y
_atom_site_fract_z
Si Si1 0.385845 0.327017 0.076407
Si Si2 0.684892 0.173556 0.818147
Si Si3 0.135936 0.336235 0.777388
Si Si4 0.203285 0.326309 0.468585
Si Si5 0.890441 0.163194 0.010955
Si Si6 0.476383 0.826378 0.774188
Si Si7 0.051137 0.270778 0.266026
O O1 0.394620 0.500000 0.132595
O O2 0.301541 0.308255 0.761003
O O3 0.366817 0.234898 0.173549
O O4 0.466310 0.266224 0.191939
O O5 0.623042 0.194233 0.521460
O O6 0.702537 0.000000 0.879193
O O7 0.771973 0.265548 0.025783
O O8 0.145728 0.500000 0.861310
O O9 0.080437 0.345989 0.489307
O O10 0.094854 0.232155 0.794156
O O11 0.183037 0.500000 0.434803
O O12 0.176075 0.267995 0.242132
O O13 0.142175 0.233376 0.423087
O O14 0.855560 0.000000 0.934786
O O15 0.978584 0.161243 0.141445
O O16 0.495251 0.000000 0.802265
O O17 0.500000 0.787400 0.000000
O O18 0.000000 0.343372 0.000000
#
# Coordination Sequence:
#
# PCOD9153815 Si02
#       7
#     4   4   4   4   4   4   4
#     4  11  23  42  68 101 134 171 220 271 326 390
#     4  11  24  43  68  98 135 177 221 271 326 390
#     4  12  25  43  68  98 133 176 221 272 332 389
#     4  10  22  42  66  97 131 171 219 271 328 393
#     4  11  26  43  63  95 134 174 220 273 330 391
#     4  10  24  45  68  98 135 176 219 267 328 391
#     4  10  23  43  68  95 128 169 219 273 323 390
#
# _framework density 21.499669999999998
#
# number of rings (size 3 to 8) (size 9 to 14) (size 15 to 20)
#    0.000    1.286    1.429    3.000    2.000   15.429 
#    0.000    0.000    0.000    0.000    0.000    0.000 
#    0.000    0.000    0.000    0.000    0.000    0.000 
#
# Total GULP energy -156312.676149 kJ/mol
# GULP energy per Si atom -5582.595577 kJ/mol
# Density = 2.145074 g / cm^3
# Si number density = 21.499670 Si / 1000 Ang^3
#
#
#
# Elastic Constant Matrix: (Units=GPa)
#
#
# Indices 1 2 3 4 5 6 
#
# 1 66.7529 18.6596 20.4166 0.0000 -8.4888 0.0000
# 2 18.6596 72.7357 34.3513 0.0000 -2.0537 0.0000
# 3 20.4166 34.3513 120.9490 0.0000 -11.0924 0.0000
# 4 0.0000 0.0000 0.0000 38.1404 0.0000 6.8458
# 5 -8.4888 -2.0537 -11.0924 0.0000 39.2480 0.0000
# 6 0.0000 0.0000 0.0000 6.8458 0.0000 21.8245
#
#
#
# Elastic Compliance Matrix: (Units=1/GPa)
#
#
# Indices 1 2 3 4 5 6 
#
# 1 0.016819 -0.003487 -0.001573 0.000000 0.003011 0.000000
# 2 -0.003487 0.016609 -0.004228 0.000000 -0.001080 0.000000
# 3 -0.001573 -0.004228 0.009940 0.000000 0.002248 0.000000
# 4 0.000000 0.000000 0.000000 0.027783 0.000000 -0.008715
# 5 0.003011 -0.001080 0.002248 0.000000 0.026709 0.000000
# 6 0.000000 0.000000 0.000000 -0.008715 0.000000 0.048554
#
#
# Mechanical properties :
#
#
# Convention : Reuss Voigt Hill
#
# Bulk Modulus (GPa) = 40.33245 45.25473 42.79359
# Shear Modulus (GPa) = 28.85940 32.30994 30.58467
#
# Velocity S-wave (km/s) = 3.66774 3.88082 3.77578
# Velocity P-wave (km/s) = 6.06108 6.41683 6.24149
#
# Compressibility (1/GPa) = 0.02479393
#
# Stress axis : x y z
#
# Youngs Moduli (GPa) = 59.45570 60.20794 100.60063
#
# Poissons Ratio (x) = 0.20995 0.15821
# Poissons Ratio (y) = 0.20733 0.42530
# Poissons Ratio (z) = 0.09350 0.25454
#
# Static dielectric constant tensor:
#      x y z
#    x 1.780390 0.000000 -0.003920 
#    y 0.000000 1.729520 0.000000 
#    z -0.003920 0.000000 1.786310 
# 
# From -- ./inp_files/37225.got.cif
#   From: 2010.05.17/outbox.cif.g08.bks.cpg/sg10_19_cif.got.tgz:37225.got - 2010.06.03 11:33:40.
