data_PCOD9153750
_publ_section_title
;
Structure prediction by ZEFSAII (Michael W. Deem and Ramdas Pophale) SiO2 
 PCOD9153750
Probable space group: P 2/M
;
_chemical_formula_sum "Si O2"
_cell_formula_units_Z 20
_cell_length_a 8.216741
_cell_length_b 8.410340
_cell_length_c 12.117835
_cell_angle_alpha 90.000000
_cell_angle_beta 96.877649
_cell_angle_gamma 90.000000
_cell_volume 831.384190
_symmetry_space_group_name_H-M "P 2/M"
_symmetry_group_IT_number 10
_symmetry_cell_setting 'monoclinic'
loop_
_space_group_symop_operation_xyz
x,y,z
-x,y,-z
-x,-y,-z
x,-y,z
loop_
_atom_site_type_symbol
_atom_site_label
_atom_site_fract_x
_atom_site_fract_y
_atom_site_fract_z
Si Si1 0.920287 0.318461 0.846425
Si Si2 0.604195 0.685638 0.235397
Si Si3 0.696701 0.812878 0.650808
Si Si4 0.246249 0.182888 0.965223
Si Si5 0.176600 0.188930 0.568804
O O1 0.977489 0.500000 0.859738
O O2 0.841044 0.281262 0.723405
O O3 0.069346 0.203800 0.890484
O O4 0.779248 0.285606 0.926639
O O5 0.567543 0.500000 0.226046
O O6 0.466946 0.773319 0.296215
O O7 0.626621 0.756461 0.115433
O O8 0.770241 0.714331 0.319767
O O9 0.698016 0.776409 0.521404
O O10 0.732464 0.000000 0.663476
O O11 0.275435 0.000000 0.996317
O O12 0.000000 0.220621 0.500000
O O13 0.183340 0.000000 0.596171
#
# Coordination Sequence:
#
# PCOD9153750 Si02
#       5
#     4   4   4   4   4
#     4  11  22  39  63  93 125 156 198 250 302 352
#     4  12  25  40  60  89 124 159 200 253 308 354
#     4  11  23  40  62  89 123 163 204 244 296 363
#     4  11  22  40  64  89 120 161 206 246 295 359
#     4  10  22  41  65  90 118 156 202 248 297 361
#
# _framework density 24.056267999999999
#
# number of rings (size 3 to 8) (size 9 to 14) (size 15 to 20)
#    0.000    1.000    0.000    9.000    0.000    6.800 
#    0.000    4.000    0.000    0.000    0.000    0.000 
#    0.000    0.000    0.000    0.000    0.000    0.000 
#
# Total GULP energy -112078.670820 kJ/mol
# GULP energy per Si atom -5603.933541 kJ/mol
# Density = 2.400151 g / cm^3
# Si number density = 24.056268 Si / 1000 Ang^3
#
#
#
# Elastic Constant Matrix: (Units=GPa)
#
#
# Indices 1 2 3 4 5 6 
#
# 1 68.9711 -16.6677 -0.8349 0.0000 -17.0462 0.0000
# 2 -16.6677 74.7154 15.8899 0.0000 -6.8371 0.0000
# 3 -0.8349 15.8899 92.5229 0.0000 -13.0178 0.0000
# 4 0.0000 0.0000 0.0000 32.0075 0.0000 11.9086
# 5 -17.0462 -6.8371 -13.0178 0.0000 47.2698 0.0000
# 6 0.0000 0.0000 0.0000 11.9086 0.0000 -1.6583
#
#
#
# Elastic Compliance Matrix: (Units=1/GPa)
#
#
# Indices 1 2 3 4 5 6 
#
# 1 0.017296 0.004416 0.000380 0.000000 0.006981 0.000000
# 2 0.004416 0.015110 -0.002105 0.000000 0.003198 0.000000
# 3 0.000380 -0.002105 0.011599 0.000000 0.003027 0.000000
# 4 0.000000 0.000000 0.000000 0.008509 0.000000 0.061103
# 5 0.006981 0.003198 0.003027 0.000000 0.024969 0.000000
# 6 0.000000 0.000000 0.000000 0.061103 0.000000 -0.164232
#
#
# Mechanical properties :
#
#
# Convention : Reuss Voigt Hill
#
# Bulk Modulus (GPa) = 20.24832 25.88711 23.06771
# Shear Modulus (GPa) = -66.07670 31.37861 -17.34904
#
# Velocity S-wave (km/s) = -5.24664 3.61554 -2.68840
# Velocity P-wave (km/s) = 5.31673 5.31168 0.16372
#
# Compressibility (1/GPa) = 0.04938682
#
# Stress axis : x y z
#
# Youngs Moduli (GPa) = 57.81701 66.18247 86.21477
#
# Poissons Ratio (x) = -0.29229 -0.03274
# Poissons Ratio (y) = -0.25535 0.18149
# Poissons Ratio (z) = -0.02196 0.13932
#
# Static dielectric constant tensor:
#      x y z
#    x 2.025190 0.000000 -0.008110 
#    y 0.000000 1.808300 0.000000 
#    z -0.008110 0.000000 1.904160 
# 
# From -- ./inp_files/22281.got.cif
#   From: 2010.05.17/outbox.cif.g08.bks.cpg/sg10_12_cif.got.tgz:22281.got - 2010.06.03 11:33:40.
