data_PCOD9153807
_publ_section_title
;
Structure prediction by ZEFSAII (Michael W. Deem and Ramdas Pophale) SiO2 
 PCOD9153807
Probable space group: P 2/M
;
_chemical_formula_sum "Si O2"
_cell_formula_units_Z 20
_cell_length_a 8.261804
_cell_length_b 23.440368
_cell_length_c 8.612512
_cell_angle_alpha 90.000000
_cell_angle_beta 33.430549
_cell_angle_gamma 90.000000
_cell_volume 918.887310
_symmetry_space_group_name_H-M "P 2/M"
_symmetry_group_IT_number 10
_symmetry_cell_setting 'monoclinic'
loop_
_space_group_symop_operation_xyz
x,y,z
-x,y,-z
-x,-y,-z
x,-y,z
loop_
_atom_site_type_symbol
_atom_site_label
_atom_site_fract_x
_atom_site_fract_y
_atom_site_fract_z
Si Si1 0.111415 0.751937 0.077656
Si Si2 0.269919 0.312856 0.412888
Si Si3 0.332330 0.063727 0.787116
Si Si4 0.187529 0.859794 0.201225
Si Si5 0.669426 0.439219 0.703855
O O1 0.446638 0.729095 0.827810
O O2 0.031777 0.805181 0.252501
O O3 0.000000 0.771752 0.000000
O O4 0.898353 0.700923 0.295206
O O5 0.383279 0.377665 0.327529
O O6 0.000000 0.306736 0.500000
O O7 0.500000 0.088917 0.500000
O O8 0.462343 0.000000 0.709169
O O9 0.290681 0.096658 0.982882
O O10 0.000000 0.058058 0.000000
O O11 0.000000 0.881750 0.500000
O O12 0.500000 0.835850 0.000000
O O13 0.611133 0.500000 0.667181
O O14 0.000000 0.439126 0.500000
O O15 0.500000 0.439241 0.000000
#
# Coordination Sequence:
#
# PCOD9153807 Si02
#       5
#     4   4   4   4   4
#     4  12  25  40  59  85 122 164 203 246 308 375
#     4  11  21  38  62  87 117 154 202 255 301 356
#     4  10  22  42  66  91 124 165 203 242 300 369
#     4  12  25  40  63  93 124 158 206 261 306 354
#     4   9  17  30  53  85 114 144 188 243 299 354
#
# _framework density 21.765453000000001
#
# number of rings (size 3 to 8) (size 9 to 14) (size 15 to 20)
#    0.000    1.200    0.000    8.400    0.000    2.400 
#    0.000    0.000    0.000    3.600    0.000    0.000 
#    0.000    0.000    0.000    0.000    0.000    0.000 
#
# Total GULP energy -111350.171360 kJ/mol
# GULP energy per Si atom -5567.508568 kJ/mol
# Density = 2.171591 g / cm^3
# Si number density = 21.765453 Si / 1000 Ang^3
#
#
#
# Elastic Constant Matrix: (Units=GPa)
#
#
# Indices 1 2 3 4 5 6 
#
# 1 49.9567 34.8238 25.2262 0.0000 16.7600 0.0000
# 2 34.8238 99.7199 31.7515 0.0000 18.8453 0.0000
# 3 25.2262 31.7515 166.4196 0.0000 8.6493 0.0000
# 4 0.0000 0.0000 0.0000 31.6153 0.0000 1.4065
# 5 16.7600 18.8453 8.6493 0.0000 33.7104 0.0000
# 6 0.0000 0.0000 0.0000 1.4065 0.0000 2.2087
#
#
#
# Elastic Compliance Matrix: (Units=1/GPa)
#
#
# Indices 1 2 3 4 5 6 
#
# 1 0.030088 -0.007817 -0.002553 0.000000 -0.009934 0.000000
# 2 -0.007817 0.013827 -0.001270 0.000000 -0.003517 0.000000
# 3 -0.002553 -0.001270 0.006624 0.000000 0.000280 0.000000
# 4 0.000000 0.000000 0.000000 0.032553 0.000000 -0.020730
# 5 -0.009934 -0.003517 0.000280 0.000000 0.036498 0.000000
# 6 0.000000 0.000000 0.000000 -0.020730 0.000000 0.465947
#
#
# Mechanical properties :
#
#
# Convention : Reuss Voigt Hill
#
# Bulk Modulus (GPa) = 36.68609 55.52211 46.10410
# Shear Modulus (GPa) = 8.09187 28.45986 18.27587
#
# Velocity S-wave (km/s) = 1.93024 3.61996 2.90086
# Velocity P-wave (km/s) = 4.67542 6.56024 5.69633
#
# Compressibility (1/GPa) = 0.02725829
#
# Stress axis : x y z
#
# Youngs Moduli (GPa) = 33.23529 72.32139 150.97218
#
# Poissons Ratio (x) = 0.56534 0.38545
# Poissons Ratio (y) = 0.25980 0.19179
# Poissons Ratio (z) = 0.08485 0.09188
#
# Static dielectric constant tensor:
#      x y z
#    x 1.957940 0.000000 0.038640 
#    y 0.000000 1.875330 0.000000 
#    z 0.038640 0.000000 1.823270 
# 
# From -- ./inp_files/20592.got.cif
#   From: 2010.05.17/outbox.cif.g08.bks.cpg/sg10_11_cif.got.tgz:20592.got - 2010.06.03 11:33:40.
