data_PCOD9153475
_publ_section_title
;
Structure prediction by ZEFSAII (Michael W. Deem and Ramdas Pophale) SiO2 
 PCOD9153475
Probable space group: P 2/M
;
_chemical_formula_sum "Si O2"
_cell_formula_units_Z 28
_cell_length_a 14.876244
_cell_length_b 17.790384
_cell_length_c 5.956402
_cell_angle_alpha 90.000000
_cell_angle_beta 111.147884
_cell_angle_gamma 90.000000
_cell_volume 1470.220263
_symmetry_space_group_name_H-M "P 2/M"
_symmetry_group_IT_number 10
_symmetry_cell_setting 'monoclinic'
loop_
_space_group_symop_operation_xyz
x,y,z
-x,y,-z
-x,-y,-z
x,-y,z
loop_
_atom_site_type_symbol
_atom_site_label
_atom_site_fract_x
_atom_site_fract_y
_atom_site_fract_z
Si Si1 0.412897 0.695988 0.295586
Si Si2 0.275558 0.288183 0.551508
Si Si3 0.383077 0.411887 0.905423
Si Si4 0.753204 0.837181 0.104103
Si Si5 0.456781 0.856634 0.208373
Si Si6 0.892463 0.227567 0.851942
Si Si7 0.899997 0.083035 0.545308
O O1 0.500000 0.655346 0.500000
O O2 0.342099 0.735847 0.404646
O O3 0.461964 0.765069 0.209843
O O4 0.356977 0.634341 0.104998
O O5 0.321510 0.367281 0.665394
O O6 0.282815 0.226759 0.753813
O O7 0.167566 0.284465 0.359400
O O8 0.363971 0.500000 0.891270
O O9 0.500000 0.401487 0.000000
O O10 0.813416 0.898184 0.297357
O O11 0.658251 0.872202 0.904852
O O12 0.828311 0.794487 0.009268
O O13 0.500000 0.878289 0.500000
O O14 0.500000 0.882141 0.000000
O O15 0.901598 0.149233 0.726213
O O16 0.000000 0.254375 0.000000
O O17 0.000000 0.085547 0.500000
O O18 0.888987 0.000000 0.635171
#
# Coordination Sequence:
#
# PCOD9153475 Si02
#       7
#     4   4   4   4   4   4   4
#     4  11  19  31  53  79 117 154 195 246 300 363
#     4  11  21  36  54  82 120 157 199 253 306 361
#     4  11  22  34  52  82 122 163 201 247 313 380
#     4  11  21  37  59  88 120 157 203 250 305 370
#     4  11  22  34  58  89 121 160 206 261 307 361
#     4  11  22  37  60  89 116 156 201 251 307 369
#     4  10  22  38  60  91 127 157 190 245 313 380
#
# _framework density 19.044767
#
# number of rings (size 3 to 8) (size 9 to 14) (size 15 to 20)
#    0.000    1.143    5.714    2.143    2.000    1.714 
#    0.000    0.000    0.000    1.286    0.000    4.000 
#    0.000    0.000    0.000    0.000    0.000    0.000 
#
# Total GULP energy -155999.451160 kJ/mol
# GULP energy per Si atom -5571.408970 kJ/mol
# Density = 1.900142 g / cm^3
# Si number density = 19.044767 Si / 1000 Ang^3
#
#
#
# Elastic Constant Matrix: (Units=GPa)
#
#
# Indices 1 2 3 4 5 6 
#
# 1 103.9175 15.3295 53.3119 0.0000 12.0729 0.0000
# 2 15.3295 59.5216 10.9267 0.0000 7.3340 0.0000
# 3 53.3119 10.9267 100.1175 0.0000 17.7484 0.0000
# 4 0.0000 0.0000 0.0000 20.8926 0.0000 14.2262
# 5 12.0729 7.3340 17.7484 0.0000 52.2564 0.0000
# 6 0.0000 0.0000 0.0000 14.2262 0.0000 37.7450
#
#
#
# Elastic Compliance Matrix: (Units=1/GPa)
#
#
# Indices 1 2 3 4 5 6 
#
# 1 0.013529 -0.002161 -0.006882 0.000000 -0.000485 0.000000
# 2 -0.002161 0.017665 -0.000453 0.000000 -0.001826 0.000000
# 3 -0.006882 -0.000453 0.014268 0.000000 -0.003192 0.000000
# 4 0.000000 0.000000 0.000000 0.064389 0.000000 -0.024268
# 5 -0.000485 -0.001826 -0.003192 0.000000 0.020589 0.000000
# 6 0.000000 0.000000 0.000000 -0.024268 0.000000 0.035640
#
#
# Mechanical properties :
#
#
# Convention : Reuss Voigt Hill
#
# Bulk Modulus (GPa) = 37.77997 46.96587 42.37292
# Shear Modulus (GPa) = 25.78677 34.44467 30.11572
#
# Velocity S-wave (km/s) = 3.68368 4.25740 3.98089
# Velocity P-wave (km/s) = 6.16224 6.99153 6.58994
#
# Compressibility (1/GPa) = 0.02646905
#
# Stress axis : x y z
#
# Youngs Moduli (GPa) = 73.91589 56.60760 70.08470
#
# Poissons Ratio (x) = 0.12234 0.48234
# Poissons Ratio (y) = 0.15974 0.03178
# Poissons Ratio (z) = 0.50871 0.02567
#
# Static dielectric constant tensor:
#      x y z
#    x 1.718070 0.000000 -0.011540 
#    y 0.000000 1.622610 0.000000 
#    z -0.011540 0.000000 1.784450 
# 
# From -- ./inp_files/9685.got.cif
#   From: 2010.05.17/outbox.cif.g08.bks.cpg/sg10_5_cif.got.tgz:9685.got - 2010.06.03 11:33:40.
