data_PCOD9153202
_publ_section_title
;
Structure prediction by ZEFSAII (Michael W. Deem and Ramdas Pophale) SiO2 
 PCOD9153202
Probable space group: P 2/M
;
_chemical_formula_sum "Si O2"
_cell_formula_units_Z 28
_cell_length_a 11.448547
_cell_length_b 13.964098
_cell_length_c 9.600954
_cell_angle_alpha 90.000000
_cell_angle_beta 65.809423
_cell_angle_gamma 90.000000
_cell_volume 1400.108767
_symmetry_space_group_name_H-M "P 2/M"
_symmetry_group_IT_number 10
_symmetry_cell_setting 'monoclinic'
loop_
_space_group_symop_operation_xyz
x,y,z
-x,y,-z
-x,-y,-z
x,-y,z
loop_
_atom_site_type_symbol
_atom_site_label
_atom_site_fract_x
_atom_site_fract_y
_atom_site_fract_z
Si Si1 0.767968 0.711232 0.300338
Si Si2 0.648607 0.389961 0.112637
Si Si3 0.617323 0.609131 0.592907
Si Si4 0.656400 0.889552 0.916505
Si Si5 0.731961 0.303568 0.800844
Si Si6 0.846272 0.113078 0.095013
Si Si7 0.995158 0.611596 0.669738
O O1 0.752818 0.656516 0.161642
O O2 0.647946 0.685110 0.458032
O O3 0.794196 0.819980 0.244550
O O4 0.882534 0.662306 0.326703
O O5 0.675854 0.500000 0.066844
O O6 0.519598 0.385040 0.266116
O O7 0.641154 0.333968 0.972262
O O8 0.635987 0.500000 0.530423
O O9 0.709017 0.631663 0.677655
O O10 0.705903 0.807795 0.787554
O O11 0.679224 0.000000 0.864878
O O12 0.500000 0.879213 0.000000
O O13 0.746332 0.873192 0.011987
O O14 0.873464 0.328829 0.780287
O O15 0.841220 0.000000 0.129160
O O16 0.000000 0.135984 0.000000
O O17 0.987266 0.500000 0.713637
O O18 0.000000 0.616154 0.500000
#
# Coordination Sequence:
#
# PCOD9153202 Si02
#       7
#     4   4   4   4   4   4   4
#     4  12  23  39  64  90 125 170 214 254 326 395
#     4  11  23  37  59  92 124 160 216 268 312 378
#     4  11  23  40  60  86 130 176 207 253 323 391
#     4  10  21  40  67  97 127 164 216 274 332 386
#     4  12  22  39  64  92 124 165 217 269 319 379
#     4  10  22  43  69  98 132 171 218 276 340 390
#     4  11  23  40  61  88 129 175 211 254 319 390
#
# _framework density 19.998445
#
# number of rings (size 3 to 8) (size 9 to 14) (size 15 to 20)
#    0.000    1.000    2.857    5.143    0.000    2.286 
#    0.000    2.143    0.000    3.429    0.000    0.000 
#    0.000    0.000    0.000    0.000    0.000    0.000 
#
# Total GULP energy -156243.219474 kJ/mol
# GULP energy per Si atom -5580.114981 kJ/mol
# Density = 1.995293 g / cm^3
# Si number density = 19.998445 Si / 1000 Ang^3
#
#
#
# Elastic Constant Matrix: (Units=GPa)
#
#
# Indices 1 2 3 4 5 6 
#
# 1 112.8882 25.2571 17.3144 0.0000 2.7817 0.0000
# 2 25.2571 108.9804 37.0727 0.0000 -13.9775 0.0000
# 3 17.3144 37.0727 75.1515 0.0000 2.2726 0.0000
# 4 0.0000 0.0000 0.0000 -37.4638 0.0000 -75.4593
# 5 2.7817 -13.9775 2.2726 0.0000 18.6196 0.0000
# 6 0.0000 0.0000 0.0000 -75.4593 0.0000 -64.6945
#
#
#
# Elastic Compliance Matrix: (Units=1/GPa)
#
#
# Indices 1 2 3 4 5 6 
#
# 1 0.009594 -0.002270 -0.000999 0.000000 -0.003016 0.000000
# 2 -0.002270 0.013292 -0.006369 0.000000 0.011095 0.000000
# 3 -0.000999 -0.006369 0.016881 0.000000 -0.006693 0.000000
# 4 0.000000 0.000000 0.000000 0.019782 0.000000 -0.023073
# 5 -0.003016 0.011095 -0.006693 0.000000 0.063303 0.000000
# 6 0.000000 0.000000 0.000000 -0.023073 0.000000 0.011455
#
#
# Mechanical properties :
#
#
# Convention : Reuss Voigt Hill
#
# Bulk Modulus (GPa) = 48.80677 50.70095 49.75386
# Shear Modulus (GPa) = 31.16931 -2.21602 14.47665
#
# Velocity S-wave (km/s) = 3.95218 -1.05380 2.69344
# Velocity P-wave (km/s) = 6.72938 4.89150 5.88266
#
# Compressibility (1/GPa) = 0.02048896
#
# Stress axis : x y z
#
# Youngs Moduli (GPa) = 104.23361 75.23434 59.23779
#
# Poissons Ratio (x) = 0.17081 0.05919
# Poissons Ratio (y) = 0.23664 0.37731
# Poissons Ratio (z) = 0.10415 0.47920
#
# Static dielectric constant tensor:
#      x y z
#    x 1.352800 0.000000 0.184940 
#    y 0.000000 1.695430 0.000000 
#    z 0.184940 0.000000 1.612850 
# 
# From -- ./inp_files/24921.got.cif
#   From: 2010.05.17/outbox.cif.g08.bks.cpg/sg10_13_cif.got.tgz:24921.got - 2010.06.03 11:33:40.
