data_PCOD9153865
_publ_section_title
;
Structure prediction by ZEFSAII (Michael W. Deem and Ramdas Pophale) SiO2 
 PCOD9153865
Probable space group: P 2/M
;
_chemical_formula_sum "Si O2"
_cell_formula_units_Z 24
_cell_length_a 7.370535
_cell_length_b 9.799103
_cell_length_c 20.481564
_cell_angle_alpha 90.000000
_cell_angle_beta 125.972071
_cell_angle_gamma 90.000000
_cell_volume 1197.181028
_symmetry_space_group_name_H-M "P 2/M"
_symmetry_group_IT_number 10
_symmetry_cell_setting 'monoclinic'
loop_
_space_group_symop_operation_xyz
x,y,z
-x,y,-z
-x,-y,-z
x,-y,z
loop_
_atom_site_type_symbol
_atom_site_label
_atom_site_fract_x
_atom_site_fract_y
_atom_site_fract_z
Si Si1 0.218505 0.347254 0.994975
Si Si2 0.683317 0.266509 0.123662
Si Si3 0.926735 0.848963 0.868204
Si Si4 0.485443 0.162129 0.687968
Si Si5 0.378698 0.341808 0.405313
Si Si6 0.154950 0.343957 0.699090
O O1 0.222391 0.500000 0.024438
O O2 0.279158 0.363258 0.930497
O O3 0.983869 0.268163 0.932836
O O4 0.414602 0.249654 0.065106
O O5 0.757675 0.322143 0.208715
O O6 0.860765 0.152045 0.137591
O O7 0.703867 0.818484 0.780404
O O8 0.908779 0.000000 0.893395
O O9 0.533943 0.237945 0.630477
O O10 0.279199 0.235936 0.679754
O O11 0.451895 0.000000 0.673111
O O12 0.500000 0.321118 0.500000
O O13 0.418385 0.500000 0.393207
O O14 0.112024 0.325217 0.357343
O O15 0.205121 0.500000 0.689475
#
# Coordination Sequence:
#
# PCOD9153865 Si02
#       6
#     4   4   4   4   4   4
#     4   9  16  28  53  83 111 148 202 254 297 344
#     4   9  17  30  57  80 111 150 201 245 300 342
#     4   9  19  33  52  77 112 155 197 238 287 343
#     4  11  24  41  60  89 125 161 200 241 291 357
#     4  10  22  43  70  95 119 151 193 244 300 357
#     4  11  22  38  62  91 120 156 199 245 300 355
#
# _framework density 20.047093
#
# number of rings (size 3 to 8) (size 9 to 14) (size 15 to 20)
#    1.000    1.167    1.667    2.500    0.000    5.000 
#    0.000    4.167    0.000    4.000    0.000    0.000 
#    0.000    0.000    0.000    0.000    0.000    0.000 
#
# Total GULP energy -133631.239848 kJ/mol
# GULP energy per Si atom -5567.968327 kJ/mol
# Density = 2.000146 g / cm^3
# Si number density = 20.047093 Si / 1000 Ang^3
#
#
#
# Elastic Constant Matrix: (Units=GPa)
#
#
# Indices 1 2 3 4 5 6 
#
# 1 82.3884 34.0864 38.5669 0.0000 -3.4494 0.0000
# 2 34.0864 107.3243 56.1985 0.0000 -10.9741 0.0000
# 3 38.5669 56.1985 116.6247 0.0000 3.2236 0.0000
# 4 0.0000 0.0000 0.0000 63.6388 0.0000 38.1022
# 5 -3.4494 -10.9741 3.2236 0.0000 14.2936 0.0000
# 6 0.0000 0.0000 0.0000 38.1022 0.0000 9.4217
#
#
#
# Elastic Compliance Matrix: (Units=1/GPa)
#
#
# Indices 1 2 3 4 5 6 
#
# 1 0.015087 -0.002512 -0.003850 0.000000 0.002581 0.000000
# 2 -0.002512 0.014870 -0.006675 0.000000 0.012316 0.000000
# 3 -0.003850 -0.006675 0.013315 0.000000 -0.009057 0.000000
# 4 0.000000 0.000000 0.000000 -0.011056 0.000000 0.044711
# 5 0.002581 0.012316 -0.009057 0.000000 0.082082 0.000000
# 6 0.000000 0.000000 0.000000 0.044711 0.000000 -0.074676
#
#
# Mechanical properties :
#
#
# Convention : Reuss Voigt Hill
#
# Bulk Modulus (GPa) = 58.14808 62.67123 60.40966
# Shear Modulus (GPa) = 69.99955 29.30318 49.65136
#
# Velocity S-wave (km/s) = 5.91552 3.82739 4.98208
# Velocity P-wave (km/s) = 8.70210 7.13174 7.95576
#
# Compressibility (1/GPa) = 0.01719747
#
# Stress axis : x y z
#
# Youngs Moduli (GPa) = 66.28137 67.24948 75.10469
#
# Poissons Ratio (x) = 0.16891 0.28917
# Poissons Ratio (y) = 0.16648 0.50135
# Poissons Ratio (z) = 0.25520 0.44891
#
# Static dielectric constant tensor:
#      x y z
#    x 1.879310 0.000000 -0.005570 
#    y 0.000000 1.693740 0.000000 
#    z -0.005570 0.000000 1.671870 
# 
# From -- ./inp_files/82046.got.cif
#   From: 2010.05.17/outbox.cif.g08.bks.cpg/sg10_42_cif.got.tgz:82046.got - 2010.06.03 11:33:40.
