data_PCOD9153579
_publ_section_title
;
Structure prediction by ZEFSAII (Michael W. Deem and Ramdas Pophale) SiO2 
 PCOD9153579
Probable space group: P 2/M
;
_chemical_formula_sum "Si O2"
_cell_formula_units_Z 18
_cell_length_a 12.687257
_cell_length_b 15.097726
_cell_length_c 8.588007
_cell_angle_alpha 90.000000
_cell_angle_beta 32.134721
_cell_angle_gamma 90.000000
_cell_volume 875.006581
_symmetry_space_group_name_H-M "P 2/M"
_symmetry_group_IT_number 10
_symmetry_cell_setting 'monoclinic'
loop_
_space_group_symop_operation_xyz
x,y,z
-x,y,-z
-x,-y,-z
x,-y,z
loop_
_atom_site_type_symbol
_atom_site_label
_atom_site_fract_x
_atom_site_fract_y
_atom_site_fract_z
Si Si1 0.121878 0.000000 0.193579
Si Si2 0.500000 0.355911 0.500000
Si Si3 0.888070 0.856134 0.298818
Si Si4 0.208883 0.500000 0.430440
Si Si5 0.269425 0.500000 0.994034
Si Si6 0.565710 0.000000 0.602031
Si Si7 0.811782 0.327234 0.345597
O O1 0.000000 0.000000 0.500000
O O2 0.044618 0.914693 0.197040
O O3 0.351404 0.000000 0.947139
O O4 0.363305 0.417417 0.782509
O O5 0.640292 0.301624 0.438265
O O6 0.844512 0.757852 0.415061
O O7 0.698970 0.916585 0.490252
O O8 0.000000 0.835437 0.000000
O O9 0.697973 0.500000 0.859520
O O10 0.254107 0.412438 0.473989
O O11 0.968398 0.500000 0.720493
O O12 0.500000 0.000000 0.500000
O O13 0.000000 0.351537 0.000000
#
# Coordination Sequence:
#
# PCOD9153579 Si02
#       7
#     2   2   4   2   2   2   4
#     4  11  23  43  65  93 131 159 197 261 316 362
#     4  11  22  38  62  91 114 166 214 253 304 359
#     4  10  22  39  63  99 121 159 211 251 303 377
#     4  11  21  43  61  86 128 173 196 258 314 353
#     4  10  22  39  63  86 119 166 219 249 305 364
#     4  11  19  39  71  88 119 165 199 248 309 371
#     4  11  23  39  63  92 129 159 206 260 305 362
#
# _framework density 20.571276000000001
#
# number of rings (size 3 to 8) (size 9 to 14) (size 15 to 20)
#    0.000    1.333    4.444    2.333    1.556    3.556 
#    4.000    2.222    0.000    0.000    0.000    0.000 
#    0.000    0.000    0.000    0.000    0.000    0.000 
#
# Total GULP energy -100417.457469 kJ/mol
# GULP energy per Si atom -5578.747637 kJ/mol
# Density = 2.052445 g / cm^3
# Si number density = 20.571276 Si / 1000 Ang^3
#
#
#
# Elastic Constant Matrix: (Units=GPa)
#
#
# Indices 1 2 3 4 5 6 
#
# 1 47.9409 11.6737 10.1127 0.0000 -8.4045 0.0000
# 2 11.6737 132.7757 12.3332 0.0000 3.0286 0.0000
# 3 10.1127 12.3332 104.7897 0.0000 -5.4277 0.0000
# 4 0.0000 0.0000 0.0000 0.2374 0.0000 -31.1033
# 5 -8.4045 3.0286 -5.4277 0.0000 44.8256 0.0000
# 6 0.0000 0.0000 0.0000 -31.1033 0.0000 -84.8307
#
#
#
# Elastic Compliance Matrix: (Units=1/GPa)
#
#
# Indices 1 2 3 4 5 6 
#
# 1 0.022409 -0.001904 -0.001725 0.000000 0.004121 0.000000
# 2 -0.001904 0.007794 -0.000784 0.000000 -0.000979 0.000000
# 3 -0.001725 -0.000784 0.009849 0.000000 0.000922 0.000000
# 4 0.000000 0.000000 0.000000 0.085900 0.000000 -0.031495
# 5 0.004121 -0.000979 0.000922 0.000000 0.023259 0.000000
# 6 0.000000 0.000000 0.000000 -0.031495 0.000000 -0.000240
#
#
# Mechanical properties :
#
#
# Convention : Reuss Voigt Hill
#
# Bulk Modulus (GPa) = 32.02458 39.30506 35.66482
# Shear Modulus (GPa) = 29.72536 8.80557 19.26547
#
# Velocity S-wave (km/s) = 3.80543 2.07119 3.06359
# Velocity P-wave (km/s) = 5.90845 4.98678 5.46707
#
# Compressibility (1/GPa) = 0.03122602
#
# Stress axis : x y z
#
# Youngs Moduli (GPa) = 44.62486 128.30275 101.52839
#
# Poissons Ratio (x) = 0.24429 0.17514
# Poissons Ratio (y) = 0.08496 0.07962
# Poissons Ratio (z) = 0.07698 0.10062
#
# Static dielectric constant tensor:
#      x y z
#    x 1.749460 0.000000 -0.023060 
#    y 0.000000 1.183920 0.000000 
#    z -0.023060 0.000000 1.742400 
# 
# From -- ./inp_files/25822.got.cif
#   From: 2010.05.17/outbox.cif.g08.bks.cpg/sg10_13_cif.got.tgz:25822.got - 2010.06.03 11:33:40.
