data_PCOD9153836
_publ_section_title
;
Structure prediction by ZEFSAII (Michael W. Deem and Ramdas Pophale) SiO2 
 PCOD9153836
Probable space group: P 2/M
;
_chemical_formula_sum "Si O2"
_cell_formula_units_Z 28
_cell_length_a 9.855239
_cell_length_b 15.582226
_cell_length_c 13.035491
_cell_angle_alpha 90.000000
_cell_angle_beta 128.467443
_cell_angle_gamma 90.000000
_cell_volume 1567.345010
_symmetry_space_group_name_H-M "P 2/M"
_symmetry_group_IT_number 10
_symmetry_cell_setting 'monoclinic'
loop_
_space_group_symop_operation_xyz
x,y,z
-x,y,-z
-x,-y,-z
x,-y,z
loop_
_atom_site_type_symbol
_atom_site_label
_atom_site_fract_x
_atom_site_fract_y
_atom_site_fract_z
Si Si1 0.012778 0.338038 0.756207
Si Si2 0.097684 0.500000 0.936863
Si Si3 0.165344 0.233984 0.651434
Si Si4 0.145573 0.793286 0.980942
Si Si5 0.298656 0.100429 0.885368
Si Si6 0.521955 0.319148 0.784811
Si Si7 0.490481 0.500000 0.118494
Si Si8 0.334759 0.403210 0.352470
O O1 0.076416 0.418674 0.852583
O O2 0.102231 0.313939 0.692497
O O3 0.810452 0.355088 0.650971
O O4 0.046648 0.260094 0.847725
O O5 0.294285 0.500000 0.062346
O O6 0.000000 0.500000 0.000000
O O7 0.216839 0.157677 0.755296
O O8 0.348334 0.262444 0.686762
O O9 0.000000 0.213778 0.500000
O O10 0.320661 0.737595 0.090849
O O11 0.206261 0.878171 0.950060
O O12 0.000000 0.804846 0.000000
O O13 0.288792 0.000000 0.855963
O O14 0.500000 0.124423 0.000000
O O15 0.455445 0.405343 0.814499
O O16 0.610846 0.353735 0.723470
O O17 0.500000 0.500000 0.000000
O O18 0.500000 0.410709 0.500000
O O19 0.272681 0.500000 0.298455
#
# Coordination Sequence:
#
# PCOD9153836 Si02
#       8
#     4   2   4   4   4   4   2   4
#     4  11  21  35  55  81 116 153 209 253 291 345
#     4  12  20  32  53  80 115 154 208 258 299 340
#     4  11  25  42  61  87 121 162 200 245 301 364
#     4  11  21  35  63  93 117 150 187 244 307 354
#     4  10  22  42  69  96 120 149 188 243 306 370
#     4  12  22  38  56  86 119 157 206 251 290 350
#     4  12  24  32  51  82 121 158 198 256 304 335
#     4  11  22  36  52  74 112 165 213 251 289 338
#
# _framework density 17.864605000000001
#
# number of rings (size 3 to 8) (size 9 to 14) (size 15 to 20)
#    0.000    0.857    5.714    3.000    2.000    0.571 
#    0.000    0.714    0.000    0.000    0.000    1.000 
#    0.000    0.000    0.000    0.000    0.000    0.000 
#
# Total GULP energy -155923.642707 kJ/mol
# GULP energy per Si atom -5568.701525 kJ/mol
# Density = 1.782394 g / cm^3
# Si number density = 17.864605 Si / 1000 Ang^3
#
#
#
# Elastic Constant Matrix: (Units=GPa)
#
#
# Indices 1 2 3 4 5 6 
#
# 1 111.8189 30.7428 23.4047 0.0000 14.3666 0.0000
# 2 30.7428 69.7455 33.9671 0.0000 5.7943 0.0000
# 3 23.4047 33.9671 74.9339 0.0000 22.1346 0.0000
# 4 0.0000 0.0000 0.0000 21.8175 0.0000 1.1020
# 5 14.3666 5.7943 22.1346 0.0000 33.4285 0.0000
# 6 0.0000 0.0000 0.0000 1.1020 0.0000 22.4745
#
#
#
# Elastic Compliance Matrix: (Units=1/GPa)
#
#
# Indices 1 2 3 4 5 6 
#
# 1 0.010640 -0.004224 -0.000341 0.000000 -0.003615 0.000000
# 2 -0.004224 0.020305 -0.009177 0.000000 0.004372 0.000000
# 3 -0.000341 -0.009177 0.021255 0.000000 -0.012337 0.000000
# 4 0.000000 0.000000 0.000000 0.045948 0.000000 -0.002253
# 5 -0.003615 0.004372 -0.012337 0.000000 0.038879 0.000000
# 6 0.000000 0.000000 0.000000 -0.002253 0.000000 0.044605
#
#
# Mechanical properties :
#
#
# Convention : Reuss Voigt Hill
#
# Bulk Modulus (GPa) = 40.45499 48.08084 44.26792
# Shear Modulus (GPa) = 23.00375 26.76970 24.88672
#
# Velocity S-wave (km/s) = 3.59231 3.87522 3.73644
# Velocity P-wave (km/s) = 6.31670 6.85533 6.59152
#
# Compressibility (1/GPa) = 0.02471883
#
# Stress axis : x y z
#
# Youngs Moduli (GPa) = 93.98445 49.24786 47.04673
#
# Poissons Ratio (x) = 0.20800 0.01604
# Poissons Ratio (y) = 0.39695 0.43172
# Poissons Ratio (z) = 0.03204 0.45192
#
# Static dielectric constant tensor:
#      x y z
#    x 1.656000 0.000000 0.000480 
#    y 0.000000 1.673330 0.000000 
#    z 0.000480 0.000000 1.648500 
# 
# From -- ./inp_files/43071.got.cif
#   From: 2010.05.17/outbox.cif.g08.bks.cpg/sg10_22_cif.got.tgz:43071.got - 2010.06.03 11:33:40.
