data_PCOD9153554
_publ_section_title
;
Structure prediction by ZEFSAII (Michael W. Deem and Ramdas Pophale) SiO2 
 PCOD9153554
Probable space group: P 2/M
;
_chemical_formula_sum "Si O2"
_cell_formula_units_Z 28
_cell_length_a 12.913148
_cell_length_b 8.552850
_cell_length_c 14.914894
_cell_angle_alpha 90.000000
_cell_angle_beta 121.381923
_cell_angle_gamma 90.000000
_cell_volume 1406.294039
_symmetry_space_group_name_H-M "P 2/M"
_symmetry_group_IT_number 10
_symmetry_cell_setting 'monoclinic'
loop_
_space_group_symop_operation_xyz
x,y,z
-x,y,-z
-x,-y,-z
x,-y,z
loop_
_atom_site_type_symbol
_atom_site_label
_atom_site_fract_x
_atom_site_fract_y
_atom_site_fract_z
Si Si1 0.086289 0.190849 0.620049
Si Si2 0.814469 0.185693 0.991962
Si Si3 0.503923 0.688417 0.606551
Si Si4 0.444065 0.315073 0.072399
Si Si5 0.360209 0.813158 0.700174
Si Si6 0.774556 0.313616 0.779487
Si Si7 0.007704 0.188813 0.228099
O O1 0.224776 0.238714 0.664794
O O2 0.036710 0.242579 0.694326
O O3 0.000000 0.242054 0.500000
O O4 0.085433 0.000000 0.620149
O O5 0.681243 0.225058 0.969264
O O6 0.823801 0.260644 0.898205
O O7 0.828312 0.000000 0.987869
O O8 0.913852 0.241427 0.108495
O O9 0.500000 0.727910 0.500000
O O10 0.494005 0.500000 0.610428
O O11 0.398607 0.765972 0.617348
O O12 0.634884 0.737539 0.704981
O O13 0.419680 0.500000 0.070373
O O14 0.541907 0.264548 0.190141
O O15 0.500000 0.284215 0.000000
O O16 0.366935 0.000000 0.713157
O O17 0.776081 0.500000 0.775058
O O18 0.860097 0.245944 0.740849
O O19 0.006958 0.000000 0.228247
#
# Coordination Sequence:
#
# PCOD9153554 Si02
#       7
#     4   4   4   4   4   4   4
#     4   9  20  39  61  88 121 156 196 247 299 349
#     4  11  22  38  60  89 121 157 200 248 304 359
#     4  10  23  42  62  86 123 164 199 248 308 359
#     4  11  23  38  59  87 122 163 200 244 301 360
#     4  11  22  38  64  94 120 155 203 252 303 359
#     4  11  23  39  61  89 122 161 201 246 301 360
#     4  10  22  39  61  87 121 160 199 248 301 355
#
# _framework density 19.910488000000001
#
# number of rings (size 3 to 8) (size 9 to 14) (size 15 to 20)
#    0.000    1.571    1.429    3.000    2.000    6.000 
#    0.000    1.429    0.000    2.143    0.000    0.000 
#    0.000    0.000    0.000    0.000    0.000    0.000 
#
# Total GULP energy -156555.990744 kJ/mol
# GULP energy per Si atom -5591.285384 kJ/mol
# Density = 1.986517 g / cm^3
# Si number density = 19.910488 Si / 1000 Ang^3
#
#
#
# Elastic Constant Matrix: (Units=GPa)
#
#
# Indices 1 2 3 4 5 6 
#
# 1 125.6400 12.9517 28.9614 0.0000 -12.8032 0.0000
# 2 12.9517 1.5407 9.9028 0.0000 -6.4246 0.0000
# 3 28.9614 9.9028 74.3712 0.0000 -18.0948 0.0000
# 4 0.0000 0.0000 0.0000 19.3011 0.0000 -8.3880
# 5 -12.8032 -6.4246 -18.0948 0.0000 34.0121 0.0000
# 6 0.0000 0.0000 0.0000 -8.3880 0.0000 12.2512
#
#
#
# Elastic Compliance Matrix: (Units=1/GPa)
#
#
# Indices 1 2 3 4 5 6 
#
# 1 0.003052 0.078706 -0.008927 0.000000 0.011266 0.000000
# 2 0.078706 -1.071933 0.080438 0.000000 -0.130056 0.000000
# 3 -0.008927 0.080438 0.010443 0.000000 0.017389 0.000000
# 4 0.000000 0.000000 0.000000 0.073757 0.000000 0.050499
# 5 0.011266 -0.130056 0.017389 0.000000 0.018327 0.000000
# 6 0.000000 0.000000 0.000000 0.050499 0.000000 0.116200
#
#
# Mechanical properties :
#
#
# Convention : Reuss Voigt Hill
#
# Bulk Modulus (GPa) = -1.31926 33.90929 16.29502
# Shear Modulus (GPa) = -3.56314 23.09527 9.76607
#
# Velocity S-wave (km/s) = -1.33920 3.40951 2.21712
# Velocity P-wave (km/s) = 1.74795 5.70679 3.84136
#
# Compressibility (1/GPa) = -0.75800330
#
# Stress axis : x y z
#
# Youngs Moduli (GPa) = 327.69657 -0.93289 95.76062
#
# Poissons Ratio (x) = 0.07342 0.85488
# Poissons Ratio (y) = -25.79179 -7.70283
# Poissons Ratio (z) = 2.92542 0.07504
#
# Static dielectric constant tensor:
#      x y z
#    x 1.682910 0.000000 -0.004900 
#    y 0.000000 1.677840 0.000000 
#    z -0.004900 0.000000 1.688950 
# 
# From -- ./inp_files/63670.got.cif
#   From: 2010.05.17/outbox.cif.g08.bks.cpg/sg10_32_cif.got.tgz:63670.got - 2010.06.03 11:33:40.
