data_PCOD9153324
_publ_section_title
;
Structure prediction by ZEFSAII (Michael W. Deem and Ramdas Pophale) SiO2 
 PCOD9153324
Probable space group: P 2/M
;
_chemical_formula_sum "Si O2"
_cell_formula_units_Z 14
_cell_length_a 10.572818
_cell_length_b 10.001469
_cell_length_c 11.442402
_cell_angle_alpha 90.000000
_cell_angle_beta 26.127416
_cell_angle_gamma 90.000000
_cell_volume 532.829569
_symmetry_space_group_name_H-M "P 2/M"
_symmetry_group_IT_number 10
_symmetry_cell_setting 'monoclinic'
loop_
_space_group_symop_operation_xyz
x,y,z
-x,y,-z
-x,-y,-z
x,-y,z
loop_
_atom_site_type_symbol
_atom_site_label
_atom_site_fract_x
_atom_site_fract_y
_atom_site_fract_z
Si Si1 0.186223 0.207931 0.725891
Si Si2 0.550636 0.500000 0.819001
Si Si3 0.949371 0.500000 0.180994
Si Si4 0.250000 0.000000 0.000000
Si Si5 0.313776 0.207930 0.274109
O O1 0.500000 0.157170 0.500000
O O2 0.209215 0.360634 0.663779
O O3 0.000000 0.204095 0.000000
O O4 0.000886 0.116393 0.795374
O O5 0.709220 0.360633 0.663777
O O6 0.500000 0.500000 0.000000
O O7 0.250004 0.500000 0.999996
O O8 0.000000 0.500000 0.000000
O O9 0.500886 0.116394 0.795374
O O10 0.000000 0.157166 0.500000
O O11 0.500000 0.204093 0.000000
#
# Coordination Sequence:
#
# PCOD9153324 Si02
#       5
#     4   2   2   2   4
#     4  11  25  44  67  99 135 178 229 284 343 410
#     4  10  21  46  70 103 137 181 234 290 344 411
#     4  10  21  46  70 103 137 181 234 290 344 411
#     4  12  24  44  68  96 140 176 232 274 354 408
#     4  11  25  44  67  99 135 178 229 284 343 410
#
# _framework density 26.274816000000001
#
# number of rings (size 3 to 8) (size 9 to 14) (size 15 to 20)
#    0.000    1.143    2.857    2.571    0.000    4.571 
#    0.000    5.714    0.000    0.000    0.000    0.000 
#    0.000    0.000    0.000    0.000    0.000    0.000 
#
# Total GULP energy -78011.002415 kJ/mol
# GULP energy per Si atom -5572.214458 kJ/mol
# Density = 2.621501 g / cm^3
# Si number density = 26.274816 Si / 1000 Ang^3
#
#
#
# Elastic Constant Matrix: (Units=GPa)
#
#
# Indices 1 2 3 4 5 6 
#
# 1 120.4695 7.6656 58.6139 0.0000 -19.7806 0.0000
# 2 7.6656 244.9558 56.8459 0.0000 -47.6885 0.0000
# 3 58.6139 56.8459 215.7865 0.0000 -63.4773 0.0000
# 4 0.0000 0.0000 0.0000 30.1462 0.0000 -56.1526
# 5 -19.7806 -47.6885 -63.4773 0.0000 86.1116 0.0000
# 6 0.0000 0.0000 0.0000 -56.1526 0.0000 11.0940
#
#
#
# Elastic Compliance Matrix: (Units=1/GPa)
#
#
# Indices 1 2 3 4 5 6 
#
# 1 0.009608 0.000398 -0.002554 0.000000 0.000544 0.000000
# 2 0.000398 0.004651 -0.000701 0.000000 0.002151 0.000000
# 3 -0.002554 -0.000701 0.006673 0.000000 0.003944 0.000000
# 4 0.000000 0.000000 0.000000 -0.003936 0.000000 -0.019922
# 5 0.000544 0.002151 0.003944 0.000000 0.015836 0.000000
# 6 0.000000 0.000000 0.000000 -0.019922 0.000000 -0.010695
#
#
# Mechanical properties :
#
#
# Convention : Reuss Voigt Hill
#
# Bulk Modulus (GPa) = 65.71296 91.94028 78.82662
# Shear Modulus (GPa) = 151.86493 56.00946 103.93719
#
# Velocity S-wave (km/s) = 7.61079 4.62202 6.29632
# Velocity P-wave (km/s) = 10.11417 7.97194 9.10627
#
# Compressibility (1/GPa) = 0.01521770
#
# Stress axis : x y z
#
# Youngs Moduli (GPa) = 104.08227 214.99614 149.85977
#
# Poissons Ratio (x) = -0.08560 0.38281
# Poissons Ratio (y) = -0.04144 0.10502
# Poissons Ratio (z) = 0.26588 0.15066
#
# Static dielectric constant tensor:
#      x y z
#    x 2.096950 0.000000 0.064750 
#    y 0.000000 2.035650 0.000000 
#    z 0.064750 0.000000 1.962970 
# 
# From -- ./inp_files/8642.got.cif
#   From: 2010.05.17/outbox.cif.g08.bks.cpg/sg10_5_cif.got.tgz:8642.got - 2010.06.03 11:33:40.
