data_PCOD9153754
_publ_section_title
;
Structure prediction by ZEFSAII (Michael W. Deem and Ramdas Pophale) SiO2 
 PCOD9153754
Probable space group: P 2/M
;
_chemical_formula_sum "Si O2"
_cell_formula_units_Z 32
_cell_length_a 11.357085
_cell_length_b 8.582159
_cell_length_c 15.294514
_cell_angle_alpha 90.000000
_cell_angle_beta 85.245919
_cell_angle_gamma 90.000000
_cell_volume 1485.601714
_symmetry_space_group_name_H-M "P 2/M"
_symmetry_group_IT_number 10
_symmetry_cell_setting 'monoclinic'
loop_
_space_group_symop_operation_xyz
x,y,z
-x,y,-z
-x,-y,-z
x,-y,z
loop_
_atom_site_type_symbol
_atom_site_label
_atom_site_fract_x
_atom_site_fract_y
_atom_site_fract_z
Si Si1 0.388740 0.313479 0.947810
Si Si2 0.679529 0.681525 0.235557
Si Si3 0.133021 0.678152 0.204337
Si Si4 0.868218 0.818260 0.981150
Si Si5 0.097704 0.821274 0.709348
Si Si6 0.731000 0.178619 0.650915
Si Si7 0.495697 0.680463 0.396450
Si Si8 0.864439 0.677665 0.477566
O O1 0.386911 0.500000 0.960062
O O2 0.402261 0.281428 0.842990
O O3 0.500000 0.254418 0.000000
O O4 0.255579 0.255039 0.977841
O O5 0.715847 0.500000 0.223907
O O6 0.795133 0.787328 0.231768
O O7 0.613764 0.695057 0.332377
O O8 0.143040 0.500000 0.174217
O O9 0.136813 0.791872 0.122242
O O10 0.232057 0.720481 0.268304
O O11 0.009766 0.708089 0.261077
O O12 0.866937 0.000000 0.005438
O O13 0.000000 0.755531 0.000000
O O14 0.140036 0.778639 0.609547
O O15 0.059629 0.000000 0.716480
O O16 0.594141 0.199851 0.640623
O O17 0.793209 0.246963 0.560943
O O18 0.765857 0.000000 0.662007
O O19 0.500000 0.707395 0.500000
O O20 0.454892 0.500000 0.387438
O O21 0.823489 0.500000 0.463268
O O22 0.000000 0.671726 0.500000
#
# Coordination Sequence:
#
# PCOD9153754 Si02
#       8
#     4   4   4   4   4   4   4   4
#     4  10  23  43  68 100 134 177 229 280 333 403
#     4  10  22  41  66  94 130 175 222 267 319 388
#     4  12  25  42  66  94 128 171 217 265 322 396
#     4  11  25  45  69 100 136 172 216 278 345 406
#     4  12  24  39  63  96 133 168 213 271 329 386
#     4  12  25  40  62  94 131 167 211 269 330 386
#     4  10  22  41  65  93 128 174 223 267 315 383
#     4  11  22  38  61  88 123 171 217 261 316 387
#
# _framework density 21.540095000000001
#
# number of rings (size 3 to 8) (size 9 to 14) (size 15 to 20)
#    0.000    1.000    1.250    5.625    1.750    6.000 
#    0.000    0.000    0.000    0.000    0.000    0.000 
#    0.000    0.000    0.000    0.000    0.000    0.000 
#
# Total GULP energy -178862.257474 kJ/mol
# GULP energy per Si atom -5589.445546 kJ/mol
# Density = 2.149107 g / cm^3
# Si number density = 21.540095 Si / 1000 Ang^3
#
#
#
# Elastic Constant Matrix: (Units=GPa)
#
#
# Indices 1 2 3 4 5 6 
#
# 1 86.4555 24.5176 25.8149 0.0000 17.2260 0.0000
# 2 24.5176 47.0353 -5.0965 0.0000 5.9439 0.0000
# 3 25.8149 -5.0965 94.7972 0.0000 14.6530 0.0000
# 4 0.0000 0.0000 0.0000 22.3690 0.0000 4.3622
# 5 17.2260 5.9439 14.6530 0.0000 25.4786 0.0000
# 6 0.0000 0.0000 0.0000 4.3622 0.0000 50.5397
#
#
#
# Elastic Compliance Matrix: (Units=1/GPa)
#
#
# Indices 1 2 3 4 5 6 
#
# 1 0.016390 -0.008072 -0.003815 0.000000 -0.007005 0.000000
# 2 -0.008072 0.026292 0.004079 0.000000 -0.003022 0.000000
# 3 -0.003815 0.004079 0.012683 0.000000 -0.005666 0.000000
# 4 0.000000 0.000000 0.000000 0.045470 0.000000 -0.003925
# 5 -0.007005 -0.003022 -0.005666 0.000000 0.047948 0.000000
# 6 0.000000 0.000000 0.000000 -0.003925 0.000000 0.020125
#
#
# Mechanical properties :
#
#
# Convention : Reuss Voigt Hill
#
# Bulk Modulus (GPa) = 25.15740 35.41778 30.28759
# Shear Modulus (GPa) = 25.28141 31.88093 28.58117
#
# Velocity S-wave (km/s) = 3.42963 3.85135 3.64659
# Velocity P-wave (km/s) = 5.23334 6.02126 5.64107
#
# Compressibility (1/GPa) = 0.03974974
#
# Stress axis : x y z
#
# Youngs Moduli (GPa) = 61.01155 38.03448 78.84712
#
# Poissons Ratio (x) = 0.30701 0.30077
# Poissons Ratio (y) = 0.49247 -0.32160
# Poissons Ratio (z) = 0.23274 -0.15513
#
# Static dielectric constant tensor:
#      x y z
#    x 1.862090 0.000000 -0.019080 
#    y 0.000000 1.748340 0.000000 
#    z -0.019080 0.000000 1.783290 
# 
# From -- ./inp_files/63836.got.cif
#   From: 2010.05.17/outbox.cif.g08.bks.cpg/sg10_32_cif.got.tgz:63836.got - 2010.06.03 11:33:40.
