data_PCOD9153653
_publ_section_title
;
Structure prediction by ZEFSAII (Michael W. Deem and Ramdas Pophale) SiO2 
 PCOD9153653
Probable space group: P 2/M
;
_chemical_formula_sum "Si O2"
_cell_formula_units_Z 28
_cell_length_a 10.231356
_cell_length_b 11.512130
_cell_length_c 15.576110
_cell_angle_alpha 90.000000
_cell_angle_beta 119.409050
_cell_angle_gamma 90.000000
_cell_volume 1598.210496
_symmetry_space_group_name_H-M "P 2/M"
_symmetry_group_IT_number 10
_symmetry_cell_setting 'monoclinic'
loop_
_space_group_symop_operation_xyz
x,y,z
-x,y,-z
-x,-y,-z
x,-y,z
loop_
_atom_site_type_symbol
_atom_site_label
_atom_site_fract_x
_atom_site_fract_y
_atom_site_fract_z
Si Si1 0.101507 0.749449 0.118204
Si Si2 0.934154 0.863433 0.215183
Si Si3 0.081557 0.858174 0.439610
Si Si4 0.615466 0.246186 0.116915
Si Si5 0.665041 0.500000 0.098010
Si Si6 0.423114 0.140852 0.562090
Si Si7 0.986455 0.500000 0.099431
Si Si8 0.422420 0.859553 0.207037
O O1 0.070880 0.620669 0.147679
O O2 0.269639 0.786106 0.148150
O O3 0.045235 0.836156 0.173423
O O4 0.000000 0.759010 0.000000
O O5 0.771763 0.812516 0.142803
O O6 0.000938 0.817705 0.326752
O O7 0.917155 0.000000 0.219430
O O8 0.252285 0.819590 0.503202
O O9 0.000000 0.822615 0.500000
O O10 0.081195 0.000000 0.436735
O O11 0.659467 0.380239 0.148334
O O12 0.538747 0.181329 0.171764
O O13 0.500000 0.241877 0.000000
O O14 0.814796 0.500000 0.083468
O O15 0.500000 0.500000 0.000000
O O16 0.500000 0.182800 0.500000
O O17 0.508641 0.168705 0.677307
O O18 0.421449 0.000000 0.558810
O O19 0.000000 0.500000 0.000000
O O20 0.397629 0.000000 0.193337
#
# Coordination Sequence:
#
# PCOD9153653 Si02
#       8
#     4   4   4   4   2   4   2   4
#     4  11  23  37  56  80 114 149 190 231 273 326
#     4  11  21  34  54  83 115 150 184 222 285 350
#     4   9  17  30  50  75 104 140 185 230 270 321
#     4  11  23  37  56  80 116 152 189 233 273 329
#     4  10  22  40  62  82 104 144 204 250 272 310
#     4   9  17  32  52  75 108 145 184 231 273 319
#     4  10  22  40  62  82 104 143 204 252 274 305
#     4  11  23  36  54  87 121 151 185 222 282 354
#
# _framework density 17.519594999999999
#
# number of rings (size 3 to 8) (size 9 to 14) (size 15 to 20)
#    0.000    1.714    1.429    3.429    6.000    8.000 
#    0.000    0.000    0.000    0.000    0.000   20.000 
#    0.000    0.000    0.000    0.000    0.000    0.000 
#
# Total GULP energy -156065.618171 kJ/mol
# GULP energy per Si atom -5573.772078 kJ/mol
# Density = 1.747972 g / cm^3
# Si number density = 17.519595 Si / 1000 Ang^3
#
#
#
# Elastic Constant Matrix: (Units=GPa)
#
#
# Indices 1 2 3 4 5 6 
#
# 1 71.1170 -3.1950 -5.4420 0.0000 -0.1080 0.0000
# 2 -3.1950 57.9292 4.4719 0.0000 6.6558 0.0000
# 3 -5.4420 4.4719 69.8283 0.0000 -6.5671 0.0000
# 4 0.0000 0.0000 0.0000 -10.6968 0.0000 -3.5734
# 5 -0.1080 6.6558 -6.5671 0.0000 29.1227 0.0000
# 6 0.0000 0.0000 0.0000 -3.5734 0.0000 25.2014
#
#
#
# Elastic Compliance Matrix: (Units=1/GPa)
#
#
# Indices 1 2 3 4 5 6 
#
# 1 0.014174 0.000683 0.001074 0.000000 0.000139 0.000000
# 2 0.000683 0.017926 -0.001512 0.000000 -0.004435 0.000000
# 3 0.001074 -0.001512 0.014849 0.000000 0.003698 0.000000
# 4 0.000000 0.000000 0.000000 -0.089258 0.000000 -0.012656
# 5 0.000139 -0.004435 0.003698 0.000000 0.036186 0.000000
# 6 0.000000 0.000000 0.000000 -0.012656 0.000000 0.037886
#
#
# Mechanical properties :
#
#
# Convention : Reuss Voigt Hill
#
# Bulk Modulus (GPa) = 21.07929 21.17158 21.12544
# Shear Modulus (GPa) = 106.18734 22.26144 64.22439
#
# Velocity S-wave (km/s) = 7.79373 3.56850 6.06120
# Velocity P-wave (km/s) = 9.64612 5.39348 7.81464
#
# Compressibility (1/GPa) = 0.04743993
#
# Stress axis : x y z
#
# Youngs Moduli (GPa) = 70.54963 55.78358 67.34394
#
# Poissons Ratio (x) = -0.03810 -0.07233
# Poissons Ratio (y) = -0.04818 0.10182
# Poissons Ratio (z) = -0.07577 0.08434
#
# Static dielectric constant tensor:
#      x y z
#    x 1.568810 0.000000 0.007970 
#    y 0.000000 1.611800 0.000000 
#    z 0.007970 0.000000 1.581540 
# 
# From -- ./inp_files/28279.got.cif
#   From: 2010.05.17/outbox.cif.g08.bks.cpg/sg10_15_cif.got.tgz:28279.got - 2010.06.03 11:33:40.
