data_PCOD9153691
_publ_section_title
;
Structure prediction by ZEFSAII (Michael W. Deem and Ramdas Pophale) SiO2 
 PCOD9153691
Probable space group: P 2/M
;
_chemical_formula_sum "Si O2"
_cell_formula_units_Z 20
_cell_length_a 10.141233
_cell_length_b 15.499672
_cell_length_c 14.982403
_cell_angle_alpha 90.000000
_cell_angle_beta 154.717345
_cell_angle_gamma 90.000000
_cell_volume 1005.792056
_symmetry_space_group_name_H-M "P 2/M"
_symmetry_group_IT_number 10
_symmetry_cell_setting 'monoclinic'
loop_
_space_group_symop_operation_xyz
x,y,z
-x,y,-z
-x,-y,-z
x,-y,z
loop_
_atom_site_type_symbol
_atom_site_label
_atom_site_fract_x
_atom_site_fract_y
_atom_site_fract_z
Si Si1 0.225762 0.591499 0.405174
Si Si2 0.676780 0.098933 0.013899
Si Si3 0.221549 0.778443 0.399403
Si Si4 0.352966 0.766171 0.687331
Si Si5 0.331073 0.596360 0.154343
O O1 0.500000 0.590283 0.500000
O O2 0.055212 0.500000 0.293681
O O3 0.061730 0.683311 0.297231
O O4 0.407016 0.592422 0.609262
O O5 0.994777 0.146999 0.230147
O O6 0.717125 0.000000 0.009542
O O7 0.500000 0.099104 0.000000
O O8 0.487959 0.154736 0.826507
O O9 0.500000 0.775950 0.500000
O O10 0.343808 0.787308 0.575697
O O11 0.564787 0.681501 0.834163
O O12 0.000000 0.748823 0.500000
O O13 0.320866 0.500000 0.106629
O O14 0.000000 0.609631 0.000000
#
# Coordination Sequence:
#
# PCOD9153691 Si02
#       5
#     4   4   4   4   4
#     4   8  15  29  52  83 119 157 192 232 290 357
#     4  11  25  44  66  90 120 162 212 261 321 385
#     4  10  22  40  64  94 128 160 199 263 314 368
#     4  11  23  40  64  93 125 168 209 254 311 370
#     4   9  19  34  57  90 126 164 203 245 300 364
#
# _framework density 19.884824999999999
#
# number of rings (size 3 to 8) (size 9 to 14) (size 15 to 20)
#    0.000    2.200    2.000    0.000    8.400    2.000 
#    0.000    1.000    0.000    1.200    0.000    0.000 
#    0.000    0.000    0.000    0.000    0.000    0.000 
#
# Total GULP energy -111503.333125 kJ/mol
# GULP energy per Si atom -5575.166656 kJ/mol
# Density = 1.983957 g / cm^3
# Si number density = 19.884825 Si / 1000 Ang^3
#
#
#
# Elastic Constant Matrix: (Units=GPa)
#
#
# Indices 1 2 3 4 5 6 
#
# 1 83.0026 44.2853 33.4473 0.0000 -14.8723 0.0000
# 2 44.2853 231.5605 73.2885 0.0000 3.8413 0.0000
# 3 33.4473 73.2885 90.4455 0.0000 -7.9979 0.0000
# 4 0.0000 0.0000 0.0000 41.4811 0.0000 -19.1344
# 5 -14.8723 3.8413 -7.9979 0.0000 31.4281 0.0000
# 6 0.0000 0.0000 0.0000 -19.1344 0.0000 76.7132
#
#
#
# Elastic Compliance Matrix: (Units=1/GPa)
#
#
# Indices 1 2 3 4 5 6 
#
# 1 0.015785 -0.001982 -0.003631 0.000000 0.006788 0.000000
# 2 -0.001982 0.006176 -0.004523 0.000000 -0.002844 0.000000
# 3 -0.003631 -0.004523 0.016329 0.000000 0.002990 0.000000
# 4 0.000000 0.000000 0.000000 0.027242 0.000000 0.006795
# 5 0.006788 -0.002844 0.002990 0.000000 0.036139 0.000000
# 6 0.000000 0.000000 0.000000 0.006795 0.000000 0.014730
#
#
# Mechanical properties :
#
#
# Convention : Reuss Voigt Hill
#
# Bulk Modulus (GPa) = 55.50236 78.56123 67.03179
# Shear Modulus (GPa) = 35.04356 46.85698 40.95027
#
# Velocity S-wave (km/s) = 4.20256 4.85956 4.54295
# Velocity P-wave (km/s) = 7.17783 8.43096 7.82950
#
# Compressibility (1/GPa) = 0.01801725
#
# Stress axis : x y z
#
# Youngs Moduli (GPa) = 63.35214 161.90681 61.24195
#
# Poissons Ratio (x) = 0.32094 0.22236
# Poissons Ratio (y) = 0.12558 0.27701
# Poissons Ratio (z) = 0.23002 0.73234
#
# Static dielectric constant tensor:
#      x y z
#    x 1.843940 0.000000 0.095160 
#    y 0.000000 1.756490 0.000000 
#    z 0.095160 0.000000 1.778070 
# 
# From -- ./inp_files/42257.got.cif
#   From: 2010.05.17/outbox.cif.g08.bks.cpg/sg10_22_cif.got.tgz:42257.got - 2010.06.03 11:33:40.
