data_PCOD9153398
_publ_section_title
;
Structure prediction by ZEFSAII (Michael W. Deem and Ramdas Pophale) SiO2 
 PCOD9153398
Probable space group: P 2/M
;
_chemical_formula_sum "Si O2"
_cell_formula_units_Z 32
_cell_length_a 11.263239
_cell_length_b 10.150910
_cell_length_c 11.801292
_cell_angle_alpha 90.000000
_cell_angle_beta 99.749112
_cell_angle_gamma 90.000000
_cell_volume 1329.781608
_symmetry_space_group_name_H-M "P 2/M"
_symmetry_group_IT_number 10
_symmetry_cell_setting 'monoclinic'
loop_
_space_group_symop_operation_xyz
x,y,z
-x,y,-z
-x,-y,-z
x,-y,z
loop_
_atom_site_type_symbol
_atom_site_label
_atom_site_fract_x
_atom_site_fract_y
_atom_site_fract_z
Si Si1 0.927408 0.861933 0.605027
Si Si2 0.728691 0.156802 0.149684
Si Si3 0.103753 0.351148 0.680115
Si Si4 0.525580 0.360794 0.136754
Si Si5 0.467227 0.138643 0.625799
Si Si6 0.135836 0.156887 0.062695
Si Si7 0.268672 0.296195 0.501312
Si Si8 0.684586 0.283290 0.741210
O O1 0.181195 0.755485 0.761372
O O2 0.000000 0.872611 0.500000
O O3 0.789977 0.842909 0.547152
O O4 0.947617 0.000000 0.671972
O O5 0.023929 0.276238 0.340532
O O6 0.735643 0.000000 0.169985
O O7 0.771890 0.177227 0.027183
O O8 0.097331 0.500000 0.723323
O O9 0.398746 0.225214 0.842183
O O10 0.166760 0.357922 0.565713
O O11 0.591359 0.500000 0.178295
O O12 0.401147 0.359910 0.185447
O O13 0.500000 0.366803 0.000000
O O14 0.500000 0.128380 0.500000
O O15 0.380342 0.266136 0.602227
O O16 0.594352 0.160691 0.705850
O O17 0.410734 0.000000 0.653001
O O18 0.193856 0.235394 0.177609
O O19 0.132052 0.000000 0.085651
O O20 0.000000 0.195120 0.000000
O O21 0.301303 0.349548 0.381506
#
# Coordination Sequence:
#
# PCOD9153398 Si02
#       8
#     4   4   4   4   4   4   4   4
#     4   9  19  36  60  91 129 177 230 278 335 407
#     4  11  24  44  72 102 138 182 239 296 348 415
#     4  11  24  42  64  94 137 186 233 282 348 419
#     4  11  24  44  68  95 134 181 229 285 350 422
#     4   9  18  33  55  90 131 166 204 259 332 407
#     4  10  23  42  67 101 142 182 231 295 358 414
#     4  10  22  37  62  97 138 176 223 286 351 419
#     4  11  22  40  67 100 135 180 229 283 351 420
#
# _framework density 24.064101999999998
#
# number of rings (size 3 to 8) (size 9 to 14) (size 15 to 20)
#    0.000    1.750    1.250    2.250    1.750    8.000 
#    0.000    0.000    0.000    5.625    0.000    0.000 
#    0.000    0.000    0.000    0.000    0.000    0.000 
#
# Total GULP energy -178319.550052 kJ/mol
# GULP energy per Si atom -5572.485939 kJ/mol
# Density = 2.400933 g / cm^3
# Si number density = 24.064102 Si / 1000 Ang^3
#
#
#
# Elastic Constant Matrix: (Units=GPa)
#
#
# Indices 1 2 3 4 5 6 
#
# 1 106.6359 30.2905 38.2219 0.0000 -6.7594 0.0000
# 2 30.2905 173.9665 37.1154 0.0000 14.7903 0.0000
# 3 38.2219 37.1154 123.5656 0.0000 -12.8334 0.0000
# 4 0.0000 0.0000 0.0000 7.4855 0.0000 14.6877
# 5 -6.7594 14.7903 -12.8334 0.0000 58.1603 0.0000
# 6 0.0000 0.0000 0.0000 14.6877 0.0000 2.7679
#
#
#
# Elastic Compliance Matrix: (Units=1/GPa)
#
#
# Indices 1 2 3 4 5 6 
#
# 1 0.010847 -0.001365 -0.002843 0.000000 0.000980 0.000000
# 2 -0.001365 0.006553 -0.001776 0.000000 -0.002217 0.000000
# 3 -0.002843 -0.001776 0.009742 0.000000 0.002271 0.000000
# 4 0.000000 0.000000 0.000000 -0.014194 0.000000 0.075318
# 5 0.000980 -0.002217 0.002271 0.000000 0.018373 0.000000
# 6 0.000000 0.000000 0.000000 0.075318 0.000000 -0.038385
#
#
# Mechanical properties :
#
#
# Convention : Reuss Voigt Hill
#
# Bulk Modulus (GPa) = 65.91076 68.38041 67.14559
# Shear Modulus (GPa) = 501.83728 33.58540 267.71134
#
# Velocity S-wave (km/s) = 14.45665 3.73991 10.55892
# Velocity P-wave (km/s) = 17.49596 6.86490 13.28976
#
# Compressibility (1/GPa) = 0.01517203
#
# Stress axis : x y z
#
# Youngs Moduli (GPa) = 92.19308 152.59106 102.65065
#
# Poissons Ratio (x) = 0.20834 0.29186
# Poissons Ratio (y) = 0.12588 0.18235
# Poissons Ratio (z) = 0.26213 0.27106
#
# Static dielectric constant tensor:
#      x y z
#    x 1.959330 0.000000 -0.013950 
#    y 0.000000 1.975120 0.000000 
#    z -0.013950 0.000000 1.988620 
# 
# From -- ./inp_files/47008.got.cif
#   From: 2010.05.17/outbox.cif.g08.bks.cpg/sg10_24_cif.got.tgz:47008.got - 2010.06.03 11:33:40.
