data_PCOD9153552
_publ_section_title
;
Structure prediction by ZEFSAII (Michael W. Deem and Ramdas Pophale) SiO2 
 PCOD9153552
Probable space group: P 2/M
;
_chemical_formula_sum "Si O2"
_cell_formula_units_Z 24
_cell_length_a 12.926175
_cell_length_b 7.725644
_cell_length_c 24.335179
_cell_angle_alpha 90.000000
_cell_angle_beta 25.393968
_cell_angle_gamma 90.000000
_cell_volume 1042.160445
_symmetry_space_group_name_H-M "P 2/M"
_symmetry_group_IT_number 10
_symmetry_cell_setting 'monoclinic'
loop_
_space_group_symop_operation_xyz
x,y,z
-x,y,-z
-x,-y,-z
x,-y,z
loop_
_atom_site_type_symbol
_atom_site_label
_atom_site_fract_x
_atom_site_fract_y
_atom_site_fract_z
Si Si1 0.618717 0.790759 0.708615
Si Si2 0.942316 0.210386 0.649056
Si Si3 0.515491 0.790122 0.054287
Si Si4 0.358135 0.697682 0.728247
Si Si5 0.410877 0.198169 0.485498
Si Si6 0.830715 0.791190 0.000252
O O1 0.847920 0.730318 0.634440
O O2 0.570422 0.737481 0.669578
O O3 0.625680 0.000000 0.705460
O O4 0.378963 0.734399 0.857420
O O5 0.722700 0.247420 0.796085
O O6 0.182730 0.277919 0.562871
O O7 0.967123 0.000000 0.632349
O O8 0.530403 0.000000 0.044338
O O9 0.500000 0.723126 0.000000
O O10 0.741609 0.733277 0.982619
O O11 0.368908 0.500000 0.706897
O O12 0.385266 0.803640 0.659171
O O13 0.101899 0.733165 0.879752
O O14 0.500000 0.277352 0.500000
O O15 0.339025 0.000000 0.533592
O O16 0.830512 0.000000 0.002577
#
# Coordination Sequence:
#
# PCOD9153552 Si02
#       6
#     4   4   4   4   4   4
#     4   9  18  36  60  85 113 142 181 234 284 328
#     4   8  16  32  54  84 113 138 175 229 284 324
#     4   8  14  25  50  85 114 136 168 224 281 326
#     4  12  25  37  53  79 115 155 190 226 274 330
#     4  10  22  39  61  85 109 143 188 232 274 329
#     4   9  18  33  56  86 114 143 181 229 281 329
#
# _framework density 23.029084000000001
#
# number of rings (size 3 to 8) (size 9 to 14) (size 15 to 20)
#    0.000    2.667    0.000    4.000    2.333    3.667 
#    0.000    4.167    0.000    1.500    0.000    0.000 
#    0.000    0.000    0.000    0.000    0.000    0.000 
#
# Total GULP energy -133969.195850 kJ/mol
# GULP energy per Si atom -5582.049827 kJ/mol
# Density = 2.297667 g / cm^3
# Si number density = 23.029084 Si / 1000 Ang^3
#
#
#
# Elastic Constant Matrix: (Units=GPa)
#
#
# Indices 1 2 3 4 5 6 
#
# 1 197.4627 12.1540 50.3765 0.0000 -3.0961 0.0000
# 2 12.1540 40.6716 -0.9411 0.0000 -3.9724 0.0000
# 3 50.3765 -0.9411 59.0756 0.0000 -22.0616 0.0000
# 4 0.0000 0.0000 0.0000 -53.7982 0.0000 -16.2782
# 5 -3.0961 -3.9724 -22.0616 0.0000 38.8549 0.0000
# 6 0.0000 0.0000 0.0000 -16.2782 0.0000 -78.4560
#
#
#
# Elastic Compliance Matrix: (Units=1/GPa)
#
#
# Indices 1 2 3 4 5 6 
#
# 1 0.007108 -0.002694 -0.007609 0.000000 -0.004029 0.000000
# 2 -0.002694 0.025992 0.004598 0.000000 0.005054 0.000000
# 3 -0.007609 0.004598 0.029746 0.000000 0.016753 0.000000
# 4 0.000000 0.000000 0.000000 -0.019833 0.000000 0.004115
# 5 -0.004029 0.005054 0.016753 0.000000 0.035445 0.000000
# 6 0.000000 0.000000 0.000000 0.004115 0.000000 -0.013600
#
#
# Mechanical properties :
#
#
# Convention : Reuss Voigt Hill
#
# Bulk Modulus (GPa) = 19.44113 46.70987 33.07550
# Shear Modulus (GPa) = 53.52592 -2.97183 25.27704
#
# Velocity S-wave (km/s) = 4.82630 -1.13722 3.31662
# Velocity P-wave (km/s) = 6.28633 4.31308 5.39076
#
# Compressibility (1/GPa) = 0.05143733
#
# Stress axis : x y z
#
# Youngs Moduli (GPa) = 140.68462 38.47313 33.61812
#
# Poissons Ratio (x) = 0.10364 0.25580
# Poissons Ratio (y) = 0.37897 -0.15459
# Poissons Ratio (z) = 1.07048 -0.17692
#
# Static dielectric constant tensor:
#      x y z
#    x 1.877050 0.000000 -0.009480 
#    y 0.000000 1.856360 0.000000 
#    z -0.009480 0.000000 1.875600 
# 
# From -- ./inp_files/88610.got.cif
#   From: 2010.05.17/outbox.cif.g08.bks.cpg/sg10_45_cif.got.tgz:88610.got - 2010.06.03 11:33:40.
