data_PCOD9153175
_publ_section_title
;
Structure prediction by ZEFSAII (Michael W. Deem and Ramdas Pophale) SiO2 
 PCOD9153175
Probable space group: P 2/M
;
_chemical_formula_sum "Si O2"
_cell_formula_units_Z 28
_cell_length_a 9.879556
_cell_length_b 8.519930
_cell_length_c 24.675902
_cell_angle_alpha 90.000000
_cell_angle_beta 147.047622
_cell_angle_gamma 90.000000
_cell_volume 1129.793070
_symmetry_space_group_name_H-M "P 2/M"
_symmetry_group_IT_number 10
_symmetry_cell_setting 'monoclinic'
loop_
_space_group_symop_operation_xyz
x,y,z
-x,y,-z
-x,-y,-z
x,-y,z
loop_
_atom_site_type_symbol
_atom_site_label
_atom_site_fract_x
_atom_site_fract_y
_atom_site_fract_z
Si Si1 0.136393 0.315912 0.988936
Si Si2 0.591421 0.184426 0.090482
Si Si3 0.260873 0.000000 0.508848
Si Si4 0.198215 0.314239 0.419074
Si Si5 0.275062 0.823250 0.220296
Si Si6 0.683027 0.668268 0.293881
Si Si7 0.000000 0.756338 0.500000
Si Si8 0.124580 0.675686 0.273633
O O1 0.105448 0.500000 0.966764
O O2 0.990153 0.215048 0.895181
O O3 0.000000 0.284188 0.000000
O O4 0.424999 0.271302 0.079864
O O5 0.885119 0.213115 0.193002
O O6 0.540681 0.000000 0.078149
O O7 0.500000 0.238489 0.000000
O O8 0.280772 0.146879 0.471869
O O9 0.189318 0.134178 0.531065
O O10 0.243820 0.500000 0.453725
O O11 0.894098 0.300177 0.320829
O O12 0.263536 0.315289 0.377464
O O13 0.474639 0.792080 0.240052
O O14 0.295783 0.714217 0.279823
O O15 0.290971 0.000000 0.245315
O O16 0.559547 0.500000 0.242148
O O17 0.849059 0.663947 0.404277
O O18 0.025873 0.500000 0.234543
#
# Coordination Sequence:
#
# PCOD9153175 Si02
#       8
#     4   4   2   4   4   4   2   4
#     4  11  25  44  63  87 123 165 210 260 314 369
#     4  11  23  39  62  89 120 160 212 257 309 370
#     4   9  18  34  64  87 133 152 198 247 317 359
#     4   9  21  37  61  94 125 161 210 255 308 374
#     4  12  26  40  61  91 127 163 210 256 314 376
#     4  10  21  40  65  94 126 163 206 258 311 373
#     4   9  19  36  65  98 127 159 206 250 312 380
#     4  11  23  41  63  88 122 167 213 258 308 371
#
# _framework density 24.783300000000001
#
# number of rings (size 3 to 8) (size 9 to 14) (size 15 to 20)
#    0.000    1.571    1.429    2.786    9.000    2.286 
#    0.000    1.071    0.000    4.286    0.000   13.000 
#    0.000    0.000    0.000    0.000    0.000    0.000 
#
# Total GULP energy -156009.409828 kJ/mol
# GULP energy per Si atom -5571.764637 kJ/mol
# Density = 2.472689 g / cm^3
# Si number density = 24.783300 Si / 1000 Ang^3
#
#
#
# Elastic Constant Matrix: (Units=GPa)
#
#
# Indices 1 2 3 4 5 6 
#
# 1 108.2891 41.9842 6.5493 0.0000 7.2356 0.0000
# 2 41.9842 113.6964 18.7916 0.0000 -1.8056 0.0000
# 3 6.5493 18.7916 37.0272 0.0000 16.2866 0.0000
# 4 0.0000 0.0000 0.0000 34.2937 0.0000 18.9688
# 5 7.2356 -1.8056 16.2866 0.0000 39.0860 0.0000
# 6 0.0000 0.0000 0.0000 18.9688 0.0000 81.2148
#
#
#
# Elastic Compliance Matrix: (Units=1/GPa)
#
#
# Indices 1 2 3 4 5 6 
#
# 1 0.011030 -0.004373 0.001537 0.000000 -0.002884 0.000000
# 2 -0.004373 0.011636 -0.007009 0.000000 0.004268 0.000000
# 3 0.001537 -0.007009 0.037418 0.000000 -0.016200 0.000000
# 4 0.000000 0.000000 0.000000 0.033486 0.000000 -0.007821
# 5 -0.002884 0.004268 -0.016200 0.000000 0.033066 0.000000
# 6 0.000000 0.000000 0.000000 -0.007821 0.000000 0.014140
#
#
# Mechanical properties :
#
#
# Convention : Reuss Voigt Hill
#
# Bulk Modulus (GPa) = 24.75612 43.74033 34.24823
# Shear Modulus (GPa) = 28.74714 43.69807 36.22260
#
# Velocity S-wave (km/s) = 3.40948 4.20361 3.82720
# Velocity P-wave (km/s) = 5.05076 6.42245 5.77746
#
# Compressibility (1/GPa) = 0.04039405
#
# Stress axis : x y z
#
# Youngs Moduli (GPa) = 90.66504 85.93821 26.72500
#
# Poissons Ratio (x) = 0.37578 -0.04107
# Poissons Ratio (y) = 0.39645 0.18732
# Poissons Ratio (z) = -0.13934 0.60236
#
# Static dielectric constant tensor:
#      x y z
#    x 1.966060 0.000000 0.009780 
#    y 0.000000 1.843600 0.000000 
#    z 0.009780 0.000000 2.035040 
# 
# From -- ./inp_files/92183.got.cif
#   From: 2010.05.17/outbox.cif.g08.bks.cpg/sg10_47_cif.got.tgz:92183.got - 2010.06.03 11:33:40.
