data_PCOD9153685
_publ_section_title
;
Structure prediction by ZEFSAII (Michael W. Deem and Ramdas Pophale) SiO2 
 PCOD9153685
Probable space group: P 2/M
;
_chemical_formula_sum "Si O2"
_cell_formula_units_Z 20
_cell_length_a 17.785618
_cell_length_b 10.342361
_cell_length_c 18.880769
_cell_angle_alpha 90.000000
_cell_angle_beta 164.156942
_cell_angle_gamma 90.000000
_cell_volume 948.148141
_symmetry_space_group_name_H-M "P 2/M"
_symmetry_group_IT_number 10
_symmetry_cell_setting 'monoclinic'
loop_
_space_group_symop_operation_xyz
x,y,z
-x,y,-z
-x,-y,-z
x,-y,z
loop_
_atom_site_type_symbol
_atom_site_label
_atom_site_fract_x
_atom_site_fract_y
_atom_site_fract_z
Si Si1 0.808285 0.219052 0.485213
Si Si2 0.454820 0.644230 0.376311
Si Si3 0.663715 0.852520 0.843460
Si Si4 0.430455 0.849501 0.016863
Si Si5 0.997139 0.364369 0.219155
O O1 0.637378 0.145213 0.392338
O O2 0.103041 0.160222 0.731895
O O3 0.883327 0.350758 0.593843
O O4 0.612059 0.225602 0.239349
O O5 0.500000 0.667996 0.500000
O O6 0.321408 0.500000 0.247381
O O7 0.321436 0.765459 0.214357
O O8 0.749574 0.634320 0.605424
O O9 0.758441 0.000000 0.920481
O O10 0.829906 0.763536 0.048974
O O11 0.511933 0.000000 0.099401
O O12 0.500000 0.809137 0.000000
O O13 0.840005 0.500000 0.068643
#
# Coordination Sequence:
#
# PCOD9153685 Si02
#       5
#     4   4   4   4   4
#     4  11  22  39  61  92 126 165 209 260 310 368
#     4   9  20  39  60  85 121 167 216 263 311 371
#     4  11  22  36  61  93 127 164 207 261 320 373
#     4  11  22  37  61  94 130 165 204 256 318 377
#     4  10  22  40  64  90 120 166 216 256 309 375
#
# _framework density 21.09375
#
# number of rings (size 3 to 8) (size 9 to 14) (size 15 to 20)
#    0.000    1.600    2.000    3.000    0.000    7.600 
#    0.000    4.000    0.000    3.600    0.000    0.000 
#    0.000    0.000    0.000    0.000    0.000    0.000 
#
# Total GULP energy -111511.345318 kJ/mol
# GULP energy per Si atom -5575.567266 kJ/mol
# Density = 2.104574 g / cm^3
# Si number density = 21.093750 Si / 1000 Ang^3
#
#
#
# Elastic Constant Matrix: (Units=GPa)
#
#
# Indices 1 2 3 4 5 6 
#
# 1 123.8043 36.8790 41.5489 0.0000 -35.4784 0.0000
# 2 36.8790 161.7336 48.6848 0.0000 -18.6323 0.0000
# 3 41.5489 48.6848 104.4910 0.0000 -24.5836 0.0000
# 4 0.0000 0.0000 0.0000 24.3350 0.0000 -2.7619
# 5 -35.4784 -18.6323 -24.5836 0.0000 30.9971 0.0000
# 6 0.0000 0.0000 0.0000 -2.7619 0.0000 -454.3909
#
#
#
# Elastic Compliance Matrix: (Units=1/GPa)
#
#
# Indices 1 2 3 4 5 6 
#
# 1 0.012450 -0.000927 -0.001595 0.000000 0.012428 0.000000
# 2 -0.000927 0.007368 -0.002793 0.000000 0.001153 0.000000
# 3 -0.001595 -0.002793 0.013131 0.000000 0.006910 0.000000
# 4 0.000000 0.000000 0.000000 0.041065 0.000000 -0.000250
# 5 0.012428 0.001153 0.006910 0.000000 0.052659 0.000000
# 6 0.000000 0.000000 0.000000 -0.000250 0.000000 -0.002199
#
#
# Mechanical properties :
#
#
# Convention : Reuss Voigt Hill
#
# Bulk Modulus (GPa) = 44.80337 71.58382 58.19359
# Shear Modulus (GPa) = 35.07690 -62.28402 -13.60356
#
# Velocity S-wave (km/s) = 4.08230 -5.43979 -2.54226
# Velocity P-wave (km/s) = 6.59594 2.33354 4.36240
#
# Compressibility (1/GPa) = 0.02231975
#
# Stress axis : x y z
#
# Youngs Moduli (GPa) = 80.32085 135.72269 76.15304
#
# Poissons Ratio (x) = 0.12583 0.12144
# Poissons Ratio (y) = 0.07447 0.21270
# Poissons Ratio (z) = 0.12808 0.37909
#
# Static dielectric constant tensor:
#      x y z
#    x 1.748540 0.000000 -0.009130 
#    y 0.000000 1.870050 0.000000 
#    z -0.009130 0.000000 1.834930 
# 
# From -- ./inp_files/78828.got.cif
#   From: 2010.05.17/outbox.cif.g08.bks.cpg/sg10_40_cif.got.tgz:78828.got - 2010.06.03 11:33:40.
