data_PCOD9153091
_publ_section_title
;
Structure prediction by ZEFSAII (Michael W. Deem and Ramdas Pophale) SiO2 
 PCOD9153091
Probable space group: P 2/M
;
_chemical_formula_sum "Si O2"
_cell_formula_units_Z 23
_cell_length_a 5.040042
_cell_length_b 18.001508
_cell_length_c 13.648300
_cell_angle_alpha 90.000000
_cell_angle_beta 109.582160
_cell_angle_gamma 90.000000
_cell_volume 1166.667556
_symmetry_space_group_name_H-M "P 2/M"
_symmetry_group_IT_number 10
_symmetry_cell_setting 'monoclinic'
loop_
_space_group_symop_operation_xyz
x,y,z
-x,y,-z
-x,-y,-z
x,-y,z
loop_
_atom_site_type_symbol
_atom_site_label
_atom_site_fract_x
_atom_site_fract_y
_atom_site_fract_z
Si Si1 0.313227 0.583198 0.073640
Si Si2 0.837518 0.779872 0.682295
Si Si3 0.461864 0.728060 0.799652
Si Si4 0.000000 0.000000 0.000000
Si Si5 0.000000 0.174361 0.500000
Si Si6 0.588450 0.879871 0.898261
Si Si7 0.471874 0.085436 0.677125
O O1 0.299629 0.500000 0.116595
O O2 0.454246 0.647005 0.155127
O O3 0.500000 0.578638 0.000000
O O4 0.000000 0.604160 0.000000
O O5 0.584022 0.738256 0.705632
O O6 0.751677 0.865166 0.695375
O O7 0.132055 0.749052 0.761579
O O8 0.862836 0.777077 0.568965
O O9 0.617075 0.791720 0.885109
O O10 0.148580 0.934014 0.083543
O O11 0.765764 0.123134 0.419299
O O12 0.394453 0.904275 0.782766
O O13 0.500000 0.896395 0.000000
O O14 0.508792 0.000000 0.657445
#
# Coordination Sequence:
#
# PCOD9153091 Si02
#       7
#     4   4   4   1   2   4   4
#     4  10  21  39  67 104 143 179 217 264 324 396
#     4  11  24  43  64  93 124 166 219 274 334 393
#     4  11  24  42  66  94 132 174 217 263 327 394
#     4  12  26  36  56  80 124 176 216 264 308 372
#     4  12  23  46  68  90 125 166 228 298 345 390
#     4  11  25  40  59  85 125 172 214 266 311 391
#     4  11  25  43  64  92 126 167 230 285 349 395
#
# _framework density 19.714269000000002
#
# number of rings (size 3 to 8) (size 9 to 14) (size 15 to 20)
#    0.000    1.043    4.348    2.609    6.087    2.087 
#    1.565    0.000    0.000    0.000    0.000    3.652 
#    0.000    0.000    0.000    0.000    0.000    0.000 
#
# Total GULP energy -128044.060377 kJ/mol
# GULP energy per Si atom -5567.133060 kJ/mol
# Density = 1.966940 g / cm^3
# Si number density = 19.714269 Si / 1000 Ang^3
#
#
#
# Elastic Constant Matrix: (Units=GPa)
#
#
# Indices 1 2 3 4 5 6 
#
# 1 104.8294 21.5582 33.5869 0.0000 9.8235 0.0000
# 2 21.5582 114.0778 43.4682 0.0000 20.3409 0.0000
# 3 33.5869 43.4682 105.1101 0.0000 6.1725 0.0000
# 4 0.0000 0.0000 0.0000 21.1802 0.0000 15.2959
# 5 9.8235 20.3409 6.1725 0.0000 43.0251 0.0000
# 6 0.0000 0.0000 0.0000 15.2959 0.0000 21.9856
#
#
#
# Elastic Compliance Matrix: (Units=1/GPa)
#
#
# Indices 1 2 3 4 5 6 
#
# 1 0.010818 -0.000536 -0.003131 0.000000 -0.001767 0.000000
# 2 -0.000536 0.011302 -0.004232 0.000000 -0.004614 0.000000
# 3 -0.003131 -0.004232 0.012208 0.000000 0.000964 0.000000
# 4 0.000000 0.000000 0.000000 0.094891 0.000000 -0.066018
# 5 -0.001767 -0.004614 0.000964 0.000000 0.025689 0.000000
# 6 0.000000 0.000000 0.000000 -0.066018 0.000000 0.091415
#
#
# Mechanical properties :
#
#
# Convention : Reuss Voigt Hill
#
# Bulk Modulus (GPa) = 53.96652 57.91601 55.94126
# Shear Modulus (GPa) = 18.63588 32.26509 25.45048
#
# Velocity S-wave (km/s) = 3.07791 4.04993 3.59690
# Velocity P-wave (km/s) = 6.32970 7.16315 6.75928
#
# Compressibility (1/GPa) = 0.01853001
#
# Stress axis : x y z
#
# Youngs Moduli (GPa) = 92.43439 88.47628 81.91403
#
# Poissons Ratio (x) = 0.04743 0.25651
# Poissons Ratio (y) = 0.04956 0.34665
# Poissons Ratio (z) = 0.28945 0.37442
#
# Static dielectric constant tensor:
#      x y z
#    x 1.793920 0.000000 -0.001850 
#    y 0.000000 1.700200 0.000000 
#    z -0.001850 0.000000 1.749760 
# 
# From -- ./inp_files/59184.got.cif
#   From: 2010.05.17/outbox.cif.g08.bks.cpg/sg10_30_cif.got.tgz:59184.got - 2010.06.03 11:33:40.
