data_PCOD9153006
_publ_section_title
;
Structure prediction by ZEFSAII (Michael W. Deem and Ramdas Pophale) SiO2 
 PCOD9153006
Probable space group: P 2/M
;
_chemical_formula_sum "Si O2"
_cell_formula_units_Z 32
_cell_length_a 13.754800
_cell_length_b 8.503170
_cell_length_c 12.826259
_cell_angle_alpha 90.000000
_cell_angle_beta 110.747231
_cell_angle_gamma 90.000000
_cell_volume 1402.870258
_symmetry_space_group_name_H-M "P 2/M"
_symmetry_group_IT_number 10
_symmetry_cell_setting 'monoclinic'
loop_
_space_group_symop_operation_xyz
x,y,z
-x,y,-z
-x,-y,-z
x,-y,z
loop_
_atom_site_type_symbol
_atom_site_label
_atom_site_fract_x
_atom_site_fract_y
_atom_site_fract_z
Si Si1 0.187455 0.816355 0.827856
Si Si2 0.414373 0.821403 0.392018
Si Si3 0.240630 0.318631 0.633578
Si Si4 0.231596 0.810093 0.190107
Si Si5 0.021059 0.683968 0.190440
Si Si6 0.353807 0.685110 0.036759
Si Si7 0.459007 0.178534 0.775709
Si Si8 0.078072 0.182687 0.432933
O O1 0.181369 0.721135 0.718274
O O2 0.091907 0.762717 0.863612
O O3 0.178854 0.000000 0.802013
O O4 0.296958 0.776603 0.922601
O O5 0.500000 0.742832 0.500000
O O6 0.300457 0.759079 0.317983
O O7 0.470279 0.829441 0.301189
O O8 0.398085 0.000000 0.426874
O O9 0.228916 0.500000 0.602233
O O10 0.358436 0.275065 0.704720
O O11 0.191521 0.215444 0.523360
O O12 0.112585 0.763846 0.159608
O O13 0.283021 0.725641 0.110836
O O14 0.242545 0.000000 0.183619
O O15 0.014748 0.500000 0.165087
O O16 0.053037 0.713883 0.323246
O O17 0.353179 0.500000 0.015287
O O18 0.468775 0.743164 0.109677
O O19 0.430007 0.000000 0.793090
O O20 0.000000 0.213149 0.500000
O O21 0.067286 0.000000 0.398185
#
# Coordination Sequence:
#
# PCOD9153006 Si02
#       8
#     4   4   4   4   4   4   4   4
#     4  12  25  44  67  92 121 162 214 259 312 382
#     4   8  16  32  56  87 118 157 205 252 295 351
#     4  12  25  41  63  95 130 164 207 261 318 370
#     4  10  21  39  63  91 126 167 211 254 307 375
#     4  12  25  41  63  95 130 164 207 261 318 370
#     4  11  23  43  67  93 127 163 205 264 322 365
#     4  10  21  39  63  91 126 167 211 254 307 375
#     4  11  23  41  65  90 124 171 214 254 308 373
#
# _framework density 22.810376999999999
#
# number of rings (size 3 to 8) (size 9 to 14) (size 15 to 20)
#    0.000    1.250    1.250    6.375    1.750    1.500 
#    0.000    5.000    0.000    2.250    0.000    0.000 
#    0.000    0.000    0.000    0.000    0.000    0.000 
#
# Total GULP energy -179067.178192 kJ/mol
# GULP energy per Si atom -5595.849319 kJ/mol
# Density = 2.275846 g / cm^3
# Si number density = 22.810377 Si / 1000 Ang^3
#
#
#
# Elastic Constant Matrix: (Units=GPa)
#
#
# Indices 1 2 3 4 5 6 
#
# 1 68.0724 9.0345 3.4745 0.0000 15.7707 0.0000
# 2 9.0345 68.4071 -12.5069 0.0000 1.8760 0.0000
# 3 3.4745 -12.5069 68.8287 0.0000 24.4895 0.0000
# 4 0.0000 0.0000 0.0000 10.1846 0.0000 6.1108
# 5 15.7707 1.8760 24.4895 0.0000 33.1887 0.0000
# 6 0.0000 0.0000 0.0000 6.1108 0.0000 29.7801
#
#
#
# Elastic Compliance Matrix: (Units=1/GPa)
#
#
# Indices 1 2 3 4 5 6 
#
# 1 0.017029 -0.001560 0.002311 0.000000 -0.009709 0.000000
# 2 -0.001560 0.015647 0.004031 0.000000 -0.003118 0.000000
# 3 0.002311 0.004031 0.021176 0.000000 -0.016952 0.000000
# 4 0.000000 0.000000 0.000000 0.111973 0.000000 -0.022977
# 5 -0.009709 -0.003118 -0.016952 0.000000 0.047429 0.000000
# 6 0.000000 0.000000 0.000000 -0.022977 0.000000 0.038294
#
#
# Mechanical properties :
#
#
# Convention : Reuss Voigt Hill
#
# Bulk Modulus (GPa) = 15.76867 22.81250 19.29058
# Shear Modulus (GPa) = 19.00259 28.31777 23.66018
#
# Velocity S-wave (km/s) = 2.88942 3.52723 3.22414
# Velocity P-wave (km/s) = 4.24966 5.15860 4.72603
#
# Compressibility (1/GPa) = 0.06341689
#
# Stress axis : x y z
#
# Youngs Moduli (GPa) = 58.72446 63.91025 47.22293
#
# Poissons Ratio (x) = 0.09971 -0.10915
# Poissons Ratio (y) = 0.09162 -0.19037
# Poissons Ratio (z) = -0.13574 -0.25764
#
# Static dielectric constant tensor:
#      x y z
#    x 1.896960 0.000000 0.002760 
#    y 0.000000 1.761960 0.000000 
#    z 0.002760 0.000000 1.867980 
# 
# From -- ./inp_files/66628.got.cif
#   From: 2010.05.17/outbox.cif.g08.bks.cpg/sg10_34_cif.got.tgz:66628.got - 2010.06.03 11:33:40.
