data_PCOD9153730
_publ_section_title
;
Structure prediction by ZEFSAII (Michael W. Deem and Ramdas Pophale) SiO2 
 PCOD9153730
Probable space group: P 2/M
;
_chemical_formula_sum "Si O2"
_cell_formula_units_Z 28
_cell_length_a 21.891358
_cell_length_b 9.023183
_cell_length_c 9.705586
_cell_angle_alpha 90.000000
_cell_angle_beta 133.662594
_cell_angle_gamma 90.000000
_cell_volume 1386.894945
_symmetry_space_group_name_H-M "P 2/M"
_symmetry_group_IT_number 10
_symmetry_cell_setting 'monoclinic'
loop_
_space_group_symop_operation_xyz
x,y,z
-x,y,-z
-x,-y,-z
x,-y,z
loop_
_atom_site_type_symbol
_atom_site_label
_atom_site_fract_x
_atom_site_fract_y
_atom_site_fract_z
Si Si1 0.338336 0.174476 0.221168
Si Si2 0.701058 0.672748 0.279980
Si Si3 0.614413 0.326606 0.422314
Si Si4 0.840435 0.677147 0.090685
Si Si5 0.025808 0.177222 0.884582
Si Si6 0.108572 0.324075 0.525438
Si Si7 0.556429 0.173428 0.884020
O O1 0.366896 0.232924 0.413306
O O2 0.411495 0.196266 0.222483
O O3 0.319428 0.000000 0.196482
O O4 0.254172 0.261405 0.046427
O O5 0.681256 0.500000 0.216548
O O6 0.686659 0.692390 0.420131
O O7 0.796292 0.699803 0.381196
O O8 0.634472 0.775483 0.098614
O O9 0.608378 0.500000 0.447728
O O10 0.526570 0.270102 0.221346
O O11 0.838360 0.500000 0.075239
O O12 0.888318 0.748353 0.036107
O O13 0.889458 0.713811 0.309301
O O14 0.954907 0.232591 0.667260
O O15 0.033811 0.000000 0.892330
O O16 0.000000 0.220327 0.000000
O O17 0.088639 0.500000 0.482392
O O18 0.537802 0.000000 0.875956
#
# Coordination Sequence:
#
# PCOD9153730 Si02
#       7
#     4   4   4   4   4   4   4
#     4  11  24  41  62  91 127 164 208 259 313 371
#     4  10  22  41  63  91 125 162 209 260 309 367
#     4  11  24  39  61  91 125 168 212 259 314 365
#     4  11  23  42  69  95 122 162 210 255 307 366
#     4  11  26  44  64  96 133 166 200 247 308 368
#     4  10  22  42  67  94 124 162 209 257 306 365
#     4  11  23  40  62  90 124 166 211 258 315 370
#
# _framework density 20.188986
#
# number of rings (size 3 to 8) (size 9 to 14) (size 15 to 20)
#    0.000    1.286    1.429    3.429    2.000   10.857 
#    0.000    0.000    0.000    0.000    0.000    0.000 
#    0.000    0.000    0.000    0.000    0.000    0.000 
#
# Total GULP energy -156647.264658 kJ/mol
# GULP energy per Si atom -5594.545166 kJ/mol
# Density = 2.014303 g / cm^3
# Si number density = 20.188986 Si / 1000 Ang^3
#
#
#
# Elastic Constant Matrix: (Units=GPa)
#
#
# Indices 1 2 3 4 5 6 
#
# 1 95.2516 39.1668 1.6972 0.0000 -11.2387 0.0000
# 2 39.1668 45.6660 13.4246 0.0000 -10.1660 0.0000
# 3 1.6972 13.4246 38.6727 0.0000 -2.9962 0.0000
# 4 0.0000 0.0000 0.0000 39.0951 0.0000 2.5432
# 5 -11.2387 -10.1660 -2.9962 0.0000 22.4459 0.0000
# 6 0.0000 0.0000 0.0000 2.5432 0.0000 29.5233
#
#
#
# Elastic Compliance Matrix: (Units=1/GPa)
#
#
# Indices 1 2 3 4 5 6 
#
# 1 0.017074 -0.015588 0.004827 0.000000 0.002133 0.000000
# 2 -0.015588 0.041073 -0.012870 0.000000 0.009079 0.000000
# 3 0.004827 -0.012870 0.030161 0.000000 0.000614 0.000000
# 4 0.000000 0.000000 0.000000 0.025723 0.000000 -0.002216
# 5 0.002133 0.009079 0.000614 0.000000 0.049814 0.000000
# 6 0.000000 0.000000 0.000000 -0.002216 0.000000 0.034062
#
#
# Mechanical properties :
#
#
# Convention : Reuss Voigt Hill
#
# Bulk Modulus (GPa) = 24.36316 32.01863 28.19089
# Shear Modulus (GPa) = 19.31612 26.56630 22.94121
#
# Velocity S-wave (km/s) = 3.09652 3.63144 3.37460
# Velocity P-wave (km/s) = 4.98782 5.78594 5.40164
#
# Compressibility (1/GPa) = 0.04104558
#
# Stress axis : x y z
#
# Youngs Moduli (GPa) = 58.56875 24.34718 33.15493
#
# Poissons Ratio (x) = 0.37953 -0.16004
# Poissons Ratio (y) = 0.91298 0.42671
# Poissons Ratio (z) = -0.28272 0.31335
#
# Static dielectric constant tensor:
#      x y z
#    x 1.717980 0.000000 -0.008830 
#    y 0.000000 1.673370 0.000000 
#    z -0.008830 0.000000 1.696370 
# 
# From -- ./inp_files/34201.got.cif
#   From: 2010.05.17/outbox.cif.g08.bks.cpg/sg10_18_cif.got.tgz:34201.got - 2010.06.03 11:33:40.
