data_PCOD9153868
_publ_section_title
;
Structure prediction by ZEFSAII (Michael W. Deem and Ramdas Pophale) SiO2 
 PCOD9153868
Probable space group: P 2/M
;
_chemical_formula_sum "Si O2"
_cell_formula_units_Z 18
_cell_length_a 8.888399
_cell_length_b 12.498755
_cell_length_c 7.950627
_cell_angle_alpha 90.000000
_cell_angle_beta 66.698097
_cell_angle_gamma 90.000000
_cell_volume 811.221161
_symmetry_space_group_name_H-M "P 2/M"
_symmetry_group_IT_number 10
_symmetry_cell_setting 'monoclinic'
loop_
_space_group_symop_operation_xyz
x,y,z
-x,y,-z
-x,-y,-z
x,-y,z
loop_
_atom_site_type_symbol
_atom_site_label
_atom_site_fract_x
_atom_site_fract_y
_atom_site_fract_z
Si Si1 0.500000 0.168923 0.500000
Si Si2 0.734870 0.500000 0.235273
Si Si3 0.613046 0.270358 0.788049
Si Si4 0.198748 0.000000 0.624374
Si Si5 0.000000 0.332273 0.000000
Si Si6 0.650837 0.500000 0.663970
Si Si7 0.942927 0.805110 0.696688
O O1 0.520885 0.242599 0.655733
O O2 0.340392 0.094109 0.585616
O O3 0.841350 0.401308 0.120257
O O4 0.721572 0.500000 0.443775
O O5 0.548379 0.500000 0.254538
O O6 0.693679 0.388191 0.734253
O O7 0.749848 0.178681 0.753550
O O8 0.500000 0.271181 0.000000
O O9 0.055658 0.092125 0.664723
O O10 0.040163 0.261909 0.143198
O O11 0.000000 0.747781 0.500000
#
# Coordination Sequence:
#
# PCOD9153868 Si02
#       7
#     2   2   4   2   2   2   4
#     4  11  26  51  74 108 146 191 246 307 362 434
#     4  10  22  43  74 105 148 195 238 293 365 432
#     4  12  27  45  76 111 149 189 247 300 364 436
#     4  11  27  49  79 101 144 200 246 299 375 425
#     4  11  26  45  70 112 148 187 244 303 358 436
#     4  11  23  43  75 105 148 198 234 290 366 447
#     4  12  26  47  75 104 147 193 241 303 365 428
#
# _framework density 22.188770000000002
#
# number of rings (size 3 to 8) (size 9 to 14) (size 15 to 20)
#    0.000    0.667    2.222    4.667    6.222    2.222 
#    0.000    6.667    0.000    0.000    0.000    0.000 
#    0.000    0.000    0.000    0.000    0.000    0.000 
#
# Total GULP energy -100201.308812 kJ/mol
# GULP energy per Si atom -5566.739378 kJ/mol
# Density = 2.213827 g / cm^3
# Si number density = 22.188770 Si / 1000 Ang^3
#
#
#
# Elastic Constant Matrix: (Units=GPa)
#
#
# Indices 1 2 3 4 5 6 
#
# 1 126.3838 68.1694 66.8150 0.0000 -5.0778 0.0000
# 2 68.1694 103.6746 58.4434 0.0000 -6.4370 0.0000
# 3 66.8150 58.4434 166.0408 0.0000 8.3382 0.0000
# 4 0.0000 0.0000 0.0000 -15.7613 0.0000 -18.4681
# 5 -5.0778 -6.4370 8.3382 0.0000 47.2551 0.0000
# 6 0.0000 0.0000 0.0000 -18.4681 0.0000 30.0332
#
#
#
# Elastic Compliance Matrix: (Units=1/GPa)
#
#
# Indices 1 2 3 4 5 6 
#
# 1 0.013288 -0.007029 -0.002923 0.000000 0.000986 0.000000
# 2 -0.007029 0.016029 -0.002911 0.000000 0.001942 0.000000
# 3 -0.002923 -0.002911 0.008333 0.000000 -0.002181 0.000000
# 4 0.000000 0.000000 0.000000 -0.036876 0.000000 -0.022676
# 5 0.000986 0.001942 -0.002181 0.000000 0.021917 0.000000
# 6 0.000000 0.000000 0.000000 -0.022676 0.000000 0.019352
#
#
# Mechanical properties :
#
#
# Convention : Reuss Voigt Hill
#
# Bulk Modulus (GPa) = 83.85722 86.99499 85.42610
# Shear Modulus (GPa) = 69.69305 25.81684 47.75494
#
# Velocity S-wave (km/s) = 5.61047 3.41473 4.64423
# Velocity P-wave (km/s) = 8.93557 7.40534 8.20620
#
# Compressibility (1/GPa) = 0.01192503
#
# Stress axis : x y z
#
# Youngs Moduli (GPa) = 75.25377 62.38827 120.00631
#
# Poissons Ratio (x) = 0.43851 0.35076
# Poissons Ratio (y) = 0.52893 0.34933
# Poissons Ratio (z) = 0.21995 0.18161
#
# Static dielectric constant tensor:
#      x y z
#    x 1.844510 0.000000 -0.001030 
#    y 0.000000 1.792260 0.000000 
#    z -0.001030 0.000000 1.802880 
# 
# From -- ./inp_files/17740.got.cif
#   From: 2010.05.17/outbox.cif.g08.bks.cpg/sg10_9_cif.got.tgz:17740.got - 2010.06.03 11:33:40.
