data_PCOD9153743
_publ_section_title
;
Structure prediction by ZEFSAII (Michael W. Deem and Ramdas Pophale) SiO2 
 PCOD9153743
Probable space group: P 2/M
;
_chemical_formula_sum "Si O2"
_cell_formula_units_Z 18
_cell_length_a 9.573948
_cell_length_b 16.379487
_cell_length_c 6.178254
_cell_angle_alpha 90.000000
_cell_angle_beta 84.820185
_cell_angle_gamma 90.000000
_cell_volume 964.894753
_symmetry_space_group_name_H-M "P 2/M"
_symmetry_group_IT_number 10
_symmetry_cell_setting 'monoclinic'
loop_
_space_group_symop_operation_xyz
x,y,z
-x,y,-z
-x,-y,-z
x,-y,z
loop_
_atom_site_type_symbol
_atom_site_label
_atom_site_fract_x
_atom_site_fract_y
_atom_site_fract_z
Si Si1 0.000000 0.205052 0.000000
Si Si2 0.575389 0.000000 0.735864
Si Si3 0.621316 0.590215 0.306981
Si Si4 0.741924 0.832655 0.750946
Si Si5 0.500000 0.276658 0.000000
Si Si6 0.143365 0.296050 0.601376
O O1 0.097269 0.261927 0.838804
O O2 0.887507 0.158072 0.865545
O O3 0.500000 0.000000 0.500000
O O4 0.670690 0.080809 0.717960
O O5 0.500000 0.000000 0.000000
O O6 0.500000 0.583964 0.500000
O O7 0.640919 0.500000 0.204823
O O8 0.760689 0.624858 0.397496
O O9 0.572344 0.661993 0.157108
O O10 0.622806 0.779802 0.888646
O O11 0.781017 0.778087 0.536341
O O12 0.000000 0.315271 0.500000
#
# Coordination Sequence:
#
# PCOD9153743 Si02
#       6
#     2   2   4   4   2   4
#     4  10  22  43  69  92 126 178 230 260 341 399
#     4  12  30  45  71 113 141 173 230 284 344 407
#     4  11  23  38  62  95 128 165 221 277 329 399
#     4  11  24  42  70  96 133 174 221 280 330 412
#     4  12  21  39  68  90 130 176 212 269 341 400
#     4  10  22  41  64  93 126 178 218 269 335 401
#
# _framework density 18.654885
#
# number of rings (size 3 to 8) (size 9 to 14) (size 15 to 20)
#    0.000    1.111    5.556    0.333    6.222    0.889 
#    0.000    5.556    0.000    0.000    0.000    0.000 
#    0.000    0.000    0.000    0.000    0.000    0.000 
#
# Total GULP energy -100285.929069 kJ/mol
# GULP energy per Si atom -5571.440504 kJ/mol
# Density = 1.861243 g / cm^3
# Si number density = 18.654885 Si / 1000 Ang^3
#
#
#
# Elastic Constant Matrix: (Units=GPa)
#
#
# Indices 1 2 3 4 5 6 
#
# 1 107.5524 73.8764 34.8561 0.0000 -11.4658 0.0000
# 2 73.8764 153.2430 34.4749 0.0000 3.1639 0.0000
# 3 34.8561 34.4749 77.4583 0.0000 -15.1542 0.0000
# 4 0.0000 0.0000 0.0000 11.8181 0.0000 -2.9041
# 5 -11.4658 3.1639 -15.1542 0.0000 31.0590 0.0000
# 6 0.0000 0.0000 0.0000 -2.9041 0.0000 107.1077
#
#
#
# Elastic Compliance Matrix: (Units=1/GPa)
#
#
# Indices 1 2 3 4 5 6 
#
# 1 0.015549 -0.006942 -0.002925 0.000000 0.005020 0.000000
# 2 -0.006942 0.010539 -0.002519 0.000000 -0.004865 0.000000
# 3 -0.002925 -0.002519 0.016789 0.000000 0.007368 0.000000
# 4 0.000000 0.000000 0.000000 0.085183 0.000000 0.002310
# 5 0.005020 -0.004865 0.007368 0.000000 0.038141 0.000000
# 6 0.000000 0.000000 0.000000 0.002310 0.000000 0.009399
#
#
# Mechanical properties :
#
#
# Convention : Reuss Voigt Hill
#
# Bulk Modulus (GPa) = 55.23091 69.40763 62.31927
# Shear Modulus (GPa) = 24.22393 43.00005 33.61199
#
# Velocity S-wave (km/s) = 3.60742 4.80628 4.24934
# Velocity P-wave (km/s) = 6.85728 8.25151 7.58649
#
# Compressibility (1/GPa) = 0.01810580
#
# Stress axis : x y z
#
# Youngs Moduli (GPa) = 64.31254 94.88472 59.56181
#
# Poissons Ratio (x) = 0.65864 0.17424
# Poissons Ratio (y) = 0.44643 0.15003
# Poissons Ratio (z) = 0.18814 0.23900
#
# Static dielectric constant tensor:
#      x y z
#    x 1.680860 0.000000 0.059220 
#    y 0.000000 1.611050 0.000000 
#    z 0.059220 0.000000 1.730240 
# 
# From -- ./inp_files/4078.got.cif
#   From: 2010.05.17/outbox.cif.g08.bks.cpg/sg10_3_cif.got.tgz:4078.got - 2010.06.03 11:33:40.
