data_PCOD9153438
_publ_section_title
;
Structure prediction by ZEFSAII (Michael W. Deem and Ramdas Pophale) SiO2 
 PCOD9153438
Probable space group: P 2/M
;
_chemical_formula_sum "Si O2"
_cell_formula_units_Z 32
_cell_length_a 15.451985
_cell_length_b 18.299082
_cell_length_c 11.916207
_cell_angle_alpha 90.000000
_cell_angle_beta 151.199529
_cell_angle_gamma 90.000000
_cell_volume 1623.241545
_symmetry_space_group_name_H-M "P 2/M"
_symmetry_group_IT_number 10
_symmetry_cell_setting 'monoclinic'
loop_
_space_group_symop_operation_xyz
x,y,z
-x,y,-z
-x,-y,-z
x,-y,z
loop_
_atom_site_type_symbol
_atom_site_label
_atom_site_fract_x
_atom_site_fract_y
_atom_site_fract_z
Si Si1 0.627341 0.764073 0.752832
Si Si2 0.462133 0.077883 0.322559
Si Si3 0.095883 0.418094 0.729032
Si Si4 0.015063 0.787704 0.146348
Si Si5 0.185154 0.684408 0.492227
Si Si6 0.815898 0.812212 0.344396
Si Si7 0.211995 0.914639 0.486268
Si Si8 0.409476 0.300869 0.056445
O O1 0.500000 0.759842 0.500000
O O2 0.643675 0.848178 0.810674
O O3 0.556833 0.720015 0.776703
O O4 0.831888 0.744808 0.962656
O O5 0.500000 0.075452 0.500000
O O6 0.635643 0.086079 0.438695
O O7 0.375987 0.000000 0.195211
O O8 0.149447 0.500000 0.824663
O O9 0.000000 0.422310 0.500000
O O10 0.946918 0.383518 0.643452
O O11 0.263014 0.364621 0.896563
O O12 0.165197 0.729074 0.353426
O O13 0.056288 0.862426 0.259907
O O14 0.000000 0.808027 0.000000
O O15 0.114044 0.744546 0.500308
O O16 0.393795 0.674402 0.762324
O O17 0.733964 0.872333 0.337037
O O18 0.000000 0.842948 0.500000
O O19 0.675059 0.770951 0.101880
O O20 0.167889 0.000000 0.455463
#
# Coordination Sequence:
#
# PCOD9153438 Si02
#       8
#     4   4   4   4   4   4   4   4
#     4  11  21  36  59  90 118 158 218 263 312 376
#     4   9  18  35  55  79 116 156 202 261 317 366
#     4  11  23  41  64  96 130 161 201 251 311 376
#     4  11  21  36  59  89 120 158 212 265 316 369
#     4  11  21  38  61  92 125 160 207 261 307 372
#     4  11  20  38  60  85 124 166 212 262 319 374
#     4  10  22  38  57  87 124 164 215 268 323 383
#     4  12  21  38  65  91 125 167 206 257 314 372
#
# _framework density 19.713640000000002
#
# number of rings (size 3 to 8) (size 9 to 14) (size 15 to 20)
#    0.000    1.250    3.750    4.875    0.000    1.500 
#    0.000    1.875    0.000    9.750    0.000    0.000 
#    0.000    0.000    0.000    0.000    0.000    0.000 
#
# Total GULP energy -178262.259172 kJ/mol
# GULP energy per Si atom -5570.695599 kJ/mol
# Density = 1.966877 g / cm^3
# Si number density = 19.713640 Si / 1000 Ang^3
#
#
#
# Elastic Constant Matrix: (Units=GPa)
#
#
# Indices 1 2 3 4 5 6 
#
# 1 82.8391 38.7569 37.5827 0.0000 4.3630 0.0000
# 2 38.7569 109.0772 45.9541 0.0000 -4.6282 0.0000
# 3 37.5827 45.9541 107.6156 0.0000 8.2001 0.0000
# 4 0.0000 0.0000 0.0000 13.5506 0.0000 -2.3563
# 5 4.3630 -4.6282 8.2001 0.0000 31.8187 0.0000
# 6 0.0000 0.0000 0.0000 -2.3563 0.0000 19.8140
#
#
#
# Elastic Compliance Matrix: (Units=1/GPa)
#
#
# Indices 1 2 3 4 5 6 
#
# 1 0.015740 -0.004163 -0.003579 0.000000 -0.001841 0.000000
# 2 -0.004163 0.012551 -0.004170 0.000000 0.003471 0.000000
# 3 -0.003579 -0.004170 0.012579 0.000000 -0.003358 0.000000
# 4 0.000000 0.000000 0.000000 0.075355 0.000000 0.008961
# 5 -0.001841 0.003471 -0.003358 0.000000 0.033051 0.000000
# 6 0.000000 0.000000 0.000000 0.008961 0.000000 0.051535
#
#
# Mechanical properties :
#
#
# Convention : Reuss Voigt Hill
#
# Bulk Modulus (GPa) = 58.66592 60.45770 59.56181
# Shear Modulus (GPa) = 21.70917 24.85255 23.28086
#
# Velocity S-wave (km/s) = 3.32207 3.55445 3.44023
# Velocity P-wave (km/s) = 6.67372 6.89783 6.78670
#
# Compressibility (1/GPa) = 0.01704567
#
# Stress axis : x y z
#
# Youngs Moduli (GPa) = 63.53258 79.67353 79.49879
#
# Poissons Ratio (x) = 0.33168 0.28451
# Poissons Ratio (y) = 0.26449 0.33153
# Poissons Ratio (z) = 0.22737 0.33226
#
# Static dielectric constant tensor:
#      x y z
#    x 1.853030 0.000000 -0.024090 
#    y 0.000000 1.688170 0.000000 
#    z -0.024090 0.000000 1.766300 
# 
# From -- ./inp_files/52004.got.cif
#   From: 2010.05.17/outbox.cif.g08.bks.cpg/sg10_27_cif.got.tgz:52004.got - 2010.06.03 11:33:40.
