data_PCOD9153626
_publ_section_title
;
Structure prediction by ZEFSAII (Michael W. Deem and Ramdas Pophale) SiO2 
 PCOD9153626
Probable space group: P 2/M
;
_chemical_formula_sum "Si O2"
_cell_formula_units_Z 32
_cell_length_a 31.289100
_cell_length_b 8.891215
_cell_length_c 12.098370
_cell_angle_alpha 90.000000
_cell_angle_beta 149.969575
_cell_angle_gamma 90.000000
_cell_volume 1684.419446
_symmetry_space_group_name_H-M "P 2/M"
_symmetry_group_IT_number 10
_symmetry_cell_setting 'monoclinic'
loop_
_space_group_symop_operation_xyz
x,y,z
-x,y,-z
-x,-y,-z
x,-y,z
loop_
_atom_site_type_symbol
_atom_site_label
_atom_site_fract_x
_atom_site_fract_y
_atom_site_fract_z
Si Si1 0.529590 0.676513 0.938471
Si Si2 0.255356 0.322963 0.812184
Si Si3 0.882436 0.177835 0.340120
Si Si4 0.283562 0.179115 0.649191
Si Si5 0.919355 0.177764 0.168599
Si Si6 0.399683 0.178634 0.274199
Si Si7 0.223028 0.321627 0.286549
Si Si8 0.631303 0.179336 0.540924
O O1 0.537883 0.500000 0.929103
O O2 0.457694 0.754288 0.702951
O O3 0.500000 0.686667 0.000000
O O4 0.619810 0.758454 0.130245
O O5 0.255000 0.500000 0.792180
O O6 0.184688 0.274575 0.743033
O O7 0.239815 0.236001 0.663268
O O8 0.345903 0.270424 0.065215
O O9 0.884711 0.211212 0.214468
O O10 0.978959 0.201001 0.599660
O O11 0.861803 0.000000 0.305742
O O12 0.240350 0.247692 0.443749
O O13 0.284079 0.000000 0.644391
O O14 0.903868 0.000000 0.113734
O O15 0.868514 0.274945 0.966763
O O16 0.500000 0.215545 0.500000
O O17 0.363143 0.205252 0.315366
O O18 0.391847 0.000000 0.232189
O O19 0.232971 0.500000 0.316627
O O20 0.293184 0.256275 0.358419
O O21 0.633396 0.000000 0.526963
#
# Coordination Sequence:
#
# PCOD9153626 Si02
#       8
#     4   4   4   4   4   4   4   4
#     4  11  22  37  58  86 120 153 192 249 304 349
#     4  12  25  40  61  89 123 159 197 243 302 359
#     4   9  19  39  66  93 122 157 199 241 287 351
#     4  12  25  42  63  83 113 159 208 249 291 354
#     4   9  19  38  65  94 122 155 196 244 293 348
#     4  10  22  40  60  85 117 156 203 248 289 342
#     4  12  24  38  57  87 123 154 192 248 305 352
#     4  11  22  36  59  87 117 158 205 246 290 352
#
# _framework density 18.997643
#
# number of rings (size 3 to 8) (size 9 to 14) (size 15 to 20)
#    0.000    1.250    1.250    6.375    0.000    6.750 
#    0.000    1.875    0.000    3.750    0.000    0.000 
#    0.000    0.000    0.000    0.000    0.000    0.000 
#
# Total GULP energy -179041.885397 kJ/mol
# GULP energy per Si atom -5595.058919 kJ/mol
# Density = 1.895440 g / cm^3
# Si number density = 18.997643 Si / 1000 Ang^3
#
#
#
# Elastic Constant Matrix: (Units=GPa)
#
#
# Indices 1 2 3 4 5 6 
#
# 1 65.7981 46.9779 19.6944 0.0000 -3.7577 0.0000
# 2 46.9779 121.9686 45.5645 0.0000 -13.9455 0.0000
# 3 19.6944 45.5645 72.1457 0.0000 -15.2448 0.0000
# 4 0.0000 0.0000 0.0000 -11.1474 0.0000 87.4207
# 5 -3.7577 -13.9455 -15.2448 0.0000 23.0086 0.0000
# 6 0.0000 0.0000 0.0000 87.4207 0.0000 19.1184
#
#
#
# Elastic Compliance Matrix: (Units=1/GPa)
#
#
# Indices 1 2 3 4 5 6 
#
# 1 0.021090 -0.007917 -0.001213 0.000000 -0.002158 0.000000
# 2 -0.007917 0.013812 -0.005891 0.000000 0.003175 0.000000
# 3 -0.001213 -0.005891 0.019903 0.000000 0.009418 0.000000
# 4 0.000000 0.000000 0.000000 -0.002434 0.000000 0.011129
# 5 -0.002158 0.003175 0.009418 0.000000 0.051274 0.000000
# 6 0.000000 0.000000 0.000000 0.011129 0.000000 0.001419
#
#
# Mechanical properties :
#
#
# Convention : Reuss Voigt Hill
#
# Bulk Modulus (GPa) = 40.38315 53.82068 47.10191
# Shear Modulus (GPa) = 34.87715 16.04096 25.45905
#
# Velocity S-wave (km/s) = 4.28935 2.90895 3.66473
# Velocity P-wave (km/s) = 6.77011 6.29876 6.53868
#
# Compressibility (1/GPa) = 0.02476281
#
# Stress axis : x y z
#
# Youngs Moduli (GPa) = 47.41540 72.40185 50.24450
#
# Poissons Ratio (x) = 0.57318 0.06096
# Poissons Ratio (y) = 0.37537 0.29599
# Poissons Ratio (z) = 0.05753 0.42652
#
# Static dielectric constant tensor:
#      x y z
#    x 1.655340 0.000000 0.004680 
#    y 0.000000 1.629740 0.000000 
#    z 0.004680 0.000000 1.643430 
# 
# From -- ./inp_files/58240.got.cif
#   From: 2010.05.17/outbox.cif.g08.bks.cpg/sg10_30_cif.got.tgz:58240.got - 2010.06.03 11:33:40.
