data_PCOD9153003
_publ_section_title
;
Structure prediction by ZEFSAII (Michael W. Deem and Ramdas Pophale) SiO2 
 PCOD9153003
Probable space group: P 2/M
;
_chemical_formula_sum "Si O2"
_cell_formula_units_Z 29
_cell_length_a 9.609462
_cell_length_b 15.879849
_cell_length_c 11.127440
_cell_angle_alpha 90.000000
_cell_angle_beta 64.192299
_cell_angle_gamma 90.000000
_cell_volume 1528.652551
_symmetry_space_group_name_H-M "P 2/M"
_symmetry_group_IT_number 10
_symmetry_cell_setting 'monoclinic'
loop_
_space_group_symop_operation_xyz
x,y,z
-x,y,-z
-x,-y,-z
x,-y,z
loop_
_atom_site_type_symbol
_atom_site_label
_atom_site_fract_x
_atom_site_fract_y
_atom_site_fract_z
Si Si1 0.238225 0.222550 0.652317
Si Si2 0.669627 0.905792 0.994907
Si Si3 0.152167 0.593890 0.027330
Si Si4 0.500000 0.500000 0.500000
Si Si5 0.550360 0.096233 0.305407
Si Si6 0.118702 0.761916 0.193871
Si Si7 0.688067 0.243168 0.645356
Si Si8 0.410944 0.637299 0.740428
O O1 0.344466 0.140377 0.632823
O O2 0.256129 0.257658 0.511181
O O3 0.308563 0.290286 0.716760
O O4 0.059118 0.211175 0.746606
O O5 0.777955 0.831418 0.911027
O O6 0.723749 0.000000 0.939498
O O7 0.500000 0.894811 0.000000
O O8 0.650295 0.903176 0.145300
O O9 0.149056 0.500000 0.084150
O O10 0.304607 0.601229 0.886633
O O11 0.143526 0.670954 0.123093
O O12 0.000000 0.600326 0.000000
O O13 0.456984 0.572603 0.618463
O O14 0.404656 0.155022 0.328394
O O15 0.509019 0.000000 0.347709
O O16 0.176997 0.759317 0.308900
O O17 0.564825 0.315110 0.727597
#
# Coordination Sequence:
#
# PCOD9153003 Si02
#       8
#     4   4   4   1   4   4   4   4
#     4  11  23  40  60  90 125 161 210 257 310 370
#     4  10  21  39  63  91 123 163 206 252 314 379
#     4  11  24  41  64  94 126 163 209 260 316 370
#     4  12  20  40  70  92 118 160 218 260 302 372
#     4  10  21  39  66  92 119 161 212 260 304 369
#     4  12  24  40  63  90 129 167 200 260 323 371
#     4  11  23  40  61  88 127 164 206 251 314 377
#     4  11  21  40  66  90 117 165 206 256 307 362
#
# _framework density 18.970956999999999
#
# number of rings (size 3 to 8) (size 9 to 14) (size 15 to 20)
#    0.000    1.103    4.828    3.310    0.000    1.655 
#    1.241    2.069    0.000    4.138    0.000    0.000 
#    0.000    0.000    0.000    0.000    0.000    0.000 
#
# Total GULP energy -161728.456608 kJ/mol
# GULP energy per Si atom -5576.843331 kJ/mol
# Density = 1.892778 g / cm^3
# Si number density = 18.970957 Si / 1000 Ang^3
#
#
#
# Elastic Constant Matrix: (Units=GPa)
#
#
# Indices 1 2 3 4 5 6 
#
# 1 65.5786 35.3575 4.2254 0.0000 0.0511 0.0000
# 2 35.3575 120.9874 2.2332 0.0000 -10.9744 0.0000
# 3 4.2254 2.2332 37.3654 0.0000 0.5053 0.0000
# 4 0.0000 0.0000 0.0000 12.9302 0.0000 -19.5441
# 5 0.0511 -10.9744 0.5053 0.0000 26.5869 0.0000
# 6 0.0000 0.0000 0.0000 -19.5441 0.0000 -29.6191
#
#
#
# Elastic Compliance Matrix: (Units=1/GPa)
#
#
# Indices 1 2 3 4 5 6 
#
# 1 0.018347 -0.005538 -0.001713 0.000000 -0.002288 0.000000
# 2 -0.005538 0.010270 -0.000045 0.000000 0.004251 0.000000
# 3 -0.001713 -0.000045 0.026966 0.000000 -0.000528 0.000000
# 4 0.000000 0.000000 0.000000 0.038720 0.000000 -0.025549
# 5 -0.002288 0.004251 -0.000528 0.000000 0.039382 0.000000
# 6 0.000000 0.000000 0.000000 -0.025549 0.000000 -0.016903
#
#
# Mechanical properties :
#
#
# Convention : Reuss Voigt Hill
#
# Bulk Modulus (GPa) = 24.39501 34.17373 29.28437
# Shear Modulus (GPa) = 34.47409 14.12061 24.29735
#
# Velocity S-wave (km/s) = 4.26749 2.73120 3.58266
# Velocity P-wave (km/s) = 6.09664 5.29138 5.70823
#
# Compressibility (1/GPa) = 0.04099200
#
# Stress axis : x y z
#
# Youngs Moduli (GPa) = 54.50580 97.37059 37.08340
#
# Poissons Ratio (x) = 0.53920 0.06352
# Poissons Ratio (y) = 0.30183 0.00167
# Poissons Ratio (z) = 0.09336 0.00439
#
# Static dielectric constant tensor:
#      x y z
#    x 1.639140 0.000000 -0.001820 
#    y 0.000000 1.669060 0.000000 
#    z -0.001820 0.000000 1.671080 
# 
# From -- ./inp_files/42906.got.cif
#   From: 2010.05.17/outbox.cif.g08.bks.cpg/sg10_22_cif.got.tgz:42906.got - 2010.06.03 11:33:40.
