data_PCOD9153891
_publ_section_title
;
Structure prediction by ZEFSAII (Michael W. Deem and Ramdas Pophale) SiO2 
 PCOD9153891
Probable space group: P 2/M
;
_chemical_formula_sum "Si O2"
_cell_formula_units_Z 16
_cell_length_a 13.706981
_cell_length_b 8.389564
_cell_length_c 6.848754
_cell_angle_alpha 90.000000
_cell_angle_beta 108.252898
_cell_angle_gamma 90.000000
_cell_volume 747.948273
_symmetry_space_group_name_H-M "P 2/M"
_symmetry_group_IT_number 10
_symmetry_cell_setting 'monoclinic'
loop_
_space_group_symop_operation_xyz
x,y,z
-x,y,-z
-x,-y,-z
x,-y,z
loop_
_atom_site_type_symbol
_atom_site_label
_atom_site_fract_x
_atom_site_fract_y
_atom_site_fract_z
Si Si1 0.000000 0.254024 0.000000
Si Si2 0.485507 0.000000 0.727328
Si Si3 0.070428 0.000000 0.354581
Si Si4 0.431979 0.327193 0.259776
Si Si5 0.744085 0.000000 0.258788
Si Si6 0.781986 0.325499 0.033033
O O1 0.103494 0.331129 0.981133
O O2 0.957064 0.148733 0.795984
O O3 0.500000 0.000000 0.500000
O O4 0.537776 0.836035 0.824968
O O5 0.629695 0.000000 0.270052
O O6 0.184431 0.000000 0.505977
O O7 0.000000 0.000000 0.500000
O O8 0.500000 0.328035 0.500000
O O9 0.454744 0.500000 0.181680
O O10 0.307714 0.318359 0.188807
O O11 0.768723 0.163026 0.151967
O O12 0.765515 0.500000 0.124383
#
# Coordination Sequence:
#
# PCOD9153891 Si02
#       6
#     2   2   2   4   2   4
#     4  11  23  42  74 101 137 182 233 279 340 413
#     4  10  23  38  65  93 122 173 229 268 328 409
#     4  11  22  43  70 104 136 183 226 289 346 406
#     4   9  20  39  61  92 130 170 218 272 327 387
#     4  12  25  44  67 100 141 176 225 283 355 403
#     4  11  24  43  69 103 140 177 227 283 339 410
#
# _framework density 21.391853999999999
#
# number of rings (size 3 to 8) (size 9 to 14) (size 15 to 20)
#    0.000    1.500    2.500    1.875    7.000    3.000 
#    0.000    6.250    0.000    0.000    0.000    0.000 
#    0.000    0.000    0.000    0.000    0.000    0.000 
#
# Total GULP energy -89095.449990 kJ/mol
# GULP energy per Si atom -5568.465624 kJ/mol
# Density = 2.134317 g / cm^3
# Si number density = 21.391854 Si / 1000 Ang^3
#
#
#
# Elastic Constant Matrix: (Units=GPa)
#
#
# Indices 1 2 3 4 5 6 
#
# 1 176.2184 76.2931 44.4146 0.0000 26.0479 0.0000
# 2 76.2931 222.8157 40.0573 0.0000 2.5597 0.0000
# 3 44.4146 40.0573 110.5023 0.0000 20.5765 0.0000
# 4 0.0000 0.0000 0.0000 -8.2408 0.0000 11.7358
# 5 26.0479 2.5597 20.5765 0.0000 49.9412 0.0000
# 6 0.0000 0.0000 0.0000 11.7358 0.0000 18.2240
#
#
#
# Elastic Compliance Matrix: (Units=1/GPa)
#
#
# Indices 1 2 3 4 5 6 
#
# 1 0.007521 -0.002247 -0.001624 0.000000 -0.003138 0.000000
# 2 -0.002247 0.005484 -0.001355 0.000000 0.001449 0.000000
# 3 -0.001624 -0.001355 0.010856 0.000000 -0.003556 0.000000
# 4 0.000000 0.000000 0.000000 -0.063298 0.000000 0.040762
# 5 -0.003138 0.001449 -0.003556 0.000000 0.023051 0.000000
# 6 0.000000 0.000000 0.000000 0.040762 0.000000 0.028623
#
#
# Mechanical properties :
#
#
# Convention : Reuss Voigt Hill
#
# Bulk Modulus (GPa) = 74.57537 92.34069 83.45803
# Shear Modulus (GPa) = 184.10302 35.23631 109.66967
#
# Velocity S-wave (km/s) = 9.28704 4.06295 7.16787
# Velocity P-wave (km/s) = 12.24483 8.07899 10.37319
#
# Compressibility (1/GPa) = 0.01340925
#
# Stress axis : x y z
#
# Youngs Moduli (GPa) = 132.96294 182.33660 92.11863
#
# Poissons Ratio (x) = 0.40975 0.14959
# Poissons Ratio (y) = 0.29879 0.12479
# Poissons Ratio (z) = 0.21592 0.24701
#
# Static dielectric constant tensor:
#      x y z
#    x 1.791360 0.000000 0.097590 
#    y 0.000000 1.838170 0.000000 
#    z 0.097590 0.000000 1.335860 
# 
# From -- ./inp_files/8565.got.cif
#   From: 2010.05.17/outbox.cif.g08.bks.cpg/sg10_5_cif.got.tgz:8565.got - 2010.06.03 11:33:40.
