data_PCOD9153694
_publ_section_title
;
Structure prediction by ZEFSAII (Michael W. Deem and Ramdas Pophale) SiO2 
 PCOD9153694
Probable space group: P 2/M
;
_chemical_formula_sum "Si O2"
_cell_formula_units_Z 28
_cell_length_a 5.224230
_cell_length_b 16.291147
_cell_length_c 16.840264
_cell_angle_alpha 90.000000
_cell_angle_beta 115.610909
_cell_angle_gamma 90.000000
_cell_volume 1292.436201
_symmetry_space_group_name_H-M "P 2/M"
_symmetry_group_IT_number 10
_symmetry_cell_setting 'monoclinic'
loop_
_space_group_symop_operation_xyz
x,y,z
-x,y,-z
-x,-y,-z
x,-y,z
loop_
_atom_site_type_symbol
_atom_site_label
_atom_site_fract_x
_atom_site_fract_y
_atom_site_fract_z
Si Si1 0.218095 0.500000 0.775828
Si Si2 0.340043 0.670083 0.556806
Si Si3 0.783628 0.910223 0.589430
Si Si4 0.213229 0.216762 0.676215
Si Si5 0.452016 0.500000 0.345890
Si Si6 0.331751 0.318529 0.835024
Si Si7 0.059501 0.231428 0.098795
Si Si8 0.680102 0.093740 0.765033
O O1 0.361637 0.500000 0.708716
O O2 0.314241 0.416212 0.830543
O O3 0.879003 0.500000 0.720301
O O4 0.500000 0.698569 0.500000
O O5 0.391187 0.732153 0.636212
O O6 0.466710 0.581573 0.595684
O O7 0.000000 0.662685 0.500000
O O8 0.500000 0.908434 0.500000
O O9 0.726002 0.906406 0.676197
O O10 0.968766 0.830672 0.596968
O O11 0.923153 0.000000 0.592065
O O12 0.144428 0.280953 0.736641
O O13 0.385154 0.141500 0.737909
O O14 0.648659 0.284699 0.861507
O O15 0.193611 0.283186 0.896058
O O16 0.101105 0.150565 0.158201
O O17 0.000000 0.209811 0.000000
O O18 0.676246 0.000000 0.791625
#
# Coordination Sequence:
#
# PCOD9153694 Si02
#       8
#     2   4   4   4   2   4   4   4
#     4  12  24  43  73 100 134 182 231 279 347 423
#     4  12  28  42  64  95 136 184 239 300 349 404
#     4  10  22  40  64  95 135 183 236 290 343 403
#     4  11  24  40  66  91 140 178 241 282 351 401
#     4  12  24  45  66  94 139 182 237 293 347 407
#     4  11  24  45  72 102 137 179 229 281 344 420
#     4  11  24  46  74 106 141 176 223 286 352 421
#     4  10  23  41  66  98 137 182 228 283 350 413
#
# _framework density 21.664512999999999
#
# number of rings (size 3 to 8) (size 9 to 14) (size 15 to 20)
#    0.000    1.000    2.857    3.000    6.000    0.286 
#    0.000    4.286    0.000    3.857    0.000    0.000 
#    0.000    0.000    0.000    0.000    0.000    0.000 
#
# Total GULP energy -156705.529154 kJ/mol
# GULP energy per Si atom -5596.626041 kJ/mol
# Density = 2.161520 g / cm^3
# Si number density = 21.664513 Si / 1000 Ang^3
#
#
#
# Elastic Constant Matrix: (Units=GPa)
#
#
# Indices 1 2 3 4 5 6 
#
# 1 100.0961 19.8852 20.7699 0.0000 -9.4712 0.0000
# 2 19.8852 183.2159 40.3425 0.0000 -0.4597 0.0000
# 3 20.7699 40.3425 96.7913 0.0000 -18.7984 0.0000
# 4 0.0000 0.0000 0.0000 -40.7247 0.0000 -1.9880
# 5 -9.4712 -0.4597 -18.7984 0.0000 40.7775 0.0000
# 6 0.0000 0.0000 0.0000 -1.9880 0.0000 15.2338
#
#
#
# Elastic Compliance Matrix: (Units=1/GPa)
#
#
# Indices 1 2 3 4 5 6 
#
# 1 0.010647 -0.000795 -0.001620 0.000000 0.001717 0.000000
# 2 -0.000795 0.006122 -0.002640 0.000000 -0.001333 0.000000
# 3 -0.001620 -0.002640 0.012851 0.000000 0.005518 0.000000
# 4 0.000000 0.000000 0.000000 -0.024400 0.000000 -0.003184
# 5 0.001717 -0.001333 0.005518 0.000000 0.027451 0.000000
# 6 0.000000 0.000000 0.000000 -0.003184 0.000000 0.065228
#
#
# Mechanical properties :
#
#
# Convention : Reuss Voigt Hill
#
# Bulk Modulus (GPa) = 51.25261 60.23316 55.74289
# Shear Modulus (GPa) = 43.66333 22.99770 33.33051
#
# Velocity S-wave (km/s) = 4.49423 3.26166 3.92661
# Velocity P-wave (km/s) = 7.11614 6.48441 6.80761
#
# Compressibility (1/GPa) = 0.01951120
#
# Stress axis : x y z
#
# Youngs Moduli (GPa) = 93.92432 163.33872 77.81333
#
# Poissons Ratio (x) = 0.12978 0.12606
# Poissons Ratio (y) = 0.07463 0.20543
# Poissons Ratio (z) = 0.15216 0.43122
#
# Static dielectric constant tensor:
#      x y z
#    x 1.814430 0.000000 0.027030 
#    y 0.000000 1.773540 0.000000 
#    z 0.027030 0.000000 1.806250 
# 
# From -- ./inp_files/73587.got.cif
#   From: 2010.05.17/outbox.cif.g08.bks.cpg/sg10_37_cif.got.tgz:73587.got - 2010.06.03 11:33:40.
