data_PCOD9153534
_publ_section_title
;
Structure prediction by ZEFSAII (Michael W. Deem and Ramdas Pophale) SiO2 
 PCOD9153534
Probable space group: P 2/M
;
_chemical_formula_sum "Si O2"
_cell_formula_units_Z 26
_cell_length_a 17.061883
_cell_length_b 7.506440
_cell_length_c 16.452639
_cell_angle_alpha 90.000000
_cell_angle_beta 35.843161
_cell_angle_gamma 90.000000
_cell_volume 1233.883738
_symmetry_space_group_name_H-M "P 2/M"
_symmetry_group_IT_number 10
_symmetry_cell_setting 'monoclinic'
loop_
_space_group_symop_operation_xyz
x,y,z
-x,y,-z
-x,-y,-z
x,-y,z
loop_
_atom_site_type_symbol
_atom_site_label
_atom_site_fract_x
_atom_site_fract_y
_atom_site_fract_z
Si Si1 0.281680 0.708350 0.462385
Si Si2 0.371015 0.282407 0.557544
Si Si3 0.735345 0.710657 0.052735
Si Si4 0.972458 0.703399 0.727614
Si Si5 0.846428 0.717280 0.133028
Si Si6 0.398162 0.000000 0.940254
Si Si7 0.151165 0.000000 0.272266
Si Si8 0.696051 0.000000 0.692980
O O1 0.309243 0.500000 0.422584
O O2 0.369561 0.771572 0.464850
O O3 0.126879 0.723076 0.620839
O O4 0.293164 0.829018 0.374068
O O5 0.500000 0.225810 0.500000
O O6 0.370556 0.500000 0.556690
O O7 0.238108 0.225865 0.717697
O O8 0.702339 0.500000 0.078753
O O9 0.873965 0.737771 0.886090
O O10 0.765201 0.765332 0.119858
O O11 0.628293 0.829423 0.095348
O O12 0.950495 0.500000 0.721134
O O13 0.932714 0.831201 0.687659
O O14 0.850711 0.500000 0.130349
O O15 0.000000 0.778585 0.000000
O O16 0.545219 0.000000 0.853123
O O17 0.286086 0.000000 0.104168
O O18 0.194544 0.000000 0.328571
#
# Coordination Sequence:
#
# PCOD9153534 Si02
#       8
#     4   4   4   4   4   2   2   2
#     4  10  22  39  59  86 120 154 189 235 286 344
#     4   9  18  32  52  79 116 158 192 230 282 333
#     4   9  18  34  59  86 113 149 192 238 284 335
#     4   9  18  36  62  89 117 147 184 235 297 349
#     4   9  16  28  52  83 112 148 195 239 280 333
#     4  10  23  40  58  82 112 147 190 237 288 343
#     4  10  22  42  63  84 113 143 186 247 299 344
#     4  12  26  40  59  85 112 153 197 234 287 356
#
# _framework density 21.071677000000001
#
# number of rings (size 3 to 8) (size 9 to 14) (size 15 to 20)
#    0.000    2.462    0.000    1.615    2.154    6.154 
#    0.000    3.077    0.000    4.615    0.000    0.000 
#    0.000    0.000    0.000    0.000    0.000    0.000 
#
# Total GULP energy -145306.931849 kJ/mol
# GULP energy per Si atom -5588.728148 kJ/mol
# Density = 2.102372 g / cm^3
# Si number density = 21.071677 Si / 1000 Ang^3
#
#
#
# Elastic Constant Matrix: (Units=GPa)
#
#
# Indices 1 2 3 4 5 6 
#
# 1 127.0889 39.5793 10.9141 0.0000 27.8505 0.0000
# 2 39.5793 64.5599 12.4880 0.0000 11.4741 0.0000
# 3 10.9141 12.4880 38.3922 0.0000 5.9453 0.0000
# 4 0.0000 0.0000 0.0000 -32.0172 0.0000 -3.2521
# 5 27.8505 11.4741 5.9453 0.0000 30.7958 0.0000
# 6 0.0000 0.0000 0.0000 -3.2521 0.0000 16.8414
#
#
#
# Elastic Compliance Matrix: (Units=1/GPa)
#
#
# Indices 1 2 3 4 5 6 
#
# 1 0.011396 -0.005490 -0.000180 0.000000 -0.008226 0.000000
# 2 -0.005490 0.020051 -0.004714 0.000000 -0.001596 0.000000
# 3 -0.000180 -0.004714 0.028177 0.000000 -0.003520 0.000000
# 4 0.000000 0.000000 0.000000 -0.030632 0.000000 -0.005915
# 5 -0.008226 -0.001596 -0.003520 0.000000 0.041186 0.000000
# 6 0.000000 0.000000 0.000000 -0.005915 0.000000 0.058235
#
#
# Mechanical properties :
#
#
# Convention : Reuss Voigt Hill
#
# Bulk Modulus (GPa) = 25.73649 39.55595 32.64622
# Shear Modulus (GPa) = 30.83903 14.26131 22.55017
#
# Velocity S-wave (km/s) = 3.82976 2.60436 3.27489
# Velocity P-wave (km/s) = 5.63883 5.27792 5.46136
#
# Compressibility (1/GPa) = 0.03885534
#
# Stress axis : x y z
#
# Youngs Moduli (GPa) = 87.74707 49.87384 35.49033
#
# Poissons Ratio (x) = 0.27380 0.00639
# Poissons Ratio (y) = 0.48172 0.16731
# Poissons Ratio (z) = 0.01581 0.23511
#
# Static dielectric constant tensor:
#      x y z
#    x 1.703620 0.000000 -0.015170 
#    y 0.000000 2.032170 0.000000 
#    z -0.015170 0.000000 1.773140 
# 
# From -- ./inp_files/66834.got.cif
#   From: 2010.05.17/outbox.cif.g08.bks.cpg/sg10_34_cif.got.tgz:66834.got - 2010.06.03 11:33:40.
