data_PCOD9153646
_publ_section_title
;
Structure prediction by ZEFSAII (Michael W. Deem and Ramdas Pophale) SiO2 
 PCOD9153646
Probable space group: P 2/M
;
_chemical_formula_sum "Si O2"
_cell_formula_units_Z 32
_cell_length_a 25.736296
_cell_length_b 7.814811
_cell_length_c 15.904851
_cell_angle_alpha 90.000000
_cell_angle_beta 26.932423
_cell_angle_gamma 90.000000
_cell_volume 1448.885700
_symmetry_space_group_name_H-M "P 2/M"
_symmetry_group_IT_number 10
_symmetry_cell_setting 'monoclinic'
loop_
_space_group_symop_operation_xyz
x,y,z
-x,y,-z
-x,-y,-z
x,-y,z
loop_
_atom_site_type_symbol
_atom_site_label
_atom_site_fract_x
_atom_site_fract_y
_atom_site_fract_z
Si Si1 0.499641 0.303667 0.091987
Si Si2 0.631276 0.701688 0.060168
Si Si3 0.743744 0.201501 0.501784
Si Si4 0.123947 0.799377 0.349227
Si Si5 0.592717 0.294692 0.298966
Si Si6 0.908252 0.700359 0.415193
Si Si7 0.156244 0.205691 0.996894
Si Si8 0.124879 0.208646 0.850817
O O1 0.542305 0.500000 0.019375
O O2 0.368776 0.301403 0.309546
O O3 0.500000 0.219478 0.000000
O O4 0.574809 0.222677 0.057539
O O5 0.602500 0.500000 0.101977
O O6 0.767871 0.718761 0.853822
O O7 0.584318 0.773822 0.215734
O O8 0.842736 0.223127 0.429061
O O9 0.787022 0.261083 0.348331
O O10 0.716113 0.000000 0.536768
O O11 0.132542 0.777048 0.437349
O O12 0.000000 0.728828 0.500000
O O13 0.126034 0.000000 0.325096
O O14 0.500000 0.227351 0.500000
O O15 0.577489 0.500000 0.317211
O O16 0.722264 0.259972 0.141299
O O17 0.882678 0.500000 0.454131
O O18 0.044268 0.728424 0.207158
O O19 0.149631 0.000000 0.007822
O O20 0.149183 0.265696 0.910133
O O21 0.124438 0.000000 0.852377
O O22 0.000000 0.264707 0.000000
#
# Coordination Sequence:
#
# PCOD9153646 Si02
#       8
#     4   4   4   4   4   4   4   4
#     4  10  22  40  61  88 122 160 204 254 308 365
#     4  10  22  41  63  88 125 168 205 252 310 367
#     4  11  22  38  62  90 121 158 202 249 304 364
#     4  11  24  41  64  93 122 154 200 255 308 364
#     4  10  23  42  62  88 125 168 211 253 305 369
#     4  12  24  39  61  91 125 161 199 245 306 373
#     4  11  22  39  63  89 122 161 208 260 310 361
#     4   9  18  36  59  86 123 160 193 245 312 366
#
# _framework density 22.085937999999999
#
# number of rings (size 3 to 8) (size 9 to 14) (size 15 to 20)
#    0.000    1.500    1.250    3.750    1.750    5.500 
#    0.000    2.500    0.000    0.000    0.000    0.000 
#    0.000    0.000    0.000    0.000    0.000    0.000 
#
# Total GULP energy -178930.172179 kJ/mol
# GULP energy per Si atom -5591.567881 kJ/mol
# Density = 2.203567 g / cm^3
# Si number density = 22.085938 Si / 1000 Ang^3
#
#
#
# Elastic Constant Matrix: (Units=GPa)
#
#
# Indices 1 2 3 4 5 6 
#
# 1 126.1599 0.0137 42.5894 0.0000 17.5451 0.0000
# 2 0.0137 36.9867 -11.4850 0.0000 0.6278 0.0000
# 3 42.5894 -11.4850 108.0136 0.0000 13.5141 0.0000
# 4 0.0000 0.0000 0.0000 3.0117 0.0000 -33.6930
# 5 17.5451 0.6278 13.5141 0.0000 36.6612 0.0000
# 6 0.0000 0.0000 0.0000 -33.6930 0.0000 -6.8761
#
#
#
# Elastic Compliance Matrix: (Units=1/GPa)
#
#
# Indices 1 2 3 4 5 6 
#
# 1 0.009552 -0.001024 -0.003465 0.000000 -0.003276 0.000000
# 2 -0.001024 0.028165 0.003562 0.000000 -0.001305 0.000000
# 3 -0.003465 0.003562 0.011326 0.000000 -0.002577 0.000000
# 4 0.000000 0.000000 0.000000 0.005949 0.000000 -0.029148
# 5 -0.003276 -0.001305 -0.002577 0.000000 0.029817 0.000000
# 6 0.000000 0.000000 0.000000 -0.029148 0.000000 -0.002605
#
#
# Mechanical properties :
#
#
# Convention : Reuss Voigt Hill
#
# Bulk Modulus (GPa) = 21.19172 37.04403 29.11788
# Shear Modulus (GPa) = 50.10643 22.56216 36.33430
#
# Velocity S-wave (km/s) = 4.76826 3.19966 4.06042
# Velocity P-wave (km/s) = 6.31910 5.51901 5.93256
#
# Compressibility (1/GPa) = 0.04718824
#
# Stress axis : x y z
#
# Youngs Moduli (GPa) = 104.68977 35.50466 88.29516
#
# Poissons Ratio (x) = 0.03636 0.30597
# Poissons Ratio (y) = 0.10720 -0.31449
# Poissons Ratio (z) = 0.36278 -0.12646
#
# Static dielectric constant tensor:
#      x y z
#    x 1.833250 0.000000 0.032240 
#    y 0.000000 1.814250 0.000000 
#    z 0.032240 0.000000 1.790510 
# 
# From -- ./inp_files/71404.got.cif
#   From: 2010.05.17/outbox.cif.g08.bks.cpg/sg10_36_cif.got.tgz:71404.got - 2010.06.03 11:33:40.
