data_PCOD9153251
_publ_section_title
;
Structure prediction by ZEFSAII (Michael W. Deem and Ramdas Pophale) SiO2 
 PCOD9153251
Probable space group: P 2/M
;
_chemical_formula_sum "Si O2"
_cell_formula_units_Z 28
_cell_length_a 15.496019
_cell_length_b 18.406319
_cell_length_c 8.519077
_cell_angle_alpha 90.000000
_cell_angle_beta 38.703284
_cell_angle_gamma 90.000000
_cell_volume 1519.355131
_symmetry_space_group_name_H-M "P 2/M"
_symmetry_group_IT_number 10
_symmetry_cell_setting 'monoclinic'
loop_
_space_group_symop_operation_xyz
x,y,z
-x,y,-z
-x,-y,-z
x,-y,z
loop_
_atom_site_type_symbol
_atom_site_label
_atom_site_fract_x
_atom_site_fract_y
_atom_site_fract_z
Si Si1 0.653453 0.085401 0.209780
Si Si2 0.712803 0.582793 0.107501
Si Si3 0.427339 0.584299 0.349798
Si Si4 0.341874 0.737880 0.382200
Si Si5 0.871228 0.182108 0.092393
Si Si6 0.361211 0.793665 0.003148
Si Si7 0.108088 0.286901 0.207326
O O1 0.500000 0.095112 0.500000
O O2 0.766973 0.125859 0.156995
O O3 0.653428 0.124636 0.039921
O O4 0.681932 0.000000 0.159138
O O5 0.753316 0.500000 0.025466
O O6 0.589395 0.598056 0.157715
O O7 0.645375 0.588983 0.376096
O O8 0.844144 0.633982 0.911851
O O9 0.412309 0.500000 0.315440
O O10 0.361746 0.650311 0.343270
O O11 0.219857 0.766070 0.665411
O O12 0.485439 0.766113 0.252072
O O13 0.334122 0.776126 0.223593
O O14 0.937992 0.235391 0.867989
O O15 0.000000 0.146915 0.000000
O O16 0.250007 0.748714 0.064702
O O17 0.000000 0.288356 0.500000
#
# Coordination Sequence:
#
# PCOD9153251 Si02
#       7
#     4   4   4   4   4   4   4
#     4  10  21  41  66  93 123 158 196 233 295 372
#     4   9  17  30  52  83 114 154 205 256 309 359
#     4   9  17  31  56  86 117 156 207 259 308 353
#     4  11  19  36  59  88 120 156 203 253 299 342
#     4  11  23  38  63  90 122 156 199 250 303 356
#     4  10  22  35  58  90 117 153 198 249 289 354
#     4  11  21  35  55  81 118 159 206 250 299 360
#
# _framework density 18.42887
#
# number of rings (size 3 to 8) (size 9 to 14) (size 15 to 20)
#    0.000    1.857    4.286    1.714    0.000    0.571 
#    0.000    4.286    0.000   18.000    0.000    0.000 
#    0.000    0.000    0.000    0.000    0.000    0.000 
#
# Total GULP energy -156132.541781 kJ/mol
# GULP energy per Si atom -5576.162206 kJ/mol
# Density = 1.838693 g / cm^3
# Si number density = 18.428870 Si / 1000 Ang^3
#
#
#
# Elastic Constant Matrix: (Units=GPa)
#
#
# Indices 1 2 3 4 5 6 
#
# 1 79.4961 50.5998 22.3025 0.0000 -6.1444 0.0000
# 2 50.5998 146.7311 35.8343 0.0000 8.0089 0.0000
# 3 22.3025 35.8343 64.4309 0.0000 5.5704 0.0000
# 4 0.0000 0.0000 0.0000 17.9307 0.0000 7.8444
# 5 -6.1444 8.0089 5.5704 0.0000 20.6862 0.0000
# 6 0.0000 0.0000 0.0000 7.8444 0.0000 9.4502
#
#
#
# Elastic Compliance Matrix: (Units=1/GPa)
#
#
# Indices 1 2 3 4 5 6 
#
# 1 0.017949 -0.005739 -0.003762 0.000000 0.008566 0.000000
# 2 -0.005739 0.009796 -0.003058 0.000000 -0.004674 0.000000
# 3 -0.003762 -0.003058 0.018959 0.000000 -0.005039 0.000000
# 4 0.000000 0.000000 0.000000 0.087571 0.000000 -0.072691
# 5 0.008566 -0.004674 -0.005039 0.000000 0.054052 0.000000
# 6 0.000000 0.000000 0.000000 -0.072691 0.000000 0.166157
#
#
# Mechanical properties :
#
#
# Convention : Reuss Voigt Hill
#
# Bulk Modulus (GPa) = 46.32305 56.45904 51.39105
# Shear Modulus (GPa) = 12.92666 21.74150 17.33408
#
# Velocity S-wave (km/s) = 2.65134 3.43848 3.07024
# Velocity P-wave (km/s) = 5.87907 6.81666 6.36515
#
# Compressibility (1/GPa) = 0.02158752
#
# Stress axis : x y z
#
# Youngs Moduli (GPa) = 55.71198 102.08255 52.74538
#
# Poissons Ratio (x) = 0.58581 0.19843
# Poissons Ratio (y) = 0.31971 0.16128
# Poissons Ratio (z) = 0.20960 0.31214
#
# Static dielectric constant tensor:
#      x y z
#    x 1.666350 0.000000 0.015180 
#    y 0.000000 1.641220 0.000000 
#    z 0.015180 0.000000 1.627220 
# 
# From -- ./inp_files/30103.got.cif
#   From: 2010.05.17/outbox.cif.g08.bks.cpg/sg10_16_cif.got.tgz:30103.got - 2010.06.03 11:33:40.
