data_PCOD9153854
_publ_section_title
;
Structure prediction by ZEFSAII (Michael W. Deem and Ramdas Pophale) SiO2 
 PCOD9153854
Probable space group: P 2/M
;
_chemical_formula_sum "Si O2"
_cell_formula_units_Z 20
_cell_length_a 8.966492
_cell_length_b 10.710611
_cell_length_c 10.864920
_cell_angle_alpha 90.000000
_cell_angle_beta 113.849729
_cell_angle_gamma 90.000000
_cell_volume 954.330600
_symmetry_space_group_name_H-M "P 2/M"
_symmetry_group_IT_number 10
_symmetry_cell_setting 'monoclinic'
loop_
_space_group_symop_operation_xyz
x,y,z
-x,y,-z
-x,-y,-z
x,-y,z
loop_
_atom_site_type_symbol
_atom_site_label
_atom_site_fract_x
_atom_site_fract_y
_atom_site_fract_z
Si Si1 0.979542 0.000000 0.645449
Si Si2 0.627465 0.244497 0.888953
Si Si3 0.703473 0.642526 0.157635
Si Si4 0.047048 0.276737 0.374021
Si Si5 0.165499 0.000000 0.967273
Si Si6 0.359891 0.640651 0.365421
O O1 0.899781 0.865350 0.638382
O O2 0.000000 0.000000 0.500000
O O3 0.114881 0.000000 0.803927
O O4 0.430333 0.259224 0.834388
O O5 0.669598 0.278627 0.764840
O O6 0.683887 0.349428 0.004473
O O7 0.720588 0.119526 0.962437
O O8 0.675957 0.500000 0.191117
O O9 0.883762 0.686452 0.249099
O O10 0.195635 0.362517 0.388049
O O11 0.000000 0.285706 0.500000
O O12 0.000000 0.000000 0.000000
O O13 0.500000 0.693209 0.500000
O O14 0.408870 0.500000 0.345153
#
# Coordination Sequence:
#
# PCOD9153854 Si02
#       6
#     2   4   4   4   2   4
#     4  10  22  43  66  95 132 174 225 277 332 401
#     4  11  24  41  66  96 133 174 224 276 342 395
#     4  11  23  41  66  97 135 174 223 278 334 405
#     4  11  23  41  67  97 130 175 229 281 337 404
#     4  12  24  44  71 100 139 181 230 289 340 408
#     4  11  24  43  66  95 135 180 225 281 346 408
#
# _framework density 20.957098999999999
#
# number of rings (size 3 to 8) (size 9 to 14) (size 15 to 20)
#    0.000    1.000    2.000    5.400    0.000    5.600 
#    0.000    6.000    0.000    0.000    0.000    0.000 
#    0.000    0.000    0.000    0.000    0.000    0.000 
#
# Total GULP energy -111512.059775 kJ/mol
# GULP energy per Si atom -5575.602989 kJ/mol
# Density = 2.090940 g / cm^3
# Si number density = 20.957099 Si / 1000 Ang^3
#
#
#
# Elastic Constant Matrix: (Units=GPa)
#
#
# Indices 1 2 3 4 5 6 
#
# 1 118.6739 28.6572 39.5988 0.0000 11.0039 0.0000
# 2 28.6572 112.7152 16.6301 0.0000 -6.1502 0.0000
# 3 39.5988 16.6301 101.0129 0.0000 -8.5548 0.0000
# 4 0.0000 0.0000 0.0000 10.9158 0.0000 -12.0495
# 5 11.0039 -6.1502 -8.5548 0.0000 33.7739 0.0000
# 6 0.0000 0.0000 0.0000 -12.0495 0.0000 11.5481
#
#
#
# Elastic Compliance Matrix: (Units=1/GPa)
#
#
# Indices 1 2 3 4 5 6 
#
# 1 0.010922 -0.002418 -0.004315 0.000000 -0.005092 0.000000
# 2 -0.002418 0.009685 -0.000440 0.000000 0.002440 0.000000
# 3 -0.004315 -0.000440 0.012034 0.000000 0.004374 0.000000
# 4 0.000000 0.000000 0.000000 -0.603538 0.000000 -0.629744
# 5 -0.005092 0.002440 0.004374 0.000000 0.032820 0.000000
# 6 0.000000 0.000000 0.000000 -0.629744 0.000000 -0.570493
#
#
# Mechanical properties :
#
#
# Convention : Reuss Voigt Hill
#
# Bulk Modulus (GPa) = 54.65841 55.79712 55.22776
# Shear Modulus (GPa) = -4.59506 27.74863 11.57678
#
# Velocity S-wave (km/s) = -1.48235 3.64272 2.35288
# Velocity P-wave (km/s) = 4.81746 6.66144 5.81303
#
# Compressibility (1/GPa) = 0.01829545
#
# Stress axis : x y z
#
# Youngs Moduli (GPa) = 91.55594 103.25512 83.09748
#
# Poissons Ratio (x) = 0.24969 0.35855
# Poissons Ratio (y) = 0.22140 0.03655
# Poissons Ratio (z) = 0.39505 0.04541
#
# Static dielectric constant tensor:
#      x y z
#    x 1.759840 0.000000 0.003680 
#    y 0.000000 1.742420 0.000000 
#    z 0.003680 0.000000 1.813670 
# 
# From -- ./inp_files/41700.got.cif
#   From: 2010.05.17/outbox.cif.g08.bks.cpg/sg10_21_cif.got.tgz:41700.got - 2010.06.03 11:33:40.
