data_PCOD9153319
_publ_section_title
;
Structure prediction by ZEFSAII (Michael W. Deem and Ramdas Pophale) SiO2 
 PCOD9153319
Probable space group: P 2/M
;
_chemical_formula_sum "Si O2"
_cell_formula_units_Z 19
_cell_length_a 5.236996
_cell_length_b 27.108407
_cell_length_c 5.112692
_cell_angle_alpha 90.000000
_cell_angle_beta 90.120068
_cell_angle_gamma 90.000000
_cell_volume 725.830004
_symmetry_space_group_name_H-M "P 2/M"
_symmetry_group_IT_number 10
_symmetry_cell_setting 'monoclinic'
loop_
_space_group_symop_operation_xyz
x,y,z
-x,y,-z
-x,-y,-z
x,-y,z
loop_
_atom_site_type_symbol
_atom_site_label
_atom_site_fract_x
_atom_site_fract_y
_atom_site_fract_z
Si Si1 0.243226 0.697807 0.346733
Si Si2 0.000000 0.000000 0.500000
Si Si3 0.748147 0.915716 0.814586
Si Si4 0.500000 0.633893 0.000000
Si Si5 0.250499 0.806582 0.178420
Si Si6 0.182068 0.443351 0.254121
O O1 0.500000 0.684164 0.500000
O O2 0.237632 0.757028 0.343087
O O3 0.000000 0.679010 0.500000
O O4 0.276779 0.674059 0.059882
O O5 0.200314 0.956960 0.398599
O O6 0.737347 0.860658 0.694226
O O7 0.500000 0.923191 0.000000
O O8 0.000000 0.919220 0.000000
O O9 0.584206 0.593984 0.781276
O O10 0.500000 0.802468 0.000000
O O11 0.000000 0.806453 0.000000
O O12 0.272848 0.500000 0.262262
O O13 0.000000 0.434794 0.500000
O O14 0.000000 0.437149 0.000000
#
# Coordination Sequence:
#
# PCOD9153319 Si02
#       6
#     4   1   4   2   4   4
#     4  12  28  44  71 105 143 187 243 298 358 433
#     4  12  24  42  68 100 124 186 220 290 354 428
#     4  10  24  43  66  96 135 172 226 290 347 423
#     4  12  27  42  70 100 150 189 240 302 368 436
#     4  10  21  45  69  95 137 185 229 291 358 426
#     4  10  24  46  74 106 146 195 249 306 370 442
#
# _framework density 26.176926999999999
#
# number of rings (size 3 to 8) (size 9 to 14) (size 15 to 20)
#    0.000    1.263    1.053    2.842    7.368    1.684 
#    0.000    3.158    0.000    0.000    0.000    0.000 
#    0.000    0.000    0.000    0.000    0.000    0.000 
#
# Total GULP energy -106065.402651 kJ/mol
# GULP energy per Si atom -5582.389613 kJ/mol
# Density = 2.611735 g / cm^3
# Si number density = 26.176927 Si / 1000 Ang^3
#
#
#
# Elastic Constant Matrix: (Units=GPa)
#
#
# Indices 1 2 3 4 5 6 
#
# 1 201.7630 49.1343 70.1485 0.0000 -36.4709 0.0000
# 2 49.1343 252.3231 55.3648 0.0000 -37.8280 0.0000
# 3 70.1485 55.3648 123.0627 0.0000 -34.8980 0.0000
# 4 0.0000 0.0000 0.0000 52.3951 0.0000 -32.9549
# 5 -36.4709 -37.8280 -34.8980 0.0000 68.2980 0.0000
# 6 0.0000 0.0000 0.0000 -32.9549 0.0000 50.8570
#
#
#
# Elastic Compliance Matrix: (Units=1/GPa)
#
#
# Indices 1 2 3 4 5 6 
#
# 1 0.006390 -0.000329 -0.003015 0.000000 0.001689 0.000000
# 2 -0.000329 0.004583 -0.001408 0.000000 0.001643 0.000000
# 3 -0.003015 -0.001408 0.011461 0.000000 0.003466 0.000000
# 4 0.000000 0.000000 0.000000 0.032216 0.000000 0.020876
# 5 0.001689 0.001643 0.003466 0.000000 0.018225 0.000000
# 6 0.000000 0.000000 0.000000 0.020876 0.000000 0.033190
#
#
# Mechanical properties :
#
#
# Convention : Reuss Voigt Hill
#
# Bulk Modulus (GPa) = 77.34968 102.93823 90.14396
# Shear Modulus (GPa) = 41.70842 61.14342 51.42592
#
# Velocity S-wave (km/s) = 3.99598 4.83823 4.43713
# Velocity P-wave (km/s) = 7.13466 8.40361 7.79500
#
# Compressibility (1/GPa) = 0.01292830
#
# Stress axis : x y z
#
# Youngs Moduli (GPa) = 156.48835 218.21905 87.25134
#
# Poissons Ratio (x) = 0.07190 0.26309
# Poissons Ratio (y) = 0.05156 0.12285
# Poissons Ratio (z) = 0.47187 0.30725
#
# Static dielectric constant tensor:
#      x y z
#    x 1.997730 0.000000 0.158590 
#    y 0.000000 2.035960 0.000000 
#    z 0.158590 0.000000 2.166130 
# 
# From -- ./inp_files/2057.got.cif
#   From: 2010.05.17/outbox.cif.g08.bks.cpg/sg10_2_cif.got.tgz:2057.got - 2010.06.03 11:33:40.
