data_PCOD9153943
_publ_section_title
;
Structure prediction by ZEFSAII (Michael W. Deem and Ramdas Pophale) SiO2 
 PCOD9153943
Probable space group: P 2/M
;
_chemical_formula_sum "Si O2"
_cell_formula_units_Z 24
_cell_length_a 12.176271
_cell_length_b 9.080137
_cell_length_c 11.772503
_cell_angle_alpha 90.000000
_cell_angle_beta 68.402339
_cell_angle_gamma 90.000000
_cell_volume 1210.210994
_symmetry_space_group_name_H-M "P 2/M"
_symmetry_group_IT_number 10
_symmetry_cell_setting 'monoclinic'
loop_
_space_group_symop_operation_xyz
x,y,z
-x,y,-z
-x,-y,-z
x,-y,z
loop_
_atom_site_type_symbol
_atom_site_label
_atom_site_fract_x
_atom_site_fract_y
_atom_site_fract_z
Si Si1 0.230909 0.826051 0.357060
Si Si2 0.957231 0.324886 0.715829
Si Si3 0.469377 0.175490 0.140756
Si Si4 0.236742 0.324635 0.586533
Si Si5 0.326227 0.323551 0.799946
Si Si6 0.878065 0.829718 0.976015
O O1 0.113668 0.741411 0.362991
O O2 0.333689 0.798575 0.225703
O O3 0.273385 0.765280 0.461957
O O4 0.208636 0.000000 0.371434
O O5 0.941018 0.500000 0.725782
O O6 0.903171 0.250101 0.848141
O O7 0.097106 0.295296 0.658603
O O8 0.552907 0.261970 0.195310
O O9 0.491614 0.000000 0.143118
O O10 0.500000 0.218319 0.000000
O O11 0.250666 0.500000 0.561181
O O12 0.304856 0.285436 0.676046
O O13 0.320551 0.500000 0.811630
O O14 0.221816 0.251838 0.913891
O O15 0.843792 0.000000 0.969514
O O16 0.000000 0.826966 0.000000
#
# Coordination Sequence:
#
# PCOD9153943 Si02
#       6
#     4   4   4   4   4   4
#     4  11  24  40  62  91 122 161 209 256 305 363
#     4  11  22  39  63  89 125 165 205 253 304 362
#     4  10  23  44  65  87 121 159 200 255 311 365
#     4  10  23  41  60  88 126 164 201 250 309 364
#     4  11  23  40  64  92 123 161 207 253 301 364
#     4  11  22  36  59  91 125 159 197 246 304 360
#
# _framework density 19.831253
#
# number of rings (size 3 to 8) (size 9 to 14) (size 15 to 20)
#    0.000    1.333    1.667    3.500    0.000    9.000 
#    0.000    3.333    0.000    0.000    0.000    0.000 
#    0.000    0.000    0.000    0.000    0.000    0.000 
#
# Total GULP energy -134257.257300 kJ/mol
# GULP energy per Si atom -5594.052387 kJ/mol
# Density = 1.978612 g / cm^3
# Si number density = 19.831253 Si / 1000 Ang^3
#
#
#
# Elastic Constant Matrix: (Units=GPa)
#
#
# Indices 1 2 3 4 5 6 
#
# 1 89.1234 46.7152 22.4956 0.0000 20.2584 0.0000
# 2 46.7152 64.7091 46.1125 0.0000 6.6163 0.0000
# 3 22.4956 46.1125 103.5786 0.0000 19.1274 0.0000
# 4 0.0000 0.0000 0.0000 31.4849 0.0000 -1.5557
# 5 20.2584 6.6163 19.1274 0.0000 23.2526 0.0000
# 6 0.0000 0.0000 0.0000 -1.5557 0.0000 27.3347
#
#
#
# Elastic Compliance Matrix: (Units=1/GPa)
#
#
# Indices 1 2 3 4 5 6 
#
# 1 0.026433 -0.022981 0.008885 0.000000 -0.023799 0.000000
# 2 -0.022981 0.042709 -0.018248 0.000000 0.022880 0.000000
# 3 0.008885 -0.018248 0.019242 0.000000 -0.018377 0.000000
# 4 0.000000 0.000000 0.000000 0.031851 0.000000 0.001813
# 5 -0.023799 0.022880 -0.018377 0.000000 0.072347 0.000000
# 6 0.000000 0.000000 0.000000 0.001813 0.000000 0.036687
#
#
# Mechanical properties :
#
#
# Convention : Reuss Voigt Hill
#
# Bulk Modulus (GPa) = 42.19986 54.22865 48.21426
# Shear Modulus (GPa) = 16.56424 25.88696 21.22560
#
# Velocity S-wave (km/s) = 2.89322 3.61690 3.27511
# Velocity P-wave (km/s) = 5.69971 6.69679 6.21827
#
# Compressibility (1/GPa) = 0.02369676
#
# Stress axis : x y z
#
# Youngs Moduli (GPa) = 37.83099 23.41451 51.96922
#
# Poissons Ratio (x) = 0.53809 -0.46175
# Poissons Ratio (y) = 0.86940 0.94831
# Poissons Ratio (z) = -0.33613 0.42726
#
# Static dielectric constant tensor:
#      x y z
#    x 1.692510 0.000000 0.002180 
#    y 0.000000 1.657930 0.000000 
#    z 0.002180 0.000000 1.685180 
# 
# From -- ./inp_files/45025.got.cif
#   From: 2010.05.17/outbox.cif.g08.bks.cpg/sg10_23_cif.got.tgz:45025.got - 2010.06.03 11:33:40.
