data_PCOD9153675
_publ_section_title
;
Structure prediction by ZEFSAII (Michael W. Deem and Ramdas Pophale) SiO2 
 PCOD9153675
Probable space group: P 2/M
;
_chemical_formula_sum "Si O2"
_cell_formula_units_Z 20
_cell_length_a 12.505842
_cell_length_b 8.808044
_cell_length_c 11.064539
_cell_angle_alpha 90.000000
_cell_angle_beta 42.493204
_cell_angle_gamma 90.000000
_cell_volume 823.290037
_symmetry_space_group_name_H-M "P 2/M"
_symmetry_group_IT_number 10
_symmetry_cell_setting 'monoclinic'
loop_
_space_group_symop_operation_xyz
x,y,z
-x,y,-z
-x,-y,-z
x,-y,z
loop_
_atom_site_type_symbol
_atom_site_label
_atom_site_fract_x
_atom_site_fract_y
_atom_site_fract_z
Si Si1 0.217061 0.820689 0.731091
Si Si2 0.821352 0.836740 0.606841
Si Si3 0.096713 0.670237 0.072195
Si Si4 0.600340 0.677493 0.629307
Si Si5 0.630669 0.732587 0.979657
O O1 0.195632 0.727702 0.873293
O O2 0.355900 0.751572 0.533881
O O3 0.233954 0.000000 0.738045
O O4 0.050548 0.785375 0.800671
O O5 0.758407 0.699915 0.578258
O O6 0.709499 0.843963 0.817909
O O7 0.000000 0.816995 0.500000
O O8 0.807353 0.000000 0.553131
O O9 0.033933 0.500000 0.105797
O O10 0.213059 0.663948 0.089208
O O11 0.555244 0.500000 0.659403
O O12 0.472869 0.769897 0.815522
O O13 0.500000 0.654383 0.000000
#
# Coordination Sequence:
#
# PCOD9153675 Si02
#       5
#     4   4   4   4   4
#     4  11  24  43  66  94 128 165 212 265 318 373
#     4  10  22  40  63  91 125 166 211 259 312 373
#     4  11  22  41  69  96 126 165 213 262 313 374
#     4  11  23  40  62  90 126 165 210 260 314 374
#     4  10  24  41  64  95 131 168 208 257 314 376
#
# _framework density 24.292774999999999
#
# number of rings (size 3 to 8) (size 9 to 14) (size 15 to 20)
#    0.000    1.400    0.000    6.000    0.000   16.000 
#    0.000    3.000    0.000    0.000    0.000    0.000 
#    0.000    0.000    0.000    0.000    0.000    0.000 
#
# Total GULP energy -111562.648758 kJ/mol
# GULP energy per Si atom -5578.132438 kJ/mol
# Density = 2.423748 g / cm^3
# Si number density = 24.292775 Si / 1000 Ang^3
#
#
#
# Elastic Constant Matrix: (Units=GPa)
#
#
# Indices 1 2 3 4 5 6 
#
# 1 127.2113 11.0082 -13.4204 0.0000 -5.5550 0.0000
# 2 11.0082 112.2940 25.1003 0.0000 10.2300 0.0000
# 3 -13.4204 25.1003 156.3435 0.0000 6.0851 0.0000
# 4 0.0000 0.0000 0.0000 44.0588 0.0000 -4.3592
# 5 -5.5550 10.2300 6.0851 0.0000 20.3596 0.0000
# 6 0.0000 0.0000 0.0000 -4.3592 0.0000 67.7034
#
#
#
# Elastic Compliance Matrix: (Units=1/GPa)
#
#
# Indices 1 2 3 4 5 6 
#
# 1 0.008163 -0.001215 0.000795 0.000000 0.002600 0.000000
# 2 -0.001215 0.009795 -0.001490 0.000000 -0.004808 0.000000
# 3 0.000795 -0.001490 0.006744 0.000000 -0.001050 0.000000
# 4 0.000000 0.000000 0.000000 0.022842 0.000000 0.001471
# 5 0.002600 -0.004808 -0.001050 0.000000 0.052556 0.000000
# 6 0.000000 0.000000 0.000000 0.001471 0.000000 0.014865
#
#
# Mechanical properties :
#
#
# Convention : Reuss Voigt Hill
#
# Bulk Modulus (GPa) = 47.88516 49.02500 48.45508
# Shear Modulus (GPa) = 39.76218 51.30174 45.53196
#
# Velocity S-wave (km/s) = 4.05012 4.60043 4.33402
# Velocity P-wave (km/s) = 6.45180 6.96012 6.71078
#
# Compressibility (1/GPa) = 0.02088330
#
# Stress axis : x y z
#
# Youngs Moduli (GPa) = 122.49766 102.09007 148.27045
#
# Poissons Ratio (x) = 0.12401 -0.11781
# Poissons Ratio (y) = 0.14880 0.22088
# Poissons Ratio (z) = -0.09733 0.15209
#
# Static dielectric constant tensor:
#      x y z
#    x 1.991060 0.000000 -0.007000 
#    y 0.000000 1.856510 0.000000 
#    z -0.007000 0.000000 1.961480 
# 
# From -- ./inp_files/48600.got.cif
#   From: 2010.05.17/outbox.cif.g08.bks.cpg/sg10_25_cif.got.tgz:48600.got - 2010.06.03 11:33:40.
