data_PCOD9153759
_publ_section_title
;
Structure prediction by ZEFSAII (Michael W. Deem and Ramdas Pophale) SiO2 
 PCOD9153759
Probable space group: P 2/M
;
_chemical_formula_sum "Si O2"
_cell_formula_units_Z 19
_cell_length_a 5.275767
_cell_length_b 26.466938
_cell_length_c 5.281518
_cell_angle_alpha 90.000000
_cell_angle_beta 93.971532
_cell_angle_gamma 90.000000
_cell_volume 735.705320
_symmetry_space_group_name_H-M "P 2/M"
_symmetry_group_IT_number 10
_symmetry_cell_setting 'monoclinic'
loop_
_space_group_symop_operation_xyz
x,y,z
-x,y,-z
-x,-y,-z
x,-y,z
loop_
_atom_site_type_symbol
_atom_site_label
_atom_site_fract_x
_atom_site_fract_y
_atom_site_fract_z
Si Si1 0.840713 0.176034 0.729357
Si Si2 0.174642 0.607987 0.263290
Si Si3 0.731218 0.282372 0.834352
Si Si4 0.177839 0.500000 0.261223
Si Si5 0.650296 0.930641 0.759847
Si Si6 0.000000 0.000000 0.500000
O O1 0.751360 0.233059 0.661893
O O2 0.651401 0.130169 0.762088
O O3 0.000000 0.159456 0.500000
O O4 0.000000 0.179502 0.000000
O O5 0.317369 0.661346 0.272586
O O6 0.319447 0.554042 0.266902
O O7 0.000000 0.608500 0.500000
O O8 0.000000 0.607511 0.000000
O O9 0.500000 0.270106 0.000000
O O10 0.000000 0.286121 0.000000
O O11 0.000000 0.500000 0.500000
O O12 0.000000 0.500000 0.000000
O O13 0.500000 0.947747 0.500000
O O14 0.920025 0.955722 0.708542
O O15 0.500000 0.946603 0.000000
#
# Coordination Sequence:
#
# PCOD9153759 Si02
#       6
#     4   4   4   2   4   1
#     4  11  23  45  71 100 134 175 220 280 342 404
#     4   9  17  33  55  87 123 167 216 272 332 399
#     4  10  22  41  65  97 132 176 224 281 340 409
#     4   8  14  26  51  80 118 162 212 266 328 394
#     4  12  27  47  74 105 137 183 232 280 342 415
#     4  12  28  50  72 104 146 180 226 288 346 402
#
# _framework density 25.825554
#
# number of rings (size 3 to 8) (size 9 to 14) (size 15 to 20)
#    0.000    1.684    1.053    3.158    0.000    2.526 
#    0.000   13.158    0.000    0.000    0.000   22.105 
#    0.000    0.000    0.000    0.000    0.000    0.000 
#
# Total GULP energy -105922.458478 kJ/mol
# GULP energy per Si atom -5574.866236 kJ/mol
# Density = 2.576677 g / cm^3
# Si number density = 25.825554 Si / 1000 Ang^3
#
#
#
# Elastic Constant Matrix: (Units=GPa)
#
#
# Indices 1 2 3 4 5 6 
#
# 1 69.8213 -5.5086 45.0330 0.0000 -1.1958 0.0000
# 2 -5.5086 265.5058 7.5893 0.0000 -9.3115 0.0000
# 3 45.0330 7.5893 206.6309 0.0000 -20.2894 0.0000
# 4 0.0000 0.0000 0.0000 44.6093 0.0000 -33.8130
# 5 -1.1958 -9.3115 -20.2894 0.0000 65.6589 0.0000
# 6 0.0000 0.0000 0.0000 -33.8130 0.0000 -2.2076
#
#
#
# Elastic Compliance Matrix: (Units=1/GPa)
#
#
# Indices 1 2 3 4 5 6 
#
# 1 0.016758 0.000427 -0.003746 0.000000 -0.000792 0.000000
# 2 0.000427 0.003798 -0.000184 0.000000 0.000489 0.000000
# 3 -0.003746 -0.000184 0.005830 0.000000 0.001707 0.000000
# 4 0.000000 0.000000 0.000000 0.001778 0.000000 -0.027229
# 5 -0.000792 0.000489 0.001707 0.000000 0.015813 0.000000
# 6 0.000000 0.000000 0.000000 -0.027229 0.000000 -0.035923
#
#
# Mechanical properties :
#
#
# Convention : Reuss Voigt Hill
#
# Bulk Modulus (GPa) = 51.59994 70.68726 61.14360
# Shear Modulus (GPa) = 232.34154 54.60175 143.47165
#
# Velocity S-wave (km/s) = 9.49532 4.60309 7.46155
# Velocity P-wave (km/s) = 11.84223 7.46202 9.89747
#
# Compressibility (1/GPa) = 0.01937987
#
# Stress axis : x y z
#
# Youngs Moduli (GPa) = 59.67192 263.31798 171.51780
#
# Poissons Ratio (x) = -0.11244 0.64246
# Poissons Ratio (y) = -0.02548 0.03164
# Poissons Ratio (z) = 0.22351 0.04858
#
# Static dielectric constant tensor:
#      x y z
#    x 2.182030 0.000000 0.074350 
#    y 0.000000 2.090370 0.000000 
#    z 0.074350 0.000000 1.952740 
# 
# From -- ./inp_files/2053.got.cif
#   From: 2010.05.17/outbox.cif.g08.bks.cpg/sg10_2_cif.got.tgz:2053.got - 2010.06.03 11:33:40.
