data_PCOD9153679
_publ_section_title
;
Structure prediction by ZEFSAII (Michael W. Deem and Ramdas Pophale) SiO2 
 PCOD9153679
Probable space group: P 2/M
;
_chemical_formula_sum "Si O2"
_cell_formula_units_Z 20
_cell_length_a 9.777751
_cell_length_b 7.906444
_cell_length_c 25.309910
_cell_angle_alpha 90.000000
_cell_angle_beta 26.865193
_cell_angle_gamma 90.000000
_cell_volume 884.191335
_symmetry_space_group_name_H-M "P 2/M"
_symmetry_group_IT_number 10
_symmetry_cell_setting 'monoclinic'
loop_
_space_group_symop_operation_xyz
x,y,z
-x,y,-z
-x,-y,-z
x,-y,z
loop_
_atom_site_type_symbol
_atom_site_label
_atom_site_fract_x
_atom_site_fract_y
_atom_site_fract_z
Si Si1 0.848083 0.198755 0.385640
Si Si2 0.156631 0.300076 0.776727
Si Si3 0.804460 0.705228 0.516542
Si Si4 0.676190 0.695293 0.862950
Si Si5 0.032785 0.194980 0.047342
O O1 0.500000 0.257605 0.500000
O O2 0.929802 0.224725 0.418612
O O3 0.072078 0.295433 0.269699
O O4 0.860745 0.000000 0.367748
O O5 0.152463 0.500000 0.767509
O O6 0.461069 0.232832 0.644915
O O7 0.851816 0.234348 0.853793
O O8 0.153595 0.274848 0.840374
O O9 0.802739 0.500000 0.513762
O O10 0.000000 0.752592 0.500000
O O11 0.582667 0.500000 0.904491
O O12 0.381207 0.791313 0.945017
O O13 0.937717 0.000000 0.076887
O O14 0.000000 0.270981 0.000000
#
# Coordination Sequence:
#
# PCOD9153679 Si02
#       5
#     4   4   4   4   4
#     4  11  23  39  62  94 129 164 203 247 306 368
#     4  10  22  41  64  92 123 160 209 255 301 361
#     4  10  22  40  63  93 127 165 207 250 302 361
#     4  11  23  41  67  92 121 161 208 258 304 359
#     4  11  26  44  62  90 126 161 201 253 313 371
#
# _framework density 22.619537999999999
#
# number of rings (size 3 to 8) (size 9 to 14) (size 15 to 20)
#    0.000    1.400    2.000    2.400    2.800    7.600 
#    0.000    0.000    0.000    0.000    0.000    0.000 
#    0.000    0.000    0.000    0.000    0.000    0.000 
#
# Total GULP energy -111878.173892 kJ/mol
# GULP energy per Si atom -5593.908695 kJ/mol
# Density = 2.256805 g / cm^3
# Si number density = 22.619538 Si / 1000 Ang^3
#
#
#
# Elastic Constant Matrix: (Units=GPa)
#
#
# Indices 1 2 3 4 5 6 
#
# 1 125.2367 -1.5167 7.8526 0.0000 23.5928 0.0000
# 2 -1.5167 25.2772 -6.6437 0.0000 -3.3051 0.0000
# 3 7.8526 -6.6437 57.8229 0.0000 17.3400 0.0000
# 4 0.0000 0.0000 0.0000 47.6556 0.0000 15.8802
# 5 23.5928 -3.3051 17.3400 0.0000 38.6775 0.0000
# 6 0.0000 0.0000 0.0000 15.8802 0.0000 15.7463
#
#
#
# Elastic Compliance Matrix: (Units=1/GPa)
#
#
# Indices 1 2 3 4 5 6 
#
# 1 0.009034 -0.000081 0.000483 0.000000 -0.005734 0.000000
# 2 -0.000081 0.040880 0.004212 0.000000 0.001654 0.000000
# 3 0.000483 0.004212 0.020441 0.000000 -0.009099 0.000000
# 4 0.000000 0.000000 0.000000 0.031605 0.000000 -0.031874
# 5 -0.005734 0.001654 -0.009099 0.000000 0.033573 0.000000
# 6 0.000000 0.000000 0.000000 -0.031874 0.000000 0.095652
#
#
# Mechanical properties :
#
#
# Convention : Reuss Voigt Hill
#
# Bulk Modulus (GPa) = 12.56530 23.08012 17.82271
# Shear Modulus (GPa) = 20.12202 34.32553 27.22378
#
# Velocity S-wave (km/s) = 2.98583 3.89976 3.47299
# Velocity P-wave (km/s) = 4.17780 5.52298 4.89680
#
# Compressibility (1/GPa) = 0.07958428
#
# Stress axis : x y z
#
# Youngs Moduli (GPa) = 110.69512 24.46197 48.92090
#
# Poissons Ratio (x) = 0.00197 -0.02365
# Poissons Ratio (y) = 0.00892 -0.20605
# Poissons Ratio (z) = -0.05352 -0.10303
#
# Static dielectric constant tensor:
#      x y z
#    x 1.850770 0.000000 -0.012160 
#    y 0.000000 1.806720 0.000000 
#    z -0.012160 0.000000 1.816530 
# 
# From -- ./inp_files/22112.got.cif
#   From: 2010.05.17/outbox.cif.g08.bks.cpg/sg10_12_cif.got.tgz:22112.got - 2010.06.03 11:33:40.
