data_PCOD9153265
_publ_section_title
;
Structure prediction by ZEFSAII (Michael W. Deem and Ramdas Pophale) SiO2 
 PCOD9153265
Probable space group: P 2/M
;
_chemical_formula_sum "Si O2"
_cell_formula_units_Z 24
_cell_length_a 5.184955
_cell_length_b 20.707091
_cell_length_c 11.560085
_cell_angle_alpha 90.000000
_cell_angle_beta 109.758867
_cell_angle_gamma 90.000000
_cell_volume 1168.077948
_symmetry_space_group_name_H-M "P 2/M"
_symmetry_group_IT_number 10
_symmetry_cell_setting 'monoclinic'
loop_
_space_group_symop_operation_xyz
x,y,z
-x,y,-z
-x,-y,-z
x,-y,z
loop_
_atom_site_type_symbol
_atom_site_label
_atom_site_fract_x
_atom_site_fract_y
_atom_site_fract_z
Si Si1 0.570838 0.722367 0.377392
Si Si2 0.971734 0.072344 0.357354
Si Si3 0.197313 0.178346 0.229631
Si Si4 0.413669 0.928174 0.120337
Si Si5 0.003946 0.310955 0.738332
Si Si6 0.813642 0.428654 0.084991
O O1 0.500000 0.737105 0.500000
O O2 0.487739 0.786831 0.295466
O O3 0.853251 0.699208 0.364769
O O4 0.320216 0.673214 0.313423
O O5 0.673687 0.074433 0.248717
O O6 0.000000 0.078412 0.500000
O O7 0.132918 0.131461 0.326184
O O8 0.082146 0.000000 0.346711
O O9 0.217792 0.130008 0.126782
O O10 0.996153 0.240436 0.198777
O O11 0.291061 0.000000 0.114746
O O12 0.500000 0.921457 0.000000
O O13 0.148049 0.368552 0.825229
O O14 0.883275 0.500000 0.144831
O O15 0.500000 0.430019 0.000000
O O16 0.000000 0.419145 0.000000
#
# Coordination Sequence:
#
# PCOD9153265 Si02
#       6
#     4   4   4   4   4   4
#     4  10  22  38  61  89 126 166 204 255 319 375
#     4  10  22  38  59  86 116 156 216 275 323 381
#     4  10  23  35  61  87 121 162 208 268 318 385
#     4  10  22  41  58  80 121 166 210 260 330 397
#     4  10  22  38  59  95 123 161 203 258 306 377
#     4  10  21  41  68  94 128 170 207 254 311 372
#
# _framework density 20.546575000000001
#
# number of rings (size 3 to 8) (size 9 to 14) (size 15 to 20)
#    1.000    1.000    0.000    3.000    4.667    0.667 
#    6.000    5.000    0.000    3.000    0.000    0.000 
#    0.000    0.000    0.000    0.000    0.000    0.000 
#
# Total GULP energy -133639.314534 kJ/mol
# GULP energy per Si atom -5568.304772 kJ/mol
# Density = 2.049981 g / cm^3
# Si number density = 20.546575 Si / 1000 Ang^3
#
#
#
# Elastic Constant Matrix: (Units=GPa)
#
#
# Indices 1 2 3 4 5 6 
#
# 1 70.4399 25.9235 34.4450 0.0000 -19.0920 0.0000
# 2 25.9235 149.9586 69.7163 0.0000 -17.8698 0.0000
# 3 34.4450 69.7163 116.3436 0.0000 -10.7168 0.0000
# 4 0.0000 0.0000 0.0000 35.7846 0.0000 14.1521
# 5 -19.0920 -17.8698 -10.7168 0.0000 31.7835 0.0000
# 6 0.0000 0.0000 0.0000 14.1521 0.0000 40.9364
#
#
#
# Elastic Compliance Matrix: (Units=1/GPa)
#
#
# Indices 1 2 3 4 5 6 
#
# 1 0.019227 0.000117 -0.004843 0.000000 0.009983 0.000000
# 2 0.000117 0.009623 -0.005466 0.000000 0.003638 0.000000
# 3 -0.004843 -0.005466 0.013162 0.000000 -0.001544 0.000000
# 4 0.000000 0.000000 0.000000 0.032371 0.000000 -0.011191
# 5 0.009983 0.003638 -0.001544 0.000000 0.038984 0.000000
# 6 0.000000 0.000000 0.000000 -0.011191 0.000000 0.028297
#
#
# Mechanical properties :
#
#
# Convention : Reuss Voigt Hill
#
# Bulk Modulus (GPa) = 46.23482 66.32352 56.27917
# Shear Modulus (GPa) = 29.54082 35.47806 32.50944
#
# Velocity S-wave (km/s) = 3.79588 4.15988 3.98204
# Velocity P-wave (km/s) = 6.46242 7.44463 6.97085
#
# Compressibility (1/GPa) = 0.02162872
#
# Stress axis : x y z
#
# Youngs Moduli (GPa) = 52.00917 103.91928 75.97484
#
# Poissons Ratio (x) = -0.01220 0.36797
# Poissons Ratio (y) = -0.00611 0.41527
# Poissons Ratio (z) = 0.25190 0.56802
#
# Static dielectric constant tensor:
#      x y z
#    x 1.793880 0.000000 0.026050 
#    y 0.000000 1.711540 0.000000 
#    z 0.026050 0.000000 1.791220 
# 
# From -- ./inp_files/39385.got.cif
#   From: 2010.05.17/outbox.cif.g08.bks.cpg/sg10_20_cif.got.tgz:39385.got - 2010.06.03 11:33:40.
