data_PCOD9153074
_publ_section_title
;
Structure prediction by ZEFSAII (Michael W. Deem and Ramdas Pophale) SiO2 
 PCOD9153074
Probable space group: P 2/M
;
_chemical_formula_sum "Si O2"
_cell_formula_units_Z 24
_cell_length_a 22.002830
_cell_length_b 8.026271
_cell_length_c 15.781703
_cell_angle_alpha 90.000000
_cell_angle_beta 23.401965
_cell_angle_gamma 90.000000
_cell_volume 1106.962493
_symmetry_space_group_name_H-M "P 2/M"
_symmetry_group_IT_number 10
_symmetry_cell_setting 'monoclinic'
loop_
_space_group_symop_operation_xyz
x,y,z
-x,y,-z
-x,-y,-z
x,-y,z
loop_
_atom_site_type_symbol
_atom_site_label
_atom_site_fract_x
_atom_site_fract_y
_atom_site_fract_z
Si Si1 0.161998 0.201572 0.249660
Si Si2 0.216455 0.803711 0.554361
Si Si3 0.162972 0.500000 0.749613
Si Si4 0.481703 0.302064 0.924591
Si Si5 0.601769 0.818865 0.285047
Si Si6 0.536368 0.500000 0.552963
Si Si7 0.922830 0.197296 0.827135
O O1 0.140573 0.263887 0.180574
O O2 0.000000 0.244269 0.500000
O O3 0.175380 0.000000 0.232820
O O4 0.312388 0.266408 0.104979
O O5 0.194219 0.668263 0.656494
O O6 0.384584 0.786452 0.299668
O O7 0.085565 0.747554 0.653960
O O8 0.189749 0.000000 0.611357
O O9 0.285636 0.500000 0.666612
O O10 0.000000 0.500000 0.000000
O O11 0.509881 0.500000 0.882854
O O12 0.500000 0.252627 0.000000
O O13 0.500000 0.829621 0.500000
O O14 0.534310 0.667060 0.318575
O O15 0.593507 0.000000 0.252827
O O16 0.780333 0.783125 0.073987
O O17 0.500000 0.500000 0.500000
O O18 0.944033 0.000000 0.786736
#
# Coordination Sequence:
#
# PCOD9153074 Si02
#       7
#     4   4   2   4   4   2   4
#     4  10  21  39  65  97 130 171 229 281 331 404
#     4  11  25  47  72  99 138 186 229 281 349 411
#     4  12  30  48  67 103 143 178 233 289 340 419
#     4  11  24  43  66  99 144 184 229 282 345 413
#     4   9  19  36  62  92 124 160 212 270 324 391
#     4  10  24  42  66  93 122 170 219 266 334 402
#     4   9  20  38  63  94 126 167 221 274 330 399
#
# _framework density 21.680952999999999
#
# number of rings (size 3 to 8) (size 9 to 14) (size 15 to 20)
#    0.000    1.833    0.833    1.500    7.000    4.000 
#    1.500    0.000    0.000    0.000    0.000    0.000 
#    0.000    0.000    0.000    0.000    0.000    0.000 
#
# Total GULP energy -133926.757449 kJ/mol
# GULP energy per Si atom -5580.281560 kJ/mol
# Density = 2.163161 g / cm^3
# Si number density = 21.680953 Si / 1000 Ang^3
#
#
#
# Elastic Constant Matrix: (Units=GPa)
#
#
# Indices 1 2 3 4 5 6 
#
# 1 125.9117 22.9811 66.9907 0.0000 -25.0084 0.0000
# 2 22.9811 114.6300 35.5228 0.0000 -2.2849 0.0000
# 3 66.9907 35.5228 160.6502 0.0000 -21.1631 0.0000
# 4 0.0000 0.0000 0.0000 5.0364 0.0000 -19.3369
# 5 -25.0084 -2.2849 -21.1631 0.0000 44.3260 0.0000
# 6 0.0000 0.0000 0.0000 -19.3369 0.0000 10.3565
#
#
#
# Elastic Compliance Matrix: (Units=1/GPa)
#
#
# Indices 1 2 3 4 5 6 
#
# 1 0.011002 -0.000939 -0.003808 0.000000 0.004340 0.000000
# 2 -0.000939 0.009458 -0.001820 0.000000 -0.000911 0.000000
# 3 -0.003808 -0.001820 0.008451 0.000000 0.001793 0.000000
# 4 0.000000 0.000000 0.000000 -0.032187 0.000000 -0.060098
# 5 0.004340 -0.000911 0.001793 0.000000 0.025818 0.000000
# 6 0.000000 0.000000 0.000000 -0.060098 0.000000 -0.015653
#
#
# Mechanical properties :
#
#
# Convention : Reuss Voigt Hill
#
# Bulk Modulus (GPa) = 63.38447 72.46455 67.92451
# Shear Modulus (GPa) = 197.77647 30.32359 114.05003
#
# Velocity S-wave (km/s) = 9.56135 3.74388 7.26072
# Velocity P-wave (km/s) = 12.29598 7.22389 10.08404
#
# Compressibility (1/GPa) = 0.01577673
#
# Stress axis : x y z
#
# Youngs Moduli (GPa) = 90.89489 105.73357 118.32534
#
# Poissons Ratio (x) = 0.09928 0.45062
# Poissons Ratio (y) = 0.08535 0.21532
# Poissons Ratio (z) = 0.34615 0.19241
#
# Static dielectric constant tensor:
#      x y z
#    x 1.802620 0.000000 0.013360 
#    y 0.000000 1.836160 0.000000 
#    z 0.013360 0.000000 1.783110 
# 
# From -- ./inp_files/80067.got.cif
#   From: 2010.05.17/outbox.cif.g08.bks.cpg/sg10_41_cif.got.tgz:80067.got - 2010.06.03 11:33:40.
