data_PCOD9153707
_publ_section_title
;
Structure prediction by ZEFSAII (Michael W. Deem and Ramdas Pophale) SiO2 
 PCOD9153707
Probable space group: P 2/M
;
_chemical_formula_sum "Si O2"
_cell_formula_units_Z 16
_cell_length_a 12.545518
_cell_length_b 7.504437
_cell_length_c 9.769930
_cell_angle_alpha 90.000000
_cell_angle_beta 120.348544
_cell_angle_gamma 90.000000
_cell_volume 793.766464
_symmetry_space_group_name_H-M "P 2/M"
_symmetry_group_IT_number 10
_symmetry_cell_setting 'monoclinic'
loop_
_space_group_symop_operation_xyz
x,y,z
-x,y,-z
-x,-y,-z
x,-y,z
loop_
_atom_site_type_symbol
_atom_site_label
_atom_site_fract_x
_atom_site_fract_y
_atom_site_fract_z
Si Si1 0.036684 0.293961 0.802707
Si Si2 0.458740 0.710825 0.315462
Si Si3 0.870236 0.000000 0.331227
Si Si4 0.423152 0.000000 0.803873
Si Si5 0.186703 0.708038 0.182605
O O1 0.027085 0.500000 0.753420
O O2 0.111582 0.176100 0.747534
O O3 0.899796 0.220991 0.751731
O O4 0.108766 0.288677 0.993056
O O5 0.500000 0.723906 0.500000
O O6 0.461074 0.500000 0.278612
O O7 0.535134 0.828364 0.258491
O O8 0.318874 0.783242 0.232336
O O9 0.000000 0.000000 0.500000
O O10 0.727134 0.000000 0.285902
O O11 0.500000 0.000000 0.000000
O O12 0.207688 0.500000 0.232274
#
# Coordination Sequence:
#
# PCOD9153707 Si02
#       5
#     4   4   2   2   4
#     4   9  19  38  61  85 119 153 192 247 297 354
#     4  10  22  40  66  94 121 156 206 263 311 356
#     4  12  28  39  54  89 122 162 206 233 291 366
#     4  12  27  44  62  89 129 173 208 243 302 379
#     4   8  16  34  64  94 111 144 199 248 302 356
#
# _framework density 20.157062
#
# number of rings (size 3 to 8) (size 9 to 14) (size 15 to 20)
#    0.000    2.250    0.000    3.375    3.500    5.000 
#    0.000    0.000    0.000    0.000    0.000    0.000 
#    0.000    0.000    0.000    0.000    0.000    0.000 
#
# Total GULP energy -89125.150485 kJ/mol
# GULP energy per Si atom -5570.321905 kJ/mol
# Density = 2.011118 g / cm^3
# Si number density = 20.157062 Si / 1000 Ang^3
#
#
#
# Elastic Constant Matrix: (Units=GPa)
#
#
# Indices 1 2 3 4 5 6 
#
# 1 230.3367 79.7215 45.7307 0.0000 17.5205 0.0000
# 2 79.7215 117.9487 32.7207 0.0000 -6.8432 0.0000
# 3 45.7307 32.7207 49.0379 0.0000 6.7662 0.0000
# 4 0.0000 0.0000 0.0000 0.4894 0.0000 1.7044
# 5 17.5205 -6.8432 6.7662 0.0000 24.7430 0.0000
# 6 0.0000 0.0000 0.0000 1.7044 0.0000 36.1174
#
#
#
# Elastic Compliance Matrix: (Units=1/GPa)
#
#
# Indices 1 2 3 4 5 6 
#
# 1 0.006685 -0.004021 -0.002852 0.000000 -0.005066 0.000000
# 2 -0.004021 0.013444 -0.006367 0.000000 0.008307 0.000000
# 3 -0.002852 -0.006367 0.028334 0.000000 -0.007490 0.000000
# 4 0.000000 0.000000 0.000000 2.445093 0.000000 -0.115385
# 5 -0.005066 0.008307 -0.007490 0.000000 0.048348 0.000000
# 6 0.000000 0.000000 0.000000 -0.115385 0.000000 0.033133
#
#
# Mechanical properties :
#
#
# Convention : Reuss Voigt Hill
#
# Bulk Modulus (GPa) = 45.48997 79.29655 62.39326
# Shear Modulus (GPa) = 1.91656 28.21332 15.06494
#
# Velocity S-wave (km/s) = 0.97615 3.74528 2.73679
# Velocity P-wave (km/s) = 4.88746 7.62414 6.40370
#
# Compressibility (1/GPa) = 0.02198287
#
# Stress axis : x y z
#
# Youngs Moduli (GPa) = 149.59614 74.38127 35.29341
#
# Poissons Ratio (x) = 0.29908 0.10065
# Poissons Ratio (y) = 0.60151 0.22472
# Poissons Ratio (z) = 0.42664 0.47360
#
# Static dielectric constant tensor:
#      x y z
#    x 1.753130 0.000000 0.088490 
#    y 0.000000 1.736470 0.000000 
#    z 0.088490 0.000000 2.017740 
# 
# From -- ./inp_files/22486.got.cif
#   From: 2010.05.17/outbox.cif.g08.bks.cpg/sg10_12_cif.got.tgz:22486.got - 2010.06.03 11:33:40.
