data_PCOD9153256
_publ_section_title
;
Structure prediction by ZEFSAII (Michael W. Deem and Ramdas Pophale) SiO2 
 PCOD9153256
Probable space group: P 2/M
;
_chemical_formula_sum "Si O2"
_cell_formula_units_Z 28
_cell_length_a 16.140621
_cell_length_b 8.661355
_cell_length_c 12.177429
_cell_angle_alpha 90.000000
_cell_angle_beta 55.757211
_cell_angle_gamma 90.000000
_cell_volume 1407.307204
_symmetry_space_group_name_H-M "P 2/M"
_symmetry_group_IT_number 10
_symmetry_cell_setting 'monoclinic'
loop_
_space_group_symop_operation_xyz
x,y,z
-x,y,-z
-x,-y,-z
x,-y,z
loop_
_atom_site_type_symbol
_atom_site_label
_atom_site_fract_x
_atom_site_fract_y
_atom_site_fract_z
Si Si1 0.230417 0.815856 0.835338
Si Si2 0.827222 0.812006 0.360765
Si Si3 0.452171 0.318228 0.656495
Si Si4 0.384856 0.313623 0.100363
Si Si5 0.202980 0.315791 0.089333
Si Si6 0.981513 0.813141 0.639658
Si Si7 0.363184 0.185139 0.351919
O O1 0.178811 0.760550 0.760928
O O2 0.346962 0.768418 0.741568
O O3 0.222292 0.000000 0.845780
O O4 0.186862 0.747482 0.979491
O O5 0.726962 0.764491 0.500572
O O6 0.925321 0.762921 0.353850
O O7 0.827146 0.000000 0.360359
O O8 0.500000 0.297415 0.500000
O O9 0.434965 0.500000 0.688342
O O10 0.533112 0.255966 0.682282
O O11 0.383750 0.500000 0.110470
O O12 0.312664 0.269710 0.053722
O O13 0.343961 0.241852 0.243217
O O14 0.500000 0.264163 0.000000
O O15 0.199113 0.500000 0.089996
O O16 0.119975 0.252557 0.234259
O O17 0.000000 0.766227 0.500000
O O18 0.976595 0.000000 0.645573
O O19 0.369125 0.000000 0.350423
#
# Coordination Sequence:
#
# PCOD9153256 Si02
#       7
#     4   4   4   4   4   4   4
#     4  11  22  39  62  87 121 160 205 252 299 356
#     4   9  20  37  59  89 119 151 195 253 304 347
#     4  11  22  36  56  86 126 166 200 237 295 362
#     4  10  22  40  59  81 117 159 196 242 302 363
#     4  11  24  41  61  89 125 159 198 250 309 366
#     4  10  21  41  67  90 117 156 204 251 302 364
#     4  11  21  36  61  90 119 152 202 255 298 351
#
# _framework density 19.896153999999999
#
# number of rings (size 3 to 8) (size 9 to 14) (size 15 to 20)
#    0.000    1.571    1.429    3.429    0.000    5.143 
#    0.000    5.714    0.000    0.000    0.000    0.000 
#    0.000    0.000    0.000    0.000    0.000    0.000 
#
# Total GULP energy -156549.249976 kJ/mol
# GULP energy per Si atom -5591.044642 kJ/mol
# Density = 1.985087 g / cm^3
# Si number density = 19.896154 Si / 1000 Ang^3
#
#
#
# Elastic Constant Matrix: (Units=GPa)
#
#
# Indices 1 2 3 4 5 6 
#
# 1 133.1127 24.6364 62.8379 0.0000 13.5857 0.0000
# 2 24.6364 20.9497 34.4658 0.0000 9.5781 0.0000
# 3 62.8379 34.4658 137.9904 0.0000 17.4128 0.0000
# 4 0.0000 0.0000 0.0000 28.7155 0.0000 1.0973
# 5 13.5857 9.5781 17.4128 0.0000 36.3236 0.0000
# 6 0.0000 0.0000 0.0000 1.0973 0.0000 20.1410
#
#
#
# Elastic Compliance Matrix: (Units=1/GPa)
#
#
# Indices 1 2 3 4 5 6 
#
# 1 0.010213 -0.007147 -0.002791 0.000000 -0.000598 0.000000
# 2 -0.007147 0.091656 -0.018016 0.000000 -0.012859 0.000000
# 3 -0.002791 -0.018016 0.013077 0.000000 -0.000475 0.000000
# 4 0.000000 0.000000 0.000000 0.034897 0.000000 -0.001901
# 5 -0.000598 -0.012859 -0.000475 0.000000 0.031372 0.000000
# 6 0.000000 0.000000 0.000000 -0.001901 0.000000 0.049753
#
#
# Mechanical properties :
#
#
# Convention : Reuss Voigt Hill
#
# Bulk Modulus (GPa) = 16.93746 59.54813 38.24280
# Shear Modulus (GPa) = 16.31027 28.37685 22.34356
#
# Velocity S-wave (km/s) = 2.86627 3.78067 3.35477
# Velocity P-wave (km/s) = 4.41423 7.00374 5.85396
#
# Compressibility (1/GPa) = 0.05904071
#
# Stress axis : x y z
#
# Youngs Moduli (GPa) = 97.91005 10.91040 76.46806
#
# Poissons Ratio (x) = 0.07797 0.21339
# Poissons Ratio (y) = 0.69972 1.37763
# Poissons Ratio (z) = 0.27322 0.19656
#
# Static dielectric constant tensor:
#      x y z
#    x 1.694150 0.000000 0.010960 
#    y 0.000000 1.670110 0.000000 
#    z 0.010960 0.000000 1.684660 
# 
# From -- ./inp_files/49586.got.cif
#   From: 2010.05.17/outbox.cif.g08.bks.cpg/sg10_25_cif.got.tgz:49586.got - 2010.06.03 11:33:40.
