data_PCOD9153031
_publ_section_title
;
Structure prediction by ZEFSAII (Michael W. Deem and Ramdas Pophale) SiO2 
 PCOD9153031
Probable space group: P 2/M
;
_chemical_formula_sum "Si O2"
_cell_formula_units_Z 32
_cell_length_a 12.982960
_cell_length_b 8.498627
_cell_length_c 34.123116
_cell_angle_alpha 90.000000
_cell_angle_beta 25.879846
_cell_angle_gamma 90.000000
_cell_volume 1643.390722
_symmetry_space_group_name_H-M "P 2/M"
_symmetry_group_IT_number 10
_symmetry_cell_setting 'monoclinic'
loop_
_space_group_symop_operation_xyz
x,y,z
-x,y,-z
-x,-y,-z
x,-y,z
loop_
_atom_site_type_symbol
_atom_site_label
_atom_site_fract_x
_atom_site_fract_y
_atom_site_fract_z
Si Si1 0.658918 0.813916 0.265132
Si Si2 0.515282 0.311028 0.114009
Si Si3 0.423074 0.686649 0.620940
Si Si4 0.973385 0.310548 0.305228
Si Si5 0.031895 0.312063 0.084042
Si Si6 0.765863 0.272125 0.102520
Si Si7 0.115157 0.815970 0.577620
Si Si8 0.660188 0.675485 0.694089
O O1 0.596000 0.769812 0.330778
O O2 0.906664 0.735961 0.166781
O O3 0.464888 0.745854 0.301342
O O4 0.672887 0.000000 0.255674
O O5 0.531960 0.500000 0.119419
O O6 0.625581 0.211691 0.112329
O O7 0.243134 0.274101 0.201226
O O8 0.690082 0.291440 0.017441
O O9 0.399443 0.500000 0.635188
O O10 0.213700 0.738955 0.663463
O O11 0.670045 0.723396 0.515598
O O12 0.956190 0.500000 0.315459
O O13 0.917353 0.235964 0.366340
O O14 0.981068 0.500000 0.093907
O O15 0.904184 0.208664 0.093568
O O16 0.541239 0.337836 0.203398
O O17 0.000000 0.341261 0.000000
O O18 0.873218 0.777763 0.637697
O O19 0.166762 0.000000 0.557901
O O20 0.748158 0.500000 0.655572
#
# Coordination Sequence:
#
# PCOD9153031 Si02
#       8
#     4   4   4   4   4   4   4   4
#     4  11  23  40  60  85 122 159 197 244 301 358
#     4   9  15  28  54  88 119 149 194 245 291 337
#     4  11  24  43  65  86 110 152 211 256 295 347
#     4  10  21  39  64  91 118 153 200 254 296 343
#     4   9  17  30  54  86 118 157 198 237 285 349
#     4   9  15  25  51  87 118 149 187 234 286 338
#     4  12  25  40  61  91 126 156 189 238 305 366
#     4  11  21  37  62  89 121 157 197 243 291 347
#
# _framework density 19.471935999999999
#
# number of rings (size 3 to 8) (size 9 to 14) (size 15 to 20)
#    0.000    1.750    1.250    5.250    0.000    5.750 
#    0.000    3.750    0.000    7.125    0.000    0.000 
#    0.000    0.000    0.000    0.000    0.000    0.000 
#
# Total GULP energy -178147.851209 kJ/mol
# GULP energy per Si atom -5567.120350 kJ/mol
# Density = 1.942762 g / cm^3
# Si number density = 19.471936 Si / 1000 Ang^3
#
#
#
# Elastic Constant Matrix: (Units=GPa)
#
#
# Indices 1 2 3 4 5 6 
#
# 1 101.4622 36.8438 139.8924 0.0000 47.7480 0.0000
# 2 36.8438 94.4713 200.1022 0.0000 103.1848 0.0000
# 3 139.8924 200.1022 847.6404 -0.0002 347.6428 0.0001
# 4 0.0000 0.0000 -0.0002 -16.3180 -0.0001 10.3692
# 5 47.7480 103.1848 347.6428 -0.0001 190.8514 0.0000
# 6 0.0000 0.0000 0.0001 10.3692 0.0000 38.4536
#
#
#
# Elastic Compliance Matrix: (Units=1/GPa)
#
#
# Indices 1 2 3 4 5 6 
#
# 1 0.013377 -0.002827 -0.003141 0.000000 0.003904 0.000000
# 2 -0.002827 0.026916 -0.000827 0.000000 -0.012338 0.000000
# 3 -0.003141 -0.000827 0.005487 0.000000 -0.008761 0.000000
# 4 0.000000 0.000000 0.000000 -0.052318 0.000000 0.014108
# 5 0.003904 -0.012338 -0.008761 0.000000 0.026892 0.000000
# 6 0.000000 0.000000 0.000000 0.014108 0.000000 0.022201
#
#
# Mechanical properties :
#
#
# Convention : Reuss Voigt Hill
#
# Bulk Modulus (GPa) = 31.06777 199.69454 115.38115
# Shear Modulus (GPa) = 74.76598 87.04643 80.90621
#
# Velocity S-wave (km/s) = 6.20324 6.69332 6.45293
# Velocity P-wave (km/s) = 8.20345 12.74801 10.71934
#
# Compressibility (1/GPa) = 0.03218770
#
# Stress axis : x y z
#
# Youngs Moduli (GPa) = 74.75797 37.15222 182.26554
#
# Poissons Ratio (x) = 0.10503 0.57257
# Poissons Ratio (y) = 0.21135 0.15078
# Poissons Ratio (z) = 0.23485 0.03073
#
# Static dielectric constant tensor:
#      x y z
#    x 1.660280 0.000000 -0.007590 
#    y 0.000000 1.739840 0.000000 
#    z -0.007590 0.000000 1.671410 
# 
# From -- ./inp_files/94973.got.cif
#   From: 2010.05.17/outbox.cif.g08.bks.cpg/sg10_48_cif.got.tgz:94973.got - 2010.06.03 11:33:40.
