data_PCOD9153316
_publ_section_title
;
Structure prediction by ZEFSAII (Michael W. Deem and Ramdas Pophale) SiO2 
 PCOD9153316
Probable space group: P 2/M
;
_chemical_formula_sum "Si O2"
_cell_formula_units_Z 14
_cell_length_a 5.218160
_cell_length_b 21.072857
_cell_length_c 5.114017
_cell_angle_alpha 90.000000
_cell_angle_beta 86.471072
_cell_angle_gamma 90.000000
_cell_volume 561.278891
_symmetry_space_group_name_H-M "P 2/M"
_symmetry_group_IT_number 10
_symmetry_cell_setting 'monoclinic'
loop_
_space_group_symop_operation_xyz
x,y,z
-x,y,-z
-x,-y,-z
x,-y,z
loop_
_atom_site_type_symbol
_atom_site_label
_atom_site_fract_x
_atom_site_fract_y
_atom_site_fract_z
Si Si1 0.166542 0.362646 0.731441
Si Si2 0.500000 0.259391 0.000000
Si Si3 0.737506 0.500000 0.182215
Si Si4 0.500000 0.183041 0.500000
Si Si5 0.000000 0.887205 0.500000
Si Si6 0.238232 0.000000 0.173646
O O1 0.357324 0.308911 0.815010
O O2 0.265895 0.433591 0.662771
O O3 0.000000 0.340160 0.500000
O O4 0.000000 0.371324 0.000000
O O5 0.611812 0.215329 0.761416
O O6 0.500000 0.500000 0.000000
O O7 0.000000 0.500000 0.000000
O O8 0.228132 0.152741 0.624456
O O9 0.190876 0.936014 0.337437
O O10 0.500000 0.000000 0.000000
O O11 0.000000 0.000000 0.000000
#
# Coordination Sequence:
#
# PCOD9153316 Si02
#       6
#     4   2   2   2   2   2
#     4  11  24  45  72 104 146 197 259 333 399 473
#     4  12  28  47  72 107 148 214 268 320 388 470
#     4  10  21  44  70 107 145 191 252 330 412 471
#     4  12  30  47  78 107 162 212 262 318 386 468
#     4  11  28  50  74 122 156 205 262 320 388 463
#     4  11  24  47  86 117 157 200 253 324 389 457
#
# _framework density 24.943034000000001
#
# number of rings (size 3 to 8) (size 9 to 14) (size 15 to 20)
#    0.000    0.857    1.429    3.857   12.000    2.286 
#    0.000    2.857    0.000    0.000    0.000    0.000 
#    0.000    0.000    0.000    0.000    0.000    0.000 
#
# Total GULP energy -78010.128580 kJ/mol
# GULP energy per Si atom -5572.152041 kJ/mol
# Density = 2.488626 g / cm^3
# Si number density = 24.943034 Si / 1000 Ang^3
#
#
#
# Elastic Constant Matrix: (Units=GPa)
#
#
# Indices 1 2 3 4 5 6 
#
# 1 178.6748 30.2078 38.0752 0.0000 -3.8543 0.0000
# 2 30.2078 58.9445 25.7745 0.0000 2.5388 0.0000
# 3 38.0752 25.7745 156.9462 0.0000 24.3243 0.0000
# 4 0.0000 0.0000 0.0000 74.9626 0.0000 -13.0605
# 5 -3.8543 2.5388 24.3243 0.0000 65.2144 0.0000
# 6 0.0000 0.0000 0.0000 -13.0605 0.0000 28.0986
#
#
#
# Elastic Compliance Matrix: (Units=1/GPa)
#
#
# Indices 1 2 3 4 5 6 
#
# 1 0.006345 -0.002753 -0.001233 0.000000 0.000942 0.000000
# 2 -0.002753 0.019484 -0.002536 0.000000 0.000025 0.000000
# 3 -0.001233 -0.002536 0.007518 0.000000 -0.002778 0.000000
# 4 0.000000 0.000000 0.000000 0.014515 0.000000 0.006747
# 5 0.000942 0.000025 -0.002778 0.000000 0.016425 0.000000
# 6 0.000000 0.000000 0.000000 0.006747 0.000000 0.038725
#
#
# Mechanical properties :
#
#
# Convention : Reuss Voigt Hill
#
# Bulk Modulus (GPa) = 49.25429 64.74228 56.99829
# Shear Modulus (GPa) = 40.70861 53.68900 47.19880
#
# Velocity S-wave (km/s) = 4.04426 4.64450 4.35474
# Velocity P-wave (km/s) = 6.44963 7.40096 6.94161
#
# Compressibility (1/GPa) = 0.02030280
#
# Stress axis : x y z
#
# Youngs Moduli (GPa) = 157.59551 51.32483 133.01769
#
# Poissons Ratio (x) = 0.14131 0.16405
# Poissons Ratio (y) = 0.43389 0.33728
# Poissons Ratio (z) = 0.19436 0.13014
#
# Static dielectric constant tensor:
#      x y z
#    x 2.121640 0.000000 -0.086570 
#    y 0.000000 1.569900 0.000000 
#    z -0.086570 0.000000 2.140380 
# 
# From -- ./inp_files/900.got.cif
#   From: 2010.05.17/outbox.cif.g08.bks.cpg/sg10_1_cif.got.tgz:900.got - 2010.06.03 11:33:40.
