data_PCOD9153232
_publ_section_title
;
Structure prediction by ZEFSAII (Michael W. Deem and Ramdas Pophale) SiO2 
 PCOD9153232
Probable space group: P 2/M
;
_chemical_formula_sum "Si O2"
_cell_formula_units_Z 32
_cell_length_a 12.441149
_cell_length_b 13.606472
_cell_length_c 14.152719
_cell_angle_alpha 90.000000
_cell_angle_beta 35.540870
_cell_angle_gamma 90.000000
_cell_volume 1392.624160
_symmetry_space_group_name_H-M "P 2/M"
_symmetry_group_IT_number 10
_symmetry_cell_setting 'monoclinic'
loop_
_space_group_symop_operation_xyz
x,y,z
-x,y,-z
-x,-y,-z
x,-y,z
loop_
_atom_site_type_symbol
_atom_site_label
_atom_site_fract_x
_atom_site_fract_y
_atom_site_fract_z
Si Si1 0.471015 0.182592 0.828833
Si Si2 0.821089 0.115771 0.693243
Si Si3 0.510120 0.789111 0.596348
Si Si4 0.456421 0.389838 0.174089
Si Si5 0.908278 0.381388 0.663208
Si Si6 0.911495 0.885212 0.832140
Si Si7 0.829278 0.113902 0.191691
Si Si8 0.251000 0.610740 0.525434
O O1 0.632732 0.156455 0.785564
O O2 0.566905 0.167200 0.657156
O O3 0.419527 0.296024 0.890072
O O4 0.284065 0.122197 0.974123
O O5 0.873374 0.159666 0.757152
O O6 0.000000 0.126796 0.500000
O O7 0.786517 0.000000 0.729428
O O8 0.500000 0.840252 0.500000
O O9 0.290267 0.797577 0.767248
O O10 0.620726 0.687880 0.511214
O O11 0.535035 0.500000 0.103535
O O12 0.310779 0.366019 0.193937
O O13 0.336334 0.394866 0.357790
O O14 0.925221 0.500000 0.647949
O O15 0.000000 0.342193 0.500000
O O16 0.040043 0.355637 0.656918
O O17 0.086030 0.851537 0.768554
O O18 0.954033 0.000000 0.787690
O O19 0.752054 0.000000 0.252337
O O20 0.000000 0.102996 0.000000
O O21 0.255689 0.500000 0.561466
#
# Coordination Sequence:
#
# PCOD9153232 Si02
#       8
#     4   4   4   4   4   4   4   4
#     4  11  21  35  60  88 118 158 198 241 296 356
#     4  10  23  40  61  92 123 147 181 240 305 358
#     4  11  24  36  54  89 122 152 198 256 295 340
#     4   8  15  28  49  81 116 151 196 242 283 338
#     4   7  10  21  43  70 102 142 186 231 282 343
#     4  10  21  41  66  86 112 155 203 240 285 360
#     4  10  21  41  64  82 110 158 206 243 288 348
#     4   8  15  30  52  77 113 158 196 237 294 350
#
# _framework density 22.978203000000001
#
# number of rings (size 3 to 8) (size 9 to 14) (size 15 to 20)
#    0.000    2.625    1.250    2.250    1.750    4.500 
#    0.000    0.000    0.000    2.625    0.000    0.000 
#    0.000    0.000    0.000    0.000    0.000    0.000 
#
# Total GULP energy -178190.705823 kJ/mol
# GULP energy per Si atom -5568.459557 kJ/mol
# Density = 2.292590 g / cm^3
# Si number density = 22.978203 Si / 1000 Ang^3
#
#
#
# Elastic Constant Matrix: (Units=GPa)
#
#
# Indices 1 2 3 4 5 6 
#
# 1 130.9156 43.8021 6.3791 0.0000 -5.4803 0.0000
# 2 43.8021 92.0807 5.2052 0.0000 -13.9041 0.0000
# 3 6.3791 5.2052 17.9867 0.0000 5.4579 0.0000
# 4 0.0000 0.0000 0.0000 7.3998 0.0000 2.7547
# 5 -5.4803 -13.9041 5.4579 0.0000 37.9190 0.0000
# 6 0.0000 0.0000 0.0000 2.7547 0.0000 12.4400
#
#
#
# Elastic Compliance Matrix: (Units=1/GPa)
#
#
# Indices 1 2 3 4 5 6 
#
# 1 0.009156 -0.004230 -0.002043 0.000000 0.000066 0.000000
# 2 -0.004230 0.013864 -0.004046 0.000000 0.005055 0.000000
# 3 -0.002043 -0.004046 0.060682 0.000000 -0.010513 0.000000
# 4 0.000000 0.000000 0.000000 0.147281 0.000000 -0.032614
# 5 0.000066 0.005055 -0.010513 0.000000 0.029748 0.000000
# 6 0.000000 0.000000 0.000000 -0.032614 0.000000 0.087608
#
#
# Mechanical properties :
#
#
# Convention : Reuss Voigt Hill
#
# Bulk Modulus (GPa) = 15.85680 39.08397 27.47039
# Shear Modulus (GPa) = 12.82055 23.92487 18.37271
#
# Velocity S-wave (km/s) = 2.36465 3.23026 2.83074
# Velocity P-wave (km/s) = 3.79093 5.56407 4.76078
#
# Compressibility (1/GPa) = 0.06306444
#
# Stress axis : x y z
#
# Youngs Moduli (GPa) = 109.21645 72.12836 16.47928
#
# Poissons Ratio (x) = 0.30510 0.03367
# Poissons Ratio (y) = 0.46198 0.06667
# Poissons Ratio (z) = 0.22316 0.29182
#
# Static dielectric constant tensor:
#      x y z
#    x 1.936850 0.000000 0.008890 
#    y 0.000000 1.886620 0.000000 
#    z 0.008890 0.000000 2.104340 
# 
# From -- ./inp_files/65098.got.cif
#   From: 2010.05.17/outbox.cif.g08.bks.cpg/sg10_33_cif.got.tgz:65098.got - 2010.06.03 11:33:40.
