data_PCOD9153073
_publ_section_title
;
Structure prediction by ZEFSAII (Michael W. Deem and Ramdas Pophale) SiO2 
 PCOD9153073
Probable space group: P 2/M
;
_chemical_formula_sum "Si O2"
_cell_formula_units_Z 28
_cell_length_a 19.190987
_cell_length_b 13.754378
_cell_length_c 10.005377
_cell_angle_alpha 90.000000
_cell_angle_beta 147.925807
_cell_angle_gamma 90.000000
_cell_volume 1402.426541
_symmetry_space_group_name_H-M "P 2/M"
_symmetry_group_IT_number 10
_symmetry_cell_setting 'monoclinic'
loop_
_space_group_symop_operation_xyz
x,y,z
-x,y,-z
-x,-y,-z
x,-y,z
loop_
_atom_site_type_symbol
_atom_site_label
_atom_site_fract_x
_atom_site_fract_y
_atom_site_fract_z
Si Si1 0.276976 0.613895 0.605989
Si Si2 0.329265 0.387968 0.006391
Si Si3 0.819453 0.388785 0.982608
Si Si4 0.355216 0.113694 0.333201
Si Si5 0.597055 0.696343 0.444035
Si Si6 0.070287 0.116020 0.748888
Si Si7 0.969546 0.754030 0.802879
O O1 0.250242 0.500000 0.530720
O O2 0.383106 0.653904 0.672744
O O3 0.157813 0.687573 0.393030
O O4 0.306719 0.618435 0.811835
O O5 0.369073 0.500000 0.099955
O O6 0.205612 0.369336 0.901300
O O7 0.445613 0.316224 0.233490
O O8 0.861171 0.500000 0.034714
O O9 0.684010 0.369579 0.684292
O O10 0.921860 0.318708 0.080140
O O11 0.500000 0.121250 0.500000
O O12 0.357484 0.193208 0.455538
O O13 0.340397 0.000000 0.348991
O O14 0.225371 0.138700 0.031873
O O15 0.978821 0.156543 0.718045
O O16 0.000000 0.153611 0.500000
O O17 0.065993 0.000000 0.737967
O O18 0.000000 0.788953 0.000000
#
# Coordination Sequence:
#
# PCOD9153073 Si02
#       7
#     4   4   4   4   4   4   4
#     4  11  24  40  59  87 128 171 207 252 310 374
#     4  10  23  39  58  89 123 162 209 258 311 368
#     4  11  22  36  58  88 118 156 205 256 297 361
#     4  10  21  39  65  97 128 159 209 267 321 376
#     4  12  21  37  64  89 120 163 205 255 311 373
#     4  10  23  43  67  94 125 162 210 264 319 376
#     4  12  24  39  60  89 122 165 206 253 312 372
#
# _framework density 19.965395999999998
#
# number of rings (size 3 to 8) (size 9 to 14) (size 15 to 20)
#    0.000    1.143    2.857    3.429    2.000    3.143 
#    0.000    2.857    0.000    1.714    0.000    0.000 
#    0.000    0.000    0.000    0.000    0.000    0.000 
#
# Total GULP energy -156255.631203 kJ/mol
# GULP energy per Si atom -5580.558257 kJ/mol
# Density = 1.991995 g / cm^3
# Si number density = 19.965396 Si / 1000 Ang^3
#
#
#
# Elastic Constant Matrix: (Units=GPa)
#
#
# Indices 1 2 3 4 5 6 
#
# 1 85.4218 5.8309 2.5783 0.0000 -21.1435 0.0000
# 2 5.8309 50.7592 9.5236 0.0000 -13.2648 0.0000
# 3 2.5783 9.5236 26.2534 0.0000 -13.8885 0.0000
# 4 0.0000 0.0000 0.0000 14.2513 0.0000 -0.5432
# 5 -21.1435 -13.2648 -13.8885 0.0000 28.3390 0.0000
# 6 0.0000 0.0000 0.0000 -0.5432 0.0000 -9.2265
#
#
#
# Elastic Compliance Matrix: (Units=1/GPa)
#
#
# Indices 1 2 3 4 5 6 
#
# 1 0.015072 0.000977 0.005881 0.000000 0.014585 0.000000
# 2 0.000977 0.022749 -0.003145 0.000000 0.009835 0.000000
# 3 0.005881 -0.003145 0.054265 0.000000 0.029510 0.000000
# 4 0.000000 0.000000 0.000000 0.070012 0.000000 -0.004122
# 5 0.014585 0.009835 0.029510 0.000000 0.065235 0.000000
# 6 0.000000 0.000000 0.000000 -0.004122 0.000000 -0.108141
#
#
# Mechanical properties :
#
#
# Convention : Reuss Voigt Hill
#
# Bulk Modulus (GPa) = 10.04913 22.03335 16.04124
# Shear Modulus (GPa) = 34.49765 16.30620 25.40193
#
# Velocity S-wave (km/s) = 4.16128 2.86094 3.57080
# Velocity P-wave (km/s) = 5.30401 4.68754 5.00527
#
# Compressibility (1/GPa) = 0.09951110
#
# Stress axis : x y z
#
# Youngs Moduli (GPa) = 66.34623 43.95784 18.42816
#
# Poissons Ratio (x) = -0.04293 -0.10838
# Poissons Ratio (y) = -0.06479 0.05796
# Poissons Ratio (z) = -0.39019 0.13826
#
# Static dielectric constant tensor:
#      x y z
#    x 1.720940 0.000000 0.009300 
#    y 0.000000 1.719190 0.000000 
#    z 0.009300 0.000000 1.730340 
# 
# From -- ./inp_files/32841.got.cif
#   From: 2010.05.17/outbox.cif.g08.bks.cpg/sg10_17_cif.got.tgz:32841.got - 2010.06.03 11:33:40.
