data_PCOD9153575
_publ_section_title
;
Structure prediction by ZEFSAII (Michael W. Deem and Ramdas Pophale) SiO2 
 PCOD9153575
Probable space group: P 2/M
;
_chemical_formula_sum "Si O2"
_cell_formula_units_Z 28
_cell_length_a 14.891980
_cell_length_b 11.458017
_cell_length_c 9.501036
_cell_angle_alpha 90.000000
_cell_angle_beta 121.029680
_cell_angle_gamma 90.000000
_cell_volume 1389.194996
_symmetry_space_group_name_H-M "P 2/M"
_symmetry_group_IT_number 10
_symmetry_cell_setting 'monoclinic'
loop_
_space_group_symop_operation_xyz
x,y,z
-x,y,-z
-x,-y,-z
x,-y,z
loop_
_atom_site_type_symbol
_atom_site_label
_atom_site_fract_x
_atom_site_fract_y
_atom_site_fract_z
Si Si1 0.757647 0.783720 0.556786
Si Si2 0.370840 0.693003 0.057264
Si Si3 0.949739 0.366132 0.819505
Si Si4 0.396388 0.135601 0.332143
Si Si5 0.873536 0.872157 0.387118
Si Si6 0.603222 0.634445 0.241239
Si Si7 0.154179 0.628477 0.794084
O O1 0.850259 0.703009 0.688161
O O2 0.699258 0.846784 0.637295
O O3 0.813288 0.865936 0.486964
O O4 0.672484 0.702321 0.409565
O O5 0.373623 0.801070 0.166101
O O6 0.480715 0.631041 0.182262
O O7 0.382985 0.701643 0.896888
O O8 0.256828 0.633298 0.977351
O O9 0.919307 0.500000 0.825063
O O10 0.043758 0.367199 0.783972
O O11 0.000000 0.313084 0.000000
O O12 0.500000 0.179885 0.500000
O O13 0.414385 0.000000 0.317745
O O14 0.842448 0.749688 0.288894
O O15 0.000000 0.868599 0.500000
O O16 0.847625 0.000000 0.299989
O O17 0.636100 0.500000 0.247503
O O18 0.156116 0.500000 0.722423
#
# Coordination Sequence:
#
# PCOD9153575 Si02
#       7
#     4   4   4   4   4   4   4
#     4  12  22  43  70  96 132 180 226 286 340 410
#     4  11  22  42  65  96 135 175 222 281 339 402
#     4  10  22  39  62  96 133 172 220 276 339 414
#     4  11  25  46  66  91 132 182 238 287 334 405
#     4  11  24  42  65  98 135 172 223 286 344 406
#     4  11  23  40  66 101 137 175 222 281 346 413
#     4  11  22  39  67  96 131 175 219 276 341 407
#
# _framework density 20.155557000000002
#
# number of rings (size 3 to 8) (size 9 to 14) (size 15 to 20)
#    0.000    1.000    4.286    3.429    0.000    1.429 
#    0.000    5.714    0.000    2.143    0.000    0.000 
#    0.000    0.000    0.000    0.000    0.000    0.000 
#
# Total GULP energy -156064.431536 kJ/mol
# GULP energy per Si atom -5573.729698 kJ/mol
# Density = 2.010968 g / cm^3
# Si number density = 20.155557 Si / 1000 Ang^3
#
#
#
# Elastic Constant Matrix: (Units=GPa)
#
#
# Indices 1 2 3 4 5 6 
#
# 1 79.6832 21.7023 -0.2009 0.0000 14.0180 0.0000
# 2 21.7023 128.7628 56.7443 0.0000 -6.8825 0.0000
# 3 -0.2009 56.7443 74.8655 0.0000 10.0043 0.0000
# 4 0.0000 0.0000 0.0000 22.1419 0.0000 6.7534
# 5 14.0180 -6.8825 10.0043 0.0000 42.3293 0.0000
# 6 0.0000 0.0000 0.0000 6.7534 0.0000 88.2845
#
#
#
# Elastic Compliance Matrix: (Units=1/GPa)
#
#
# Indices 1 2 3 4 5 6 
#
# 1 0.015161 -0.005040 0.004793 0.000000 -0.006973 0.000000
# 2 -0.005040 0.014075 -0.011576 0.000000 0.006694 0.000000
# 3 0.004793 -0.011576 0.023345 0.000000 -0.008987 0.000000
# 4 0.000000 0.000000 0.000000 0.046242 0.000000 -0.003537
# 5 -0.006973 0.006694 -0.008987 0.000000 0.029146 0.000000
# 6 0.000000 0.000000 0.000000 -0.003537 0.000000 0.011598
#
#
# Mechanical properties :
#
#
# Convention : Reuss Voigt Hill
#
# Bulk Modulus (GPa) = 34.56114 48.86697 41.71406
# Shear Modulus (GPa) = 28.92536 44.22219 36.57377
#
# Velocity S-wave (km/s) = 3.79239 4.68914 4.26440
# Velocity P-wave (km/s) = 6.02998 7.32223 6.70730
#
# Compressibility (1/GPa) = 0.02893423
#
# Stress axis : x y z
#
# Youngs Moduli (GPa) = 65.95773 71.04830 42.83544
#
# Poissons Ratio (x) = 0.35809 -0.20530
# Poissons Ratio (y) = 0.33244 0.49587
# Poissons Ratio (z) = -0.31611 0.82246
#
# Static dielectric constant tensor:
#      x y z
#    x 1.742380 0.000000 -0.007180 
#    y 0.000000 1.727780 0.000000 
#    z -0.007180 0.000000 1.726970 
# 
# From -- ./inp_files/28680.got.cif
#   From: 2010.05.17/outbox.cif.g08.bks.cpg/sg10_15_cif.got.tgz:28680.got - 2010.06.03 11:33:40.
