data_PCOD9153490
_publ_section_title
;
Structure prediction by ZEFSAII (Michael W. Deem and Ramdas Pophale) SiO2 
 PCOD9153490
Probable space group: P 2/M
;
_chemical_formula_sum "Si O2"
_cell_formula_units_Z 24
_cell_length_a 8.761023
_cell_length_b 18.067072
_cell_length_c 15.155154
_cell_angle_alpha 90.000000
_cell_angle_beta 154.271692
_cell_angle_gamma 90.000000
_cell_volume 1041.350577
_symmetry_space_group_name_H-M "P 2/M"
_symmetry_group_IT_number 10
_symmetry_cell_setting 'monoclinic'
loop_
_space_group_symop_operation_xyz
x,y,z
-x,y,-z
-x,-y,-z
x,-y,z
loop_
_atom_site_type_symbol
_atom_site_label
_atom_site_fract_x
_atom_site_fract_y
_atom_site_fract_z
Si Si1 0.298488 0.418633 0.732311
Si Si2 0.029608 0.081215 0.910589
Si Si3 0.773329 0.133052 0.307267
Si Si4 0.928820 0.192376 0.214183
Si Si5 0.410937 0.720311 0.205937
Si Si6 0.233161 0.342881 0.428351
O O1 0.461984 0.500000 0.822655
O O2 0.546946 0.350560 0.836364
O O3 0.000000 0.420829 0.500000
O O4 0.076618 0.396225 0.702103
O O5 0.917161 0.147286 0.787892
O O6 0.881990 0.000000 0.813410
O O7 0.447378 0.083441 0.110242
O O8 0.000000 0.093680 0.000000
O O9 0.016263 0.151896 0.351161
O O10 0.614945 0.209891 0.267704
O O11 0.000000 0.095722 0.500000
O O12 0.073433 0.274183 0.291814
O O13 0.500000 0.195942 0.000000
O O14 0.584508 0.692994 0.388744
O O15 0.000000 0.737628 0.000000
O O16 0.500000 0.380676 0.500000
#
# Coordination Sequence:
#
# PCOD9153490 Si02
#       6
#     4   4   4   4   4   4
#     4   9  19  40  63  87 128 171 209 259 319 377
#     4  10  24  43  63  92 128 166 208 263 324 384
#     4  11  20  38  64  93 126 163 212 264 313 380
#     4  10  22  38  64  90 125 168 209 263 310 377
#     4  11  22  38  63  95 127 166 217 263 318 376
#     4  11  23  36  60  98 128 166 215 263 310 378
#
# _framework density 23.046991999999999
#
# number of rings (size 3 to 8) (size 9 to 14) (size 15 to 20)
#    0.000    1.667    3.333    1.000    7.000    4.000 
#    0.000    0.000    0.000    6.000    0.000    0.000 
#    0.000    0.667    0.000    0.000    0.000    0.000 
#
# Total GULP energy -134101.203144 kJ/mol
# GULP energy per Si atom -5587.550131 kJ/mol
# Density = 2.299454 g / cm^3
# Si number density = 23.046992 Si / 1000 Ang^3
#
#
#
# Elastic Constant Matrix: (Units=GPa)
#
#
# Indices 1 2 3 4 5 6 
#
# 1 122.0187 37.8932 0.2690 0.0000 -0.2688 0.0000
# 2 37.8932 115.1448 4.9066 0.0000 2.4433 0.0000
# 3 0.2690 4.9066 32.4521 0.0000 0.2094 0.0000
# 4 0.0000 0.0000 0.0000 18.2645 0.0000 1.7811
# 5 -0.2688 2.4433 0.2094 0.0000 28.5040 0.0000
# 6 0.0000 0.0000 0.0000 1.7811 0.0000 1.7457
#
#
#
# Elastic Compliance Matrix: (Units=1/GPa)
#
#
# Indices 1 2 3 4 5 6 
#
# 1 0.009136 -0.003030 0.000380 0.000000 0.000343 0.000000
# 2 -0.003030 0.009762 -0.001445 0.000000 -0.000855 0.000000
# 3 0.000380 -0.001445 0.031031 0.000000 -0.000100 0.000000
# 4 0.000000 0.000000 0.000000 0.060800 0.000000 -0.062031
# 5 0.000343 -0.000855 -0.000100 0.000000 0.035160 0.000000
# 6 0.000000 0.000000 0.000000 -0.062031 0.000000 0.636117
#
#
# Mechanical properties :
#
#
# Convention : Reuss Voigt Hill
#
# Bulk Modulus (GPa) = 23.95887 39.52813 31.74350
# Shear Modulus (GPa) = 6.21806 24.80595 15.51201
#
# Velocity S-wave (km/s) = 1.64434 3.28429 2.59715
# Velocity P-wave (km/s) = 3.74478 5.61876 4.77461
#
# Compressibility (1/GPa) = 0.04173820
#
# Stress axis : x y z
#
# Youngs Moduli (GPa) = 109.45206 102.44169 32.22615
#
# Poissons Ratio (x) = 0.31042 -0.01225
# Poissons Ratio (y) = 0.33166 0.04658
# Poissons Ratio (z) = -0.04161 0.14806
#
# Static dielectric constant tensor:
#      x y z
#    x 1.913210 0.000000 -0.047830 
#    y 0.000000 1.839010 0.000000 
#    z -0.047830 0.000000 1.940470 
# 
# From -- ./inp_files/62419.got.cif
#   From: 2010.05.17/outbox.cif.g08.bks.cpg/sg10_32_cif.got.tgz:62419.got - 2010.06.03 11:33:40.
