data_PCOD9153481
_publ_section_title
;
Structure prediction by ZEFSAII (Michael W. Deem and Ramdas Pophale) SiO2 
 PCOD9153481
Probable space group: P 2/M
;
_chemical_formula_sum "Si O2"
_cell_formula_units_Z 32
_cell_length_a 15.420669
_cell_length_b 17.756007
_cell_length_c 12.565357
_cell_angle_alpha 90.000000
_cell_angle_beta 152.306352
_cell_angle_gamma 90.000000
_cell_volume 1598.957937
_symmetry_space_group_name_H-M "P 2/M"
_symmetry_group_IT_number 10
_symmetry_cell_setting 'monoclinic'
loop_
_space_group_symop_operation_xyz
x,y,z
-x,y,-z
-x,-y,-z
x,-y,z
loop_
_atom_site_type_symbol
_atom_site_label
_atom_site_fract_x
_atom_site_fract_y
_atom_site_fract_z
Si Si1 0.864691 0.914842 0.490940
Si Si2 0.209547 0.822729 0.184708
Si Si3 0.467973 0.411976 0.294537
Si Si4 0.215482 0.763816 0.709217
Si Si5 0.216526 0.644880 0.201075
Si Si6 0.634014 0.132938 0.432754
Si Si7 0.540684 0.718094 0.214282
Si Si8 0.767176 0.085158 0.003977
O O1 0.773280 0.849182 0.323195
O O2 0.794771 0.903484 0.536226
O O3 0.085851 0.900476 0.742507
O O4 0.829930 0.000000 0.417072
O O5 0.257254 0.734318 0.236893
O O6 0.331895 0.867691 0.404347
O O7 0.216017 0.856593 0.074440
O O8 0.000000 0.828657 0.000000
O O9 0.466704 0.500000 0.269176
O O10 0.644929 0.391989 0.562274
O O11 0.282851 0.390303 0.161063
O O12 0.492079 0.359069 0.218917
O O13 0.303607 0.714305 0.708982
O O14 0.000000 0.747003 0.500000
O O15 0.353137 0.751076 0.957142
O O16 0.000000 0.634892 0.000000
O O17 0.615380 0.220535 0.379747
O O18 0.445835 0.092033 0.193421
O O19 0.805127 0.000000 0.007541
#
# Coordination Sequence:
#
# PCOD9153481 Si02
#       8
#     4   4   4   4   4   4   4   4
#     4  10  22  39  58  84 118 152 200 264 316 357
#     4  11  21  35  56  83 117 167 207 245 290 347
#     4  11  23  40  64  95 129 164 196 243 307 361
#     4  10  22  41  65  89 114 155 206 259 312 366
#     4  10  22  38  61  94 129 168 208 244 285 356
#     4  11  20  37  58  79 117 158 208 244 298 356
#     4  10  22  41  63  91 118 154 203 254 301 370
#     4  11  23  34  52  82 117 161 205 251 303 350
#
# _framework density 20.013036
#
# number of rings (size 3 to 8) (size 9 to 14) (size 15 to 20)
#    0.000    1.500    2.500    3.000    1.750    4.000 
#    0.000    6.875    0.000    0.750    0.000    0.000 
#    0.000    0.000    0.000    0.000    0.000    0.000 
#
# Total GULP energy -178843.379626 kJ/mol
# GULP energy per Si atom -5588.855613 kJ/mol
# Density = 1.996749 g / cm^3
# Si number density = 20.013036 Si / 1000 Ang^3
#
#
#
# Elastic Constant Matrix: (Units=GPa)
#
#
# Indices 1 2 3 4 5 6 
#
# 1 87.4708 46.9149 22.1191 0.0000 8.2044 0.0000
# 2 46.9149 124.9986 32.8515 0.0000 -4.1299 0.0000
# 3 22.1191 32.8515 54.5245 0.0000 11.8833 0.0000
# 4 0.0000 0.0000 0.0000 22.2269 0.0000 -2.3452
# 5 8.2044 -4.1299 11.8833 0.0000 36.8512 0.0000
# 6 0.0000 0.0000 0.0000 -2.3452 0.0000 12.1410
#
#
#
# Elastic Compliance Matrix: (Units=1/GPa)
#
#
# Indices 1 2 3 4 5 6 
#
# 1 0.015084 -0.005158 -0.002316 0.000000 -0.003189 0.000000
# 2 -0.005158 0.011617 -0.005853 0.000000 0.004338 0.000000
# 3 -0.002316 -0.005853 0.024563 0.000000 -0.008061 0.000000
# 4 0.000000 0.000000 0.000000 0.045927 0.000000 0.008871
# 5 -0.003189 0.004338 -0.008061 0.000000 0.030932 0.000000
# 6 0.000000 0.000000 0.000000 0.008871 0.000000 0.084079
#
#
# Mechanical properties :
#
#
# Convention : Reuss Voigt Hill
#
# Bulk Modulus (GPa) = 40.63260 52.30720 46.46990
# Shear Modulus (GPa) = 20.23813 25.25105 22.74459
#
# Velocity S-wave (km/s) = 3.18346 3.55594 3.37484
# Velocity P-wave (km/s) = 5.81891 6.56147 6.20131
#
# Compressibility (1/GPa) = 0.02461078
#
# Stress axis : x y z
#
# Youngs Moduli (GPa) = 66.29681 86.07780 40.71155
#
# Poissons Ratio (x) = 0.44398 0.09430
# Poissons Ratio (y) = 0.34195 0.23826
# Poissons Ratio (z) = 0.15356 0.50377
#
# Static dielectric constant tensor:
#      x y z
#    x 1.740530 0.000000 0.009880 
#    y 0.000000 1.678870 0.000000 
#    z 0.009880 0.000000 1.720430 
# 
# From -- ./inp_files/51973.got.cif
#   From: 2010.05.17/outbox.cif.g08.bks.cpg/sg10_26_cif.got.tgz:51973.got - 2010.06.03 11:33:40.
