data_PCOD9153010
_publ_section_title
;
Structure prediction by ZEFSAII (Michael W. Deem and Ramdas Pophale) SiO2 
 PCOD9153010
Probable space group: P 2/M
;
_chemical_formula_sum "Si O2"
_cell_formula_units_Z 25
_cell_length_a 12.407034
_cell_length_b 8.717435
_cell_length_c 24.367358
_cell_angle_alpha 90.000000
_cell_angle_beta 29.922637
_cell_angle_gamma 90.000000
_cell_volume 1314.673399
_symmetry_space_group_name_H-M "P 2/M"
_symmetry_group_IT_number 10
_symmetry_cell_setting 'monoclinic'
loop_
_space_group_symop_operation_xyz
x,y,z
-x,y,-z
-x,-y,-z
x,-y,z
loop_
_atom_site_type_symbol
_atom_site_label
_atom_site_fract_x
_atom_site_fract_y
_atom_site_fract_z
Si Si1 0.921070 0.183042 0.734550
Si Si2 0.017529 0.682155 0.176005
Si Si3 0.187531 0.330962 0.520216
Si Si4 0.000000 0.500000 0.500000
Si Si5 0.749905 0.186445 0.107314
Si Si6 0.380585 0.184047 0.715977
Si Si7 0.578227 0.814595 0.064282
O O1 0.048643 0.234965 0.624349
O O2 0.011762 0.263234 0.748767
O O3 0.668397 0.225121 0.839692
O O4 0.934548 0.000000 0.735181
O O5 0.003648 0.500000 0.177846
O O6 0.836443 0.758721 0.217594
O O7 0.250570 0.740037 0.052212
O O8 0.233347 0.500000 0.524711
O O9 0.411122 0.251040 0.405785
O O10 0.060452 0.368643 0.520073
O O11 0.629354 0.235923 0.215873
O O12 0.640985 0.234242 0.098531
O O13 0.751252 0.000000 0.106685
O O14 0.000000 0.236369 0.000000
O O15 0.384903 0.000000 0.712899
O O16 0.600211 0.000000 0.051041
#
# Coordination Sequence:
#
# PCOD9153010 Si02
#       7
#     4   4   4   1   4   4   4
#     4  11  24  42  66  93 124 168 222 268 312 375
#     4  12  25  41  61  92 129 171 212 262 329 389
#     4  10  23  43  64  94 128 171 203 250 318 377
#     4   8  24  44  66  86 140 176 188 254 314 384
#     4   9  17  33  60  91 123 157 200 256 317 365
#     4  11  22  40  67  95 128 167 217 270 312 373
#     4  10  21  39  63  92 126 165 213 268 319 375
#
# _framework density 19.016128999999999
#
# number of rings (size 3 to 8) (size 9 to 14) (size 15 to 20)
#    0.480    1.120    1.600    3.360    2.240    3.840 
#    0.000    6.400    0.000    0.000    0.000    0.000 
#    0.000    0.000    0.000    0.000    0.000    0.000 
#
# Total GULP energy -139354.757969 kJ/mol
# GULP energy per Si atom -5574.190319 kJ/mol
# Density = 1.897285 g / cm^3
# Si number density = 19.016129 Si / 1000 Ang^3
#
#
#
# Elastic Constant Matrix: (Units=GPa)
#
#
# Indices 1 2 3 4 5 6 
#
# 1 43.7188 0.9457 -1.7078 0.0000 14.2972 0.0000
# 2 0.9457 35.8495 7.3232 0.0000 -4.3849 0.0000
# 3 -1.7078 7.3232 89.9998 0.0000 9.6110 0.0000
# 4 0.0000 0.0000 0.0000 158.7003 0.0000 10.0810
# 5 14.2972 -4.3849 9.6110 0.0000 14.6230 0.0000
# 6 0.0000 0.0000 0.0000 10.0810 0.0000 24.7650
#
#
#
# Elastic Compliance Matrix: (Units=1/GPa)
#
#
# Indices 1 2 3 4 5 6 
#
# 1 0.037088 -0.007339 0.005816 0.000000 -0.042285 0.000000
# 2 -0.007339 0.031491 -0.004814 0.000000 0.019782 0.000000
# 3 0.005816 -0.004814 0.013309 0.000000 -0.015878 0.000000
# 4 0.000000 0.000000 0.000000 0.006468 0.000000 -0.002633
# 5 -0.042285 0.019782 -0.015878 0.000000 0.126096 0.000000
# 6 0.000000 0.000000 0.000000 -0.002633 0.000000 0.041451
#
#
# Mechanical properties :
#
#
# Convention : Reuss Voigt Hill
#
# Bulk Modulus (GPa) = 14.44773 20.29893 17.37333
# Shear Modulus (GPa) = 17.14397 50.48479 33.81438
#
# Velocity S-wave (km/s) = 3.00584 5.15810 4.22144
# Velocity P-wave (km/s) = 4.43406 6.79503 5.73730
#
# Compressibility (1/GPa) = 0.06921502
#
# Stress axis : x y z
#
# Youngs Moduli (GPa) = 26.96312 31.75508 75.13835
#
# Poissons Ratio (x) = 0.23304 -0.43704
# Poissons Ratio (y) = 0.19787 0.36173
# Poissons Ratio (z) = -0.15683 0.15287
#
# Static dielectric constant tensor:
#      x y z
#    x 1.649570 0.000000 0.008920 
#    y 0.000000 1.649100 0.000000 
#    z 0.008920 0.000000 1.637620 
# 
# From -- ./inp_files/88622.got.cif
#   From: 2010.05.17/outbox.cif.g08.bks.cpg/sg10_45_cif.got.tgz:88622.got - 2010.06.03 11:33:40.
