data_PCOD9153301
_publ_section_title
;
Structure prediction by ZEFSAII (Michael W. Deem and Ramdas Pophale) SiO2 
 PCOD9153301
Probable space group: P 2/M
;
_chemical_formula_sum "Si O2"
_cell_formula_units_Z 26
_cell_length_a 14.683927
_cell_length_b 12.476307
_cell_length_c 7.773331
_cell_angle_alpha 90.000000
_cell_angle_beta 61.309781
_cell_angle_gamma 90.000000
_cell_volume 1249.246037
_symmetry_space_group_name_H-M "P 2/M"
_symmetry_group_IT_number 10
_symmetry_cell_setting 'monoclinic'
loop_
_space_group_symop_operation_xyz
x,y,z
-x,y,-z
-x,-y,-z
x,-y,z
loop_
_atom_site_type_symbol
_atom_site_label
_atom_site_fract_x
_atom_site_fract_y
_atom_site_fract_z
Si Si1 0.500000 0.806972 0.000000
Si Si2 0.421485 0.282422 0.416928
Si Si3 0.069032 0.109624 0.271887
Si Si4 0.741006 0.129829 0.274326
Si Si5 0.285316 0.817661 0.099736
Si Si6 0.237067 0.378599 0.393412
Si Si7 0.065025 0.721897 0.787045
O O1 0.487288 0.737827 0.184744
O O2 0.391980 0.865805 0.072000
O O3 0.500000 0.309411 0.500000
O O4 0.354522 0.175725 0.525706
O O5 0.330600 0.365057 0.447690
O O6 0.184007 0.117610 0.238591
O O7 0.000000 0.103841 0.500000
O O8 0.029082 0.212596 0.211787
O O9 0.058773 0.000000 0.174990
O O10 0.847976 0.189107 0.233861
O O11 0.746916 0.000000 0.271729
O O12 0.716844 0.174618 0.104649
O O13 0.266690 0.703546 0.212184
O O14 0.231306 0.500000 0.337207
O O15 0.130681 0.346603 0.589455
O O16 0.000000 0.664870 0.000000
#
# Coordination Sequence:
#
# PCOD9153301 Si02
#       7
#     2   4   4   4   4   4   4
#     4  10  22  42  64  92 136 178 216 270 330 378
#     4  10  21  43  69  91 134 172 219 282 327 383
#     4  11  22  38  62  92 126 170 216 259 320 390
#     4  11  23  39  64  97 134 173 213 261 329 399
#     4  11  21  41  64  90 133 171 210 278 319 384
#     4  10  24  44  65  93 127 169 223 277 335 395
#     4  11  22  39  64  90 131 164 213 277 328 384
#
# _framework density 20.812553999999999
#
# number of rings (size 3 to 8) (size 9 to 14) (size 15 to 20)
#    0.000    1.385    4.615    0.923    0.000    1.538 
#    0.000   15.769    0.000    0.000    0.000    0.000 
#    0.000    0.000    0.000    0.000    0.000    0.000 
#
# Total GULP energy -144835.791642 kJ/mol
# GULP energy per Si atom -5570.607371 kJ/mol
# Density = 2.076518 g / cm^3
# Si number density = 20.812554 Si / 1000 Ang^3
#
#
#
# Elastic Constant Matrix: (Units=GPa)
#
#
# Indices 1 2 3 4 5 6 
#
# 1 103.6975 16.7469 15.2861 0.0000 -21.9765 0.0000
# 2 16.7469 97.3541 34.7987 0.0000 4.7015 0.0000
# 3 15.2861 34.7987 116.3219 0.0000 -14.2208 0.0000
# 4 0.0000 0.0000 0.0000 17.2402 0.0000 5.5088
# 5 -21.9765 4.7015 -14.2208 0.0000 35.0608 0.0000
# 6 0.0000 0.0000 0.0000 5.5088 0.0000 10.8966
#
#
#
# Elastic Compliance Matrix: (Units=1/GPa)
#
#
# Indices 1 2 3 4 5 6 
#
# 1 0.011641 -0.002421 0.000133 0.000000 0.007675 0.000000
# 2 -0.002421 0.012333 -0.003955 0.000000 -0.004775 0.000000
# 3 0.000133 -0.003955 0.010351 0.000000 0.004812 0.000000
# 4 0.000000 0.000000 0.000000 0.069179 0.000000 -0.034974
# 5 0.007675 -0.004775 0.004812 0.000000 0.035925 0.000000
# 6 0.000000 0.000000 0.000000 -0.034974 0.000000 0.109453
#
#
# Mechanical properties :
#
#
# Convention : Reuss Voigt Hill
#
# Bulk Modulus (GPa) = 45.79020 50.11524 47.95272
# Shear Modulus (GPa) = 18.61173 29.34231 23.97702
#
# Velocity S-wave (km/s) = 2.99365 3.75885 3.39786
# Velocity P-wave (km/s) = 5.83080 6.55517 6.20357
#
# Compressibility (1/GPa) = 0.02183874
#
# Stress axis : x y z
#
# Youngs Moduli (GPa) = 85.89993 81.08653 96.61030
#
# Poissons Ratio (x) = 0.19628 -0.01282
# Poissons Ratio (y) = 0.20793 0.38210
# Poissons Ratio (z) = -0.01140 0.32070
#
# Static dielectric constant tensor:
#      x y z
#    x 1.756720 0.000000 0.002390 
#    y 0.000000 1.783300 0.000000 
#    z 0.002390 0.000000 1.828560 
# 
# From -- ./inp_files/28117.got.cif
#   From: 2010.05.17/outbox.cif.g08.bks.cpg/sg10_15_cif.got.tgz:28117.got - 2010.06.03 11:33:40.
