data_PCOD9153489
_publ_section_title
;
Structure prediction by ZEFSAII (Michael W. Deem and Ramdas Pophale) SiO2 
 PCOD9153489
Probable space group: P 2/M
;
_chemical_formula_sum "Si O2"
_cell_formula_units_Z 30
_cell_length_a 11.674186
_cell_length_b 17.563433
_cell_length_c 9.008742
_cell_angle_alpha 90.000000
_cell_angle_beta 67.322660
_cell_angle_gamma 90.000000
_cell_volume 1704.340174
_symmetry_space_group_name_H-M "P 2/M"
_symmetry_group_IT_number 10
_symmetry_cell_setting 'monoclinic'
loop_
_space_group_symop_operation_xyz
x,y,z
-x,y,-z
-x,-y,-z
x,-y,z
loop_
_atom_site_type_symbol
_atom_site_label
_atom_site_fract_x
_atom_site_fract_y
_atom_site_fract_z
Si Si1 0.303422 0.681937 0.465225
Si Si2 0.121663 0.222899 0.342946
Si Si3 0.450136 0.912061 0.786211
Si Si4 0.705081 0.912303 0.845791
Si Si5 0.500000 0.202387 0.500000
Si Si6 0.381011 0.590301 0.153573
Si Si7 0.872338 0.641711 0.880662
Si Si8 0.142440 0.589071 0.779708
O O1 0.206558 0.727489 0.411303
O O2 0.390752 0.743204 0.498904
O O3 0.380879 0.630579 0.312286
O O4 0.232117 0.628355 0.616661
O O5 0.193823 0.147693 0.256699
O O6 0.101977 0.276323 0.207703
O O7 0.000000 0.205730 0.500000
O O8 0.583236 0.906317 0.802344
O O9 0.450369 0.852223 0.654659
O O10 0.436177 0.000000 0.743236
O O11 0.346100 0.896789 0.962945
O O12 0.747861 0.000000 0.818159
O O13 0.389391 0.500000 0.166932
O O14 0.251126 0.609390 0.136385
O O15 0.500000 0.616977 0.000000
O O16 0.000071 0.595092 0.793623
O O17 0.850812 0.635043 0.068175
O O18 0.171673 0.500000 0.791180
#
# Coordination Sequence:
#
# PCOD9153489 Si02
#       8
#     4   4   4   4   2   4   4   4
#     4  11  25  37  55  89 115 154 195 239 297 347
#     4  11  21  40  58  85 122 153 193 238 284 349
#     4   9  19  37  62  88 115 151 194 237 280 337
#     4   9  19  37  61  88 117 155 194 230 282 344
#     4  12  23  36  57  90 124 152 184 240 305 342
#     4  10  22  40  57  79 113 154 194 240 292 353
#     4  10  22  38  64  85 110 151 200 245 296 342
#     4  11  22  41  62  86 113 150 202 253 295 342
#
# _framework density 17.602121
#
# number of rings (size 3 to 8) (size 9 to 14) (size 15 to 20)
#    0.000    1.733    2.667    3.000    3.733    1.333 
#    0.000    2.667    0.000    0.000    0.000    3.733 
#    0.000    0.000    0.000    0.000    0.000    0.000 
#
# Total GULP energy -167412.113440 kJ/mol
# GULP energy per Si atom -5580.403781 kJ/mol
# Density = 1.756206 g / cm^3
# Si number density = 17.602121 Si / 1000 Ang^3
#
#
#
# Elastic Constant Matrix: (Units=GPa)
#
#
# Indices 1 2 3 4 5 6 
#
# 1 57.5691 44.9054 53.0851 0.0000 -0.7955 0.0000
# 2 44.9054 116.5394 105.3772 0.0000 -12.6962 0.0000
# 3 53.0851 105.3772 171.2113 0.0000 -14.6797 0.0000
# 4 0.0000 0.0000 0.0000 39.2113 0.0000 -1.7336
# 5 -0.7955 -12.6962 -14.6797 0.0000 26.4745 0.0000
# 6 0.0000 0.0000 0.0000 -1.7336 0.0000 31.1503
#
#
#
# Elastic Compliance Matrix: (Units=1/GPa)
#
#
# Indices 1 2 3 4 5 6 
#
# 1 0.026768 -0.006687 -0.004609 0.000000 -0.004958 0.000000
# 2 -0.006687 0.021221 -0.010638 0.000000 0.004077 0.000000
# 3 -0.004609 -0.010638 0.014035 0.000000 0.002542 0.000000
# 4 0.000000 0.000000 0.000000 0.025566 0.000000 0.001423
# 5 -0.004958 0.004077 0.002542 0.000000 0.040988 0.000000
# 6 0.000000 0.000000 0.000000 0.001423 0.000000 0.032182
#
#
# Mechanical properties :
#
#
# Convention : Reuss Voigt Hill
#
# Bulk Modulus (GPa) = 55.07833 83.56170 69.32002
# Shear Modulus (GPa) = 23.73277 28.83070 26.28173
#
# Velocity S-wave (km/s) = 3.67589 4.05150 3.86826
# Velocity P-wave (km/s) = 7.02673 8.33437 7.70833
#
# Compressibility (1/GPa) = 0.01815596
#
# Stress axis : x y z
#
# Youngs Moduli (GPa) = 37.35819 47.12379 71.24919
#
# Poissons Ratio (x) = 0.31511 0.32839
# Poissons Ratio (y) = 0.24981 0.75795
# Poissons Ratio (z) = 0.17218 0.50130
#
# Static dielectric constant tensor:
#      x y z
#    x 1.596510 0.000000 0.003900 
#    y 0.000000 1.579190 0.000000 
#    z 0.003900 0.000000 1.594470 
# 
# From -- ./inp_files/25835.got.cif
#   From: 2010.05.17/outbox.cif.g08.bks.cpg/sg10_13_cif.got.tgz:25835.got - 2010.06.03 11:33:40.
