data_PCOD9153054
_publ_section_title
;
Structure prediction by ZEFSAII (Michael W. Deem and Ramdas Pophale) SiO2 
 PCOD9153054
Probable space group: P 2/M
;
_chemical_formula_sum "Si O2"
_cell_formula_units_Z 19
_cell_length_a 9.535873
_cell_length_b 23.272415
_cell_length_c 8.347399
_cell_angle_alpha 90.000000
_cell_angle_beta 147.879044
_cell_angle_gamma 90.000000
_cell_volume 984.978133
_symmetry_space_group_name_H-M "P 2/M"
_symmetry_group_IT_number 10
_symmetry_cell_setting 'monoclinic'
loop_
_space_group_symop_operation_xyz
x,y,z
-x,y,-z
-x,-y,-z
x,-y,z
loop_
_atom_site_type_symbol
_atom_site_label
_atom_site_fract_x
_atom_site_fract_y
_atom_site_fract_z
Si Si1 0.920899 0.673443 0.736514
Si Si2 0.261659 0.500000 0.145383
Si Si3 0.757400 0.882022 0.357778
Si Si4 0.415453 0.387653 0.100811
Si Si5 0.000000 0.000000 0.500000
Si Si6 0.760973 0.200725 0.650414
O O1 0.672456 0.634473 0.445812
O O2 0.838664 0.739739 0.640121
O O3 0.000000 0.664407 0.000000
O O4 0.179888 0.658525 0.885209
O O5 0.500000 0.500000 0.500000
O O6 0.294037 0.444106 0.065943
O O7 0.000000 0.500000 0.000000
O O8 0.848013 0.948421 0.454130
O O9 0.713267 0.850392 0.480843
O O10 0.000000 0.851950 0.500000
O O11 0.500000 0.879572 0.000000
O O12 0.500000 0.398008 0.000000
O O13 0.500000 0.212203 0.500000
O O14 0.000000 0.185687 0.000000
#
# Coordination Sequence:
#
# PCOD9153054 Si02
#       6
#     4   2   4   4   1   4
#     4  11  23  42  64  88 126 170 204 250 318 385
#     4  12  25  42  67  90 121 170 213 248 315 382
#     4  10  21  39  65  88 123 165 209 249 305 373
#     4  12  25  42  64  95 127 157 211 267 310 359
#     4   8  22  40  66  86 130 164 214 240 318 360
#     4  11  23  40  62  93 127 161 207 262 312 363
#
# _framework density 19.289770000000001
#
# number of rings (size 3 to 8) (size 9 to 14) (size 15 to 20)
#    0.632    0.421    0.000    8.842    0.000    2.526 
#    0.000    4.211    0.000    0.000    0.000    0.000 
#    0.000    0.000    0.000    0.000    0.000    0.000 
#
# Total GULP energy -105898.267218 kJ/mol
# GULP energy per Si atom -5573.593011 kJ/mol
# Density = 1.924587 g / cm^3
# Si number density = 19.289770 Si / 1000 Ang^3
#
#
#
# Elastic Constant Matrix: (Units=GPa)
#
#
# Indices 1 2 3 4 5 6 
#
# 1 125.0595 75.7266 42.9350 0.0000 19.7545 0.0000
# 2 75.7266 131.3678 57.1138 0.0000 -8.6978 0.0000
# 3 42.9350 57.1138 104.5008 0.0000 16.7701 0.0000
# 4 0.0000 0.0000 0.0000 14.2884 0.0000 11.7136
# 5 19.7545 -8.6978 16.7701 0.0000 34.3295 0.0000
# 6 0.0000 0.0000 0.0000 11.7136 0.0000 41.1386
#
#
#
# Elastic Compliance Matrix: (Units=1/GPa)
#
#
# Indices 1 2 3 4 5 6 
#
# 1 0.015911 -0.010515 0.001201 0.000000 -0.012407 0.000000
# 2 -0.010515 0.018052 -0.007868 0.000000 0.014468 0.000000
# 3 0.001201 -0.007868 0.014981 0.000000 -0.010003 0.000000
# 4 0.000000 0.000000 0.000000 0.091298 0.000000 -0.025996
# 5 -0.012407 0.014468 -0.010003 0.000000 0.044821 0.000000
# 6 0.000000 0.000000 0.000000 -0.025996 0.000000 0.031710
#
#
# Mechanical properties :
#
#
# Convention : Reuss Voigt Hill
#
# Bulk Modulus (GPa) = 68.58732 79.16432 73.87582
# Shear Modulus (GPa) = 19.53139 30.29480 24.91310
#
# Velocity S-wave (km/s) = 3.18547 3.96727 3.59767
# Velocity P-wave (km/s) = 7.01164 7.88126 7.45914
#
# Compressibility (1/GPa) = 0.01457995
#
# Stress axis : x y z
#
# Youngs Moduli (GPa) = 62.84965 55.39443 66.75024
#
# Poissons Ratio (x) = 0.58249 -0.08016
# Poissons Ratio (y) = 0.66089 0.52518
# Poissons Ratio (z) = -0.07548 0.43583
#
# Static dielectric constant tensor:
#      x y z
#    x 1.659470 0.000000 0.009430 
#    y 0.000000 1.670720 0.000000 
#    z 0.009430 0.000000 1.673020 
# 
# From -- ./inp_files/20679.got.cif
#   From: 2010.05.17/outbox.cif.g08.bks.cpg/sg10_11_cif.got.tgz:20679.got - 2010.06.03 11:33:40.
