data_PCOD9153018
_publ_section_title
;
Structure prediction by ZEFSAII (Michael W. Deem and Ramdas Pophale) SiO2 
 PCOD9153018
Probable space group: P 2/M
;
_chemical_formula_sum "Si O2"
_cell_formula_units_Z 26
_cell_length_a 20.728840
_cell_length_b 11.106545
_cell_length_c 5.807961
_cell_angle_alpha 90.000000
_cell_angle_beta 62.058850
_cell_angle_gamma 90.000000
_cell_volume 1181.270850
_symmetry_space_group_name_H-M "P 2/M"
_symmetry_group_IT_number 10
_symmetry_cell_setting 'monoclinic'
loop_
_space_group_symop_operation_xyz
x,y,z
-x,y,-z
-x,-y,-z
x,-y,z
loop_
_atom_site_type_symbol
_atom_site_label
_atom_site_fract_x
_atom_site_fract_y
_atom_site_fract_z
Si Si1 0.893949 0.500000 0.251164
Si Si2 0.811143 0.681758 0.064387
Si Si3 0.582118 0.631535 0.765813
Si Si4 0.190375 0.139510 0.564091
Si Si5 0.928833 0.280684 0.481708
Si Si6 0.311066 0.726967 0.053274
Si Si7 0.415808 0.136108 0.559105
O O1 0.838884 0.602327 0.228974
O O2 0.942809 0.393015 0.290835
O O3 0.807755 0.815339 0.175821
O O4 0.734090 0.659406 0.071850
O O5 0.871752 0.668421 0.766199
O O6 0.590538 0.500000 0.634693
O O7 0.593794 0.752350 0.598785
O O8 0.500000 0.637004 0.000000
O O9 0.638302 0.640980 0.882088
O O10 0.112467 0.175532 0.584587
O O11 0.204385 0.000000 0.522910
O O12 0.251186 0.212543 0.319497
O O13 0.000000 0.241854 0.500000
O O14 0.362112 0.829558 0.857170
O O15 0.500000 0.138595 0.500000
O O16 0.400683 0.000000 0.497207
#
# Coordination Sequence:
#
# PCOD9153018 Si02
#       7
#     2   4   4   4   4   4   4
#     4  10  21  39  63  95 130 168 215 261 316 382
#     4  10  23  40  62  92 126 171 215 260 321 387
#     4  11  25  44  66  96 135 175 220 276 345 408
#     4  10  23  43  65  93 129 170 216 264 321 388
#     4  10  22  40  64  96 131 167 210 265 321 377
#     4  11  23  43  65  97 128 172 218 277 331 393
#     4  11  24  43  68  97 127 169 224 281 338 397
#
# _framework density 22.010193999999998
#
# number of rings (size 3 to 8) (size 9 to 14) (size 15 to 20)
#    0.000    1.538    1.538    2.077    1.077   10.154 
#   13.846    0.769    0.000    0.000    0.000    0.000 
#    0.000    0.000    0.000    0.000    0.000    0.000 
#
# Total GULP energy -144786.651413 kJ/mol
# GULP energy per Si atom -5568.717362 kJ/mol
# Density = 2.196010 g / cm^3
# Si number density = 22.010194 Si / 1000 Ang^3
#
#
#
# Elastic Constant Matrix: (Units=GPa)
#
#
# Indices 1 2 3 4 5 6 
#
# 1 126.4579 8.9217 11.9793 0.0000 8.7847 0.0000
# 2 8.9217 117.6420 24.3700 0.0000 12.7851 0.0000
# 3 11.9793 24.3700 61.5043 0.0000 -5.4064 0.0000
# 4 0.0000 0.0000 0.0000 1304.3607 0.0000-1338.7815
# 5 8.7847 12.7851 -5.4064 0.0000 27.0028 0.0000
# 6 0.0000 0.0000 0.0000-1338.7815 0.0000 1408.5615
#
#
#
# Elastic Compliance Matrix: (Units=1/GPa)
#
#
# Indices 1 2 3 4 5 6 
#
# 1 0.008302 0.000113 -0.001938 0.000000 -0.003142 0.000000
# 2 0.000113 0.010043 -0.004502 0.000000 -0.005693 0.000000
# 3 -0.001938 -0.004502 0.018997 0.000000 0.006566 0.000000
# 4 0.000000 0.000000 0.000000 0.031346 0.000000 0.029793
# 5 -0.003142 -0.005693 0.006566 0.000000 0.042066 0.000000
# 6 0.000000 0.000000 0.000000 0.029793 0.000000 0.029027
#
#
# Mechanical properties :
#
#
# Convention : Reuss Voigt Hill
#
# Bulk Modulus (GPa) = 40.50391 44.01622 42.26007
# Shear Modulus (GPa) = 31.12094 565.34055 298.23075
#
# Velocity S-wave (km/s) = 3.76431 16.04405 11.65293
# Velocity P-wave (km/s) = 6.11029 19.05930 14.15261
#
# Compressibility (1/GPa) = 0.02468897
#
# Stress axis : x y z
#
# Youngs Moduli (GPa) = 120.45779 99.57074 52.63860
#
# Poissons Ratio (x) = -0.01129 0.10202
# Poissons Ratio (y) = -0.01366 0.23698
# Poissons Ratio (z) = 0.23346 0.44826
#
# Static dielectric constant tensor:
#      x y z
#    x 1.796690 0.000000 0.014800 
#    y 0.000000 1.884030 0.000000 
#    z 0.014800 0.000000 1.857550 
# 
# From -- ./inp_files/12353.got.cif
#   From: 2010.05.17/outbox.cif.g08.bks.cpg/sg10_7_cif.got.tgz:12353.got - 2010.06.03 11:33:40.
