data_PCOD9153827
_publ_section_title
;
Structure prediction by ZEFSAII (Michael W. Deem and Ramdas Pophale) SiO2 
 PCOD9153827
Probable space group: P 2/M
;
_chemical_formula_sum "Si O2"
_cell_formula_units_Z 28
_cell_length_a 17.577121
_cell_length_b 7.857998
_cell_length_c 11.597258
_cell_angle_alpha 90.000000
_cell_angle_beta 109.678002
_cell_angle_gamma 90.000000
_cell_volume 1508.277938
_symmetry_space_group_name_H-M "P 2/M"
_symmetry_group_IT_number 10
_symmetry_cell_setting 'monoclinic'
loop_
_space_group_symop_operation_xyz
x,y,z
-x,y,-z
-x,-y,-z
x,-y,z
loop_
_atom_site_type_symbol
_atom_site_label
_atom_site_fract_x
_atom_site_fract_y
_atom_site_fract_z
Si Si1 0.149396 0.195881 0.822369
Si Si2 0.841617 0.196376 0.702904
Si Si3 0.442536 0.500000 0.857270
Si Si4 0.686542 0.199204 0.211327
Si Si5 0.315261 0.801646 0.521589
Si Si6 0.012339 0.697437 0.378537
Si Si7 0.909414 0.695348 0.971964
Si Si8 0.556511 0.500000 0.414495
O O1 0.236643 0.255893 0.824624
O O2 0.073051 0.290692 0.729294
O O3 0.142973 0.000000 0.781436
O O4 0.138472 0.208881 0.953395
O O5 0.759978 0.248551 0.596789
O O6 0.917577 0.211522 0.656200
O O7 0.863569 0.298484 0.828076
O O8 0.832533 0.000000 0.732562
O O9 0.386684 0.331048 0.838844
O O10 0.474549 0.500000 0.737714
O O11 0.500000 0.500000 0.000000
O O12 0.711597 0.204877 0.358521
O O13 0.666469 0.000000 0.174451
O O14 0.387757 0.668552 0.546838
O O15 0.337277 0.000000 0.508908
O O16 0.037024 0.500000 0.400327
O O17 0.000000 0.767886 0.500000
O O18 0.919000 0.500000 0.015414
O O19 0.000000 0.766350 0.000000
O O20 0.500000 0.500000 0.500000
#
# Coordination Sequence:
#
# PCOD9153827 Si02
#       8
#     4   4   2   4   4   4   4   2
#     4  11  22  37  57  80 111 151 199 244 289 341
#     4  11  22  37  57  80 111 151 199 244 289 341
#     4  10  22  42  68  95 124 155 191 234 297 368
#     4   9  20  39  63  90 120 154 193 242 295 348
#     4   9  20  39  63  90 120 154 193 242 295 348
#     4  11  23  34  51  80 113 149 193 243 288 337
#     4  11  23  37  53  75 112 160 202 242 292 344
#     4  10  22  42  68  95 124 155 191 234 297 368
#
# _framework density 18.564216999999999
#
# number of rings (size 3 to 8) (size 9 to 14) (size 15 to 20)
#    0.000    1.714    1.429    2.571    4.000    3.429 
#    2.571    0.000    0.000    0.000    0.000    0.000 
#    0.000    0.000    0.000    0.000    0.000    0.000 
#
# Total GULP energy -156217.815069 kJ/mol
# GULP energy per Si atom -5579.207681 kJ/mol
# Density = 1.852196 g / cm^3
# Si number density = 18.564217 Si / 1000 Ang^3
#
#
#
# Elastic Constant Matrix: (Units=GPa)
#
#
# Indices 1 2 3 4 5 6 
#
# 1 99.8405 28.1325 56.5013 0.0000 -19.7098 0.0000
# 2 28.1325 55.9671 25.8408 0.0000 1.7027 0.0000
# 3 56.5013 25.8408 134.6380 0.0000 0.9172 0.0000
# 4 0.0000 0.0000 0.0000 13.4541 0.0000 -7.5067
# 5 -19.7098 1.7027 0.9172 0.0000 29.6881 0.0000
# 6 0.0000 0.0000 0.0000 -7.5067 0.0000 17.3035
#
#
#
# Elastic Compliance Matrix: (Units=1/GPa)
#
#
# Indices 1 2 3 4 5 6 
#
# 1 0.017878 -0.006432 -0.006353 0.000000 0.012434 0.000000
# 2 -0.006432 0.021949 -0.001476 0.000000 -0.005483 0.000000
# 3 -0.006353 -0.001476 0.010407 0.000000 -0.004455 0.000000
# 4 0.000000 0.000000 0.000000 0.098064 0.000000 0.042543
# 5 0.012434 -0.005483 -0.004455 0.000000 0.042391 0.000000
# 6 0.000000 0.000000 0.000000 0.042543 0.000000 0.076248
#
#
# Mechanical properties :
#
#
# Convention : Reuss Voigt Hill
#
# Bulk Modulus (GPa) = 46.05630 56.82165 51.43898
# Shear Modulus (GPa) = 16.51822 24.08720 20.30271
#
# Velocity S-wave (km/s) = 2.98617 3.60600 3.31062
# Velocity P-wave (km/s) = 6.06240 6.92909 6.51018
#
# Compressibility (1/GPa) = 0.02171256
#
# Stress axis : x y z
#
# Youngs Moduli (GPa) = 55.93399 45.56008 96.08898
#
# Poissons Ratio (x) = 0.29303 0.61045
# Poissons Ratio (y) = 0.35975 0.14185
# Poissons Ratio (z) = 0.35534 0.06726
#
# Static dielectric constant tensor:
#      x y z
#    x 1.616680 0.000000 -0.013050 
#    y 0.000000 1.647160 0.000000 
#    z -0.013050 0.000000 1.645310 
# 
# From -- ./inp_files/49425.got.cif
#   From: 2010.05.17/outbox.cif.g08.bks.cpg/sg10_25_cif.got.tgz:49425.got - 2010.06.03 11:33:40.
