data_PCOD9153455
_publ_section_title
;
Structure prediction by ZEFSAII (Michael W. Deem and Ramdas Pophale) SiO2 
 PCOD9153455
Probable space group: P 2/M
;
_chemical_formula_sum "Si O2"
_cell_formula_units_Z 28
_cell_length_a 14.889453
_cell_length_b 18.310249
_cell_length_c 5.213051
_cell_angle_alpha 90.000000
_cell_angle_beta 57.272765
_cell_angle_gamma 90.000000
_cell_volume 1195.616919
_symmetry_space_group_name_H-M "P 2/M"
_symmetry_group_IT_number 10
_symmetry_cell_setting 'monoclinic'
loop_
_space_group_symop_operation_xyz
x,y,z
-x,y,-z
-x,-y,-z
x,-y,z
loop_
_atom_site_type_symbol
_atom_site_label
_atom_site_fract_x
_atom_site_fract_y
_atom_site_fract_z
Si Si1 0.603522 0.077946 0.014589
Si Si2 0.815326 0.082645 0.333549
Si Si3 0.709717 0.808651 0.130432
Si Si4 0.067865 0.379926 0.660074
Si Si5 0.898763 0.219124 0.473119
Si Si6 0.382006 0.666136 0.560637
Si Si7 0.308630 0.416484 0.175548
O O1 0.709779 0.079457 0.675574
O O2 0.605599 0.000000 0.157943
O O3 0.500000 0.078094 0.000000
O O4 0.608260 0.151426 0.167660
O O5 0.775225 0.122927 0.141537
O O6 0.893201 0.142628 0.334283
O O7 0.854572 0.000000 0.238741
O O8 0.672802 0.745779 0.377669
O O9 0.789027 0.774069 0.801410
O O10 0.091408 0.294624 0.693434
O O11 0.183456 0.414514 0.441394
O O12 0.000000 0.382868 0.500000
O O13 0.000000 0.411139 0.000000
O O14 0.000000 0.216145 0.500000
O O15 0.500000 0.674020 0.500000
O O16 0.371648 0.626018 0.304312
O O17 0.321899 0.620739 0.877006
O O18 0.346132 0.500000 0.104555
#
# Coordination Sequence:
#
# PCOD9153455 Si02
#       7
#     4   4   4   4   4   4   4
#     4   9  20  37  58  88 128 174 223 282 350 405
#     4  10  22  38  59  90 131 174 229 287 344 404
#     4  11  23  40  64  94 131 173 232 285 342 400
#     4  11  24  43  74 107 141 181 230 286 351 418
#     4  10  23  40  65  92 127 179 223 283 342 411
#     4  12  28  46  73 106 142 189 240 288 344 418
#     4  12  27  50  75 108 147 183 228 286 349 426
#
# _framework density 23.418873999999999
#
# number of rings (size 3 to 8) (size 9 to 14) (size 15 to 20)
#    0.000    1.286    1.429    3.000   10.000    3.143 
#    0.000    2.857    0.000    0.000    0.000    0.000 
#    0.000    0.000    0.000    0.000    0.000    0.000 
#
# Total GULP energy -156639.636278 kJ/mol
# GULP energy per Si atom -5594.272724 kJ/mol
# Density = 2.336557 g / cm^3
# Si number density = 23.418874 Si / 1000 Ang^3
#
#
#
# Elastic Constant Matrix: (Units=GPa)
#
#
# Indices 1 2 3 4 5 6 
#
# 1 78.2149 11.3262 -6.7284 0.0000 -2.3642 0.0000
# 2 11.3262 136.7487 1.8716 0.0000 8.8537 0.0000
# 3 -6.7284 1.8716 78.8940 0.0000 -4.1542 0.0000
# 4 0.0000 0.0000 0.0000 207.0648 0.0000 -112.4236
# 5 -2.3642 8.8537 -4.1542 0.0000 34.4701 0.0000
# 6 0.0000 0.0000 0.0000 -112.4236 0.0000 88.4608
#
#
#
# Elastic Compliance Matrix: (Units=1/GPa)
#
#
# Indices 1 2 3 4 5 6 
#
# 1 0.013103 -0.001189 0.001217 0.000000 0.001351 0.000000
# 2 -0.001189 0.007550 -0.000389 0.000000 -0.002068 0.000000
# 3 0.001217 -0.000389 0.012880 0.000000 0.001736 0.000000
# 4 0.000000 0.000000 0.000000 0.015579 0.000000 0.019800
# 5 0.001351 -0.002068 0.001736 0.000000 0.029844 0.000000
# 6 0.000000 0.000000 0.000000 0.019800 0.000000 0.036468
#
#
# Mechanical properties :
#
#
# Convention : Reuss Voigt Hill
#
# Bulk Modulus (GPa) = 30.47935 34.08849 32.28392
# Shear Modulus (GPa) = 39.34405 85.15835 62.25120
#
# Velocity S-wave (km/s) = 4.10324 6.03673 5.16133
# Velocity P-wave (km/s) = 5.95751 7.94840 7.02385
#
# Compressibility (1/GPa) = 0.03280909
#
# Stress axis : x y z
#
# Youngs Moduli (GPa) = 76.31830 132.44323 77.64192
#
# Poissons Ratio (x) = 0.15752 -0.09448
# Poissons Ratio (y) = 0.09077 0.03024
# Poissons Ratio (z) = -0.09287 0.05158
#
# Static dielectric constant tensor:
#      x y z
#    x 1.933960 0.000000 0.038850 
#    y 0.000000 1.898900 0.000000 
#    z 0.038850 0.000000 1.897370 
# 
# From -- ./inp_files/9750.got.cif
#   From: 2010.05.17/outbox.cif.g08.bks.cpg/sg10_5_cif.got.tgz:9750.got - 2010.06.03 11:33:40.
