data_PCOD9153766
_publ_section_title
;
Structure prediction by ZEFSAII (Michael W. Deem and Ramdas Pophale) SiO2 
 PCOD9153766
Probable space group: P 2/M
;
_chemical_formula_sum "Si O2"
_cell_formula_units_Z 28
_cell_length_a 23.685468
_cell_length_b 9.028179
_cell_length_c 8.129876
_cell_angle_alpha 90.000000
_cell_angle_beta 44.557292
_cell_angle_gamma 90.000000
_cell_volume 1219.745779
_symmetry_space_group_name_H-M "P 2/M"
_symmetry_group_IT_number 10
_symmetry_cell_setting 'monoclinic'
loop_
_space_group_symop_operation_xyz
x,y,z
-x,y,-z
-x,-y,-z
x,-y,z
loop_
_atom_site_type_symbol
_atom_site_label
_atom_site_fract_x
_atom_site_fract_y
_atom_site_fract_z
Si Si1 0.411633 0.204455 0.222624
Si Si2 0.841782 0.172935 0.381640
Si Si3 0.453798 0.500000 0.322892
Si Si4 0.746003 0.833363 0.264529
Si Si5 0.023954 0.675216 0.713743
Si Si6 0.312895 0.174659 0.087497
Si Si7 0.126467 0.324657 0.168648
Si Si8 0.376170 0.500000 0.842530
O O1 0.432287 0.363945 0.252406
O O2 0.347897 0.157163 0.496886
O O3 0.364108 0.181344 0.151522
O O4 0.500000 0.143238 0.000000
O O5 0.789873 0.231521 0.335660
O O6 0.923850 0.255472 0.250112
O O7 0.779521 0.182039 0.662946
O O8 0.858681 0.000000 0.320431
O O9 0.401771 0.500000 0.598315
O O10 0.545019 0.500000 0.201830
O O11 0.773917 0.000000 0.182321
O O12 0.785907 0.745123 0.033597
O O13 0.015803 0.500000 0.758160
O O14 0.080557 0.696433 0.435138
O O15 0.936946 0.734313 0.837460
O O16 0.325932 0.000000 0.993840
O O17 0.336225 0.335957 0.958388
O O18 0.134781 0.500000 0.128293
#
# Coordination Sequence:
#
# PCOD9153766 Si02
#       8
#     4   4   2   4   4   4   4   2
#     4  11  21  41  67  91 122 166 216 262 313 378
#     4   9  20  37  56  87 120 153 199 249 301 366
#     4  11  24  41  62  97 125 160 215 268 326 388
#     4  10  23  39  58  88 123 153 197 255 309 363
#     4   9  19  37  61  84 115 159 204 241 300 368
#     4  10  22  41  66  93 127 171 217 265 323 388
#     4   9  20  39  58  84 119 156 199 251 297 363
#     4  11  23  44  63  90 136 165 207 275 330 390
#
# _framework density 22.955603
#
# number of rings (size 3 to 8) (size 9 to 14) (size 15 to 20)
#    0.000    2.143    1.429    2.786    2.000    4.571 
#    0.000    8.571    0.000    0.000    0.000    0.000 
#    0.000    0.000    0.000    0.000    0.000    0.000 
#
# Total GULP energy -155981.407549 kJ/mol
# GULP energy per Si atom -5570.764555 kJ/mol
# Density = 2.290336 g / cm^3
# Si number density = 22.955603 Si / 1000 Ang^3
#
#
#
# Elastic Constant Matrix: (Units=GPa)
#
#
# Indices 1 2 3 4 5 6 
#
# 1 77.5212 30.9805 10.0705 0.0000 -17.4106 0.0000
# 2 30.9805 124.0500 49.8720 0.0000 -7.6154 0.0000
# 3 10.0705 49.8720 126.5851 0.0000 -24.7731 0.0000
# 4 0.0000 0.0000 0.0000 -154.7850 0.0000 109.0484
# 5 -17.4106 -7.6154 -24.7731 0.0000 39.6526 0.0000
# 6 0.0000 0.0000 0.0000 109.0484 0.0000 9.1952
#
#
#
# Elastic Compliance Matrix: (Units=1/GPa)
#
#
# Indices 1 2 3 4 5 6 
#
# 1 0.016033 -0.004300 0.001862 0.000000 0.007378 0.000000
# 2 -0.004300 0.010744 -0.004394 0.000000 -0.002570 0.000000
# 3 0.001862 -0.004394 0.010798 0.000000 0.006720 0.000000
# 4 0.000000 0.000000 0.000000 -0.000691 0.000000 0.008190
# 5 0.007378 -0.002570 0.006720 0.000000 0.032163 0.000000
# 6 0.000000 0.000000 0.000000 0.008190 0.000000 0.011625
#
#
# Mechanical properties :
#
#
# Convention : Reuss Voigt Hill
#
# Bulk Modulus (GPa) = 41.81958 56.66694 49.24326
# Shear Modulus (GPa) = 48.87325 -5.37191 21.75067
#
# Velocity S-wave (km/s) = 4.61915 -1.53141 3.08150
# Velocity P-wave (km/s) = 6.83417 4.64888 5.84457
#
# Compressibility (1/GPa) = 0.02391224
#
# Stress axis : x y z
#
# Youngs Moduli (GPa) = 62.37082 93.07700 92.61173
#
# Poissons Ratio (x) = 0.40023 -0.17248
# Poissons Ratio (y) = 0.26819 0.40690
# Poissons Ratio (z) = -0.11616 0.40895
#
# Static dielectric constant tensor:
#      x y z
#    x 1.894970 0.000000 0.043080 
#    y 0.000000 1.836540 0.000000 
#    z 0.043080 0.000000 1.897250 
# 
# From -- ./inp_files/37203.got.cif
#   From: 2010.05.17/outbox.cif.g08.bks.cpg/sg10_19_cif.got.tgz:37203.got - 2010.06.03 11:33:40.
