data_PCOD9153053
_publ_section_title
;
Structure prediction by ZEFSAII (Michael W. Deem and Ramdas Pophale) SiO2 
 PCOD9153053
Probable space group: P 2/M
;
_chemical_formula_sum "Si O2"
_cell_formula_units_Z 28
_cell_length_a 8.301848
_cell_length_b 13.879512
_cell_length_c 13.358068
_cell_angle_alpha 90.000000
_cell_angle_beta 131.346775
_cell_angle_gamma 90.000000
_cell_volume 1155.509565
_symmetry_space_group_name_H-M "P 2/M"
_symmetry_group_IT_number 10
_symmetry_cell_setting 'monoclinic'
loop_
_space_group_symop_operation_xyz
x,y,z
-x,y,-z
-x,-y,-z
x,-y,z
loop_
_atom_site_type_symbol
_atom_site_label
_atom_site_fract_x
_atom_site_fract_y
_atom_site_fract_z
Si Si1 0.493174 0.616169 0.167292
Si Si2 0.171030 0.613805 0.868004
Si Si3 0.114033 0.195955 0.443922
Si Si4 0.942049 0.888530 0.790015
Si Si5 0.592404 0.112081 0.935956
Si Si6 0.246532 0.388100 0.412160
Si Si7 0.538320 0.786183 0.709162
O O1 0.493331 0.500000 0.184141
O O2 0.692516 0.642356 0.175133
O O3 0.493504 0.675164 0.270513
O O4 0.283856 0.648650 0.016062
O O5 0.212319 0.500000 0.889340
O O6 0.916244 0.623903 0.749421
O O7 0.000000 0.171543 0.500000
O O8 0.015172 0.145984 0.306129
O O9 0.134719 0.311249 0.438693
O O10 0.765416 0.817173 0.760215
O O11 0.152679 0.883364 0.944501
O O12 0.869898 0.000000 0.760361
O O13 0.528465 0.000000 0.905088
O O14 0.500000 0.154703 0.000000
O O15 0.511231 0.162081 0.804282
O O16 0.500000 0.366248 0.500000
O O17 0.231624 0.500000 0.437017
O O18 0.364018 0.171964 0.561165
#
# Coordination Sequence:
#
# PCOD9153053 Si02
#       7
#     4   4   4   4   4   4   4
#     4   9  19  35  61 100 140 180 232 280 329 389
#     4   8  16  34  61  94 134 186 236 279 325 382
#     4  12  27  45  68 101 133 174 233 280 337 407
#     4  11  26  49  72  96 133 175 218 280 351 414
#     4  10  23  44  71 101 131 170 223 278 336 403
#     4  10  21  39  64  96 141 186 225 271 329 399
#     4  12  24  39  68 104 136 178 218 277 341 402
#
# _framework density 24.231732999999998
#
# number of rings (size 3 to 8) (size 9 to 14) (size 15 to 20)
#    0.000    1.714    0.000    4.714    4.000    4.000 
#    2.571    0.714    0.000    1.714    0.000    0.000 
#    0.000    0.000    0.000    0.000    0.000    0.000 
#
# Total GULP energy -156566.347484 kJ/mol
# GULP energy per Si atom -5591.655267 kJ/mol
# Density = 2.417658 g / cm^3
# Si number density = 24.231733 Si / 1000 Ang^3
#
#
#
# Elastic Constant Matrix: (Units=GPa)
#
#
# Indices 1 2 3 4 5 6 
#
# 1 42.5648 11.4512 -2.5157 0.0000 6.4209 0.0000
# 2 11.4512 106.2262 6.6121 0.0000 -5.2338 0.0000
# 3 -2.5157 6.6121 78.9755 0.0000 11.4077 0.0000
# 4 0.0000 0.0000 0.0000 -0.9088 0.0000 9.8911
# 5 6.4209 -5.2338 11.4077 0.0000 40.8077 0.0000
# 6 0.0000 0.0000 0.0000 9.8911 0.0000 16.0980
#
#
#
# Elastic Compliance Matrix: (Units=1/GPa)
#
#
# Indices 1 2 3 4 5 6 
#
# 1 0.025151 -0.003059 0.001756 0.000000 -0.004841 0.000000
# 2 -0.003059 0.009924 -0.001231 0.000000 0.002098 0.000000
# 3 0.001756 -0.001231 0.013426 0.000000 -0.004188 0.000000
# 4 0.000000 0.000000 0.000000 -0.143139 0.000000 0.087949
# 5 -0.004841 0.002098 -0.004188 0.000000 0.026707 0.000000
# 6 0.000000 0.000000 0.000000 0.087949 0.000000 0.008081
#
#
# Mechanical properties :
#
#
# Convention : Reuss Voigt Hill
#
# Bulk Modulus (GPa) = 23.02430 28.76242 25.89336
# Shear Modulus (GPa) = -124.05131 25.34730 -49.35201
#
# Velocity S-wave (km/s) = -7.16274 3.23776 -4.51784
# Velocity P-wave (km/s) = 7.67360 5.08655 4.06271
#
# Compressibility (1/GPa) = 0.04343237
#
# Stress axis : x y z
#
# Youngs Moduli (GPa) = 39.76050 100.76911 74.48199
#
# Poissons Ratio (x) = 0.30826 -0.13083
# Poissons Ratio (y) = 0.12163 0.09172
# Poissons Ratio (z) = -0.06984 0.12409
#
# Static dielectric constant tensor:
#      x y z
#    x 1.945390 0.000000 0.028060 
#    y 0.000000 1.942100 0.000000 
#    z 0.028060 0.000000 1.944490 
# 
# From -- ./inp_files/42747.got.cif
#   From: 2010.05.17/outbox.cif.g08.bks.cpg/sg10_22_cif.got.tgz:42747.got - 2010.06.03 11:33:40.
