data_PCOD9153370
_publ_section_title
;
Structure prediction by ZEFSAII (Michael W. Deem and Ramdas Pophale) SiO2 
 PCOD9153370
Probable space group: P 2/M
;
_chemical_formula_sum "Si O2"
_cell_formula_units_Z 16
_cell_length_a 7.383668
_cell_length_b 8.390572
_cell_length_c 9.651597
_cell_angle_alpha 90.000000
_cell_angle_beta 99.217634
_cell_angle_gamma 90.000000
_cell_volume 590.226013
_symmetry_space_group_name_H-M "P 2/M"
_symmetry_group_IT_number 10
_symmetry_cell_setting 'monoclinic'
loop_
_space_group_symop_operation_xyz
x,y,z
-x,y,-z
-x,-y,-z
x,-y,z
loop_
_atom_site_type_symbol
_atom_site_label
_atom_site_fract_x
_atom_site_fract_y
_atom_site_fract_z
Si Si1 0.220334 0.000000 0.052562
Si Si2 0.519938 0.000000 0.670109
Si Si3 0.721153 0.303851 0.348928
Si Si4 0.779377 0.667317 0.957828
Si Si5 0.878806 0.319088 0.663767
O O1 0.282112 0.000000 0.224013
O O2 0.290449 0.164859 0.998438
O O3 0.000000 0.000000 0.000000
O O4 0.500000 0.000000 0.500000
O O5 0.422046 0.165298 0.705262
O O6 0.678675 0.500000 0.329784
O O7 0.914089 0.255936 0.297720
O O8 0.766082 0.267656 0.516739
O O9 0.707693 0.500000 0.006140
O O10 0.766500 0.672564 0.790355
O O11 0.000000 0.662698 0.000000
O O12 0.923468 0.500000 0.633083
#
# Coordination Sequence:
#
# PCOD9153370 Si02
#       5
#     2   2   4   4   4
#     4  10  22  37  51  73 107 143 179 218 265 323
#     4  12  24  34  53  85 108 136 185 226 268 317
#     4   9  19  34  52  78 112 141 169 217 270 318
#     4   9  17  31  54  78  99 133 179 219 255 306
#     4   8  15  31  54  80 109 141 174 209 266 328
#
# _framework density 27.108259
#
# number of rings (size 3 to 8) (size 9 to 14) (size 15 to 20)
#    0.000    2.750    0.000    3.000    0.000    4.500 
#    0.000    0.000    0.000   12.000    0.000   22.750 
#    0.000    0.000    0.000    0.000    0.000    0.000 
#
# Total GULP energy -89159.361307 kJ/mol
# GULP energy per Si atom -5572.460082 kJ/mol
# Density = 2.704656 g / cm^3
# Si number density = 27.108259 Si / 1000 Ang^3
#
#
#
# Elastic Constant Matrix: (Units=GPa)
#
#
# Indices 1 2 3 4 5 6 
#
# 1 102.3454 52.6922 47.6327 0.0000 32.3963 0.0000
# 2 52.6922 264.9809 16.4658 0.0000 19.5931 0.0000
# 3 47.6327 16.4658 161.0222 0.0000 1.4224 0.0000
# 4 0.0000 0.0000 0.0000 55.6261 0.0000 22.5596
# 5 32.3963 19.5931 1.4224 0.0000 46.8575 0.0000
# 6 0.0000 0.0000 0.0000 22.5596 0.0000 19.7675
#
#
#
# Elastic Compliance Matrix: (Units=1/GPa)
#
#
# Indices 1 2 3 4 5 6 
#
# 1 0.016194 -0.002192 -0.004477 0.000000 -0.010143 0.000000
# 2 -0.002192 0.004215 0.000220 0.000000 -0.000254 0.000000
# 3 -0.004477 0.000220 0.007488 0.000000 0.002776 0.000000
# 4 0.000000 0.000000 0.000000 0.033467 0.000000 -0.038194
# 5 -0.010143 -0.000254 0.002776 0.000000 0.028376 0.000000
# 6 0.000000 0.000000 0.000000 -0.038194 0.000000 0.094177
#
#
# Mechanical properties :
#
#
# Convention : Reuss Voigt Hill
#
# Bulk Modulus (GPa) = 66.67420 84.65889 75.66655
# Shear Modulus (GPa) = 24.77531 51.88740 38.33135
#
# Velocity S-wave (km/s) = 3.02642 4.37977 3.76441
# Velocity P-wave (km/s) = 6.07135 7.54150 6.84600
#
# Compressibility (1/GPa) = 0.01499831
#
# Stress axis : x y z
#
# Youngs Moduli (GPa) = 61.75277 237.25727 133.55467
#
# Poissons Ratio (x) = 0.52006 0.59786
# Poissons Ratio (y) = 0.13536 -0.02934
# Poissons Ratio (z) = 0.27644 -0.05211
#
# Static dielectric constant tensor:
#      x y z
#    x 2.103210 0.000000 0.058970 
#    y 0.000000 2.211260 0.000000 
#    z 0.058970 0.000000 2.176390 
# 
# From -- ./inp_files/16600.got.cif
#   From: 2010.05.17/outbox.cif.g08.bks.cpg/sg10_9_cif.got.tgz:16600.got - 2010.06.03 11:33:40.
