data_PCOD9153583
_publ_section_title
;
Structure prediction by ZEFSAII (Michael W. Deem and Ramdas Pophale) SiO2 
 PCOD9153583
Probable space group: P 2/M
;
_chemical_formula_sum "Si O2"
_cell_formula_units_Z 29
_cell_length_a 8.249811
_cell_length_b 17.622231
_cell_length_c 14.533172
_cell_angle_alpha 90.000000
_cell_angle_beta 140.910141
_cell_angle_gamma 90.000000
_cell_volume 1332.222830
_symmetry_space_group_name_H-M "P 2/M"
_symmetry_group_IT_number 10
_symmetry_cell_setting 'monoclinic'
loop_
_space_group_symop_operation_xyz
x,y,z
-x,y,-z
-x,-y,-z
x,-y,z
loop_
_atom_site_type_symbol
_atom_site_label
_atom_site_fract_x
_atom_site_fract_y
_atom_site_fract_z
Si Si1 0.658078 0.858113 0.162030
Si Si2 0.787093 0.584932 0.666013
Si Si3 0.506365 0.695035 0.905792
Si Si4 0.830859 0.411569 0.339060
Si Si5 0.855597 0.909778 0.530887
Si Si6 0.000000 0.000000 0.000000
Si Si7 0.072954 0.290846 0.126435
Si Si8 0.644634 0.132139 0.779585
O O1 0.679676 0.767020 0.175648
O O2 0.496959 0.880264 0.183084
O O3 0.946338 0.889673 0.300519
O O4 0.500000 0.879923 0.000000
O O5 0.500000 0.586475 0.500000
O O6 0.830975 0.500000 0.724358
O O7 0.815718 0.651734 0.751320
O O8 0.990083 0.595145 0.672407
O O9 0.417803 0.639856 0.786678
O O10 0.500000 0.651252 0.000000
O O11 0.786146 0.732507 0.029188
O O12 0.764723 0.500000 0.323426
O O13 0.000000 0.386260 0.500000
O O14 0.570875 0.876515 0.394637
O O15 0.000000 0.885079 0.500000
O O16 0.828271 0.000000 0.515883
O O17 0.859319 0.067313 0.875385
O O18 0.237427 0.216160 0.177903
O O19 0.000000 0.333268 0.000000
#
# Coordination Sequence:
#
# PCOD9153583 Si02
#       8
#     4   4   4   4   4   1   4   4
#     4  10  22  39  63  95 133 167 214 282 338 398
#     4  10  24  45  67  98 140 181 222 279 344 404
#     4  11  22  41  63  93 128 170 220 273 331 392
#     4  10  23  42  68  98 130 173 225 277 335 400
#     4   9  19  37  63  94 124 163 218 269 328 407
#     4  12  20  40  72  86 132 180 226 292 342 408
#     4  12  24  42  65  97 135 176 231 276 335 409
#     4  11  22  41  66  98 129 180 227 275 345 411
#
# _framework density 21.768131
#
# number of rings (size 3 to 8) (size 9 to 14) (size 15 to 20)
#    0.000    1.517    4.138    0.000    2.897    4.138 
#    0.000    0.000    0.000    0.828    0.000    0.000 
#    0.000    0.000    0.000    0.069    0.000    0.000 
#
# Total GULP energy -161576.087971 kJ/mol
# GULP energy per Si atom -5571.589240 kJ/mol
# Density = 2.171859 g / cm^3
# Si number density = 21.768131 Si / 1000 Ang^3
#
#
#
# Elastic Constant Matrix: (Units=GPa)
#
#
# Indices 1 2 3 4 5 6 
#
# 1 28.8183 12.5920 20.8874 0.0000 4.8019 0.0000
# 2 12.5920 72.4945 53.6027 0.0000 0.7971 0.0000
# 3 20.8874 53.6027 166.7589 0.0000 7.8728 0.0000
# 4 0.0000 0.0000 0.0000 42.3032 0.0000 3.9154
# 5 4.8019 0.7971 7.8728 0.0000 34.4321 0.0000
# 6 0.0000 0.0000 0.0000 3.9154 0.0000 6.9568
#
#
#
# Elastic Compliance Matrix: (Units=1/GPa)
#
#
# Indices 1 2 3 4 5 6 
#
# 1 0.039831 -0.004383 -0.003359 0.000000 -0.004685 0.000000
# 2 -0.004383 0.018606 -0.005500 0.000000 0.001438 0.000000
# 3 -0.003359 -0.005500 0.008246 0.000000 -0.001290 0.000000
# 4 0.000000 0.000000 0.000000 0.024938 0.000000 -0.014035
# 5 -0.004685 0.001438 -0.001290 0.000000 0.029958 0.000000
# 6 0.000000 0.000000 0.000000 -0.014035 0.000000 0.151643
#
#
# Mechanical properties :
#
#
# Convention : Reuss Voigt Hill
#
# Bulk Modulus (GPa) = 24.87606 49.13733 37.00669
# Shear Modulus (GPa) = 15.96911 28.80439 22.38675
#
# Velocity S-wave (km/s) = 2.71144 3.64158 3.21038
# Velocity P-wave (km/s) = 4.61033 6.34851 5.54791
#
# Compressibility (1/GPa) = 0.04019929
#
# Stress axis : x y z
#
# Youngs Moduli (GPa) = 25.10628 53.74579 121.27022
#
# Poissons Ratio (x) = 0.23559 0.40732
# Poissons Ratio (y) = 0.11005 0.66693
# Poissons Ratio (z) = 0.08433 0.29558
#
# Static dielectric constant tensor:
#      x y z
#    x 1.975220 0.000000 0.006940 
#    y 0.000000 1.742230 0.000000 
#    z 0.006940 0.000000 1.807750 
# 
# From -- ./inp_files/62383.got.cif
#   From: 2010.05.17/outbox.cif.g08.bks.cpg/sg10_32_cif.got.tgz:62383.got - 2010.06.03 11:33:40.
