data_PCOD9153329
_publ_section_title
;
Structure prediction by ZEFSAII (Michael W. Deem and Ramdas Pophale) SiO2 
 PCOD9153329
Probable space group: P 2/M
;
_chemical_formula_sum "Si O2"
_cell_formula_units_Z 16
_cell_length_a 5.189397
_cell_length_b 22.612048
_cell_length_c 4.925739
_cell_angle_alpha 90.000000
_cell_angle_beta 87.366164
_cell_angle_gamma 90.000000
_cell_volume 577.389874
_symmetry_space_group_name_H-M "P 2/M"
_symmetry_group_IT_number 10
_symmetry_cell_setting 'monoclinic'
loop_
_space_group_symop_operation_xyz
x,y,z
-x,y,-z
-x,-y,-z
x,-y,z
loop_
_atom_site_type_symbol
_atom_site_label
_atom_site_fract_x
_atom_site_fract_y
_atom_site_fract_z
Si Si1 0.819430 0.129614 0.779040
Si Si2 0.239247 0.307282 0.196160
Si Si3 0.242496 0.562706 0.191077
Si Si4 0.500000 0.785992 0.500000
Si Si5 0.742261 0.000000 0.689983
O O1 0.563170 0.166228 0.728915
O O2 0.751861 0.061660 0.848211
O O3 0.000000 0.130084 0.500000
O O4 0.000000 0.156418 0.000000
O O5 0.238158 0.373128 0.326362
O O6 0.273249 0.259909 0.434482
O O7 0.500000 0.300857 0.000000
O O8 0.000000 0.301197 0.000000
O O9 0.242061 0.500000 0.347845
O O10 0.500000 0.562750 0.000000
O O11 0.000000 0.562223 0.000000
O O12 0.500000 0.000000 0.500000
O O13 0.000000 0.000000 0.500000
#
# Coordination Sequence:
#
# PCOD9153329 Si02
#       5
#     4   4   4   2   2
#     4  11  26  46  72 103 140 183 232 287 345 410
#     4  10  23  40  61  89 128 172 220 277 337 404
#     4   8  14  29  54  82 113 157 211 269 331 393
#     4  12  26  39  65  92 138 174 232 270 346 404
#     4  10  21  48  72 107 139 181 228 292 344 407
#
# _framework density 27.710916000000001
#
# number of rings (size 3 to 8) (size 9 to 14) (size 15 to 20)
#    0.000    2.000    1.250    1.125    7.000    0.000 
#    0.000    3.125    0.000    0.000    0.000   17.500 
#    0.000    0.000    0.000    0.000    0.000    0.000 
#
# Total GULP energy -89493.057876 kJ/mol
# GULP energy per Si atom -5593.316117 kJ/mol
# Density = 2.764784 g / cm^3
# Si number density = 27.710916 Si / 1000 Ang^3
#
#
#
# Elastic Constant Matrix: (Units=GPa)
#
#
# Indices 1 2 3 4 5 6 
#
# 1 215.1878 2.6380 63.0575 0.0000 22.9464 0.0000
# 2 2.6380 280.8363 47.9025 0.0000 31.4128 0.0000
# 3 63.0575 47.9025 149.6851 0.0000 44.8151 0.0000
# 4 0.0000 0.0000 0.0000 14.5866 0.0000 37.7679
# 5 22.9464 31.4128 44.8151 0.0000 78.2267 0.0000
# 6 0.0000 0.0000 0.0000 37.7679 0.0000 5.0464
#
#
#
# Elastic Compliance Matrix: (Units=1/GPa)
#
#
# Indices 1 2 3 4 5 6 
#
# 1 0.005346 0.000381 -0.002244 0.000000 -0.000436 0.000000
# 2 0.000381 0.003858 -0.001084 0.000000 -0.001040 0.000000
# 3 -0.002244 -0.001084 0.009228 0.000000 -0.004193 0.000000
# 4 0.000000 0.000000 0.000000 -0.003730 0.000000 0.027918
# 5 -0.000436 -0.001040 -0.004193 0.000000 0.015731 0.000000
# 6 0.000000 0.000000 0.000000 0.027918 0.000000 -0.010783
#
#
# Mechanical properties :
#
#
# Convention : Reuss Voigt Hill
#
# Bulk Modulus (GPa) = 79.74331 96.98946 88.36639
# Shear Modulus (GPa) = 168.21087 55.04602 111.62844
#
# Velocity S-wave (km/s) = 7.79960 4.46178 6.35379
# Velocity P-wave (km/s) = 10.48576 7.84983 9.26204
#
# Compressibility (1/GPa) = 0.01254024
#
# Stress axis : x y z
#
# Youngs Moduli (GPa) = 187.04107 259.17072 108.36265
#
# Poissons Ratio (x) = -0.09881 0.24314
# Poissons Ratio (y) = -0.07131 0.11746
# Poissons Ratio (z) = 0.41968 0.28093
#
# Static dielectric constant tensor:
#      x y z
#    x 2.267550 0.000000 -0.205430 
#    y 0.000000 2.195620 0.000000 
#    z -0.205430 0.000000 2.199660 
# 
# From -- ./inp_files/1652.got.cif
#   From: 2010.05.17/outbox.cif.g08.bks.cpg/sg10_1_cif.got.tgz:1652.got - 2010.06.03 11:33:40.
