data_PCOD9153187
_publ_section_title
;
Structure prediction by ZEFSAII (Michael W. Deem and Ramdas Pophale) SiO2 
 PCOD9153187
Probable space group: P 2/M
;
_chemical_formula_sum "Si O2"
_cell_formula_units_Z 28
_cell_length_a 11.165674
_cell_length_b 8.574459
_cell_length_c 15.091371
_cell_angle_alpha 90.000000
_cell_angle_beta 112.895639
_cell_angle_gamma 90.000000
_cell_volume 1331.010183
_symmetry_space_group_name_H-M "P 2/M"
_symmetry_group_IT_number 10
_symmetry_cell_setting 'monoclinic'
loop_
_space_group_symop_operation_xyz
x,y,z
-x,y,-z
-x,-y,-z
x,-y,z
loop_
_atom_site_type_symbol
_atom_site_label
_atom_site_fract_x
_atom_site_fract_y
_atom_site_fract_z
Si Si1 0.390074 0.821354 0.156086
Si Si2 0.312171 0.322948 0.958182
Si Si3 0.681001 0.816047 0.233143
Si Si4 0.045909 0.175434 0.911708
Si Si5 0.203096 0.318617 0.239589
Si Si6 0.347564 0.811092 0.453001
Si Si7 0.849824 0.809885 0.445426
O O1 0.536669 0.803692 0.232813
O O2 0.293175 0.709305 0.179576
O O3 0.347516 0.000000 0.158478
O O4 0.385906 0.784753 0.050434
O O5 0.352629 0.500000 0.984040
O O6 0.323301 0.274811 0.859709
O O7 0.161108 0.296962 0.936066
O O8 0.789232 0.761901 0.333597
O O9 0.701606 0.000000 0.220474
O O10 0.927245 0.220945 0.814732
O O11 0.093060 0.000000 0.904583
O O12 0.000000 0.176118 0.000000
O O13 0.172373 0.500000 0.240654
O O14 0.282163 0.255319 0.345877
O O15 0.500000 0.763441 0.500000
O O16 0.253432 0.763216 0.507831
O O17 0.346278 0.000000 0.449654
O O18 0.000000 0.758524 0.500000
O O19 0.851132 0.000000 0.446546
#
# Coordination Sequence:
#
# PCOD9153187 Si02
#       7
#     4   4   4   4   4   4   4
#     4  11  22  40  63  90 123 166 214 254 301 368
#     4  12  25  39  60  92 129 163 201 253 316 376
#     4  10  22  40  64  90 121 162 211 260 303 365
#     4  11  23  41  65  89 119 165 213 255 305 371
#     4  12  25  39  62  95 130 163 202 258 325 380
#     4  10  21  40  66  94 124 164 216 267 314 376
#     4   9  19  37  62  92 119 155 211 268 313 359
#
# _framework density 21.036653999999999
#
# number of rings (size 3 to 8) (size 9 to 14) (size 15 to 20)
#    0.000    1.286    1.429    4.714    2.000    6.000 
#    0.000    0.714    0.000    0.857    0.000    0.000 
#    0.000    0.000    0.000    0.000    0.000    0.000 
#
# Total GULP energy -156534.103570 kJ/mol
# GULP energy per Si atom -5590.503699 kJ/mol
# Density = 2.098877 g / cm^3
# Si number density = 21.036654 Si / 1000 Ang^3
#
#
#
# Elastic Constant Matrix: (Units=GPa)
#
#
# Indices 1 2 3 4 5 6 
#
# 1 93.6275 6.1254 32.7788 0.0000 12.5358 0.0000
# 2 6.1254 36.6700 -3.2421 0.0000 6.1112 0.0000
# 3 32.7788 -3.2421 108.8303 0.0000 23.4194 0.0000
# 4 0.0000 0.0000 0.0000 14.5761 0.0000 -13.1188
# 5 12.5358 6.1112 23.4194 0.0000 38.9603 0.0000
# 6 0.0000 0.0000 0.0000 -13.1188 0.0000 28.6616
#
#
#
# Elastic Compliance Matrix: (Units=1/GPa)
#
#
# Indices 1 2 3 4 5 6 
#
# 1 0.012218 -0.002083 -0.003407 0.000000 -0.001557 0.000000
# 2 -0.002083 0.028759 0.002654 0.000000 -0.005436 0.000000
# 3 -0.003407 0.002654 0.011655 0.000000 -0.006326 0.000000
# 4 0.000000 0.000000 0.000000 0.116667 0.000000 0.053400
# 5 -0.001557 -0.005436 -0.006326 0.000000 0.030823 0.000000
# 6 0.000000 0.000000 0.000000 0.053400 0.000000 0.059332
#
#
# Mechanical properties :
#
#
# Convention : Reuss Voigt Hill
#
# Bulk Modulus (GPa) = 21.29472 34.49467 27.89470
# Shear Modulus (GPa) = 17.80760 30.00398 23.90579
#
# Velocity S-wave (km/s) = 2.91263 3.78070 3.37469
# Velocity P-wave (km/s) = 4.63205 5.95745 5.33606
#
# Compressibility (1/GPa) = 0.04696000
#
# Stress axis : x y z
#
# Youngs Moduli (GPa) = 81.84573 34.77208 85.79883
#
# Poissons Ratio (x) = 0.07242 0.29232
# Poissons Ratio (y) = 0.17046 -0.22770
# Poissons Ratio (z) = 0.27885 -0.09228
#
# Static dielectric constant tensor:
#      x y z
#    x 1.784140 0.000000 0.002210 
#    y 0.000000 1.706050 0.000000 
#    z 0.002210 0.000000 1.729650 
# 
# From -- ./inp_files/63919.got.cif
#   From: 2010.05.17/outbox.cif.g08.bks.cpg/sg10_32_cif.got.tgz:63919.got - 2010.06.03 11:33:40.
