data_PCOD9153146
_publ_section_title
;
Structure prediction by ZEFSAII (Michael W. Deem and Ramdas Pophale) SiO2 
 PCOD9153146
Probable space group: P 2/M
;
_chemical_formula_sum "Si O2"
_cell_formula_units_Z 20
_cell_length_a 9.899718
_cell_length_b 16.501050
_cell_length_c 14.366452
_cell_angle_alpha 90.000000
_cell_angle_beta 153.160008
_cell_angle_gamma 90.000000
_cell_volume 1059.600406
_symmetry_space_group_name_H-M "P 2/M"
_symmetry_group_IT_number 10
_symmetry_cell_setting 'monoclinic'
loop_
_space_group_symop_operation_xyz
x,y,z
-x,y,-z
-x,-y,-z
x,-y,z
loop_
_atom_site_type_symbol
_atom_site_label
_atom_site_fract_x
_atom_site_fract_y
_atom_site_fract_z
Si Si1 0.344718 0.500000 0.684877
Si Si2 0.209132 0.500000 0.385613
Si Si3 0.262293 0.094926 0.585848
Si Si4 0.690567 0.372005 0.021734
Si Si5 0.850453 0.089456 0.693222
Si Si6 0.805200 0.214471 0.969353
O O1 0.337341 0.500000 0.569142
O O2 0.506507 0.424655 0.833402
O O3 0.000000 0.500000 0.500000
O O4 0.500000 0.500000 0.500000
O O5 0.992472 0.422436 0.232839
O O6 0.122611 0.110291 0.398465
O O7 0.515360 0.162184 0.760123
O O8 0.000000 0.100393 0.500000
O O9 0.373089 0.000000 0.653017
O O10 0.741875 0.287518 0.001253
O O11 0.500000 0.364726 0.000000
O O12 0.500000 0.086639 0.500000
O O13 0.980638 0.000000 0.788175
O O14 0.997287 0.151551 0.852006
O O15 0.000000 0.242249 0.000000
#
# Coordination Sequence:
#
# PCOD9153146 Si02
#       6
#     2   2   4   4   4   4
#     4  11  21  47  75  88 121 173 205 248 311 371
#     4  11  25  45  73  97 123 165 207 253 308 372
#     4  10  23  42  63  90 124 168 219 261 308 371
#     4  11  26  44  65  99 128 160 213 252 306 388
#     4  10  21  40  64  88 122 170 219 260 306 368
#     4  12  26  40  62  95 132 165 204 264 319 363
#
# _framework density 18.875039999999998
#
# number of rings (size 3 to 8) (size 9 to 14) (size 15 to 20)
#    0.000    1.200    4.000    1.200    5.600    4.800 
#    0.000    3.000    0.000    0.000    0.000    0.000 
#    0.000    0.000    0.000    0.000    0.000    0.000 
#
# Total GULP energy -111672.093328 kJ/mol
# GULP energy per Si atom -5583.604666 kJ/mol
# Density = 1.883208 g / cm^3
# Si number density = 18.875040 Si / 1000 Ang^3
#
#
#
# Elastic Constant Matrix: (Units=GPa)
#
#
# Indices 1 2 3 4 5 6 
#
# 1 167.3824 33.5382 48.4499 0.0000 -16.9688 0.0000
# 2 33.5382 98.5602 48.5782 0.0000 -7.1468 0.0000
# 3 48.4499 48.5782 93.3005 0.0000 -16.0050 0.0000
# 4 0.0000 0.0000 0.0000 26.2667 0.0000 -60.4358
# 5 -16.9688 -7.1468 -16.0050 0.0000 34.9615 0.0000
# 6 0.0000 0.0000 0.0000 -60.4358 0.0000 253.9220
#
#
#
# Elastic Compliance Matrix: (Units=1/GPa)
#
#
# Indices 1 2 3 4 5 6 
#
# 1 0.007201 -0.000849 -0.002960 0.000000 0.001966 0.000000
# 2 -0.000849 0.013757 -0.006848 0.000000 -0.000735 0.000000
# 3 -0.002960 -0.006848 0.016641 0.000000 0.004782 0.000000
# 4 0.000000 0.000000 0.000000 0.084158 0.000000 0.020030
# 5 0.001966 -0.000735 0.004782 0.000000 0.031596 0.000000
# 6 0.000000 0.000000 0.000000 0.020030 0.000000 0.008706
#
#
# Mechanical properties :
#
#
# Convention : Reuss Voigt Hill
#
# Bulk Modulus (GPa) = 61.40662 68.93066 65.16864
# Shear Modulus (GPa) = 26.48312 78.27515 52.37913
#
# Velocity S-wave (km/s) = 3.74983 6.44672 5.27359
# Velocity P-wave (km/s) = 7.16604 9.59231 8.46654
#
# Compressibility (1/GPa) = 0.01628489
#
# Stress axis : x y z
#
# Youngs Moduli (GPa) = 138.87892 72.69112 60.09302
#
# Poissons Ratio (x) = 0.06170 0.17787
# Poissons Ratio (y) = 0.11787 0.41152
# Poissons Ratio (z) = 0.41107 0.49779
#
# Static dielectric constant tensor:
#      x y z
#    x 1.975900 0.000000 -0.011260 
#    y 0.000000 1.556860 0.000000 
#    z -0.011260 0.000000 1.638380 
# 
# From -- ./inp_files/43434.got.cif
#   From: 2010.05.17/outbox.cif.g08.bks.cpg/sg10_22_cif.got.tgz:43434.got - 2010.06.03 11:33:40.
