data_PCOD9153219
_publ_section_title
;
Structure prediction by ZEFSAII (Michael W. Deem and Ramdas Pophale) SiO2 
 PCOD9153219
Probable space group: P 2/M
;
_chemical_formula_sum "Si O2"
_cell_formula_units_Z 16
_cell_length_a 12.056808
_cell_length_b 11.773733
_cell_length_c 14.208007
_cell_angle_alpha 90.000000
_cell_angle_beta 20.046085
_cell_angle_gamma 90.000000
_cell_volume 691.337189
_symmetry_space_group_name_H-M "P 2/M"
_symmetry_group_IT_number 10
_symmetry_cell_setting 'monoclinic'
loop_
_space_group_symop_operation_xyz
x,y,z
-x,y,-z
-x,-y,-z
x,-y,z
loop_
_atom_site_type_symbol
_atom_site_label
_atom_site_fract_x
_atom_site_fract_y
_atom_site_fract_z
Si Si1 0.010999 0.746231 0.604428
Si Si2 0.856747 0.000000 0.004275
Si Si3 0.343842 0.631050 0.949011
Si Si4 0.120970 0.240243 0.798017
Si Si5 0.892749 0.000000 0.473961
O O1 0.969951 0.877827 0.664851
O O2 0.000000 0.734244 0.500000
O O3 0.754038 0.676384 0.869784
O O4 0.376436 0.701288 0.327896
O O5 0.478841 0.000000 0.271158
O O6 0.000000 0.000000 0.000000
O O7 0.998587 0.119060 0.855282
O O8 0.436630 0.500000 0.878492
O O9 0.019899 0.657175 0.149598
O O10 0.500000 0.237332 0.500000
O O11 0.000000 0.250911 0.000000
O O12 0.000000 0.000000 0.500000
#
# Coordination Sequence:
#
# PCOD9153219 Si02
#       5
#     4   2   4   4   2
#     4  11  25  45  70 101 138 180 230 290 353 420
#     4  10  21  40  70 105 136 184 226 293 353 425
#     4  12  26  44  69  98 137 187 237 284 344 415
#     4  11  24  42  66  99 137 178 227 290 349 417
#     4  10  22  44  73 107 144 182 228 293 367 423
#
# _framework density 23.143554999999999
#
# number of rings (size 3 to 8) (size 9 to 14) (size 15 to 20)
#    0.000    1.000    2.500    3.375    3.500    6.000 
#    0.000    3.750    0.000    0.000    0.000    0.000 
#    0.000    0.000    0.000    0.000    0.000    0.000 
#
# Total GULP energy -89339.875510 kJ/mol
# GULP energy per Si atom -5583.742219 kJ/mol
# Density = 2.309088 g / cm^3
# Si number density = 23.143555 Si / 1000 Ang^3
#
#
#
# Elastic Constant Matrix: (Units=GPa)
#
#
# Indices 1 2 3 4 5 6 
#
# 1 133.4224 5.6995 21.6642 0.0000 5.2315 0.0000
# 2 5.6995 123.4533 -0.6909 0.0000 14.3177 0.0000
# 3 21.6642 -0.6909 74.6591 0.0000 6.2826 0.0000
# 4 0.0000 0.0000 0.0000 159.7322 0.0000 -17.1673
# 5 5.2315 14.3177 6.2826 0.0000 48.3503 0.0000
# 6 0.0000 0.0000 0.0000 -17.1673 0.0000 29.0653
#
#
#
# Elastic Compliance Matrix: (Units=1/GPa)
#
#
# Indices 1 2 3 4 5 6 
#
# 1 0.007893 -0.000323 -0.002254 0.000000 -0.000465 0.000000
# 2 -0.000323 0.008408 0.000382 0.000000 -0.002504 0.000000
# 3 -0.002254 0.000382 0.014196 0.000000 -0.001714 0.000000
# 4 0.000000 0.000000 0.000000 0.006685 0.000000 0.003948
# 5 -0.000465 -0.002504 -0.001714 0.000000 0.021697 0.000000
# 6 0.000000 0.000000 0.000000 0.003948 0.000000 0.036737
#
#
# Mechanical properties :
#
#
# Convention : Reuss Voigt Hill
#
# Bulk Modulus (GPa) = 38.30385 42.76450 40.53418
# Shear Modulus (GPa) = 45.99459 67.75368 56.87414
#
# Velocity S-wave (km/s) = 4.46282 5.41654 4.96265
# Velocity P-wave (km/s) = 6.56827 7.59188 7.09855
#
# Compressibility (1/GPa) = 0.02610704
#
# Stress axis : x y z
#
# Youngs Moduli (GPa) = 126.69355 118.93802 70.44188
#
# Poissons Ratio (x) = 0.03842 0.15879
# Poissons Ratio (y) = 0.04093 -0.02693
# Poissons Ratio (z) = 0.28559 -0.04547
#
# Static dielectric constant tensor:
#      x y z
#    x 2.000100 0.000000 -0.058570 
#    y 0.000000 1.853020 0.000000 
#    z -0.058570 0.000000 1.882350 
# 
# From -- ./inp_files/6076.got.cif
#   From: 2010.05.17/outbox.cif.g08.bks.cpg/sg10_4_cif.got.tgz:6076.got - 2010.06.03 11:33:40.
