data_PCOD9153465
_publ_section_title
;
Structure prediction by ZEFSAII (Michael W. Deem and Ramdas Pophale) SiO2 
 PCOD9153465
Probable space group: P 2/M
;
_chemical_formula_sum "Si O2"
_cell_formula_units_Z 24
_cell_length_a 22.433458
_cell_length_b 11.564624
_cell_length_c 14.924930
_cell_angle_alpha 90.000000
_cell_angle_beta 160.853949
_cell_angle_gamma 90.000000
_cell_volume 1269.941786
_symmetry_space_group_name_H-M "P 2/M"
_symmetry_group_IT_number 10
_symmetry_cell_setting 'monoclinic'
loop_
_space_group_symop_operation_xyz
x,y,z
-x,y,-z
-x,-y,-z
x,-y,z
loop_
_atom_site_type_symbol
_atom_site_label
_atom_site_fract_x
_atom_site_fract_y
_atom_site_fract_z
Si Si1 0.703783 0.000000 0.328507
Si Si2 0.608383 0.753793 0.247619
Si Si3 0.906290 0.745958 0.270095
Si Si4 0.539663 0.636642 0.797241
Si Si5 0.961782 0.635858 0.712881
Si Si6 0.662882 0.360005 0.666522
Si Si7 0.037848 0.000000 0.660671
O O1 0.702735 0.119807 0.381737
O O2 0.500000 0.000000 0.000000
O O3 0.856534 0.000000 0.466627
O O4 0.475799 0.722081 0.140498
O O5 0.771999 0.663134 0.489434
O O6 0.500000 0.741516 0.000000
O O7 0.861299 0.878621 0.181189
O O8 0.000000 0.743014 0.500000
O O9 0.041682 0.699633 0.387146
O O10 0.732121 0.663576 0.023963
O O11 0.530384 0.500000 0.807261
O O12 0.386882 0.666108 0.506584
O O13 0.981105 0.500000 0.725916
O O14 0.139580 0.678148 0.019160
O O15 0.500000 0.318349 0.500000
O O16 0.661568 0.500000 0.670193
O O17 0.000000 0.000000 0.500000
#
# Coordination Sequence:
#
# PCOD9153465 Si02
#       7
#     2   4   4   4   4   4   2
#     4  10  22  40  60  81 116 162 202 238 286 351
#     4  11  24  39  59  86 123 158 194 240 295 357
#     4  11  22  35  58  87 119 153 194 244 295 345
#     4  11  23  38  59  89 122 156 195 242 294 354
#     4  11  21  36  60  86 117 159 193 239 303 349
#     4   9  18  36  59  83 114 155 203 242 281 346
#     4  10  22  38  60  87 113 153 211 245 275 352
#
# _framework density 18.898503999999999
#
# number of rings (size 3 to 8) (size 9 to 14) (size 15 to 20)
#    0.000    1.500    3.333    2.000    7.000    4.667 
#    0.000    2.500    0.000    6.000    0.000    0.000 
#    0.000    0.000    0.000    0.000    0.000    0.000 
#
# Total GULP energy -133827.156209 kJ/mol
# GULP energy per Si atom -5576.131509 kJ/mol
# Density = 1.885549 g / cm^3
# Si number density = 18.898504 Si / 1000 Ang^3
#
#
#
# Elastic Constant Matrix: (Units=GPa)
#
#
# Indices 1 2 3 4 5 6 
#
# 1 51.0295 15.0186 -3.8637 0.0000 -0.6501 0.0000
# 2 15.0186 81.5500 2.2664 0.0000 -9.3807 0.0000
# 3 -3.8637 2.2664 64.2236 0.0000 -7.6957 0.0000
# 4 0.0000 0.0000 0.0000 12.3107 0.0000 20.7510
# 5 -0.6501 -9.3807 -7.6957 0.0000 27.6757 0.0000
# 6 0.0000 0.0000 0.0000 20.7510 0.0000 4.5073
#
#
#
# Elastic Compliance Matrix: (Units=1/GPa)
#
#
# Indices 1 2 3 4 5 6 
#
# 1 0.020849 -0.003931 0.001337 0.000000 -0.000471 0.000000
# 2 -0.003931 0.013501 -0.000182 0.000000 0.004433 0.000000
# 3 0.001337 -0.000182 0.016193 0.000000 0.004473 0.000000
# 4 0.000000 0.000000 0.000000 -0.012016 0.000000 0.055319
# 5 -0.000471 0.004433 0.004473 0.000000 0.038868 0.000000
# 6 0.000000 0.000000 0.000000 0.055319 0.000000 -0.032818
#
#
# Mechanical properties :
#
#
# Convention : Reuss Voigt Hill
#
# Bulk Modulus (GPa) = 22.22656 24.84953 23.53804
# Shear Modulus (GPa) = 76.77359 21.12417 48.94888
#
# Velocity S-wave (km/s) = 6.38062 3.34693 5.09482
# Velocity P-wave (km/s) = 8.12833 5.30221 6.86233
#
# Compressibility (1/GPa) = 0.04499123
#
# Stress axis : x y z
#
# Youngs Moduli (GPa) = 47.96478 74.06651 61.75372
#
# Poissons Ratio (x) = 0.29115 -0.08254
# Poissons Ratio (y) = 0.18855 0.01122
# Poissons Ratio (z) = -0.06411 0.01346
#
# Static dielectric constant tensor:
#      x y z
#    x 1.644870 0.000000 -0.014550 
#    y 0.000000 1.672270 0.000000 
#    z -0.014550 0.000000 1.646120 
# 
# From -- ./inp_files/24088.got.cif
#   From: 2010.05.17/outbox.cif.g08.bks.cpg/sg10_13_cif.got.tgz:24088.got - 2010.06.03 11:33:40.
