data_PCOD9153135
_publ_section_title
;
Structure prediction by ZEFSAII (Michael W. Deem and Ramdas Pophale) SiO2 
 PCOD9153135
Probable space group: P 2/M
;
_chemical_formula_sum "Si O2"
_cell_formula_units_Z 32
_cell_length_a 12.655703
_cell_length_b 7.763929
_cell_length_c 32.563521
_cell_angle_alpha 90.000000
_cell_angle_beta 27.245436
_cell_angle_gamma 90.000000
_cell_volume 1464.798593
_symmetry_space_group_name_H-M "P 2/M"
_symmetry_group_IT_number 10
_symmetry_cell_setting 'monoclinic'
loop_
_space_group_symop_operation_xyz
x,y,z
-x,y,-z
-x,-y,-z
x,-y,z
loop_
_atom_site_type_symbol
_atom_site_label
_atom_site_fract_x
_atom_site_fract_y
_atom_site_fract_z
Si Si1 0.770070 0.207552 0.404705
Si Si2 0.803711 0.789587 0.013222
Si Si3 0.504027 0.799344 0.953339
Si Si4 0.576748 0.699079 0.330374
Si Si5 0.676187 0.700626 0.661895
Si Si6 0.675598 0.791357 0.147500
Si Si7 0.842627 0.200276 0.470301
Si Si8 0.009275 0.702388 0.757741
O O1 0.500000 0.255020 0.500000
O O2 0.887608 0.278899 0.323426
O O3 0.878694 0.260299 0.410913
O O4 0.784831 0.000000 0.396397
O O5 0.072007 0.740990 0.922608
O O6 0.799707 0.000000 0.014848
O O7 0.671529 0.723610 0.019152
O O8 0.678691 0.737764 0.098770
O O9 0.762671 0.790272 0.846997
O O10 0.435605 0.000000 0.981331
O O11 0.500000 0.720308 0.000000
O O12 0.632166 0.500000 0.301844
O O13 0.472484 0.776530 0.324558
O O14 0.803450 0.773147 0.274105
O O15 0.368916 0.705537 0.434914
O O16 0.720715 0.500000 0.637299
O O17 0.524371 0.717873 0.755262
O O18 0.924227 0.782979 0.584338
O O19 0.658226 0.000000 0.154902
O O20 0.774279 0.000000 0.491744
O O21 0.975831 0.500000 0.777368
#
# Coordination Sequence:
#
# PCOD9153135 Si02
#       8
#     4   4   4   4   4   4   4   4
#     4  10  21  40  63  89 120 155 196 247 300 349
#     4   8  17  36  59  83 113 146 187 239 293 341
#     4  10  22  39  61  89 121 157 196 245 302 353
#     4  10  23  42  59  80 119 162 194 236 293 349
#     4  11  24  39  57  84 120 156 193 238 293 349
#     4   9  18  36  61  84 108 147 195 242 288 338
#     4  11  23  39  62  89 116 150 197 246 290 342
#     4  11  24  40  61  89 120 160 204 243 294 358
#
# _framework density 21.846005999999999
#
# number of rings (size 3 to 8) (size 9 to 14) (size 15 to 20)
#    0.000    2.000    1.250    2.250    3.500    4.500 
#    0.000    1.875    0.000    0.000    0.000    0.000 
#    0.000    0.000    0.000    0.000    0.000    0.000 
#
# Total GULP energy -178803.317308 kJ/mol
# GULP energy per Si atom -5587.603666 kJ/mol
# Density = 2.179628 g / cm^3
# Si number density = 21.846006 Si / 1000 Ang^3
#
#
#
# Elastic Constant Matrix: (Units=GPa)
#
#
# Indices 1 2 3 4 5 6 
#
# 1 127.4125 6.0029 2.5465 0.0000 0.6049 0.0000
# 2 6.0029 34.5794 -13.4992 0.0000 0.0225 0.0000
# 3 2.5465 -13.4992 38.3455 0.0000 5.9201 0.0000
# 4 0.0000 0.0000 0.0000 8.2686 0.0000 13.8190
# 5 0.6049 0.0225 5.9201 0.0000 17.7291 0.0000
# 6 0.0000 0.0000 0.0000 13.8190 0.0000 5.6103
#
#
#
# Elastic Compliance Matrix: (Units=1/GPa)
#
#
# Indices 1 2 3 4 5 6 
#
# 1 0.007959 -0.001850 -0.001200 0.000000 0.000132 0.000000
# 2 -0.001850 0.034256 0.012841 0.000000 -0.004268 0.000000
# 3 -0.001200 0.012841 0.032343 0.000000 -0.010775 0.000000
# 4 0.000000 0.000000 0.000000 -0.038806 0.000000 0.095584
# 5 0.000132 -0.004268 -0.010775 0.000000 0.060004 0.000000
# 6 0.000000 0.000000 0.000000 0.095584 0.000000 -0.057192
#
#
# Mechanical properties :
#
#
# Convention : Reuss Voigt Hill
#
# Bulk Modulus (GPa) = 10.62256 21.15975 15.89116
# Shear Modulus (GPa) = 99.28241 20.00741 59.64491
#
# Velocity S-wave (km/s) = 6.74871 3.02957 5.23084
# Velocity P-wave (km/s) = 8.09938 4.68450 6.61606
#
# Compressibility (1/GPa) = 0.09413928
#
# Stress axis : x y z
#
# Youngs Moduli (GPa) = 125.64298 29.19201 30.91893
#
# Poissons Ratio (x) = 0.05401 0.03711
# Poissons Ratio (y) = 0.23248 -0.39704
# Poissons Ratio (z) = 0.15080 -0.37487
#
# Static dielectric constant tensor:
#      x y z
#    x 1.829530 0.000000 0.007640 
#    y 0.000000 1.809690 0.000000 
#    z 0.007640 0.000000 1.728540 
# 
# From -- ./inp_files/95006.got.cif
#   From: 2010.05.17/outbox.cif.g08.bks.cpg/sg10_48_cif.got.tgz:95006.got - 2010.06.03 11:33:40.
