data_PCOD9153088
_publ_section_title
;
Structure prediction by ZEFSAII (Michael W. Deem and Ramdas Pophale) SiO2 
 PCOD9153088
Probable space group: P 2/M
;
_chemical_formula_sum "Si O2"
_cell_formula_units_Z 29
_cell_length_a 7.851053
_cell_length_b 9.949423
_cell_length_c 24.807434
_cell_angle_alpha 90.000000
_cell_angle_beta 133.467256
_cell_angle_gamma 90.000000
_cell_volume 1406.388316
_symmetry_space_group_name_H-M "P 2/M"
_symmetry_group_IT_number 10
_symmetry_cell_setting 'monoclinic'
loop_
_space_group_symop_operation_xyz
x,y,z
-x,y,-z
-x,-y,-z
x,-y,z
loop_
_atom_site_type_symbol
_atom_site_label
_atom_site_fract_x
_atom_site_fract_y
_atom_site_fract_z
Si Si1 0.753784 0.657049 0.582697
Si Si2 0.692917 0.648373 0.173584
Si Si3 0.580389 0.154135 0.736249
Si Si4 0.770908 0.248212 0.888353
Si Si5 0.080715 0.157281 0.289372
Si Si6 0.248416 0.346882 0.939578
Si Si7 0.072946 0.157830 0.578167
Si Si8 0.000000 0.000000 0.000000
O O1 0.500000 0.660165 0.500000
O O2 0.813832 0.500000 0.605332
O O3 0.763292 0.749518 0.637850
O O4 0.929401 0.734920 0.581291
O O5 0.751257 0.500000 0.208370
O O6 0.412220 0.666781 0.115839
O O7 0.783580 0.652225 0.131798
O O8 0.829043 0.769448 0.232516
O O9 0.631745 0.235161 0.801286
O O10 0.797852 0.161939 0.742587
O O11 0.345244 0.184187 0.651468
O O12 0.559141 0.000000 0.749631
O O13 0.833487 0.116007 0.935279
O O14 0.026698 0.295927 0.924154
O O15 0.067646 0.000000 0.302746
O O16 0.277505 0.500000 0.964673
O O17 0.500000 0.273183 0.000000
O O18 0.000000 0.172116 0.500000
O O19 0.024475 0.000000 0.581897
#
# Coordination Sequence:
#
# PCOD9153088 Si02
#       8
#     4   4   4   4   4   4   4   1
#     4  11  24  41  61  92 136 178 225 282 335 405
#     4  11  24  42  67  98 131 171 224 277 336 412
#     4  10  21  40  64  91 133 171 216 278 335 408
#     4  12  23  43  63  98 134 178 224 280 346 402
#     4  11  23  41  67  98 127 177 225 278 342 400
#     4  10  22  43  67  91 127 174 222 276 336 409
#     4  10  21  39  66  98 130 174 225 278 342 408
#     4  12  28  40  68 100 138 178 226 292 334 420
#
# _framework density 20.620191999999999
#
# number of rings (size 3 to 8) (size 9 to 14) (size 15 to 20)
#    0.000    1.241    2.069    3.724    0.966    3.586 
#    0.000    5.862    0.000    0.000    0.000    0.000 
#    0.000    0.000    0.000    0.000    0.000    0.000 
#
# Total GULP energy -161506.403087 kJ/mol
# GULP energy per Si atom -5569.186313 kJ/mol
# Density = 2.057326 g / cm^3
# Si number density = 20.620192 Si / 1000 Ang^3
#
#
#
# Elastic Constant Matrix: (Units=GPa)
#
#
# Indices 1 2 3 4 5 6 
#
# 1 89.5060 38.7414 6.2168 0.0000 23.8642 0.0000
# 2 38.7414 128.5599 36.3318 0.0000 8.1189 0.0000
# 3 6.2168 36.3318 87.8019 0.0000 12.8399 0.0000
# 4 0.0000 0.0000 0.0000 30.6944 0.0000 -3.1739
# 5 23.8642 8.1189 12.8399 0.0000 38.5321 0.0000
# 6 0.0000 0.0000 0.0000 -3.1739 0.0000 -9.6123
#
#
#
# Elastic Compliance Matrix: (Units=1/GPa)
#
#
# Indices 1 2 3 4 5 6 
#
# 1 0.015567 -0.004727 0.002227 0.000000 -0.009387 0.000000
# 2 -0.004727 0.010261 -0.004229 0.000000 0.002175 0.000000
# 3 0.002227 -0.004229 0.013722 0.000000 -0.005060 0.000000
# 4 0.000000 0.000000 0.000000 0.031504 0.000000 -0.010402
# 5 -0.009387 0.002175 -0.005060 0.000000 0.032994 0.000000
# 6 0.000000 0.000000 0.000000 -0.010402 0.000000 -0.100599
#
#
# Mechanical properties :
#
#
# Convention : Reuss Voigt Hill
#
# Bulk Modulus (GPa) = 38.32994 52.04975 45.18984
# Shear Modulus (GPa) = 195.27550 26.89469 111.08509
#
# Velocity S-wave (km/s) = 9.74201 3.61541 7.34772
# Velocity P-wave (km/s) = 12.04870 6.53645 9.69269
#
# Compressibility (1/GPa) = 0.02608927
#
# Stress axis : x y z
#
# Youngs Moduli (GPa) = 64.23950 97.45685 72.87747
#
# Poissons Ratio (x) = 0.46073 -0.16228
# Poissons Ratio (y) = 0.30369 0.30822
# Poissons Ratio (z) = -0.14304 0.41217
#
# Static dielectric constant tensor:
#      x y z
#    x 1.775560 0.000000 0.006030 
#    y 0.000000 1.720580 0.000000 
#    z 0.006030 0.000000 1.797450 
# 
# From -- ./inp_files/92135.got.cif
#   From: 2010.05.17/outbox.cif.g08.bks.cpg/sg10_47_cif.got.tgz:92135.got - 2010.06.03 11:33:40.
