data_PCOD9153159
_publ_section_title
;
Structure prediction by ZEFSAII (Michael W. Deem and Ramdas Pophale) SiO2 
 PCOD9153159
Probable space group: P 2/M
;
_chemical_formula_sum "Si O2"
_cell_formula_units_Z 32
_cell_length_a 16.890864
_cell_length_b 8.636163
_cell_length_c 27.864567
_cell_angle_alpha 90.000000
_cell_angle_beta 156.064768
_cell_angle_gamma 90.000000
_cell_volume 1649.050521
_symmetry_space_group_name_H-M "P 2/M"
_symmetry_group_IT_number 10
_symmetry_cell_setting 'monoclinic'
loop_
_space_group_symop_operation_xyz
x,y,z
-x,y,-z
-x,-y,-z
x,-y,z
loop_
_atom_site_type_symbol
_atom_site_label
_atom_site_fract_x
_atom_site_fract_y
_atom_site_fract_z
Si Si1 0.479730 0.316504 0.266526
Si Si2 0.150967 0.684998 0.724960
Si Si3 0.230297 0.185149 0.040814
Si Si4 0.086220 0.185111 0.496012
Si Si5 0.302907 0.188606 0.364693
Si Si6 0.605764 0.314707 0.967810
Si Si7 0.773020 0.186927 0.786614
Si Si8 0.919972 0.185436 0.211894
O O1 0.507315 0.500000 0.281601
O O2 0.359153 0.265157 0.152874
O O3 0.689286 0.234773 0.382589
O O4 0.357412 0.264700 0.245183
O O5 0.139932 0.500000 0.723988
O O6 0.378973 0.728920 0.846746
O O7 0.065243 0.763620 0.724995
O O8 0.035767 0.737483 0.614119
O O9 0.301540 0.237477 0.027955
O O10 0.250440 0.000000 0.056210
O O11 0.001708 0.223512 0.920110
O O12 0.000000 0.231131 0.500000
O O13 0.070203 0.000000 0.482707
O O14 0.500000 0.241496 0.500000
O O15 0.288377 0.235224 0.301116
O O16 0.110160 0.235907 0.287043
O O17 0.304287 0.000000 0.365713
O O18 0.617663 0.500000 0.969954
O O19 0.730318 0.260315 0.082427
O O20 0.752572 0.000000 0.778891
O O21 0.904990 0.000000 0.200291
#
# Coordination Sequence:
#
# PCOD9153159 Si02
#       8
#     4   4   4   4   4   4   4   4
#     4  12  26  41  62  94 130 166 206 256 319 380
#     4  11  25  42  62  92 129 167 207 259 324 380
#     4  11  22  40  65  93 125 164 215 266 315 371
#     4  11  25  46  70  95 122 162 213 260 311 373
#     4   9  19  37  62  92 125 163 206 256 311 365
#     4  11  23  40  63  91 129 171 207 258 326 381
#     4  10  21  40  64  92 126 166 212 262 313 367
#     4  11  22  39  64  95 125 166 218 264 311 370
#
# _framework density 19.405107000000001
#
# number of rings (size 3 to 8) (size 9 to 14) (size 15 to 20)
#    0.000    1.250    1.250    4.500    1.750    9.000 
#    0.000    0.000    0.000    1.875    0.000    0.000 
#    0.000    0.000    0.000    0.000    0.000    0.000 
#
# Total GULP energy -179029.383881 kJ/mol
# GULP energy per Si atom -5594.668246 kJ/mol
# Density = 1.936094 g / cm^3
# Si number density = 19.405107 Si / 1000 Ang^3
#
#
#
# Elastic Constant Matrix: (Units=GPa)
#
#
# Indices 1 2 3 4 5 6 
#
# 1 76.2985 -2.7053 0.1621 0.0000 -12.8861 0.0000
# 2 -2.7053 8.7754 -7.7334 0.0000 9.2269 0.0000
# 3 0.1621 -7.7334 91.6446 0.0000 -12.5522 0.0000
# 4 0.0000 0.0000 0.0000 10.6891 0.0000 2.5139
# 5 -12.8861 9.2269 -12.5522 0.0000 22.9479 0.0000
# 6 0.0000 0.0000 0.0000 2.5139 0.0000 -0.9057
#
#
#
# Elastic Compliance Matrix: (Units=1/GPa)
#
#
# Indices 1 2 3 4 5 6 
#
# 1 0.014819 -0.006718 0.000991 0.000000 0.011565 0.000000
# 2 -0.006718 0.203833 0.005913 0.000000 -0.082495 0.000000
# 3 0.000991 0.005913 0.012063 0.000000 0.004777 0.000000
# 4 0.000000 0.000000 0.000000 0.056604 0.000000 0.157110
# 5 0.011565 -0.082495 0.004777 0.000000 0.085854 0.000000
# 6 0.000000 0.000000 0.000000 0.157110 0.000000 -0.668032
#
#
# Mechanical properties :
#
#
# Convention : Reuss Voigt Hill
#
# Bulk Modulus (GPa) = 4.32736 17.35172 10.83954
# Shear Modulus (GPa) = -22.91462 19.01258 -1.95102
#
# Velocity S-wave (km/s) = -3.44009 3.13353 -1.00379
# Velocity P-wave (km/s) = 3.68023 4.69609 2.06266
#
# Compressibility (1/GPa) = 0.23108764
#
# Stress axis : x y z
#
# Youngs Moduli (GPa) = 67.47958 4.90598 82.89619
#
# Poissons Ratio (x) = 0.03296 -0.08214
# Poissons Ratio (y) = 0.45333 -0.49018
# Poissons Ratio (z) = -0.06686 -0.02901
#
# Static dielectric constant tensor:
#      x y z
#    x 1.645690 0.000000 0.002750 
#    y 0.000000 1.652900 0.000000 
#    z 0.002750 0.000000 1.647960 
# 
# From -- ./inp_files/89651.got.cif
#   From: 2010.05.17/outbox.cif.g08.bks.cpg/sg10_45_cif.got.tgz:89651.got - 2010.06.03 11:33:40.
