data_PCOD9153647
_publ_section_title
;
Structure prediction by ZEFSAII (Michael W. Deem and Ramdas Pophale) SiO2 
 PCOD9153647
Probable space group: P 2/M
;
_chemical_formula_sum "Si O2"
_cell_formula_units_Z 24
_cell_length_a 13.854852
_cell_length_b 8.255762
_cell_length_c 14.714079
_cell_angle_alpha 90.000000
_cell_angle_beta 138.865243
_cell_angle_gamma 90.000000
_cell_volume 1107.152137
_symmetry_space_group_name_H-M "P 2/M"
_symmetry_group_IT_number 10
_symmetry_cell_setting 'monoclinic'
loop_
_space_group_symop_operation_xyz
x,y,z
-x,y,-z
-x,-y,-z
x,-y,z
loop_
_atom_site_type_symbol
_atom_site_label
_atom_site_fract_x
_atom_site_fract_y
_atom_site_fract_z
Si Si1 0.464973 0.691851 0.074896
Si Si2 0.028023 0.688265 0.656336
Si Si3 0.957666 0.807460 0.805733
Si Si4 0.766944 0.810614 0.346409
Si Si5 0.357922 0.196083 0.341707
Si Si6 0.746980 0.694018 0.922208
O O1 0.438247 0.500000 0.044191
O O2 0.612633 0.721412 0.236133
O O3 0.331152 0.755128 0.040558
O O4 0.500000 0.762139 0.000000
O O5 0.063752 0.500000 0.669039
O O6 0.156198 0.787543 0.697435
O O7 0.002703 0.726514 0.742860
O O8 0.880124 0.733333 0.497506
O O9 0.796821 0.751850 0.723209
O O10 0.950666 0.000000 0.787946
O O11 0.090280 0.766707 0.967926
O O12 0.748850 0.000000 0.353085
O O13 0.500000 0.249541 0.500000
O O14 0.350293 0.257668 0.233207
O O15 0.359782 0.000000 0.341008
O O16 0.758207 0.500000 0.934058
#
# Coordination Sequence:
#
# PCOD9153647 Si02
#       6
#     4   4   4   4   4   4
#     4  10  22  40  61  88 127 170 212 259 317 379
#     4  11  22  38  61  89 126 167 208 260 320 376
#     4  11  23  41  66  94 126 166 215 264 318 384
#     4  11  22  37  59  89 125 165 214 262 311 377
#     4  10  24  45  67  93 127 169 213 266 329 385
#     4  11  24  41  65  97 130 170 217 266 321 382
#
# _framework density 21.677237999999999
#
# number of rings (size 3 to 8) (size 9 to 14) (size 15 to 20)
#    0.000    1.333    0.000    6.500    2.333    6.667 
#    0.000    0.000    0.000    0.000    0.000    0.000 
#    0.000    0.000    0.000    0.000    0.000    0.000 
#
# Total GULP energy -134238.757505 kJ/mol
# GULP energy per Si atom -5593.281563 kJ/mol
# Density = 2.162790 g / cm^3
# Si number density = 21.677238 Si / 1000 Ang^3
#
#
#
# Elastic Constant Matrix: (Units=GPa)
#
#
# Indices 1 2 3 4 5 6 
#
# 1 108.2042 -9.7789 52.3912 0.0000 1.0466 0.0000
# 2 -9.7789 46.2915 9.5363 0.0000 9.9868 0.0000
# 3 52.3912 9.5363 111.7663 0.0000 17.5700 0.0000
# 4 0.0000 0.0000 0.0000 24.8676 0.0000 -32.2117
# 5 1.0466 9.9868 17.5700 0.0000 50.8650 0.0000
# 6 0.0000 0.0000 0.0000 -32.2117 0.0000 -89.9793
#
#
#
# Elastic Compliance Matrix: (Units=1/GPa)
#
#
# Indices 1 2 3 4 5 6 
#
# 1 0.012700 0.003748 -0.006467 0.000000 0.001237 0.000000
# 2 0.003748 0.023844 -0.003218 0.000000 -0.003647 0.000000
# 3 -0.006467 -0.003218 0.012830 0.000000 -0.003667 0.000000
# 4 0.000000 0.000000 0.000000 0.027473 0.000000 -0.009835
# 5 0.001237 -0.003647 -0.003667 0.000000 0.021617 0.000000
# 6 0.000000 0.000000 0.000000 -0.009835 0.000000 -0.007593
#
#
# Mechanical properties :
#
#
# Convention : Reuss Voigt Hill
#
# Bulk Modulus (GPa) = 26.66727 41.17327 33.92027
# Shear Modulus (GPa) = 43.38555 11.42489 27.40522
#
# Velocity S-wave (km/s) = 4.47859 2.29824 3.55947
# Velocity P-wave (km/s) = 6.25079 5.10662 5.70745
#
# Compressibility (1/GPa) = 0.03749916
#
# Stress axis : x y z
#
# Youngs Moduli (GPa) = 78.73978 41.93959 77.94266
#
# Poissons Ratio (x) = -0.15720 0.50409
# Poissons Ratio (y) = -0.29514 0.25084
# Poissons Ratio (z) = 0.50925 0.13497
#
# Static dielectric constant tensor:
#      x y z
#    x 1.802740 0.000000 -0.024470 
#    y 0.000000 1.745380 0.000000 
#    z -0.024470 0.000000 1.836460 
# 
# From -- ./inp_files/66684.got.cif
#   From: 2010.05.17/outbox.cif.g08.bks.cpg/sg10_34_cif.got.tgz:66684.got - 2010.06.03 11:33:40.
