data_PCOD9153291
_publ_section_title
;
Structure prediction by ZEFSAII (Michael W. Deem and Ramdas Pophale) SiO2 
 PCOD9153291
Probable space group: P 2/M
;
_chemical_formula_sum "Si O2"
_cell_formula_units_Z 21
_cell_length_a 25.310420
_cell_length_b 7.808090
_cell_length_c 9.461186
_cell_angle_alpha 90.000000
_cell_angle_beta 29.973101
_cell_angle_gamma 90.000000
_cell_volume 934.128035
_symmetry_space_group_name_H-M "P 2/M"
_symmetry_group_IT_number 10
_symmetry_cell_setting 'monoclinic'
loop_
_space_group_symop_operation_xyz
x,y,z
-x,y,-z
-x,-y,-z
x,-y,z
loop_
_atom_site_type_symbol
_atom_site_label
_atom_site_fract_x
_atom_site_fract_y
_atom_site_fract_z
Si Si1 0.119678 0.796939 0.242870
Si Si2 0.320170 0.309639 0.606796
Si Si3 0.517556 0.195408 0.305020
Si Si4 0.900650 0.800746 0.386766
Si Si5 0.000000 0.500000 0.000000
Si Si6 0.307814 0.203523 0.313717
O O1 0.144778 0.777306 0.350400
O O2 0.000000 0.733863 0.500000
O O3 0.119807 0.000000 0.209319
O O4 0.206737 0.714945 0.941524
O O5 0.359223 0.500000 0.545399
O O6 0.406830 0.191072 0.479595
O O7 0.313234 0.282524 0.455724
O O8 0.500000 0.275249 0.500000
O O9 0.555987 0.000000 0.242850
O O10 0.604199 0.272897 0.998632
O O11 0.805927 0.774311 0.494907
O O12 0.938543 0.000000 0.291208
O O13 0.983677 0.653779 0.157498
O O14 0.326130 0.000000 0.289967
#
# Coordination Sequence:
#
# PCOD9153291 Si02
#       6
#     4   4   4   4   1   4
#     4  10  23  44  68  91 124 170 221 271 319 383
#     4  12  26  39  61  97 133 167 210 267 329 391
#     4  10  21  42  70  94 122 167 217 264 323 392
#     4  10  24  44  67  97 131 172 224 271 329 394
#     4  12  26  40  70  98 132 180 212 284 324 392
#     4  10  22  41  66  93 127 170 218 269 320 388
#
# _framework density 22.480858000000001
#
# number of rings (size 3 to 8) (size 9 to 14) (size 15 to 20)
#    0.000    1.524    0.000    3.714    5.333    6.857 
#    0.000    0.000    0.000    0.000    0.000    0.000 
#    0.000    0.000    0.000    0.000    0.000    0.000 
#
# Total GULP energy -117139.828139 kJ/mol
# GULP energy per Si atom -5578.087054 kJ/mol
# Density = 2.242969 g / cm^3
# Si number density = 22.480858 Si / 1000 Ang^3
#
#
#
# Elastic Constant Matrix: (Units=GPa)
#
#
# Indices 1 2 3 4 5 6 
#
# 1 96.4574 23.1263 40.2521 0.0000 26.5806 0.0000
# 2 23.1263 78.7509 36.5038 0.0000 6.7883 0.0000
# 3 40.2521 36.5038 141.2824 0.0000 31.8918 0.0000
# 4 0.0000 0.0000 0.0000 3.7961 0.0000 50.3262
# 5 26.5806 6.7883 31.8918 0.0000 40.1293 0.0000
# 6 0.0000 0.0000 0.0000 50.3262 0.0000 -29.3751
#
#
#
# Elastic Compliance Matrix: (Units=1/GPa)
#
#
# Indices 1 2 3 4 5 6 
#
# 1 0.013686 -0.002667 -0.001542 0.000000 -0.007389 0.000000
# 2 -0.002667 0.014959 -0.003574 0.000000 0.002077 0.000000
# 3 -0.001542 -0.003574 0.009839 0.000000 -0.006193 0.000000
# 4 0.000000 0.000000 0.000000 0.011109 0.000000 0.019032
# 5 -0.007389 0.002077 -0.006193 0.000000 0.034384 0.000000
# 6 0.000000 0.000000 0.000000 0.019032 0.000000 -0.001436
#
#
# Mechanical properties :
#
#
# Convention : Reuss Voigt Hill
#
# Bulk Modulus (GPa) = 43.63519 57.36167 50.49843
# Shear Modulus (GPa) = 47.28216 17.35064 32.31640
#
# Velocity S-wave (km/s) = 4.59106 2.78114 3.79556
# Velocity P-wave (km/s) = 6.89608 5.99034 6.45910
#
# Compressibility (1/GPa) = 0.02291728
#
# Stress axis : x y z
#
# Youngs Moduli (GPa) = 73.06472 66.84847 101.63862
#
# Poissons Ratio (x) = 0.17831 0.15676
# Poissons Ratio (y) = 0.19489 0.36324
# Poissons Ratio (z) = 0.11269 0.23891
#
# Static dielectric constant tensor:
#      x y z
#    x 1.810860 0.000000 -0.006350 
#    y 0.000000 1.814940 0.000000 
#    z -0.006350 0.000000 1.836050 
# 
# From -- ./inp_files/36628.got.cif
#   From: 2010.05.17/outbox.cif.g08.bks.cpg/sg10_19_cif.got.tgz:36628.got - 2010.06.03 11:33:40.
