data_PCOD9153896
_publ_section_title
;
Structure prediction by ZEFSAII (Michael W. Deem and Ramdas Pophale) SiO2 
 PCOD9153896
Probable space group: P 2/M
;
_chemical_formula_sum "Si O2"
_cell_formula_units_Z 26
_cell_length_a 21.039469
_cell_length_b 11.583383
_cell_length_c 5.302789
_cell_angle_alpha 90.000000
_cell_angle_beta 97.571761
_cell_angle_gamma 90.000000
_cell_volume 1281.064943
_symmetry_space_group_name_H-M "P 2/M"
_symmetry_group_IT_number 10
_symmetry_cell_setting 'monoclinic'
loop_
_space_group_symop_operation_xyz
x,y,z
-x,y,-z
-x,-y,-z
x,-y,z
loop_
_atom_site_type_symbol
_atom_site_label
_atom_site_fract_x
_atom_site_fract_y
_atom_site_fract_z
Si Si1 0.069702 0.223071 0.966640
Si Si2 0.749447 0.257947 0.322483
Si Si3 0.213689 0.000000 0.744958
Si Si4 0.314017 0.638971 0.209624
Si Si5 0.000000 0.278806 0.500000
Si Si6 0.536654 0.359811 0.769657
Si Si7 0.872031 0.000000 0.793974
Si Si8 0.129900 0.630585 0.364358
O O1 0.049404 0.194299 0.675507
O O2 0.085626 0.112230 0.135534
O O3 0.122583 0.314412 0.080406
O O4 0.000000 0.275236 0.000000
O O5 0.708757 0.299183 0.545013
O O6 0.821080 0.295609 0.443661
O O7 0.748767 0.120480 0.271789
O O8 0.725928 0.320679 0.055955
O O9 0.179950 0.000000 0.002435
O O10 0.161981 0.000000 0.491524
O O11 0.308691 0.500000 0.237299
O O12 0.388418 0.668959 0.198066
O O13 0.057568 0.361828 0.433249
O O14 0.500000 0.320090 0.500000
O O15 0.533625 0.500000 0.769666
O O16 0.500000 0.318872 0.000000
O O17 0.152568 0.500000 0.366001
#
# Coordination Sequence:
#
# PCOD9153896 Si02
#       8
#     4   4   2   4   2   4   2   4
#     4  10  23  39  58  85 111 148 196 260 327 397
#     4  12  25  43  64  92 127 172 216 269 320 378
#     4  12  26  44  66  88 118 169 220 264 312 384
#     4  11  23  40  65 102 138 170 211 257 313 381
#     4  10  23  39  58  84 114 155 207 256 328 396
#     4   9  17  32  58  94 137 175 205 244 300 365
#     4  12  23  43  66  86 116 147 210 274 326 390
#     4  11  23  39  59  84 117 158 205 260 328 390
#
# _framework density 20.295617
#
# number of rings (size 3 to 8) (size 9 to 14) (size 15 to 20)
#    0.000    1.231    1.538    4.615    4.308    6.154 
#    0.000    0.000    0.000    0.000    0.000   10.769 
#    0.000    0.000    0.000    0.000    0.000    0.000 
#
# Total GULP energy -144881.390655 kJ/mol
# GULP energy per Si atom -5572.361179 kJ/mol
# Density = 2.024942 g / cm^3
# Si number density = 20.295617 Si / 1000 Ang^3
#
#
#
# Elastic Constant Matrix: (Units=GPa)
#
#
# Indices 1 2 3 4 5 6 
#
# 1 136.1457 19.1546 46.9552 0.0000 -4.8509 0.0000
# 2 19.1546 69.3068 14.2051 0.0000 7.8904 0.0000
# 3 46.9552 14.2051 96.0870 0.0000 -0.9465 0.0000
# 4 0.0000 0.0000 0.0000 1012.1768 0.0000 104.1027
# 5 -4.8509 7.8904 -0.9465 0.0000 32.9880 0.0000
# 6 0.0000 0.0000 0.0000 104.1027 0.0000 24.1483
#
#
#
# Elastic Compliance Matrix: (Units=1/GPa)
#
#
# Indices 1 2 3 4 5 6 
#
# 1 0.009098 -0.001852 -0.004156 0.000000 0.001662 0.000000
# 2 -0.001852 0.015702 -0.001456 0.000000 -0.004070 0.000000
# 3 -0.004156 -0.001456 0.012654 0.000000 0.000100 0.000000
# 4 0.000000 0.000000 0.000000 0.001775 0.000000 -0.007652
# 5 0.001662 -0.004070 0.000100 0.000000 0.031535 0.000000
# 6 0.000000 0.000000 0.000000 -0.007652 0.000000 0.074397
#
#
# Mechanical properties :
#
#
# Convention : Reuss Voigt Hill
#
# Bulk Modulus (GPa) = 44.39246 51.35216 47.87231
# Shear Modulus (GPa) = 29.83306 228.61092 129.22199
#
# Velocity S-wave (km/s) = 3.83812 10.62474 7.98800
# Velocity P-wave (km/s) = 6.44686 13.26162 10.42671
#
# Compressibility (1/GPa) = 0.02252635
#
# Stress axis : x y z
#
# Youngs Moduli (GPa) = 109.91258 63.68499 79.02376
#
# Poissons Ratio (x) = 0.11794 0.32841
# Poissons Ratio (y) = 0.20354 0.11510
# Poissons Ratio (z) = 0.45678 0.09276
#
# Static dielectric constant tensor:
#      x y z
#    x 1.202390 0.000000 1.904600 
#    y 0.000000 1.734390 0.000000 
#    z 1.904600 0.000000 -5.305480 
# 
# From -- ./inp_files/12309.got.cif
#   From: 2010.05.17/outbox.cif.g08.bks.cpg/sg10_7_cif.got.tgz:12309.got - 2010.06.03 11:33:40.
