data_PCOD9153058
_publ_section_title
;
Structure prediction by ZEFSAII (Michael W. Deem and Ramdas Pophale) SiO2 
 PCOD9153058
Probable space group: P 2/M
;
_chemical_formula_sum "Si O2"
_cell_formula_units_Z 24
_cell_length_a 11.684085
_cell_length_b 8.215487
_cell_length_c 23.002207
_cell_angle_alpha 90.000000
_cell_angle_beta 151.690265
_cell_angle_gamma 90.000000
_cell_volume 1047.113351
_symmetry_space_group_name_H-M "P 2/M"
_symmetry_group_IT_number 10
_symmetry_cell_setting 'monoclinic'
loop_
_space_group_symop_operation_xyz
x,y,z
-x,y,-z
-x,-y,-z
x,-y,z
loop_
_atom_site_type_symbol
_atom_site_label
_atom_site_fract_x
_atom_site_fract_y
_atom_site_fract_z
Si Si1 0.674857 0.305194 0.262204
Si Si2 0.456874 0.756096 0.916765
Si Si3 0.962524 0.186334 0.127353
Si Si4 0.198479 0.193983 0.477222
Si Si5 0.089250 0.680957 0.302450
Si Si6 0.608194 0.693410 0.747465
O O1 0.639980 0.500000 0.233089
O O2 0.603933 0.190639 0.176057
O O3 0.516703 0.264851 0.247420
O O4 0.958851 0.275412 0.397585
O O5 0.200147 0.670469 0.814065
O O6 0.500000 0.834718 0.000000
O O7 0.729920 0.695956 0.026868
O O8 0.106011 0.212628 0.251946
O O9 0.137474 0.223924 0.152657
O O10 0.874595 0.000000 0.085616
O O11 0.204250 0.245914 0.412045
O O12 0.425193 0.254645 0.614919
O O13 0.179882 0.000000 0.472516
O O14 0.182258 0.500000 0.332965
O O15 0.642408 0.500000 0.760941
#
# Coordination Sequence:
#
# PCOD9153058 Si02
#       6
#     4   4   4   4   4   4
#     4  10  22  40  63  90 119 157 205 251 295 353
#     4   9  20  37  63  91 118 151 192 245 299 352
#     4  11  24  40  59  88 125 160 199 248 302 357
#     4  11  22  38  63  92 122 155 197 250 304 356
#     4  10  21  39  65  93 120 156 202 247 295 354
#     4  11  24  41  60  84 120 164 206 247 296 357
#
# _framework density 22.920155999999999
#
# number of rings (size 3 to 8) (size 9 to 14) (size 15 to 20)
#    0.000    1.667    0.000    5.000    0.000   17.667 
#    0.000    5.833    0.000    0.000    0.000    0.000 
#    0.000    0.000    0.000    0.000    0.000    0.000 
#
# Total GULP energy -133730.351210 kJ/mol
# GULP energy per Si atom -5572.097967 kJ/mol
# Density = 2.286799 g / cm^3
# Si number density = 22.920156 Si / 1000 Ang^3
#
#
#
# Elastic Constant Matrix: (Units=GPa)
#
#
# Indices 1 2 3 4 5 6 
#
# 1 84.1327 9.9314 21.3931 0.0000 17.2281 0.0000
# 2 9.9314 81.9725 -1.9852 0.0000 -6.8567 0.0000
# 3 21.3931 -1.9852 61.2938 0.0000 1.2333 0.0000
# 4 0.0000 0.0000 0.0000 -39.9939 0.0000 14.9278
# 5 17.2281 -6.8567 1.2333 0.0000 24.6012 0.0000
# 6 0.0000 0.0000 0.0000 14.9278 0.0000 9.6959
#
#
#
# Elastic Compliance Matrix: (Units=1/GPa)
#
#
# Indices 1 2 3 4 5 6 
#
# 1 0.016060 -0.003068 -0.005467 0.000000 -0.011828 0.000000
# 2 -0.003068 0.013083 0.001379 0.000000 0.005725 0.000000
# 3 -0.005467 0.001379 0.018201 0.000000 0.003300 0.000000
# 4 0.000000 0.000000 0.000000 -0.015879 0.000000 0.024447
# 5 -0.011828 0.005725 0.003300 0.000000 0.050362 0.000000
# 6 0.000000 0.000000 0.000000 0.024447 0.000000 0.065498
#
#
# Mechanical properties :
#
#
# Convention : Reuss Voigt Hill
#
# Bulk Modulus (GPa) = 30.27156 31.78640 31.02898
# Shear Modulus (GPa) = 28.96092 12.06463 20.51277
#
# Velocity S-wave (km/s) = 3.55851 2.29678 2.99484
# Velocity P-wave (km/s) = 5.48818 4.57515 5.05233
#
# Compressibility (1/GPa) = 0.03303430
#
# Stress axis : x y z
#
# Youngs Moduli (GPa) = 62.26587 76.43409 54.94149
#
# Poissons Ratio (x) = 0.23446 0.30035
# Poissons Ratio (y) = 0.19100 -0.07577
# Poissons Ratio (z) = 0.34039 -0.10542
#
# Static dielectric constant tensor:
#      x y z
#    x 1.844740 0.000000 0.004570 
#    y 0.000000 1.873420 0.000000 
#    z 0.004570 0.000000 1.866550 
# 
# From -- ./inp_files/88754.got.cif
#   From: 2010.05.17/outbox.cif.g08.bks.cpg/sg10_45_cif.got.tgz:88754.got - 2010.06.03 11:33:40.
