data_PCOD9153226
_publ_section_title
;
Structure prediction by ZEFSAII (Michael W. Deem and Ramdas Pophale) SiO2 
 PCOD9153226
Probable space group: P 2/M
;
_chemical_formula_sum "Si O2"
_cell_formula_units_Z 16
_cell_length_a 7.621510
_cell_length_b 5.333370
_cell_length_c 21.885581
_cell_angle_alpha 90.000000
_cell_angle_beta 58.508944
_cell_angle_gamma 90.000000
_cell_volume 758.591796
_symmetry_space_group_name_H-M "P 2/M"
_symmetry_group_IT_number 10
_symmetry_cell_setting 'monoclinic'
loop_
_space_group_symop_operation_xyz
x,y,z
-x,y,-z
-x,-y,-z
x,-y,z
loop_
_atom_site_type_symbol
_atom_site_label
_atom_site_fract_x
_atom_site_fract_y
_atom_site_fract_z
Si Si1 0.359503 0.500000 0.335678
Si Si2 0.527497 0.000000 0.068038
Si Si3 0.174773 0.500000 0.796322
Si Si4 0.133465 0.000000 0.335678
Si Si5 0.936261 0.000000 0.796322
Si Si6 0.695976 0.000000 0.419317
Si Si7 0.231611 0.500000 0.931962
Si Si8 0.453927 0.500000 0.580683
O O1 0.599512 0.500000 0.274873
O O2 0.256427 0.250000 0.329049
O O3 0.351059 0.500000 0.411061
O O4 0.299242 0.000000 0.137854
O O5 0.649077 0.750000 0.067282
O O6 0.500000 0.000000 0.000000
O O7 0.212805 0.500000 0.862146
O O8 0.050618 0.750000 0.799588
O O9 0.915758 0.000000 0.411061
O O10 0.075870 0.000000 0.274873
O O11 0.500000 0.000000 0.500000
O O12 0.673047 0.250000 0.384636
O O13 0.000000 0.500000 0.000000
O O14 0.500000 0.500000 0.500000
#
# Coordination Sequence:
#
# PCOD9153226 Si02
#       8
#     2   2   2   2   2   2   2   2
#     4  12  24  41  64  95 125 159 206 262 312 368
#     4  12  24  42  64  94 131 169 213 262 310 368
#     4  12  24  42  66  93 125 169 211 256 314 373
#     4  12  24  41  64  95 125 159 206 262 312 368
#     4  12  24  42  66  93 125 169 211 256 314 373
#     4  10  21  41  63  86 120 161 200 244 305 373
#     4  12  24  42  64  94 131 169 213 262 310 368
#     4  10  21  41  63  86 120 161 200 244 305 373
#
# _framework density 21.091715000000001
#
# number of rings (size 3 to 8) (size 9 to 14) (size 15 to 20)
#    0.000    0.500    0.000    9.750    0.000    0.000 
#    0.000   15.000    0.000    0.000    0.000    0.000 
#    0.000    0.000    0.000    0.000    0.000    0.000 
#
# Total GULP energy -89493.780248 kJ/mol
# GULP energy per Si atom -5593.361265 kJ/mol
# Density = 2.104371 g / cm^3
# Si number density = 21.091715 Si / 1000 Ang^3
#
#
#
# Elastic Constant Matrix: (Units=GPa)
#
#
# Indices 1 2 3 4 5 6 
#
# 1 186.7307 132.4553 85.2389 0.0000 -0.9106 0.0000
# 2 132.4553 279.0532 42.3912 0.0000 1.9150 0.0000
# 3 85.2389 42.3912 127.8241 0.0000 2.1633 0.0000
# 4 0.0000 0.0000 0.0000 -252.0716 0.0000 7.0014
# 5 -0.9106 1.9150 2.1633 0.0000 72.0959 0.0000
# 6 0.0000 0.0000 0.0000 7.0014 0.0000 77.1838
#
#
#
# Elastic Compliance Matrix: (Units=1/GPa)
#
#
# Indices 1 2 3 4 5 6 
#
# 1 0.011259 -0.004429 -0.006047 0.000000 0.000441 0.000000
# 2 -0.004429 0.005516 0.001128 0.000000 -0.000236 0.000000
# 3 -0.006047 0.001128 0.011489 0.000000 -0.000451 0.000000
# 4 0.000000 0.000000 0.000000 -0.003957 0.000000 0.000359
# 5 0.000441 -0.000236 -0.000451 0.000000 0.013896 0.000000
# 6 0.000000 0.000000 0.000000 0.000359 0.000000 0.012924
#
#
# Mechanical properties :
#
#
# Convention : Reuss Voigt Hill
#
# Bulk Modulus (GPa) = 104.50379 123.75323 114.12851
# Shear Modulus (GPa) = 68.48239 1.67645 35.07942
#
# Velocity S-wave (km/s) = 5.70433 0.89250 4.08264
# Velocity P-wave (km/s) = 9.64576 7.73714 8.74368
#
# Compressibility (1/GPa) = 0.00956903
#
# Stress axis : x y z
#
# Youngs Moduli (GPa) = 88.81609 181.29215 87.03870
#
# Poissons Ratio (x) = 0.80290 0.52631
# Poissons Ratio (y) = 0.39334 -0.09818
# Poissons Ratio (z) = 0.53706 -0.20449
#
# Static dielectric constant tensor:
#      x y z
#    x 1.751680 0.000000 0.000380 
#    y 0.000000 1.754850 0.000000 
#    z 0.000380 0.000000 1.733560 
# 
# From -- ./inp_files/87273.got.cif
#   From: 2010.05.17/outbox.cif.g08.bks.cpg/sg10_44_cif.got.tgz:87273.got - 2010.06.03 11:33:40.
