data_PCOD9153168
_publ_section_title
;
Structure prediction by ZEFSAII (Michael W. Deem and Ramdas Pophale) SiO2 
 PCOD9153168
Probable space group: P 2/M
;
_chemical_formula_sum "Si O2"
_cell_formula_units_Z 16
_cell_length_a 9.894843
_cell_length_b 12.916412
_cell_length_c 9.070906
_cell_angle_alpha 90.000000
_cell_angle_beta 44.316980
_cell_angle_gamma 90.000000
_cell_volume 809.929188
_symmetry_space_group_name_H-M "P 2/M"
_symmetry_group_IT_number 10
_symmetry_cell_setting 'monoclinic'
loop_
_space_group_symop_operation_xyz
x,y,z
-x,y,-z
-x,-y,-z
x,-y,z
loop_
_atom_site_type_symbol
_atom_site_label
_atom_site_fract_x
_atom_site_fract_y
_atom_site_fract_z
Si Si1 0.728709 0.116308 0.792578
Si Si2 0.903664 0.771449 0.925668
Si Si3 0.437584 0.382997 0.717990
Si Si4 0.163004 0.316569 0.479708
O O1 0.834833 0.142742 0.863139
O O2 0.787929 0.204955 0.631496
O O3 0.772176 0.000000 0.708098
O O4 0.500000 0.123861 0.000000
O O5 0.061379 0.702518 0.715532
O O6 0.719931 0.699664 0.107138
O O7 0.000000 0.811363 0.000000
O O8 0.500000 0.363867 0.500000
O O9 0.360483 0.500000 0.788756
O O10 0.634447 0.373511 0.658959
O O11 0.000000 0.364752 0.500000
#
# Coordination Sequence:
#
# PCOD9153168 Si02
#       4
#     4   4   4   4
#     4  10  21  40  65  89 120 161 197 242 306 360
#     4  11  22  38  63  90 123 158 203 247 291 357
#     4  11  23  40  62  89 124 160 200 249 303 352
#     4  10  22  39  62  90 122 160 196 249 300 354
#
# _framework density 19.754814
#
# number of rings (size 3 to 8) (size 9 to 14) (size 15 to 20)
#    0.000    1.500    5.000    0.000    0.000    7.000 
#    0.000    8.750    0.000    4.500    0.000    0.000 
#    0.000    0.000    0.000    0.000    0.000    0.000 
#
# Total GULP energy -89356.792566 kJ/mol
# GULP energy per Si atom -5584.799535 kJ/mol
# Density = 1.970985 g / cm^3
# Si number density = 19.754814 Si / 1000 Ang^3
#
#
#
# Elastic Constant Matrix: (Units=GPa)
#
#
# Indices 1 2 3 4 5 6 
#
# 1 101.8725 4.4206 18.1746 0.0000 -4.1778 0.0000
# 2 4.4206 67.3243 15.7524 0.0000 -1.4569 0.0000
# 3 18.1746 15.7524 65.3930 0.0000 -6.5627 0.0000
# 4 0.0000 0.0000 0.0000 5.2756 0.0000 8.9383
# 5 -4.1778 -1.4569 -6.5627 0.0000 38.5517 0.0000
# 6 0.0000 0.0000 0.0000 8.9383 0.0000 13.1883
#
#
#
# Elastic Compliance Matrix: (Units=1/GPa)
#
#
# Indices 1 2 3 4 5 6 
#
# 1 0.010344 -0.000008 -0.002808 0.000000 0.000643 0.000000
# 2 -0.000008 0.015741 -0.003795 0.000000 -0.000052 0.000000
# 3 -0.002808 -0.003795 0.017236 0.000000 0.002486 0.000000
# 4 0.000000 0.000000 0.000000 -1.278313 0.000000 0.866370
# 5 0.000643 -0.000052 0.002486 0.000000 0.026430 0.000000
# 6 0.000000 0.000000 0.000000 0.866370 0.000000 -0.511353
#
#
# Mechanical properties :
#
#
# Convention : Reuss Voigt Hill
#
# Bulk Modulus (GPa) = 33.22437 34.58724 33.90580
# Shear Modulus (GPa) = -2.94697 24.48592 10.76948
#
# Velocity S-wave (km/s) = -1.22271 3.52446 2.33739
# Velocity P-wave (km/s) = 3.85507 5.84027 4.94824
#
# Compressibility (1/GPa) = 0.03009839
#
# Stress axis : x y z
#
# Youngs Moduli (GPa) = 96.67500 63.52932 58.01703
#
# Poissons Ratio (x) = 0.00052 0.16294
# Poissons Ratio (y) = 0.00079 0.22016
# Poissons Ratio (z) = 0.27150 0.24108
#
# Static dielectric constant tensor:
#      x y z
#    x 1.716710 0.000000 -0.012510 
#    y 0.000000 1.658060 0.000000 
#    z -0.012510 0.000000 1.683460 
# 
# From -- ./inp_files/17467.got.cif
#   From: 2010.05.17/outbox.cif.g08.bks.cpg/sg10_9_cif.got.tgz:17467.got - 2010.06.03 11:33:40.
