data_PCOD9153059
_publ_section_title
;
Structure prediction by ZEFSAII (Michael W. Deem and Ramdas Pophale) SiO2 
 PCOD9153059
Probable space group: P 2/M
;
_chemical_formula_sum "Si O2"
_cell_formula_units_Z 30
_cell_length_a 28.475717
_cell_length_b 11.023594
_cell_length_c 27.687274
_cell_angle_alpha 90.000000
_cell_angle_beta 10.458636
_cell_angle_gamma 90.000000
_cell_volume 1577.669489
_symmetry_space_group_name_H-M "P 2/M"
_symmetry_group_IT_number 10
_symmetry_cell_setting 'monoclinic'
loop_
_space_group_symop_operation_xyz
x,y,z
-x,y,-z
-x,-y,-z
x,-y,z
loop_
_atom_site_type_symbol
_atom_site_label
_atom_site_fract_x
_atom_site_fract_y
_atom_site_fract_z
Si Si1 0.760490 0.500000 0.705965
Si Si2 0.858425 0.633550 0.422964
Si Si3 0.504518 0.134920 0.228796
Si Si4 0.260908 0.647551 0.709584
Si Si5 0.224979 0.715415 0.974237
Si Si6 0.862694 0.711669 0.527953
Si Si7 0.645331 0.861696 0.977547
Si Si8 0.247826 0.643498 0.611094
O O1 0.779821 0.615947 0.651619
O O2 0.000000 0.500000 0.500000
O O3 0.500000 0.500000 0.000000
O O4 0.740293 0.500000 0.532991
O O5 0.690716 0.750785 0.576726
O O6 0.898651 0.647596 0.439427
O O7 0.118860 0.641506 0.128022
O O8 0.384596 0.000000 0.351697
O O9 0.684176 0.159053 0.093306
O O10 0.663025 0.140468 0.018253
O O11 0.500000 0.689813 0.500000
O O12 0.266472 0.500000 0.703895
O O13 0.270413 0.682645 0.643955
O O14 0.000000 0.685833 0.000000
O O15 0.983560 0.713285 0.181915
O O16 0.476755 0.661405 0.693467
O O17 0.130386 0.777181 0.269646
O O18 0.635670 0.809769 0.750774
O O19 0.673607 0.000000 0.933045
O O20 0.180510 0.500000 0.677485
#
# Coordination Sequence:
#
# PCOD9153059 Si02
#       8
#     2   4   4   4   4   4   4   4
#     4  12  26  46  68  94 128 166 202 264 318 361
#     4  11  22  38  61  92 125 164 207 251 299 361
#     4  10  23  40  59  86 126 173 213 247 296 364
#     4   9  17  31  50  72 103 153 205 247 299 372
#     4  12  22  36  52  85 123 166 197 242 299 370
#     4  11  22  41  63  94 121 160 205 252 298 375
#     4  10  21  39  65  93 122 159 206 256 299 356
#     4  11  22  34  51  81 122 162 198 251 316 365
#
# _framework density 19.01539
#
# number of rings (size 3 to 8) (size 9 to 14) (size 15 to 20)
#    0.000    1.333    3.333    3.200    0.000    4.267 
#    1.200    0.000    0.000    8.000    0.000    0.000 
#    0.000   10.667    0.000    0.000    0.000    0.000 
#
# Total GULP energy -167484.913890 kJ/mol
# GULP energy per Si atom -5582.830463 kJ/mol
# Density = 1.897211 g / cm^3
# Si number density = 19.015390 Si / 1000 Ang^3
#
#
#
# Elastic Constant Matrix: (Units=GPa)
#
#
# Indices 1 2 3 4 5 6 
#
# 1 115.0366 18.2086 37.2019 0.0000 10.1057 0.0000
# 2 18.2086 97.6161 20.7586 0.0000 9.9822 0.0000
# 3 37.2019 20.7586 106.1613 0.0000 10.0581 0.0000
# 4 0.0000 0.0000 0.0000 24.0502 0.0000 -18.4232
# 5 10.1057 9.9822 10.0581 0.0000 32.6938 0.0000
# 6 0.0000 0.0000 0.0000 -18.4232 0.0000 56.9222
#
#
#
# Elastic Compliance Matrix: (Units=1/GPa)
#
#
# Indices 1 2 3 4 5 6 
#
# 1 0.010030 -0.001016 -0.003144 0.000000 -0.001823 0.000000
# 2 -0.001016 0.011028 -0.001556 0.000000 -0.002574 0.000000
# 3 -0.003144 -0.001556 0.011009 0.000000 -0.001940 0.000000
# 4 0.000000 0.000000 0.000000 0.055287 0.000000 0.017894
# 5 -0.001823 -0.002574 -0.001940 0.000000 0.032533 0.000000
# 6 0.000000 0.000000 0.000000 0.017894 0.000000 0.023359
#
#
# Mechanical properties :
#
#
# Convention : Reuss Voigt Hill
#
# Bulk Modulus (GPa) = 48.45982 52.35026 50.40504
# Shear Modulus (GPa) = 30.94866 38.90957 34.92912
#
# Velocity S-wave (km/s) = 4.03868 4.52842 4.29054
# Velocity P-wave (km/s) = 6.87661 7.41163 7.14913
#
# Compressibility (1/GPa) = 0.02063565
#
# Stress axis : x y z
#
# Youngs Moduli (GPa) = 99.69617 90.67856 90.83173
#
# Poissons Ratio (x) = 0.09214 0.28553
# Poissons Ratio (y) = 0.10130 0.14137
# Poissons Ratio (z) = 0.31340 0.14114
#
# Static dielectric constant tensor:
#      x y z
#    x 1.666770 0.000000 -0.014010 
#    y 0.000000 1.673040 0.000000 
#    z -0.014010 0.000000 1.671170 
# 
# From -- ./inp_files/94071.got.cif
#   From: 2010.05.17/outbox.cif.g08.bks.cpg/sg10_48_cif.got.tgz:94071.got - 2010.06.03 11:33:40.
