data_PCOD9153842
_publ_section_title
;
Structure prediction by ZEFSAII (Michael W. Deem and Ramdas Pophale) SiO2 
 PCOD9153842
Probable space group: P 2/M
;
_chemical_formula_sum "Si O2"
_cell_formula_units_Z 19
_cell_length_a 8.442965
_cell_length_b 12.985891
_cell_length_c 7.265053
_cell_angle_alpha 90.000000
_cell_angle_beta 103.390984
_cell_angle_gamma 90.000000
_cell_volume 774.880260
_symmetry_space_group_name_H-M "P 2/M"
_symmetry_group_IT_number 10
_symmetry_cell_setting 'monoclinic'
loop_
_space_group_symop_operation_xyz
x,y,z
-x,y,-z
-x,-y,-z
x,-y,z
loop_
_atom_site_type_symbol
_atom_site_label
_atom_site_fract_x
_atom_site_fract_y
_atom_site_fract_z
Si Si1 0.429617 0.296997 0.678207
Si Si2 0.896484 0.500000 0.741419
Si Si3 0.000000 0.315738 0.000000
Si Si4 0.500000 0.000000 0.000000
Si Si5 0.261128 0.500000 0.685808
Si Si6 0.815414 0.119021 0.524587
Si Si7 0.272668 0.822619 0.080916
O O1 0.500000 0.331575 0.500000
O O2 0.351217 0.394925 0.754575
O O3 0.302942 0.204448 0.597309
O O4 0.581238 0.252676 0.827265
O O5 0.890844 0.606435 0.850728
O O6 0.082755 0.500000 0.723407
O O7 0.773893 0.500000 0.541887
O O8 0.129244 0.239342 0.941902
O O9 0.641430 0.087891 0.006368
O O10 0.798413 0.136594 0.741097
O O11 0.000000 0.130025 0.500000
O O12 0.761127 0.000000 0.472485
#
# Coordination Sequence:
#
# PCOD9153842 Si02
#       7
#     4   2   2   1   2   4   4
#     4  10  23  40  70 101 137 176 226 299 347 410
#     4  10  24  43  71 105 139 182 233 294 345 424
#     4  11  26  49  68  98 146 189 234 283 354 436
#     4  12  28  46  64  98 146 190 232 284 348 440
#     4  11  23  41  73 107 135 179 236 293 358 409
#     4  10  22  42  71 102 131 174 234 295 351 408
#     4  11  26  45  69 100 141 188 235 286 351 423
#
# _framework density 24.519917
#
# number of rings (size 3 to 8) (size 9 to 14) (size 15 to 20)
#    0.000    1.474    1.053    2.842   10.316    3.368 
#    3.789    1.053    0.000    0.000    0.000    0.000 
#    0.000    0.000    0.000    0.000    0.000    0.000 
#
# Total GULP energy -106134.643376 kJ/mol
# GULP energy per Si atom -5586.033862 kJ/mol
# Density = 2.446411 g / cm^3
# Si number density = 24.519917 Si / 1000 Ang^3
#
#
#
# Elastic Constant Matrix: (Units=GPa)
#
#
# Indices 1 2 3 4 5 6 
#
# 1 127.4895 90.8169 12.2821 0.0000 -9.1700 0.0000
# 2 90.8169 183.5359 16.0128 0.0000 1.1938 0.0000
# 3 12.2821 16.0128 48.5783 0.0000 -17.8146 0.0000
# 4 0.0000 0.0000 0.0000 -242.6591 0.0000 -192.4946
# 5 -9.1700 1.1938 -17.8146 0.0000 33.0947 0.0000
# 6 0.0000 0.0000 0.0000 -192.4946 0.0000 -70.9217
#
#
#
# Elastic Compliance Matrix: (Units=1/GPa)
#
#
# Indices 1 2 3 4 5 6 
#
# 1 0.012555 -0.006265 0.000311 0.000000 0.003872 0.000000
# 2 -0.006265 0.008796 -0.002577 0.000000 -0.003440 0.000000
# 3 0.000311 -0.002577 0.026691 0.000000 0.014546 0.000000
# 4 0.000000 0.000000 0.000000 0.003574 0.000000 -0.009700
# 5 0.003872 -0.003440 0.014546 0.000000 0.039244 0.000000
# 6 0.000000 0.000000 0.000000 -0.009700 0.000000 0.012228
#
#
# Mechanical properties :
#
#
# Convention : Reuss Voigt Hill
#
# Bulk Modulus (GPa) = 32.27967 66.42527 49.35247
# Shear Modulus (GPa) = 38.32135 -40.06443 -0.87154
#
# Velocity S-wave (km/s) = 3.95760 -4.04661 -0.59684
# Velocity P-wave (km/s) = 5.83753 2.30560 4.43805
#
# Compressibility (1/GPa) = 0.03097925
#
# Stress axis : x y z
#
# Youngs Moduli (GPa) = 79.64928 113.69253 37.46620
#
# Poissons Ratio (x) = 0.71226 -0.01164
# Poissons Ratio (y) = 0.49898 0.09655
# Poissons Ratio (z) = -0.02475 0.29299
#
# Static dielectric constant tensor:
#      x y z
#    x 1.898170 0.000000 -0.053150 
#    y 0.000000 1.895630 0.000000 
#    z -0.053150 0.000000 2.016370 
# 
# From -- ./inp_files/17991.got.cif
#   From: 2010.05.17/outbox.cif.g08.bks.cpg/sg10_9_cif.got.tgz:17991.got - 2010.06.03 11:33:40.
