data_PCOD9153745
_publ_section_title
;
Structure prediction by ZEFSAII (Michael W. Deem and Ramdas Pophale) SiO2 
 PCOD9153745
Probable space group: P 2/M
;
_chemical_formula_sum "Si O2"
_cell_formula_units_Z 20
_cell_length_a 21.964560
_cell_length_b 7.696826
_cell_length_c 9.511977
_cell_angle_alpha 90.000000
_cell_angle_beta 39.737979
_cell_angle_gamma 90.000000
_cell_volume 1028.003302
_symmetry_space_group_name_H-M "P 2/M"
_symmetry_group_IT_number 10
_symmetry_cell_setting 'monoclinic'
loop_
_space_group_symop_operation_xyz
x,y,z
-x,y,-z
-x,-y,-z
x,-y,z
loop_
_atom_site_type_symbol
_atom_site_label
_atom_site_fract_x
_atom_site_fract_y
_atom_site_fract_z
Si Si1 0.583283 0.500000 0.740702
Si Si2 0.905100 0.294268 0.087608
Si Si3 0.281490 0.207845 0.083856
Si Si4 0.561673 0.500000 0.251735
Si Si5 0.279036 0.194228 0.419115
Si Si6 0.091600 0.790395 0.248229
O O1 0.523475 0.500000 0.707369
O O2 0.648592 0.333195 0.647943
O O3 0.500000 0.500000 0.000000
O O4 0.894128 0.500000 0.132323
O O5 0.815709 0.204201 0.319659
O O6 0.910573 0.265760 0.910505
O O7 0.000000 0.235496 0.000000
O O8 0.259326 0.233406 0.289388
O O9 0.189636 0.257642 0.153219
O O10 0.299990 0.000000 0.030740
O O11 0.369783 0.331958 0.888522
O O12 0.500000 0.500000 0.500000
O O13 0.319221 0.000000 0.353700
O O14 0.000000 0.727796 0.500000
O O15 0.088108 0.000000 0.254539
#
# Coordination Sequence:
#
# PCOD9153745 Si02
#       6
#     2   4   4   2   4   4
#     4  12  24  46  67  96 127 162 223 268 315 394
#     4  11  24  40  63  98 134 169 215 262 312 383
#     4  10  23  43  66  96 127 165 214 258 316 385
#     4  12  28  44  67  90 129 172 205 270 327 368
#     4  11  23  42  70  96 129 169 211 268 322 374
#     4  10  22  41  64  93 131 170 211 258 313 384
#
# _framework density 19.455190999999999
#
# number of rings (size 3 to 8) (size 9 to 14) (size 15 to 20)
#    0.000    1.200    3.000    1.800    4.200    5.200 
#    0.000    0.000    0.000    0.000    0.000    0.000 
#    0.000    0.000    0.000    0.000    0.000    0.000 
#
# Total GULP energy -111740.924672 kJ/mol
# GULP energy per Si atom -5587.046234 kJ/mol
# Density = 1.941091 g / cm^3
# Si number density = 19.455191 Si / 1000 Ang^3
#
#
#
# Elastic Constant Matrix: (Units=GPa)
#
#
# Indices 1 2 3 4 5 6 
#
# 1 200.4798 67.9998 85.2863 0.0000 1.9210 0.0000
# 2 67.9998 92.3770 50.5602 0.0000 -11.3022 0.0000
# 3 85.2863 50.5602 155.4700 0.0000 13.3548 0.0000
# 4 0.0000 0.0000 0.0000 -289.2200 0.0000 221.8504
# 5 1.9210 -11.3022 13.3548 0.0000 37.6017 0.0000
# 6 0.0000 0.0000 0.0000 221.8504 0.0000 -133.0386
#
#
#
# Elastic Compliance Matrix: (Units=1/GPa)
#
#
# Indices 1 2 3 4 5 6 
#
# 1 0.007570 -0.004150 -0.002747 0.000000 -0.000659 0.000000
# 2 -0.004150 0.016722 -0.003725 0.000000 0.006561 0.000000
# 3 -0.002747 -0.003725 0.009525 0.000000 -0.004362 0.000000
# 4 0.000000 0.000000 0.000000 0.012387 0.000000 0.020656
# 5 -0.000659 0.006561 -0.004362 0.000000 0.030150 0.000000
# 6 0.000000 0.000000 0.000000 0.020656 0.000000 0.026929
#
#
# Mechanical properties :
#
#
# Convention : Reuss Voigt Hill
#
# Bulk Modulus (GPa) = 79.53195 95.11326 87.32260
# Shear Modulus (GPa) = 38.84488 -60.63266 -10.89389
#
# Velocity S-wave (km/s) = 4.47322 -5.58864 -2.36889
# Velocity P-wave (km/s) = 8.22483 2.71119 6.12366
#
# Compressibility (1/GPa) = 0.01257356
#
# Stress axis : x y z
#
# Youngs Moduli (GPa) = 132.09295 59.80307 104.98624
#
# Poissons Ratio (x) = 0.24818 0.28837
# Poissons Ratio (y) = 0.54817 0.39108
# Poissons Ratio (z) = 0.36283 0.22277
#
# Static dielectric constant tensor:
#      x y z
#    x 1.633580 0.000000 0.006490 
#    y 0.000000 1.695080 0.000000 
#    z 0.006490 0.000000 1.577100 
# 
# From -- ./inp_files/33686.got.cif
#   From: 2010.05.17/outbox.cif.g08.bks.cpg/sg10_17_cif.got.tgz:33686.got - 2010.06.03 11:33:40.
