data_PCOD9153504
_publ_section_title
;
Structure prediction by ZEFSAII (Michael W. Deem and Ramdas Pophale) SiO2 
 PCOD9153504
Probable space group: P 2/M
;
_chemical_formula_sum "Si O2"
_cell_formula_units_Z 32
_cell_length_a 14.524329
_cell_length_b 8.586564
_cell_length_c 14.357033
_cell_angle_alpha 90.000000
_cell_angle_beta 118.930609
_cell_angle_gamma 90.000000
_cell_volume 1567.077889
_symmetry_space_group_name_H-M "P 2/M"
_symmetry_group_IT_number 10
_symmetry_cell_setting 'monoclinic'
loop_
_space_group_symop_operation_xyz
x,y,z
-x,y,-z
-x,-y,-z
x,-y,z
loop_
_atom_site_type_symbol
_atom_site_label
_atom_site_fract_x
_atom_site_fract_y
_atom_site_fract_z
Si Si1 0.815936 0.183395 0.066726
Si Si2 0.961205 0.311905 0.759432
Si Si3 0.594869 0.311892 0.979115
Si Si4 0.621414 0.820110 0.596208
Si Si5 0.090516 0.690523 0.474934
Si Si6 0.544001 0.688079 0.743446
Si Si7 0.682995 0.686486 0.437262
Si Si8 0.122955 0.320912 0.092853
O O1 0.919925 0.261878 0.159900
O O2 0.823878 0.000000 0.080753
O O3 0.709075 0.246188 0.059583
O O4 0.817020 0.227859 0.957338
O O5 0.956352 0.500000 0.761165
O O6 0.932037 0.260761 0.641971
O O7 0.885180 0.256653 0.806239
O O8 0.599975 0.500000 0.984551
O O9 0.571589 0.264239 0.861266
O O10 0.500000 0.262475 0.000000
O O11 0.500000 0.810477 0.500000
O O12 0.619162 0.749044 0.698172
O O13 0.684249 0.730084 0.547054
O O14 0.652096 0.000000 0.613484
O O15 0.088938 0.500000 0.475496
O O16 0.209041 0.740929 0.556812
O O17 0.000000 0.744954 0.500000
O O18 0.545475 0.500000 0.740117
O O19 0.425454 0.743898 0.660884
O O20 0.680218 0.500000 0.429711
O O21 0.161508 0.500000 0.111394
O O22 0.000000 0.324424 0.000000
#
# Coordination Sequence:
#
# PCOD9153504 Si02
#       8
#     4   4   4   4   4   4   4   4
#     4  11  22  35  54  80 109 140 173 217 269 315
#     4   9  18  34  56  80 108 142 176 214 262 314
#     4  10  22  39  57  77 102 138 183 223 261 311
#     4   9  17  30  50  77 107 138 171 207 254 313
#     4   9  18  32  53  81 107 134 175 222 260 299
#     4   9  18  33  54  79 106 135 169 214 263 309
#     4   9  17  31  52  79 108 136 170 214 261 306
#     4   8  15  30  52  78 107 138 173 213 260 316
#
# _framework density 20.420172999999998
#
# number of rings (size 3 to 8) (size 9 to 14) (size 15 to 20)
#    0.000    2.750    0.000    2.250    0.000    6.500 
#    0.000    6.875    0.000    4.500    0.000    0.000 
#    0.000    0.000    0.000    0.000    0.000    0.000 
#
# Total GULP energy -178605.475606 kJ/mol
# GULP energy per Si atom -5581.421113 kJ/mol
# Density = 2.037370 g / cm^3
# Si number density = 20.420173 Si / 1000 Ang^3
#
#
#
# Elastic Constant Matrix: (Units=GPa)
#
#
# Indices 1 2 3 4 5 6 
#
# 1 107.8798 -0.1172 4.6821 0.0000 11.9368 0.0000
# 2 -0.1172 1.7796 -3.5953 0.0000 -0.4927 0.0000
# 3 4.6821 -3.5953 48.8342 0.0000 2.4199 0.0000
# 4 0.0000 0.0000 0.0000 -3.8208 0.0000 8.4561
# 5 11.9368 -0.4927 2.4199 0.0000 19.4999 0.0000
# 6 0.0000 0.0000 0.0000 8.4561 0.0000 -7.4481
#
#
#
# Elastic Compliance Matrix: (Units=1/GPa)
#
#
# Indices 1 2 3 4 5 6 
#
# 1 0.009975 -0.002758 -0.000859 0.000000 -0.006070 0.000000
# 2 -0.002758 0.663091 0.048468 0.000000 0.012426 0.000000
# 3 -0.000859 0.048468 0.024190 0.000000 -0.001252 0.000000
# 4 0.000000 0.000000 0.000000 0.173013 0.000000 0.196430
# 5 -0.006070 0.012426 -0.001252 0.000000 0.055467 0.000000
# 6 0.000000 0.000000 0.000000 0.196430 0.000000 0.088754
#
#
# Mechanical properties :
#
#
# Convention : Reuss Voigt Hill
#
# Bulk Modulus (GPa) = 1.27072 17.82588 9.54830
# Shear Modulus (GPa) = 4.21192 12.14783 8.17987
#
# Velocity S-wave (km/s) = 1.43774 2.44169 2.00362
# Velocity P-wave (km/s) = 1.83842 4.08627 3.16839
#
# Compressibility (1/GPa) = 0.78695759
#
# Stress axis : x y z
#
# Youngs Moduli (GPa) = 100.24626 1.50809 41.33906
#
# Poissons Ratio (x) = 0.00416 0.03550
# Poissons Ratio (y) = 0.27653 -2.00361
# Poissons Ratio (z) = 0.08609 -0.07309
#
# Static dielectric constant tensor:
#      x y z
#    x 1.741590 0.000000 0.026070 
#    y 0.000000 1.687510 0.000000 
#    z 0.026070 0.000000 1.756760 
# 
# From -- ./inp_files/66592.got.cif
#   From: 2010.05.17/outbox.cif.g08.bks.cpg/sg10_34_cif.got.tgz:66592.got - 2010.06.03 11:33:40.
