data_PCOD9153276
_publ_section_title
;
Structure prediction by ZEFSAII (Michael W. Deem and Ramdas Pophale) SiO2 
 PCOD9153276
Probable space group: P 2/M
;
_chemical_formula_sum "Si O2"
_cell_formula_units_Z 24
_cell_length_a 9.540218
_cell_length_b 21.751462
_cell_length_c 5.130188
_cell_angle_alpha 90.000000
_cell_angle_beta 101.504785
_cell_angle_gamma 90.000000
_cell_volume 1043.194667
_symmetry_space_group_name_H-M "P 2/M"
_symmetry_group_IT_number 10
_symmetry_cell_setting 'monoclinic'
loop_
_space_group_symop_operation_xyz
x,y,z
-x,y,-z
-x,-y,-z
x,-y,z
loop_
_atom_site_type_symbol
_atom_site_label
_atom_site_fract_x
_atom_site_fract_y
_atom_site_fract_z
Si Si1 0.600132 0.929874 0.283327
Si Si2 0.845551 0.261898 0.800623
Si Si3 0.843355 0.867046 0.572583
Si Si4 0.100355 0.000000 0.281420
Si Si5 0.216951 0.427995 0.755743
Si Si6 0.351909 0.629589 0.289257
Si Si7 0.000000 0.657192 0.500000
O O1 0.500000 0.923767 0.500000
O O2 0.719843 0.877287 0.315827
O O3 0.662953 0.000000 0.304135
O O4 0.500000 0.925761 0.000000
O O5 0.815559 0.190848 0.743521
O O6 0.715573 0.305409 0.836504
O O7 0.878189 0.295159 0.538436
O O8 0.000000 0.266853 0.000000
O O9 0.827728 0.933067 0.708044
O O10 0.000000 0.861003 0.500000
O O11 0.000000 0.000000 0.500000
O O12 0.000000 0.000000 0.000000
O O13 0.188345 0.500000 0.752831
O O14 0.264239 0.407410 0.481920
O O15 0.072310 0.387744 0.738237
O O16 0.333333 0.410761 0.019701
O O17 0.500000 0.639740 0.500000
#
# Coordination Sequence:
#
# PCOD9153276 Si02
#       7
#     4   4   4   2   4   4   2
#     4  10  23  44  66  94 135 177 216 272 344 409
#     4  11  22  42  66  91 131 180 224 271 328 397
#     4  11  23  42  69 102 130 177 230 287 341 399
#     4  10  22  38  58  96 132 158 207 282 337 382
#     4  11  23  41  70  99 133 173 221 277 334 399
#     4  11  25  43  65  98 137 177 221 274 335 400
#     4  10  21  42  60  97 134 172 222 266 332 389
#
# _framework density 23.006253999999998
#
# number of rings (size 3 to 8) (size 9 to 14) (size 15 to 20)
#    0.000    1.333    3.333    1.750    0.000    6.667 
#    0.000    5.833    0.000    0.000    0.000    0.000 
#    0.000    0.000    0.000    0.000    0.000    0.000 
#
# Total GULP energy -133815.735093 kJ/mol
# GULP energy per Si atom -5575.655629 kJ/mol
# Density = 2.295389 g / cm^3
# Si number density = 23.006254 Si / 1000 Ang^3
#
#
#
# Elastic Constant Matrix: (Units=GPa)
#
#
# Indices 1 2 3 4 5 6 
#
# 1 58.3520 20.6539 18.4208 0.0000 15.1862 0.0000
# 2 20.6539 188.2954 45.4917 0.0000 16.6515 0.0000
# 3 18.4208 45.4917 120.8986 0.0000 10.3061 0.0000
# 4 0.0000 0.0000 0.0000 30.0404 0.0000 4.6943
# 5 15.1862 16.6515 10.3061 0.0000 37.8458 0.0000
# 6 0.0000 0.0000 0.0000 4.6943 0.0000 11.2932
#
#
#
# Elastic Compliance Matrix: (Units=1/GPa)
#
#
# Indices 1 2 3 4 5 6 
#
# 1 0.019983 -0.001081 -0.002043 0.000000 -0.006987 0.000000
# 2 -0.001081 0.006055 -0.001969 0.000000 -0.001694 0.000000
# 3 -0.002043 -0.001969 0.009398 0.000000 -0.000873 0.000000
# 4 0.000000 0.000000 0.000000 0.035601 0.000000 -0.014799
# 5 -0.006987 -0.001694 -0.000873 0.000000 0.030210 0.000000
# 6 0.000000 0.000000 0.000000 -0.014799 0.000000 0.094700
#
#
# Mechanical properties :
#
#
# Convention : Reuss Voigt Hill
#
# Bulk Modulus (GPa) = 39.60208 59.63097 49.61653
# Shear Modulus (GPa) = 23.30469 34.70119 29.00294
#
# Velocity S-wave (km/s) = 3.18618 3.88795 3.55442
# Velocity P-wave (km/s) = 5.54857 6.79195 6.20150
#
# Compressibility (1/GPa) = 0.02525120
#
# Stress axis : x y z
#
# Youngs Moduli (GPa) = 50.04255 165.15484 106.40517
#
# Poissons Ratio (x) = 0.17846 0.21734
# Poissons Ratio (y) = 0.05407 0.20954
# Poissons Ratio (z) = 0.10221 0.32524
#
# Static dielectric constant tensor:
#      x y z
#    x 1.982920 0.000000 0.023980 
#    y 0.000000 1.840070 0.000000 
#    z 0.023980 0.000000 1.922580 
# 
# From -- ./inp_files/7645.got.cif
#   From: 2010.05.17/outbox.cif.g08.bks.cpg/sg10_4_cif.got.tgz:7645.got - 2010.06.03 11:33:40.
