data_PCOD9153096
_publ_section_title
;
Structure prediction by ZEFSAII (Michael W. Deem and Ramdas Pophale) SiO2 
 PCOD9153096
Probable space group: P 2/M
;
_chemical_formula_sum "Si O2"
_cell_formula_units_Z 20
_cell_length_a 8.927205
_cell_length_b 11.959340
_cell_length_c 9.809974
_cell_angle_alpha 90.000000
_cell_angle_beta 58.013216
_cell_angle_gamma 90.000000
_cell_volume 888.328593
_symmetry_space_group_name_H-M "P 2/M"
_symmetry_group_IT_number 10
_symmetry_cell_setting 'monoclinic'
loop_
_space_group_symop_operation_xyz
x,y,z
-x,y,-z
-x,-y,-z
x,-y,z
loop_
_atom_site_type_symbol
_atom_site_label
_atom_site_fract_x
_atom_site_fract_y
_atom_site_fract_z
Si Si1 0.651461 0.874764 0.131427
Si Si2 0.297890 0.747835 0.316806
Si Si3 0.306038 0.214829 0.603134
Si Si4 0.748947 0.500000 0.986144
Si Si5 0.625224 0.500000 0.728650
Si Si6 0.077312 0.270335 0.150513
O O1 0.490423 0.790069 0.173144
O O2 0.665150 0.873004 0.289284
O O3 0.614711 0.000000 0.101346
O O4 0.832266 0.827457 0.981349
O O5 0.262133 0.820054 0.469374
O O6 0.305606 0.617739 0.360263
O O7 0.159511 0.749913 0.261548
O O8 0.500000 0.271793 0.500000
O O9 0.132228 0.277614 0.736723
O O10 0.678605 0.500000 0.863138
O O11 0.854721 0.386030 0.944131
O O12 0.585992 0.500000 0.167851
#
# Coordination Sequence:
#
# PCOD9153096 Si02
#       6
#     4   4   4   2   2   4
#     4  11  24  43  65  90 124 164 206 257 316 368
#     4  10  21  39  67  96 126 157 204 255 305 370
#     4  10  24  42  59  87 128 169 202 246 312 367
#     4   9  18  33  63  96 128 156 197 252 311 362
#     4   9  16  35  62  96 129 160 188 248 319 366
#     4  11  21  40  67  95 121 162 212 253 298 365
#
# _framework density 22.514189999999999
#
# number of rings (size 3 to 8) (size 9 to 14) (size 15 to 20)
#    0.000    1.800    2.000    1.800    0.000    7.600 
#    0.000   15.000    0.000    7.200    0.000    0.000 
#    0.000    0.000    0.000    0.000    0.000    0.000 
#
# Total GULP energy -111566.452047 kJ/mol
# GULP energy per Si atom -5578.322602 kJ/mol
# Density = 2.246295 g / cm^3
# Si number density = 22.514190 Si / 1000 Ang^3
#
#
#
# Elastic Constant Matrix: (Units=GPa)
#
#
# Indices 1 2 3 4 5 6 
#
# 1 111.6332 28.4465 41.8758 0.0000 -3.0635 0.0000
# 2 28.4465 94.3727 14.9381 0.0000 -10.0344 0.0000
# 3 41.8758 14.9381 89.4875 0.0000 -10.3386 0.0000
# 4 0.0000 0.0000 0.0000 13.9191 0.0000 0.2904
# 5 -3.0635 -10.0344 -10.3386 0.0000 54.9895 0.0000
# 6 0.0000 0.0000 0.0000 0.2904 0.0000 8.8178
#
#
#
# Elastic Compliance Matrix: (Units=1/GPa)
#
#
# Indices 1 2 3 4 5 6 
#
# 1 0.011525 -0.002764 -0.005025 0.000000 -0.000807 0.000000
# 2 -0.002764 0.011701 -0.000440 0.000000 0.001898 0.000000
# 3 -0.005025 -0.000440 0.013859 0.000000 0.002245 0.000000
# 4 0.000000 0.000000 0.000000 0.071893 0.000000 -0.002367
# 5 -0.000807 0.001898 0.002245 0.000000 0.018909 0.000000
# 6 0.000000 0.000000 0.000000 -0.002367 0.000000 0.113485
#
#
# Mechanical properties :
#
#
# Convention : Reuss Voigt Hill
#
# Bulk Modulus (GPa) = 48.48272 51.77935 50.13104
# Shear Modulus (GPa) = 18.88883 29.56082 24.22483
#
# Velocity S-wave (km/s) = 2.89965 3.62745 3.28377
# Velocity P-wave (km/s) = 5.72640 6.37126 6.05742
#
# Compressibility (1/GPa) = 0.02062590
#
# Stress axis : x y z
#
# Youngs Moduli (GPa) = 86.76662 85.46196 72.15471
#
# Poissons Ratio (x) = 0.23625 0.36258
# Poissons Ratio (y) = 0.23986 0.03177
# Poissons Ratio (z) = 0.43600 0.03763
#
# Static dielectric constant tensor:
#      x y z
#    x 1.879100 0.000000 0.022770 
#    y 0.000000 1.777680 0.000000 
#    z 0.022770 0.000000 1.862310 
# 
# From -- ./inp_files/41903.got.cif
#   From: 2010.05.17/outbox.cif.g08.bks.cpg/sg10_21_cif.got.tgz:41903.got - 2010.06.03 11:33:40.
