data_PCOD9153946
_publ_section_title
;
Structure prediction by ZEFSAII (Michael W. Deem and Ramdas Pophale) SiO2 
 PCOD9153946
Probable space group: P 2/M
;
_chemical_formula_sum "Si O2"
_cell_formula_units_Z 13
_cell_length_a 5.685089
_cell_length_b 18.610412
_cell_length_c 5.029427
_cell_angle_alpha 90.000000
_cell_angle_beta 87.044286
_cell_angle_gamma 90.000000
_cell_volume 531.414785
_symmetry_space_group_name_H-M "P 2/M"
_symmetry_group_IT_number 10
_symmetry_cell_setting 'monoclinic'
loop_
_space_group_symop_operation_xyz
x,y,z
-x,y,-z
-x,-y,-z
x,-y,z
loop_
_atom_site_type_symbol
_atom_site_label
_atom_site_fract_x
_atom_site_fract_y
_atom_site_fract_z
Si Si1 0.337335 0.773974 0.268460
Si Si2 0.330530 0.389786 0.267776
Si Si3 0.329312 0.000000 0.761204
Si Si4 0.000000 0.500000 0.000000
Si Si5 0.000000 0.879394 0.000000
O O1 0.500000 0.799325 0.500000
O O2 0.257916 0.692363 0.331714
O O3 0.136875 0.828390 0.195840
O O4 0.500000 0.768893 0.000000
O O5 0.500000 0.414735 0.500000
O O6 0.500000 0.392349 0.000000
O O7 0.112003 0.437920 0.193586
O O8 0.500000 0.000000 0.500000
O O9 0.165728 0.069261 0.813960
O O10 0.500000 0.000000 0.000000
#
# Coordination Sequence:
#
# PCOD9153946 Si02
#       5
#     4   4   2   1   2
#     4  10  23  43  68 100 135 174 231 292 341 403
#     4  10  23  41  61  95 136 173 225 287 338 397
#     4  11  28  49  69 104 147 179 224 287 345 418
#     4  12  22  38  66  92 132 188 228 266 342 416
#     4  11  25  46  77 101 134 190 234 277 355 422
#
# _framework density 24.462997999999999
#
# number of rings (size 3 to 8) (size 9 to 14) (size 15 to 20)
#    0.000    1.538    0.000    2.769    0.000   13.538 
#    0.000   11.538    0.000    0.000    0.000    2.154 
#    0.000    0.000    0.000    0.000    0.000    0.000 
#
# Total GULP energy -72626.367668 kJ/mol
# GULP energy per Si atom -5586.643667 kJ/mol
# Density = 2.440732 g / cm^3
# Si number density = 24.462998 Si / 1000 Ang^3
#
#
#
# Elastic Constant Matrix: (Units=GPa)
#
#
# Indices 1 2 3 4 5 6 
#
# 1 159.2901 123.0792 91.6304 0.0000 53.7352 0.0000
# 2 123.0792 206.5318 50.5918 0.0000 47.2151 0.0000
# 3 91.6304 50.5918 187.4839 0.0000 40.3410 0.0000
# 4 0.0000 0.0000 0.0000 63.5765 0.0000 4.0706
# 5 53.7352 47.2151 40.3410 0.0000 71.6130 0.0000
# 6 0.0000 0.0000 0.0000 4.0706 0.0000 98.0363
#
#
#
# Elastic Compliance Matrix: (Units=1/GPa)
#
#
# Indices 1 2 3 4 5 6 
#
# 1 0.016646 -0.007622 -0.005089 0.000000 -0.004598 0.000000
# 2 -0.007622 0.009307 0.001483 0.000000 -0.001253 0.000000
# 3 -0.005089 0.001483 0.007749 0.000000 -0.001524 0.000000
# 4 0.000000 0.000000 0.000000 0.015771 0.000000 -0.000655
# 5 -0.004598 -0.001253 -0.001524 0.000000 0.019099 0.000000
# 6 0.000000 0.000000 0.000000 -0.000655 0.000000 0.010227
#
#
# Mechanical properties :
#
#
# Convention : Reuss Voigt Hill
#
# Bulk Modulus (GPa) = 88.92364 120.43427 104.67895
# Shear Modulus (GPa) = 47.61734 65.84545 56.73139
#
# Velocity S-wave (km/s) = 4.41671 5.19372 4.82090
# Velocity P-wave (km/s) = 7.90183 9.23604 8.59486
#
# Compressibility (1/GPa) = 0.01124560
#
# Stress axis : x y z
#
# Youngs Moduli (GPa) = 60.07485 107.44494 129.05135
#
# Poissons Ratio (x) = 0.81894 0.65678
# Poissons Ratio (y) = 0.45789 -0.19141
# Poissons Ratio (z) = 0.30574 -0.15936
#
# Static dielectric constant tensor:
#      x y z
#    x 2.002030 0.000000 -0.042020 
#    y 0.000000 1.996070 0.000000 
#    z -0.042020 0.000000 1.906150 
# 
# From -- ./inp_files/763.got.cif
#   From: 2010.05.17/outbox.cif.g08.bks.cpg/sg10_1_cif.got.tgz:763.got - 2010.06.03 11:33:40.
