data_PCOD9153024
_publ_section_title
;
Structure prediction by ZEFSAII (Michael W. Deem and Ramdas Pophale) SiO2 
 PCOD9153024
Probable space group: P 2/M
;
_chemical_formula_sum "Si O2"
_cell_formula_units_Z 24
_cell_length_a 22.103215
_cell_length_b 8.539144
_cell_length_c 11.175531
_cell_angle_alpha 90.000000
_cell_angle_beta 32.446296
_cell_angle_gamma 90.000000
_cell_volume 1131.657080
_symmetry_space_group_name_H-M "P 2/M"
_symmetry_group_IT_number 10
_symmetry_cell_setting 'monoclinic'
loop_
_space_group_symop_operation_xyz
x,y,z
-x,y,-z
-x,-y,-z
x,-y,z
loop_
_atom_site_type_symbol
_atom_site_label
_atom_site_fract_x
_atom_site_fract_y
_atom_site_fract_z
Si Si1 0.819409 0.185567 0.110703
Si Si2 0.846687 0.184698 0.332937
Si Si3 0.759643 0.812506 0.834552
Si Si4 0.030243 0.317357 0.642618
Si Si5 0.369804 0.686430 0.720423
Si Si6 0.380833 0.814176 0.159369
O O1 0.866528 0.230628 0.163079
O O2 0.702116 0.268708 0.276348
O O3 0.801642 0.000000 0.142526
O O4 0.912395 0.228563 0.856174
O O5 0.906367 0.282072 0.337053
O O6 0.713218 0.197922 0.581080
O O7 0.877999 0.000000 0.297242
O O8 0.882977 0.741722 0.602889
O O9 0.677953 0.753767 0.863138
O O10 0.770733 0.000000 0.807179
O O11 0.698329 0.765860 0.058019
O O12 0.008343 0.500000 0.664079
O O13 0.500000 0.738497 0.500000
O O14 0.368101 0.500000 0.739716
O O15 0.398569 0.000000 0.107332
O O16 0.500000 0.744960 0.000000
#
# Coordination Sequence:
#
# PCOD9153024 Si02
#       6
#     4   4   4   4   4   4
#     4  11  23  39  63  91 121 160 211 256 297 353
#     4   9  19  35  57  89 125 158 199 252 299 351
#     4  10  21  39  64  89 119 156 205 257 298 351
#     4  11  22  38  62  91 127 162 197 245 312 373
#     4  11  26  45  62  86 125 164 200 246 304 366
#     4   8  15  29  54  86 116 148 190 244 298 343
#
# _framework density 21.207837000000001
#
# number of rings (size 3 to 8) (size 9 to 14) (size 15 to 20)
#    0.000    2.000    0.000    4.500    2.333    5.333 
#    0.000    3.333    0.000    2.500    0.000    0.000 
#    0.000    0.000    0.000    0.000    0.000    0.000 
#
# Total GULP energy -134099.756688 kJ/mol
# GULP energy per Si atom -5587.489862 kJ/mol
# Density = 2.115957 g / cm^3
# Si number density = 21.207837 Si / 1000 Ang^3
#
#
#
# Elastic Constant Matrix: (Units=GPa)
#
#
# Indices 1 2 3 4 5 6 
#
# 1 43.8175 -4.5944 23.3827 0.0000 -2.5619 0.0000
# 2 -4.5944 22.6797 -0.8780 0.0000 1.7057 0.0000
# 3 23.3827 -0.8780 62.3676 0.0000 -3.7138 0.0000
# 4 0.0000 0.0000 0.0000 11.7794 0.0000 -7.9928
# 5 -2.5619 1.7057 -3.7138 0.0000 41.8897 0.0000
# 6 0.0000 0.0000 0.0000 -7.9928 0.0000 17.0350
#
#
#
# Elastic Compliance Matrix: (Units=1/GPa)
#
#
# Indices 1 2 3 4 5 6 
#
# 1 0.029214 0.005453 -0.010840 0.000000 0.000604 0.000000
# 2 0.005453 0.045262 -0.001505 0.000000 -0.001643 0.000000
# 3 -0.010840 -0.001505 0.020147 0.000000 0.001185 0.000000
# 4 0.000000 0.000000 0.000000 0.124546 0.000000 0.058437
# 5 0.000604 -0.001643 0.001185 0.000000 0.024081 0.000000
# 6 0.000000 0.000000 0.000000 0.058437 0.000000 0.086121
#
#
# Mechanical properties :
#
#
# Convention : Reuss Voigt Hill
#
# Bulk Modulus (GPa) = 12.37023 18.29838 15.33430
# Shear Modulus (GPa) = 13.50978 21.53778 17.52378
#
# Velocity S-wave (km/s) = 2.52666 3.19024 2.87764
# Velocity P-wave (km/s) = 3.78913 4.71349 4.27636
#
# Compressibility (1/GPa) = 0.08083924
#
# Stress axis : x y z
#
# Youngs Moduli (GPa) = 34.23060 22.09343 49.63412
#
# Poissons Ratio (x) = -0.12048 0.53803
# Poissons Ratio (y) = -0.18666 0.07470
# Poissons Ratio (z) = 0.37106 0.03325
#
# Static dielectric constant tensor:
#      x y z
#    x 1.827430 0.000000 -0.006150 
#    y 0.000000 1.718900 0.000000 
#    z -0.006150 0.000000 1.754960 
# 
# From -- ./inp_files/56554.got.cif
#   From: 2010.05.17/outbox.cif.g08.bks.cpg/sg10_29_cif.got.tgz:56554.got - 2010.06.03 11:33:40.
