data_PCOD9153909
_publ_section_title
;
Structure prediction by ZEFSAII (Michael W. Deem and Ramdas Pophale) SiO2 
 PCOD9153909
Probable space group: P 2/M
;
_chemical_formula_sum "Si O2"
_cell_formula_units_Z 26
_cell_length_a 7.233215
_cell_length_b 22.077079
_cell_length_c 8.800343
_cell_angle_alpha 90.000000
_cell_angle_beta 127.980577
_cell_angle_gamma 90.000000
_cell_volume 1107.693770
_symmetry_space_group_name_H-M "P 2/M"
_symmetry_group_IT_number 10
_symmetry_cell_setting 'monoclinic'
loop_
_space_group_symop_operation_xyz
x,y,z
-x,y,-z
-x,-y,-z
x,-y,z
loop_
_atom_site_type_symbol
_atom_site_label
_atom_site_fract_x
_atom_site_fract_y
_atom_site_fract_z
Si Si1 0.174981 0.068746 0.441823
Si Si2 0.170102 0.730155 0.438858
Si Si3 0.482534 0.429918 0.168473
Si Si4 0.000000 0.590389 0.000000
Si Si5 0.537444 0.829530 0.267751
Si Si6 0.884925 0.167794 0.149332
Si Si7 0.238405 0.408610 0.418541
O O1 0.389993 0.111034 0.601955
O O2 0.000000 0.066669 0.500000
O O3 0.035286 0.107127 0.245885
O O4 0.231546 0.000000 0.429488
O O5 0.392767 0.768698 0.608463
O O6 0.214988 0.663680 0.401696
O O7 0.000000 0.724693 0.500000
O O8 0.041279 0.773077 0.253319
O O9 0.403870 0.500000 0.151610
O O10 0.726037 0.422611 0.383450
O O11 0.500000 0.419393 0.000000
O O12 0.267338 0.386681 0.112167
O O13 0.052522 0.566204 0.201492
O O14 0.707891 0.831043 0.205852
O O15 0.274390 0.830642 0.078137
O O16 0.500000 0.428430 0.500000
#
# Coordination Sequence:
#
# PCOD9153909 Si02
#       7
#     4   4   4   2   4   4   4
#     4   8  13  20  31  51  85 126 168 213 262 321
#     4   9  18  31  50  72  99 136 178 225 271 326
#     4  10  23  42  64  91 120 154 197 239 285 346
#     4  10  23  40  62  88 122 158 189 240 296 342
#     4   8  14  25  38  60  89 125 170 217 266 324
#     4   8  14  24  38  60  89 124 170 216 269 324
#     4  10  23  40  57  86 118 148 189 236 285 341
#
# _framework density 23.472190999999999
#
# number of rings (size 3 to 8) (size 9 to 14) (size 15 to 20)
#    0.000    3.077    0.000    2.077    2.154    6.462 
#    2.769    4.615    0.000    0.000    0.000    0.000 
#    0.000    9.846    0.000   23.385    0.000   18.462 
#
# Total GULP energy -144946.331962 kJ/mol
# GULP energy per Si atom -5574.858922 kJ/mol
# Density = 2.341877 g / cm^3
# Si number density = 23.472191 Si / 1000 Ang^3
#
#
#
# Elastic Constant Matrix: (Units=GPa)
#
#
# Indices 1 2 3 4 5 6 
#
# 1 68.2800 19.9190 43.2413 0.0000 -5.2679 0.0000
# 2 19.9190 175.5403 70.6008 0.0000 8.1117 0.0000
# 3 43.2413 70.6008 237.8198 0.0000 24.1537 0.0000
# 4 0.0000 0.0000 0.0000 -1.0029 0.0000 -5.3300
# 5 -5.2679 8.1117 24.1537 0.0000 44.3099 0.0000
# 6 0.0000 0.0000 0.0000 -5.3300 0.0000 -50.5977
#
#
#
# Elastic Compliance Matrix: (Units=1/GPa)
#
#
# Indices 1 2 3 4 5 6 
#
# 1 0.017288 -0.000816 -0.003308 0.000000 0.004008 0.000000
# 2 -0.000816 0.006509 -0.001750 0.000000 -0.000335 0.000000
# 3 -0.003308 -0.001750 0.005646 0.000000 -0.003151 0.000000
# 4 0.000000 0.000000 0.000000 -2.265557 0.000000 0.238656
# 5 0.004008 -0.000335 -0.003151 0.000000 0.024824 0.000000
# 6 0.000000 0.000000 0.000000 0.238656 0.000000 -0.044904
#
#
# Mechanical properties :
#
#
# Convention : Reuss Voigt Hill
#
# Bulk Modulus (GPa) = 56.51693 83.24024 69.87858
# Shear Modulus (GPa) = -2.23359 21.73379 9.75010
#
# Velocity S-wave (km/s) = -0.97655 3.04622 2.04032
# Velocity P-wave (km/s) = 4.78111 6.92192 5.94861
#
# Compressibility (1/GPa) = 0.01769381
#
# Stress axis : x y z
#
# Youngs Moduli (GPa) = 57.84371 153.64448 177.12409
#
# Poissons Ratio (x) = 0.12544 0.58594
# Poissons Ratio (y) = 0.04723 0.30992
# Poissons Ratio (z) = 0.19135 0.26883
#
# Static dielectric constant tensor:
#      x y z
#    x 2.027480 0.000000 -0.075860 
#    y 0.000000 1.834080 0.000000 
#    z -0.075860 0.000000 1.928540 
# 
# From -- ./inp_files/20479.got.cif
#   From: 2010.05.17/outbox.cif.g08.bks.cpg/sg10_11_cif.got.tgz:20479.got - 2010.06.03 11:33:40.
