data_PCOD9153775
_publ_section_title
;
Structure prediction by ZEFSAII (Michael W. Deem and Ramdas Pophale) SiO2 
 PCOD9153775
Probable space group: P 2/M
;
_chemical_formula_sum "Si O2"
_cell_formula_units_Z 21
_cell_length_a 12.427527
_cell_length_b 12.477591
_cell_length_c 11.144548
_cell_angle_alpha 90.000000
_cell_angle_beta 145.349026
_cell_angle_gamma 90.000000
_cell_volume 982.576376
_symmetry_space_group_name_H-M "P 2/M"
_symmetry_group_IT_number 10
_symmetry_cell_setting 'monoclinic'
loop_
_space_group_symop_operation_xyz
x,y,z
-x,y,-z
-x,-y,-z
x,-y,z
loop_
_atom_site_type_symbol
_atom_site_label
_atom_site_fract_x
_atom_site_fract_y
_atom_site_fract_z
Si Si1 0.092419 0.500000 0.949562
Si Si2 0.714117 0.199020 0.231312
Si Si3 0.829863 0.721333 0.092694
Si Si4 0.466241 0.500000 0.608243
Si Si5 0.601864 0.730955 0.387916
Si Si6 0.000000 0.000000 0.500000
Si Si7 0.893959 0.873316 0.775895
O O1 0.062391 0.616219 0.859491
O O2 0.321417 0.500000 0.148894
O O3 0.000000 0.500000 0.000000
O O4 0.699450 0.246646 0.350398
O O5 0.838181 0.093930 0.346786
O O6 0.500000 0.171152 0.000000
O O7 0.788049 0.280227 0.196175
O O8 0.626120 0.739853 0.839538
O O9 0.958599 0.824513 0.183789
O O10 0.500000 0.500000 0.500000
O O11 0.363978 0.608094 0.548307
O O12 0.698920 0.809151 0.574234
O O13 0.864897 0.000000 0.732692
O O14 0.000000 0.854975 0.000000
#
# Coordination Sequence:
#
# PCOD9153775 Si02
#       7
#     2   4   4   2   4   1   4
#     4  10  22  41  67 100 131 176 215 279 334 397
#     4  10  23  41  65  98 132 176 221 273 327 398
#     4  10  23  41  67  99 132 171 223 269 332 405
#     4  10  24  41  69  98 127 175 218 268 339 404
#     4  10  24  43  66  97 134 170 218 280 331 392
#     4  12  22  40  64  92 136 182 226 260 330 382
#     4  11  26  43  63  93 130 179 225 276 331 390
#
# _framework density 21.372384
#
# number of rings (size 3 to 8) (size 9 to 14) (size 15 to 20)
#    0.000    1.714    0.000    2.000   13.333    1.524 
#    0.000    6.190    0.000    3.429    0.000    0.000 
#    0.000    0.000    0.000    0.000    0.000    0.000 
#
# Total GULP energy -117000.703804 kJ/mol
# GULP energy per Si atom -5571.462086 kJ/mol
# Density = 2.132374 g / cm^3
# Si number density = 21.372384 Si / 1000 Ang^3
#
#
#
# Elastic Constant Matrix: (Units=GPa)
#
#
# Indices 1 2 3 4 5 6 
#
# 1 106.7656 71.1369 51.4322 0.0000 1.6729 0.0000
# 2 71.1369 167.1307 72.8965 0.0000 -9.4500 0.0000
# 3 51.4322 72.8965 114.6523 0.0000 6.1832 0.0000
# 4 0.0000 0.0000 0.0000 68.0600 0.0000 -36.6421
# 5 1.6729 -9.4500 6.1832 0.0000 31.7426 0.0000
# 6 0.0000 0.0000 0.0000 -36.6421 0.0000 68.8413
#
#
#
# Elastic Compliance Matrix: (Units=1/GPa)
#
#
# Indices 1 2 3 4 5 6 
#
# 1 0.014059 -0.004638 -0.003278 0.000000 -0.001483 0.000000
# 2 -0.004638 0.010220 -0.004643 0.000000 0.004191 0.000000
# 3 -0.003278 -0.004643 0.013350 0.000000 -0.003810 0.000000
# 4 0.000000 0.000000 0.000000 0.020595 0.000000 0.010962
# 5 -0.001483 0.004191 -0.003810 0.000000 0.033572 0.000000
# 6 0.000000 0.000000 0.000000 0.010962 0.000000 0.020361
#
#
# Mechanical properties :
#
#
# Convention : Reuss Voigt Hill
#
# Bulk Modulus (GPa) = 79.93300 86.60886 83.27093
# Shear Modulus (GPa) = 35.34974 46.60097 40.97536
#
# Velocity S-wave (km/s) = 4.07134 4.67457 4.38335
# Velocity P-wave (km/s) = 7.71897 8.35148 8.04144
#
# Compressibility (1/GPa) = 0.01251048
#
# Stress axis : x y z
#
# Youngs Moduli (GPa) = 71.12906 97.85042 74.90657
#
# Poissons Ratio (x) = 0.45385 0.24552
# Poissons Ratio (y) = 0.32991 0.34780
# Poissons Ratio (z) = 0.23314 0.45433
#
# Static dielectric constant tensor:
#      x y z
#    x 1.780600 0.000000 -0.028160 
#    y 0.000000 1.731130 0.000000 
#    z -0.028160 0.000000 1.832700 
# 
# From -- ./inp_files/46903.got.cif
#   From: 2010.05.17/outbox.cif.g08.bks.cpg/sg10_24_cif.got.tgz:46903.got - 2010.06.03 11:33:40.
