data_PCOD9153984
_publ_section_title
;
Structure prediction by ZEFSAII (Michael W. Deem and Ramdas Pophale) SiO2 
 PCOD9153984
Probable space group: P 2/M
;
_chemical_formula_sum "Si O2"
_cell_formula_units_Z 28
_cell_length_a 13.141071
_cell_length_b 12.906133
_cell_length_c 9.574429
_cell_angle_alpha 90.000000
_cell_angle_beta 121.709082
_cell_angle_gamma 90.000000
_cell_volume 1381.434853
_symmetry_space_group_name_H-M "P 2/M"
_symmetry_group_IT_number 10
_symmetry_cell_setting 'monoclinic'
loop_
_space_group_symop_operation_xyz
x,y,z
-x,y,-z
-x,-y,-z
x,-y,z
loop_
_atom_site_type_symbol
_atom_site_label
_atom_site_fract_x
_atom_site_fract_y
_atom_site_fract_z
Si Si1 0.630798 0.108440 0.535801
Si Si2 0.104335 0.612798 0.189160
Si Si3 0.703311 0.187662 0.321121
Si Si4 0.313303 0.721820 0.202151
Si Si5 0.199836 0.879135 0.897662
Si Si6 0.042718 0.777094 0.381093
Si Si7 0.464360 0.377229 0.809718
O O1 0.500000 0.098034 0.500000
O O2 0.617899 0.125327 0.361746
O O3 0.673319 0.209754 0.647772
O O4 0.698069 0.000000 0.612538
O O5 0.108377 0.500000 0.258504
O O6 0.224820 0.632525 0.189337
O O7 0.073932 0.695260 0.285346
O O8 0.000000 0.617313 0.000000
O O9 0.717029 0.144722 0.176558
O O10 0.831745 0.170902 0.487972
O O11 0.654516 0.305678 0.289175
O O12 0.431564 0.674465 0.212837
O O13 0.245578 0.799812 0.047780
O O14 0.064438 0.849343 0.752679
O O15 0.206748 0.000000 0.941519
O O16 0.000000 0.731453 0.500000
O O17 0.449067 0.500000 0.765269
O O18 0.500000 0.370618 0.000000
#
# Coordination Sequence:
#
# PCOD9153984 Si02
#       7
#     4   4   4   4   4   4   4
#     4  11  23  38  60  91 131 169 203 257 322 372
#     4  11  23  41  64  91 126 170 209 257 323 375
#     4  11  22  43  64  93 127 165 212 264 316 385
#     4  12  22  43  65  97 131 166 216 269 311 385
#     4  11  24  42  67  94 127 171 220 264 315 381
#     4  10  23  42  64  92 128 161 210 270 314 380
#     4  11  24  43  68  95 128 172 215 264 321 378
#
# _framework density 20.26878
#
# number of rings (size 3 to 8) (size 9 to 14) (size 15 to 20)
#    0.000    1.000    5.714    1.286    0.000    4.000 
#    0.000    4.286    0.000    0.000    0.000    0.000 
#    0.000    0.000    0.000    0.000    0.000    0.000 
#
# Total GULP energy -156112.815124 kJ/mol
# GULP energy per Si atom -5575.457683 kJ/mol
# Density = 2.022265 g / cm^3
# Si number density = 20.268780 Si / 1000 Ang^3
#
#
#
# Elastic Constant Matrix: (Units=GPa)
#
#
# Indices 1 2 3 4 5 6 
#
# 1 74.9695 12.2260 -8.3752 0.0000 -12.0056 0.0000
# 2 12.2260 86.9436 5.9687 0.0000 -3.6886 0.0000
# 3 -8.3752 5.9687 29.7969 0.0000 -8.4829 0.0000
# 4 0.0000 0.0000 0.0000 -430.1292 0.0000 -351.2378
# 5 -12.0056 -3.6886 -8.4829 0.0000 34.3730 0.0000
# 6 0.0000 0.0000 0.0000 -351.2378 0.0000 -243.9940
#
#
#
# Elastic Compliance Matrix: (Units=1/GPa)
#
#
# Indices 1 2 3 4 5 6 
#
# 1 0.015586 -0.002368 0.006811 0.000000 0.006871 0.000000
# 2 -0.002368 0.012039 -0.003167 0.000000 -0.000317 0.000000
# 3 0.006811 -0.003167 0.039463 0.000000 0.011778 0.000000
# 4 0.000000 0.000000 0.000000 0.013247 0.000000 -0.019069
# 5 0.006871 -0.000317 0.011778 0.000000 0.034365 0.000000
# 6 0.000000 0.000000 0.000000 -0.019069 0.000000 0.023352
#
#
# Mechanical properties :
#
#
# Convention : Reuss Voigt Hill
#
# Bulk Modulus (GPa) = 14.35964 23.48323 18.92144
# Shear Modulus (GPa) = 31.50351 -115.82400 -42.16025
#
# Velocity S-wave (km/s) = 3.94672 -7.56757 -4.56571
# Velocity P-wave (km/s) = 5.27909 8.04651 4.29404
#
# Compressibility (1/GPa) = 0.06963961
#
# Stress axis : x y z
#
# Youngs Moduli (GPa) = 64.15981 83.06565 25.34047
#
# Poissons Ratio (x) = 0.19669 -0.17260
# Poissons Ratio (y) = 0.15192 0.08026
# Poissons Ratio (z) = -0.43701 0.26309
#
# Static dielectric constant tensor:
#      x y z
#    x 1.761800 0.000000 0.004870 
#    y 0.000000 1.788680 0.000000 
#    z 0.004870 0.000000 1.691630 
# 
# From -- ./inp_files/28683.got.cif
#   From: 2010.05.17/outbox.cif.g08.bks.cpg/sg10_15_cif.got.tgz:28683.got - 2010.06.03 11:33:40.
