data_PCOD9153642
_publ_section_title
;
Structure prediction by ZEFSAII (Michael W. Deem and Ramdas Pophale) SiO2 
 PCOD9153642
Probable space group: P 2/M
;
_chemical_formula_sum "Si O2"
_cell_formula_units_Z 20
_cell_length_a 9.884901
_cell_length_b 24.609452
_cell_length_c 8.359781
_cell_angle_alpha 90.000000
_cell_angle_beta 31.041314
_cell_angle_gamma 90.000000
_cell_volume 1048.646847
_symmetry_space_group_name_H-M "P 2/M"
_symmetry_group_IT_number 10
_symmetry_cell_setting 'monoclinic'
loop_
_space_group_symop_operation_xyz
x,y,z
-x,y,-z
-x,-y,-z
x,-y,z
loop_
_atom_site_type_symbol
_atom_site_label
_atom_site_fract_x
_atom_site_fract_y
_atom_site_fract_z
Si Si1 0.749641 0.562758 0.862148
Si Si2 0.756638 0.349535 0.130930
Si Si3 0.102758 0.228787 0.076849
Si Si4 0.755447 0.059820 0.629429
Si Si5 0.395801 0.173841 0.287869
O O1 0.778138 0.500000 0.887741
O O2 0.000000 0.576640 0.500000
O O3 0.500000 0.566057 0.000000
O O4 0.722185 0.603521 0.036522
O O5 0.500000 0.342932 0.500000
O O6 0.818894 0.291768 0.985417
O O7 0.000000 0.362486 0.000000
O O8 0.857121 0.211925 0.434901
O O9 0.360150 0.193342 0.853050
O O10 0.000000 0.221319 0.000000
O O11 0.703825 0.112571 0.574515
O O12 0.000000 0.070384 0.500000
O O13 0.794926 0.000000 0.513710
O O14 0.500000 0.056057 0.000000
O O15 0.500000 0.174947 0.000000
#
# Coordination Sequence:
#
# PCOD9153642 Si02
#       5
#     4   4   4   4   4
#     4  10  22  40  61  88 120 150 183 232 291 334
#     4  11  23  40  60  84 113 152 198 231 270 335
#     4  11  23  39  55  79 118 154 182 227 289 335
#     4   9  17  31  52  80 111 139 176 232 284 324
#     4  11  21  36  59  86 109 142 194 235 273 335
#
# _framework density 19.072196999999999
#
# number of rings (size 3 to 8) (size 9 to 14) (size 15 to 20)
#    0.000    1.600    0.000    7.200    0.000    3.200 
#    0.000    0.000    0.000    3.600    0.000    0.000 
#    0.000    0.000    0.000    0.000    0.000    0.000 
#
# Total GULP energy -111685.377152 kJ/mol
# GULP energy per Si atom -5584.268858 kJ/mol
# Density = 1.902879 g / cm^3
# Si number density = 19.072197 Si / 1000 Ang^3
#
#
#
# Elastic Constant Matrix: (Units=GPa)
#
#
# Indices 1 2 3 4 5 6 
#
# 1 44.8820 53.4145 15.0138 0.0000 -13.5749 0.0000
# 2 53.4145 138.0051 46.8426 0.0000 11.1794 0.0000
# 3 15.0138 46.8426 132.1478 0.0000 -13.1213 0.0000
# 4 0.0000 0.0000 0.0000 -4.5170 0.0000 -50.3637
# 5 -13.5749 11.1794 -13.1213 0.0000 33.4182 0.0000
# 6 0.0000 0.0000 0.0000 -50.3637 0.0000 -19.3928
#
#
#
# Elastic Compliance Matrix: (Units=1/GPa)
#
#
# Indices 1 2 3 4 5 6 
#
# 1 0.077441 -0.036846 0.008959 0.000000 0.047301 0.000000
# 2 -0.036846 0.026334 -0.007814 0.000000 -0.026845 0.000000
# 3 0.008959 -0.007814 0.010343 0.000000 0.010315 0.000000
# 4 0.000000 0.000000 0.000000 0.007919 0.000000 -0.020566
# 5 0.047301 -0.026845 0.010315 0.000000 0.062169 0.000000
# 6 0.000000 0.000000 0.000000 -0.020566 0.000000 0.001845
#
#
# Mechanical properties :
#
#
# Convention : Reuss Voigt Hill
#
# Bulk Modulus (GPa) = 23.40993 60.61962 42.01478
# Shear Modulus (GPa) = 18.40321 15.21928 16.81124
#
# Velocity S-wave (km/s) = 3.10969 2.82792 2.97215
# Velocity P-wave (km/s) = 5.01942 6.52044 5.81854
#
# Compressibility (1/GPa) = 0.04271692
#
# Stress axis : x y z
#
# Youngs Moduli (GPa) = 12.91303 37.97336 96.67989
#
# Poissons Ratio (x) = 1.39917 -0.86618
# Poissons Ratio (y) = 0.47580 0.75546
# Poissons Ratio (z) = -0.11569 0.29673
#
# Static dielectric constant tensor:
#      x y z
#    x 1.631940 0.000000 0.003740 
#    y 0.000000 1.700380 0.000000 
#    z 0.003740 0.000000 1.638020 
# 
# From -- ./inp_files/20720.got.cif
#   From: 2010.05.17/outbox.cif.g08.bks.cpg/sg10_11_cif.got.tgz:20720.got - 2010.06.03 11:33:40.
