data_PCOD9154125
_publ_section_title
;
Structure prediction by ZEFSAII (Michael W. Deem and Ramdas Pophale) SiO2 
 PCOD9154125
Probable space group: P 2/M
;
_chemical_formula_sum "Si O2"
_cell_formula_units_Z 25
_cell_length_a 21.836967
_cell_length_b 11.103719
_cell_length_c 21.900827
_cell_angle_alpha 90.000000
_cell_angle_beta 166.445064
_cell_angle_gamma 90.000000
_cell_volume 1244.621669
_symmetry_space_group_name_H-M "P 2/M"
_symmetry_group_IT_number 10
_symmetry_cell_setting 'monoclinic'
loop_
_space_group_symop_operation_xyz
x,y,z
-x,y,-z
-x,-y,-z
x,-y,z
loop_
_atom_site_type_symbol
_atom_site_label
_atom_site_fract_x
_atom_site_fract_y
_atom_site_fract_z
Si Si1 0.602637 0.763599 0.842101
Si Si2 0.060352 0.248141 0.624469
Si Si3 0.848400 0.500000 0.729169
Si Si4 0.000000 0.500000 0.500000
Si Si5 0.466780 0.857035 0.841178
Si Si6 0.862729 0.860167 0.691686
Si Si7 0.603749 0.500000 0.810805
Si Si8 0.225433 0.253499 0.267941
O O1 0.582797 0.831873 0.886700
O O2 0.360561 0.799852 0.565267
O O3 0.598621 0.620088 0.845878
O O4 0.864212 0.798729 0.060015
O O5 0.063542 0.390758 0.611888
O O6 0.000000 0.188780 0.500000
O O7 0.814229 0.208387 0.426765
O O8 0.330719 0.202024 0.914639
O O9 0.638016 0.500000 0.470609
O O10 0.808418 0.382633 0.731913
O O11 0.134750 0.500000 0.976815
O O12 0.440583 0.000000 0.826036
O O13 0.797401 0.840821 0.699176
O O14 0.878039 0.000000 0.691325
O O15 0.500000 0.247513 0.500000
O O16 0.000000 0.236440 0.000000
#
# Coordination Sequence:
#
# PCOD9154125 Si02
#       8
#     4   4   2   1   4   4   2   4
#     4  12  25  45  68 100 131 172 218 273 328 388
#     4  10  24  44  70  96 139 180 215 273 322 375
#     4  12  22  43  65  94 130 160 219 265 340 401
#     4   8  24  46  68  98 136 184 224 264 328 390
#     4  12  25  42  69 104 134 174 227 268 317 392
#     4  12  25  45  68  90 135 180 212 267 331 390
#     4  12  22  43  70  94 125 169 214 269 330 401
#     4  12  24  40  65  95 123 167 217 271 330 391
#
# _framework density 20.086425999999999
#
# number of rings (size 3 to 8) (size 9 to 14) (size 15 to 20)
#    0.480    0.000    3.200    5.760    0.000    5.120 
#    0.000    0.000    0.000    0.000    0.000    0.000 
#    0.000    0.000    0.000    0.000    0.000    0.000 
#
# Total GULP energy -139560.839794 kJ/mol
# GULP energy per Si atom -5582.433592 kJ/mol
# Density = 2.004071 g / cm^3
# Si number density = 20.086426 Si / 1000 Ang^3
#
#
#
# Elastic Constant Matrix: (Units=GPa)
#
#
# Indices 1 2 3 4 5 6 
#
# 1 40.5659 -4.3988 -10.8568 0.0000 0.5287 0.0000
# 2 -4.3988 160.4523 10.1028 0.0000 -23.1901 0.0000
# 3 -10.8568 10.1028 114.5783 0.0000 33.1247 0.0000
# 4 0.0000 0.0000 0.0000 2.5369 0.0000 -49.3850
# 5 0.5287 -23.1901 33.1247 0.0000 98.7929 0.0000
# 6 0.0000 0.0000 0.0000 -49.3850 0.0000 -186.1856
#
#
#
# Elastic Compliance Matrix: (Units=1/GPa)
#
#
# Indices 1 2 3 4 5 6 
#
# 1 0.025413 0.000396 0.002642 0.000000 -0.000929 0.000000
# 2 0.000396 0.006589 -0.001096 0.000000 0.001912 0.000000
# 3 0.002642 -0.001096 0.010136 0.000000 -0.003670 0.000000
# 4 0.000000 0.000000 0.000000 0.063955 0.000000 -0.016964
# 5 -0.000929 0.001912 -0.003670 0.000000 0.011806 0.000000
# 6 0.000000 0.000000 0.000000 -0.016964 0.000000 -0.000871
#
#
# Mechanical properties :
#
#
# Convention : Reuss Voigt Hill
#
# Bulk Modulus (GPa) = 21.72941 33.92122 27.82532
# Shear Modulus (GPa) = 38.91523 4.41212 21.66368
#
# Velocity S-wave (km/s) = 4.40635 1.48369 3.28765
# Velocity P-wave (km/s) = 6.06048 4.45639 5.31925
#
# Compressibility (1/GPa) = 0.04602058
#
# Stress axis : x y z
#
# Youngs Moduli (GPa) = 39.34950 151.77731 98.66250
#
# Poissons Ratio (x) = -0.06013 -0.26063
# Poissons Ratio (y) = -0.01559 0.10815
# Poissons Ratio (z) = -0.10394 0.16637
#
# Static dielectric constant tensor:
#      x y z
#    x 1.703570 0.000000 0.011820 
#    y 0.000000 1.703000 0.000000 
#    z 0.011820 0.000000 1.685710 
# 
# From -- ./inp_files/90872.got.cif
#   From: 2010.05.17/outbox.cif.g08.bks.cpg/sg10_46_cif.got.tgz:90872.got - 2010.06.03 11:33:40.
