data_PCOD9154559
_publ_section_title
;
Structure prediction by ZEFSAII (Michael W. Deem and Ramdas Pophale) SiO2 
 PCOD9154559
Probable space group: P 2/M
;
_chemical_formula_sum "Si O2"
_cell_formula_units_Z 28
_cell_length_a 16.437515
_cell_length_b 13.156968
_cell_length_c 10.250332
_cell_angle_alpha 90.000000
_cell_angle_beta 49.992402
_cell_angle_gamma 90.000000
_cell_volume 1697.991639
_symmetry_space_group_name_H-M "P 2/M"
_symmetry_group_IT_number 10
_symmetry_cell_setting 'monoclinic'
loop_
_space_group_symop_operation_xyz
x,y,z
-x,y,-z
-x,-y,-z
x,-y,z
loop_
_atom_site_type_symbol
_atom_site_label
_atom_site_fract_x
_atom_site_fract_y
_atom_site_fract_z
Si Si1 0.129115 0.618277 0.215635
Si Si2 0.309699 0.235208 0.945863
Si Si3 0.693581 0.253686 0.543641
Si Si4 0.372342 0.881566 0.141764
Si Si5 0.628408 0.880709 0.369999
Si Si6 0.497486 0.618455 0.660486
Si Si7 0.121496 0.381946 0.535237
O O1 0.154584 0.500000 0.157996
O O2 0.144035 0.630420 0.356864
O O3 0.004336 0.634269 0.316789
O O4 0.203434 0.697971 0.065632
O O5 0.320306 0.155196 0.817896
O O6 0.404723 0.314322 0.818711
O O7 0.327151 0.174569 0.061480
O O8 0.661871 0.182175 0.697069
O O9 0.682449 0.184528 0.427428
O O10 0.606676 0.341829 0.610052
O O11 0.805424 0.306298 0.458587
O O12 0.339476 0.000000 0.183179
O O13 0.500000 0.879843 0.000000
O O14 0.500000 0.862552 0.500000
O O15 0.642655 0.000000 0.377545
O O16 0.500000 0.631282 0.500000
O O17 0.480843 0.500000 0.704300
O O18 0.144417 0.500000 0.544109
#
# Coordination Sequence:
#
# PCOD9154559 Si02
#       7
#     4   4   4   4   4   4   4
#     4   9  19  36  58  83 112 149 187 223 272 336
#     4  12  19  37  56  83 111 144 185 227 279 325
#     4  12  19  37  56  83 111 144 185 227 279 325
#     4  11  22  34  53  82 115 141 180 234 278 328
#     4  11  22  38  59  80 111 153 194 222 268 340
#     4  11  22  35  52  81 117 151 177 217 278 339
#     4   9  19  36  58  83 112 149 187 223 272 336
#
# _framework density 16.490069999999999
#
# number of rings (size 3 to 8) (size 9 to 14) (size 15 to 20)
#    0.000    1.286    5.714    2.571    0.000    2.286 
#    0.000    1.429    0.000    6.857    0.000    0.000 
#    0.000    0.000    0.000    0.000    0.000    0.000 
#
# Total GULP energy -156279.031601 kJ/mol
# GULP energy per Si atom -5581.393986 kJ/mol
# Density = 1.645254 g / cm^3
# Si number density = 16.490070 Si / 1000 Ang^3
#
#
#
# Elastic Constant Matrix: (Units=GPa)
#
#
# Indices 1 2 3 4 5 6 
#
# 1 90.0420 48.7318 22.4799 0.0000 3.9788 0.0000
# 2 48.7318 84.3525 -1.9838 0.0000 -0.3182 0.0000
# 3 22.4799 -1.9838 32.7680 0.0000 6.1800 0.0000
# 4 0.0000 0.0000 0.0000 15.9451 0.0000 -5.8152
# 5 3.9788 -0.3182 6.1800 0.0000 27.7226 0.0000
# 6 0.0000 0.0000 0.0000 -5.8152 0.0000 24.4762
#
#
#
# Elastic Compliance Matrix: (Units=1/GPa)
#
#
# Indices 1 2 3 4 5 6 
#
# 1 0.022308 -0.013267 -0.016154 0.000000 0.000247 0.000000
# 2 -0.013267 0.019762 0.010330 0.000000 -0.000172 0.000000
# 3 -0.016154 0.010330 0.043598 0.000000 -0.007282 0.000000
# 4 0.000000 0.000000 0.000000 0.068665 0.000000 0.016314
# 5 0.000247 -0.000172 -0.007282 0.000000 0.037658 0.000000
# 6 0.000000 0.000000 0.000000 0.016314 0.000000 0.044732
#
#
# Mechanical properties :
#
#
# Convention : Reuss Voigt Hill
#
# Bulk Modulus (GPa) = 21.05818 38.40204 29.73011
# Shear Modulus (GPa) = 17.19794 22.82441 20.01118
#
# Velocity S-wave (km/s) = 3.23294 3.72443 3.48735
# Velocity P-wave (km/s) = 5.17048 6.46790 5.85523
#
# Compressibility (1/GPa) = 0.04748749
#
# Stress axis : x y z
#
# Youngs Moduli (GPa) = 44.82676 50.60283 22.93665
#
# Poissons Ratio (x) = 0.67133 0.37051
# Poissons Ratio (y) = 0.59471 -0.23694
# Poissons Ratio (z) = 0.72412 -0.52274
#
# Static dielectric constant tensor:
#      x y z
#    x 1.537680 0.000000 0.014770 
#    y 0.000000 1.546770 0.000000 
#    z 0.014770 0.000000 1.541520 
# 
# From -- ./inp_files/28485.got.cif
#   From: 2010.05.17/outbox.cif.g08.bks.cpg/sg10_15_cif.got.tgz:28485.got - 2010.06.03 11:33:40.
