data_PCOD9154711
_publ_section_title
;
Structure prediction by ZEFSAII (Michael W. Deem and Ramdas Pophale) SiO2 
 PCOD9154711
Probable space group: P 2/M
;
_chemical_formula_sum "Si O2"
_cell_formula_units_Z 24
_cell_length_a 14.088625
_cell_length_b 8.605934
_cell_length_c 14.966823
_cell_angle_alpha 90.000000
_cell_angle_beta 38.380016
_cell_angle_gamma 90.000000
_cell_volume 1126.678475
_symmetry_space_group_name_H-M "P 2/M"
_symmetry_group_IT_number 10
_symmetry_cell_setting 'monoclinic'
loop_
_space_group_symop_operation_xyz
x,y,z
-x,y,-z
-x,-y,-z
x,-y,z
loop_
_atom_site_type_symbol
_atom_site_label
_atom_site_fract_x
_atom_site_fract_y
_atom_site_fract_z
Si Si1 0.668580 0.181452 0.723290
Si Si2 0.790665 0.679956 0.461757
Si Si3 0.897090 0.180835 0.703176
Si Si4 0.356101 0.678827 0.987485
Si Si5 0.207567 0.185561 0.929116
Si Si6 0.847333 0.184858 0.231450
O O1 0.688032 0.220964 0.605224
O O2 0.827776 0.213995 0.656742
O O3 0.533520 0.280708 0.865913
O O4 0.634327 0.000000 0.761214
O O5 0.755244 0.500000 0.499989
O O6 0.781198 0.728524 0.365630
O O7 0.964450 0.715709 0.364554
O O8 0.944909 0.000000 0.672153
O O9 0.753144 0.210850 0.874144
O O10 0.325459 0.500000 0.032173
O O11 0.312140 0.716576 0.917579
O O12 0.221502 0.226067 0.814356
O O13 0.236642 0.000000 0.917591
O O14 0.030269 0.211945 0.087957
O O15 0.828118 0.000000 0.258447
#
# Coordination Sequence:
#
# PCOD9154711 Si02
#       6
#     4   4   4   4   4   4
#     4  11  25  43  62  83 116 163 205 244 290 351
#     4  12  24  38  60  92 125 155 191 246 305 351
#     4  11  23  41  64  87 114 157 209 246 284 349
#     4  12  24  38  60  92 125 155 191 246 305 351
#     4   9  18  35  61  89 117 154 199 242 285 344
#     4   9  18  35  61  89 117 154 199 242 285 344
#
# _framework density 21.301551
#
# number of rings (size 3 to 8) (size 9 to 14) (size 15 to 20)
#    0.000    1.333    1.667    6.000    0.000    7.333 
#    0.000    2.500    0.000    5.000    0.000    0.000 
#    0.000    0.000    0.000    0.000    0.000    0.000 
#
# Total GULP energy -134270.852325 kJ/mol
# GULP energy per Si atom -5594.618847 kJ/mol
# Density = 2.125307 g / cm^3
# Si number density = 21.301551 Si / 1000 Ang^3
#
#
#
# Elastic Constant Matrix: (Units=GPa)
#
#
# Indices 1 2 3 4 5 6 
#
# 1 49.3701 16.1850 -3.4501 0.0000 18.1214 0.0000
# 2 16.1850 37.5575 -8.7919 0.0000 8.4636 0.0000
# 3 -3.4501 -8.7919 53.8971 0.0000 16.4724 0.0000
# 4 0.0000 0.0000 0.0000 -147.4647 0.0000 -127.7568
# 5 18.1214 8.4636 16.4724 0.0000 33.9480 0.0000
# 6 0.0000 0.0000 0.0000 -127.7568 0.0000 -66.8609
#
#
#
# Elastic Compliance Matrix: (Units=1/GPa)
#
#
# Indices 1 2 3 4 5 6 
#
# 1 0.029150 -0.007536 0.005657 0.000000 -0.016427 0.000000
# 2 -0.007536 0.033372 0.007367 0.000000 -0.007872 0.000000
# 3 0.005657 0.007367 0.025363 0.000000 -0.017163 0.000000
# 4 0.000000 0.000000 0.000000 0.010347 0.000000 -0.019770
# 5 -0.016427 -0.007872 -0.017163 0.000000 0.048516 0.000000
# 6 0.000000 0.000000 0.000000 -0.019770 0.000000 0.022820
#
#
# Mechanical properties :
#
#
# Convention : Reuss Voigt Hill
#
# Bulk Modulus (GPa) = 10.11505 16.52339 13.31922
# Shear Modulus (GPa) = 26.10344 -26.95007 -0.42332
#
# Velocity S-wave (km/s) = 3.50440 -3.56078 -0.44627
# Velocity P-wave (km/s) = 4.59709 3.02189 2.44964
#
# Compressibility (1/GPa) = 0.09886259
#
# Stress axis : x y z
#
# Youngs Moduli (GPa) = 34.30474 29.96519 39.42691
#
# Poissons Ratio (x) = 0.22582 -0.22304
# Poissons Ratio (y) = 0.25852 -0.29047
# Poissons Ratio (z) = -0.19407 -0.22076
#
# Static dielectric constant tensor:
#      x y z
#    x 1.793640 0.000000 0.017800 
#    y 0.000000 1.704240 0.000000 
#    z 0.017800 0.000000 1.770290 
# 
# From -- ./inp_files/66332.got.cif
#   From: 2010.05.17/outbox.cif.g08.bks.cpg/sg10_34_cif.got.tgz:66332.got - 2010.06.03 11:33:40.
