data_PCOD9154248
_publ_section_title
;
Structure prediction by ZEFSAII (Michael W. Deem and Ramdas Pophale) SiO2 
 PCOD9154248
Probable space group: P 2/M
;
_chemical_formula_sum "Si O2"
_cell_formula_units_Z 28
_cell_length_a 14.215822
_cell_length_b 7.585830
_cell_length_c 17.987805
_cell_angle_alpha 90.000000
_cell_angle_beta 125.370279
_cell_angle_gamma 90.000000
_cell_volume 1581.754095
_symmetry_space_group_name_H-M "P 2/M"
_symmetry_group_IT_number 10
_symmetry_cell_setting 'monoclinic'
loop_
_space_group_symop_operation_xyz
x,y,z
-x,y,-z
-x,-y,-z
x,-y,z
loop_
_atom_site_type_symbol
_atom_site_label
_atom_site_fract_x
_atom_site_fract_y
_atom_site_fract_z
Si Si1 0.588105 0.284087 0.222604
Si Si2 0.328867 0.700914 0.898574
Si Si3 0.916004 0.289272 0.025314
Si Si4 0.977022 0.712367 0.608104
Si Si5 0.656351 0.283987 0.928993
Si Si6 0.072537 0.202954 0.803061
Si Si7 0.814831 0.284869 0.404405
O O1 0.591464 0.500000 0.224529
O O2 0.627913 0.221801 0.158836
O O3 0.454633 0.232666 0.169935
O O4 0.686388 0.225956 0.325100
O O5 0.371532 0.500000 0.918022
O O6 0.189881 0.696880 0.835442
O O7 0.362280 0.776763 0.994050
O O8 0.909356 0.500000 0.012713
O O9 0.783348 0.223965 0.962306
O O10 0.962247 0.256262 0.129797
O O11 0.000000 0.218464 0.000000
O O12 0.977030 0.500000 0.607930
O O13 0.982438 0.770757 0.695590
O O14 0.093819 0.768497 0.617995
O O15 0.870462 0.771608 0.508027
O O16 0.659939 0.500000 0.932976
O O17 0.105958 0.000000 0.820944
O O18 0.815069 0.500000 0.404520
#
# Coordination Sequence:
#
# PCOD9154248 Si02
#       7
#     4   4   4   4   4   4   4
#     4   9  13  20  38  64  87 109 141 176 206 239
#     4   9  15  25  40  58  84 117 146 170 198 244
#     4   9  18  33  50  66  84 108 138 174 217 261
#     4   9  15  27  42  59  83 114 150 178 205 245
#     4   8  14  22  38  65  87 104 134 175 212 249
#     4  11  20  28  42  64  88 114 143 177 214 248
#     4   8  14  22  39  62  84 113 147 180 206 236
#
# _framework density 17.701867
#
# number of rings (size 3 to 8) (size 9 to 14) (size 15 to 20)
#    0.000    3.000    1.429    3.429    0.000    2.000 
#    0.000    1.429    0.000    6.857    0.000    1.000 
#    0.000    8.000    0.000    0.000    0.000    0.000 
#
# Total GULP energy -155996.127102 kJ/mol
# GULP energy per Si atom -5571.290254 kJ/mol
# Density = 1.766158 g / cm^3
# Si number density = 17.701867 Si / 1000 Ang^3
#
#
#
# Elastic Constant Matrix: (Units=GPa)
#
#
# Indices 1 2 3 4 5 6 
#
# 1 81.0582 3.9666 83.3221 0.0000 3.0627 0.0000
# 2 3.9666 38.1493 -5.2744 0.0000 2.7566 0.0000
# 3 83.3221 -5.2744 146.5512 0.0000 23.6634 0.0000
# 4 0.0000 0.0000 0.0000 -106.7703 0.0000 57.8399
# 5 3.0627 2.7566 23.6634 0.0000 26.3540 0.0000
# 6 0.0000 0.0000 0.0000 57.8399 0.0000 -47.3314
#
#
#
# Elastic Compliance Matrix: (Units=1/GPa)
#
#
# Indices 1 2 3 4 5 6 
#
# 1 0.037173 -0.008581 -0.024434 0.000000 0.018517 0.000000
# 2 -0.008581 0.028732 0.007295 0.000000 -0.008558 0.000000
# 3 -0.024434 0.007295 0.024143 0.000000 -0.019602 0.000000
# 4 0.000000 0.000000 0.000000 -0.027709 0.000000 -0.033861
# 5 0.018517 -0.008558 -0.019602 0.000000 0.054289 0.000000
# 6 0.000000 0.000000 0.000000 -0.033861 0.000000 -0.062507
#
#
# Mechanical properties :
#
#
# Convention : Reuss Voigt Hill
#
# Bulk Modulus (GPa) = 25.90130 47.75414 36.82772
# Shear Modulus (GPa) = 42.21914 -13.29992 14.45961
#
# Velocity S-wave (km/s) = 4.88896 -2.74401 2.86114
# Velocity P-wave (km/s) = 6.82150 4.12262 5.63600
#
# Compressibility (1/GPa) = 0.03860811
#
# Stress axis : x y z
#
# Youngs Moduli (GPa) = 26.90121 34.80439 41.42005
#
# Poissons Ratio (x) = 0.29866 1.01204
# Poissons Ratio (y) = 0.23085 -0.30215
# Poissons Ratio (z) = 0.65729 -0.25389
#
# Static dielectric constant tensor:
#      x y z
#    x 1.595680 0.000000 0.028440 
#    y 0.000000 1.658970 0.000000 
#    z 0.028440 0.000000 1.634420 
# 
# From -- ./inp_files/65917.got.cif
#   From: 2010.05.17/outbox.cif.g08.bks.cpg/sg10_33_cif.got.tgz:65917.got - 2010.06.03 11:33:40.
