data_PCOD9154832
_publ_section_title
;
Structure prediction by ZEFSAII (Michael W. Deem and Ramdas Pophale) SiO2 
 PCOD9154832
Probable space group: P 2/M
;
_chemical_formula_sum "Si O2"
_cell_formula_units_Z 21
_cell_length_a 16.307075
_cell_length_b 11.608640
_cell_length_c 5.112578
_cell_angle_alpha 90.000000
_cell_angle_beta 86.871072
_cell_angle_gamma 90.000000
_cell_volume 966.383367
_symmetry_space_group_name_H-M "P 2/M"
_symmetry_group_IT_number 10
_symmetry_cell_setting 'monoclinic'
loop_
_space_group_symop_operation_xyz
x,y,z
-x,y,-z
-x,-y,-z
x,-y,z
loop_
_atom_site_type_symbol
_atom_site_label
_atom_site_fract_x
_atom_site_fract_y
_atom_site_fract_z
Si Si1 0.851686 0.314935 0.045217
Si Si2 0.743386 0.000000 0.865111
Si Si3 0.323466 0.739295 0.107624
Si Si4 0.860555 0.000000 0.342485
Si Si5 0.000000 0.500000 0.000000
Si Si6 0.594770 0.363929 0.397630
Si Si7 0.911794 0.770946 0.534788
O O1 0.759536 0.329684 0.961668
O O2 0.882425 0.216890 0.834503
O O3 0.925904 0.403268 0.994548
O O4 0.848798 0.295172 0.356869
O O5 0.809339 0.000000 0.087727
O O6 0.694701 0.877546 0.893522
O O7 0.791520 0.000000 0.582142
O O8 0.352380 0.697480 0.385469
O O9 0.388707 0.701112 0.877250
O O10 0.916496 0.109921 0.381616
O O11 0.500000 0.356824 0.500000
O O12 0.615710 0.500000 0.370699
O O13 0.000000 0.711159 0.500000
#
# Coordination Sequence:
#
# PCOD9154832 Si02
#       7
#     4   2   4   2   1   4   4
#     4  12  26  43  64  95 138 183 239 276 361 402
#     4  12  24  42  70 106 144 184 232 300 350 433
#     4  12  24  47  73 108 144 189 238 290 360 437
#     4  12  21  40  64  92 133 176 230 296 343 402
#     4  12  28  46  64  96 146 190 232 322 334 414
#     4  11  26  49  77 109 143 181 234 297 360 429
#     4  12  22  42  60  92 127 176 234 290 338 412
#
# _framework density 21.730505000000001
#
# number of rings (size 3 to 8) (size 9 to 14) (size 15 to 20)
#    0.000    0.190    5.714    3.714    2.667    3.048 
#    0.000    5.714    0.000    0.000    0.000    0.000 
#    0.000    0.000    0.000    0.000    0.000    0.000 
#
# Total GULP energy -116921.070539 kJ/mol
# GULP energy per Si atom -5567.670026 kJ/mol
# Density = 2.168105 g / cm^3
# Si number density = 21.730505 Si / 1000 Ang^3
#
#
#
# Elastic Constant Matrix: (Units=GPa)
#
#
# Indices 1 2 3 4 5 6 
#
# 1 70.5052 20.3569 1.9506 0.0000 1.5406 0.0000
# 2 20.3569 90.0528 20.7087 0.0000 16.5282 0.0000
# 3 1.9506 20.7087 115.2742 0.0000 -4.9034 0.0000
# 4 0.0000 0.0000 0.0000 -368.3473 0.0000 17.2394
# 5 1.5406 16.5282 -4.9034 0.0000 36.2658 0.0000
# 6 0.0000 0.0000 0.0000 17.2394 0.0000 36.5468
#
#
#
# Elastic Compliance Matrix: (Units=1/GPa)
#
#
# Indices 1 2 3 4 5 6 
#
# 1 0.015231 -0.003757 0.000465 0.000000 0.001128 0.000000
# 2 -0.003757 0.013759 -0.002684 0.000000 -0.006474 0.000000
# 3 0.000465 -0.002684 0.009254 0.000000 0.002454 0.000000
# 4 0.000000 0.000000 0.000000 -0.002656 0.000000 0.001253
# 5 0.001128 -0.006474 0.002454 0.000000 0.030809 0.000000
# 6 0.000000 0.000000 0.000000 0.001253 0.000000 0.026771
#
#
# Mechanical properties :
#
#
# Convention : Reuss Voigt Hill
#
# Bulk Modulus (GPa) = 38.03349 40.20717 39.12033
# Shear Modulus (GPa) = 43.90505 -43.58587 0.15959
#
# Velocity S-wave (km/s) = 4.49980 -4.48341 0.27130
# Velocity P-wave (km/s) = 6.67368 2.87377 4.25907
#
# Compressibility (1/GPa) = 0.02629262
#
# Stress axis : x y z
#
# Youngs Moduli (GPa) = 65.65743 72.67832 108.06596
#
# Poissons Ratio (x) = 0.27305 -0.05027
# Poissons Ratio (y) = 0.24667 0.29001
# Poissons Ratio (z) = -0.03054 0.19504
#
# Static dielectric constant tensor:
#      x y z
#    x 1.788080 0.000000 -0.000450 
#    y 0.000000 1.839830 0.000000 
#    z -0.000450 0.000000 1.804700 
# 
# From -- ./inp_files/8947.got.cif
#   From: 2010.05.17/outbox.cif.g08.bks.cpg/sg10_5_cif.got.tgz:8947.got - 2010.06.03 11:33:40.
