data_PCOD9154002
_publ_section_title
;
Structure prediction by ZEFSAII (Michael W. Deem and Ramdas Pophale) SiO2 
 PCOD9154002
Probable space group: P 2/M
;
_chemical_formula_sum "Si O2"
_cell_formula_units_Z 14
_cell_length_a 5.225688
_cell_length_b 19.622239
_cell_length_c 5.144124
_cell_angle_alpha 90.000000
_cell_angle_beta 90.089213
_cell_angle_gamma 90.000000
_cell_volume 527.476287
_symmetry_space_group_name_H-M "P 2/M"
_symmetry_group_IT_number 10
_symmetry_cell_setting 'monoclinic'
loop_
_space_group_symop_operation_xyz
x,y,z
-x,y,-z
-x,-y,-z
x,-y,z
loop_
_atom_site_type_symbol
_atom_site_label
_atom_site_fract_x
_atom_site_fract_y
_atom_site_fract_z
Si Si1 0.680840 0.000000 0.750702
Si Si2 0.000000 0.259153 0.500000
Si Si3 0.251191 0.500000 0.323022
Si Si4 0.256132 0.652128 0.156171
Si Si5 0.687344 0.850794 0.752576
O O1 0.500000 0.000000 0.500000
O O2 0.812580 0.073521 0.753517
O O3 0.500000 0.000000 0.000000
O O4 0.223527 0.314694 0.441013
O O5 0.090589 0.204566 0.282713
O O6 0.500000 0.500000 0.500000
O O7 0.258372 0.570466 0.169004
O O8 0.000000 0.500000 0.500000
O O9 0.500000 0.677281 0.000000
O O10 0.000000 0.670804 0.000000
O O11 0.500000 0.844421 0.500000
O O12 0.500000 0.843023 0.000000
#
# Coordination Sequence:
#
# PCOD9154002 Si02
#       5
#     2   2   2   4   4
#     4   8  16  37  64  95 132 184 241 306 363 435
#     4  12  28  40  70  98 148 186 246 302 376 454
#     4  12  24  48  78 107 143 190 248 309 371 441
#     4  12  28  48  75 105 146 193 247 306 377 444
#     4  10  23  42  68  99 142 189 247 305 373 441
#
# _framework density 26.541478000000001
#
# number of rings (size 3 to 8) (size 9 to 14) (size 15 to 20)
#    0.000    1.143    1.429    3.429    8.000    0.571 
#    0.000    0.000    0.000   10.286    0.000    0.000 
#    0.000    0.000    0.000    0.000    0.000    0.000 
#
# Total GULP energy -78268.569840 kJ/mol
# GULP energy per Si atom -5590.612131 kJ/mol
# Density = 2.648107 g / cm^3
# Si number density = 26.541478 Si / 1000 Ang^3
#
#
#
# Elastic Constant Matrix: (Units=GPa)
#
#
# Indices 1 2 3 4 5 6 
#
# 1 173.1763 33.3971 78.5988 0.0000 -27.6298 0.0000
# 2 33.3971 250.6452 33.2993 0.0000 -25.3547 0.0000
# 3 78.5988 33.2993 184.1934 0.0000 -33.0070 0.0000
# 4 0.0000 0.0000 0.0000 43.0458 0.0000 -17.9664
# 5 -27.6298 -25.3547 -33.0070 0.0000 76.0001 0.0000
# 6 0.0000 0.0000 0.0000 -17.9664 0.0000 24.9851
#
#
#
# Elastic Compliance Matrix: (Units=1/GPa)
#
#
# Indices 1 2 3 4 5 6 
#
# 1 0.007352 -0.000474 -0.002820 0.000000 0.001290 0.000000
# 2 -0.000474 0.004210 -0.000366 0.000000 0.001073 0.000000
# 3 -0.002820 -0.000366 0.007041 0.000000 0.001910 0.000000
# 4 0.000000 0.000000 0.000000 0.033193 0.000000 0.023869
# 5 0.001290 0.001073 0.001910 0.000000 0.014814 0.000000
# 6 0.000000 0.000000 0.000000 0.023869 0.000000 0.057188
#
#
# Mechanical properties :
#
#
# Convention : Reuss Voigt Hill
#
# Bulk Modulus (GPa) = 88.64641 99.84504 94.24572
# Shear Modulus (GPa) = 37.06974 59.65419 48.36196
#
# Velocity S-wave (km/s) = 3.74126 4.74601 4.27327
# Velocity P-wave (km/s) = 7.22042 8.23001 7.74169
#
# Compressibility (1/GPa) = 0.01128077
#
# Stress axis : x y z
#
# Youngs Moduli (GPa) = 136.02240 237.52205 142.02283
#
# Poissons Ratio (x) = 0.11269 0.40054
# Poissons Ratio (y) = 0.06453 0.05204
# Poissons Ratio (z) = 0.38362 0.08703
#
# Static dielectric constant tensor:
#      x y z
#    x 4.151000 0.000000 -1.798570 
#    y 0.000000 2.104510 0.000000 
#    z -1.798570 0.000000 3.994780 
# 
# From -- ./inp_files/778.got.cif
#   From: 2010.05.17/outbox.cif.g08.bks.cpg/sg10_1_cif.got.tgz:778.got - 2010.06.03 11:33:40.
