data_PCOD9154887
_publ_section_title
;
Structure prediction by ZEFSAII (Michael W. Deem and Ramdas Pophale) SiO2 
 PCOD9154887
Probable space group: P 2/M
;
_chemical_formula_sum "Si O2"
_cell_formula_units_Z 28
_cell_length_a 9.303484
_cell_length_b 7.481548
_cell_length_c 30.294870
_cell_angle_alpha 90.000000
_cell_angle_beta 39.848236
_cell_angle_gamma 90.000000
_cell_volume 1351.135925
_symmetry_space_group_name_H-M "P 2/M"
_symmetry_group_IT_number 10
_symmetry_cell_setting 'monoclinic'
loop_
_space_group_symop_operation_xyz
x,y,z
-x,y,-z
-x,-y,-z
x,-y,z
loop_
_atom_site_type_symbol
_atom_site_label
_atom_site_fract_x
_atom_site_fract_y
_atom_site_fract_z
Si Si1 0.744255 0.718732 0.068266
Si Si2 0.414416 0.281268 0.068266
Si Si3 0.090344 0.712870 0.798273
Si Si4 0.203702 0.785099 0.352169
Si Si5 0.464549 0.785099 0.647831
Si Si6 0.418290 0.712870 0.798273
Si Si7 0.174883 0.787295 0.500000
O O1 0.743517 0.500000 0.068722
O O2 0.585223 0.775740 0.065911
O O3 0.648855 0.780208 0.137853
O O4 0.000000 0.774232 0.000000
O O5 0.412874 0.500000 0.068722
O O6 0.161882 0.219792 0.137853
O O7 0.500000 0.225768 0.000000
O O8 0.079256 0.500000 0.806864
O O9 0.214413 0.742353 0.722296
O O10 0.251085 0.784883 0.799566
O O11 0.378120 0.720291 0.348752
O O12 0.325892 0.742353 0.277704
O O13 0.959556 0.718365 0.425528
O O14 0.196517 0.000000 0.356697
O O15 0.587196 0.718365 0.574472
O O16 0.480001 0.000000 0.643303
O O17 0.386423 0.500000 0.806864
O O18 0.000000 0.767573 0.500000
O O19 0.203870 0.000000 0.500000
#
# Coordination Sequence:
#
# PCOD9154887 Si02
#       7
#     4   4   4   4   4   4   4
#     4   9  16  26  41  60  81 106 135 165 197 235
#     4   9  16  26  41  60  81 106 135 165 197 235
#     4   9  16  25  38  59  85 107 129 163 204 239
#     4   8  13  22  37  56  79 108 138 165 196 236
#     4   8  13  22  37  56  79 108 138 165 196 236
#     4   9  16  25  38  59  85 107 129 163 204 239
#     4   7  10  18  33  53  76 103 136 168 194 227
#
# _framework density 20.723303000000001
#
# number of rings (size 3 to 8) (size 9 to 14) (size 15 to 20)
#    0.000    3.571    0.000    2.571    0.000    3.429 
#    0.000    0.714    0.000    6.000    0.000    1.000 
#    0.000    8.000    0.000    0.000    0.000    0.000 
#
# Total GULP energy -155891.998936 kJ/mol
# GULP energy per Si atom -5567.571391 kJ/mol
# Density = 2.067614 g / cm^3
# Si number density = 20.723303 Si / 1000 Ang^3
#
#
#
# Elastic Constant Matrix: (Units=GPa)
#
#
# Indices 1 2 3 4 5 6 
#
# 1 69.6010 4.1568 87.4520 0.0000 0.7551 0.0000
# 2 4.1568 57.0201 4.6503 0.0000 0.0062 0.0000
# 3 87.4520 4.6503 284.7999 0.0000 1.9669 0.0000
# 4 0.0000 0.0000 0.0000 20.3359 0.0000 0.2914
# 5 0.7551 0.0062 1.9669 0.0000 20.9390 0.0000
# 6 0.0000 0.0000 0.0000 0.2914 0.0000 -2.7019
#
#
#
# Elastic Compliance Matrix: (Units=1/GPa)
#
#
# Indices 1 2 3 4 5 6 
#
# 1 0.023466 -0.001125 -0.007186 0.000000 -0.000171 0.000000
# 2 -0.001125 0.017615 0.000057 0.000000 0.000030 0.000000
# 3 -0.007186 0.000057 0.005719 0.000000 -0.000278 0.000000
# 4 0.000000 0.000000 0.000000 0.049098 0.000000 0.005295
# 5 -0.000171 0.000030 -0.000278 0.000000 0.047790 0.000000
# 6 0.000000 0.000000 0.000000 0.005295 0.000000 -0.369533
#
#
# Mechanical properties :
#
#
# Convention : Reuss Voigt Hill
#
# Bulk Modulus (GPa) = 33.01060 67.10433 50.05746
# Shear Modulus (GPa) = -25.09514 28.72539 1.81513
#
# Velocity S-wave (km/s) = -3.48366 3.72713 0.93690
# Velocity P-wave (km/s) = 0.46628 7.13956 5.03766
#
# Compressibility (1/GPa) = 0.03029330
#
# Stress axis : x y z
#
# Youngs Moduli (GPa) = 42.61569 56.76988 174.86329
#
# Poissons Ratio (x) = 0.06384 1.25655
# Poissons Ratio (y) = 0.04792 -0.01005
# Poissons Ratio (z) = 0.30623 -0.00326
#
# Static dielectric constant tensor:
#      x y z
#    x 1.704610 0.000000 0.001240 
#    y 0.000000 1.796300 0.000000 
#    z 0.001240 0.000000 1.802900 
# 
# From -- ./inp_files/80217.got.cif
#   From: 2010.05.17/outbox.cif.g08.bks.cpg/sg10_41_cif.got.tgz:80217.got - 2010.06.03 11:33:40.
