data_PCOD9154995
_publ_section_title
;
Structure prediction by ZEFSAII (Michael W. Deem and Ramdas Pophale) SiO2 
 PCOD9154995
Probable space group: P 2/M
;
_chemical_formula_sum "Si O2"
_cell_formula_units_Z 32
_cell_length_a 25.937155
_cell_length_b 7.523029
_cell_length_c 9.744193
_cell_angle_alpha 90.000000
_cell_angle_beta 124.300085
_cell_angle_gamma 90.000000
_cell_volume 1570.696358
_symmetry_space_group_name_H-M "P 2/M"
_symmetry_group_IT_number 10
_symmetry_cell_setting 'monoclinic'
loop_
_space_group_symop_operation_xyz
x,y,z
-x,y,-z
-x,-y,-z
x,-y,z
loop_
_atom_site_type_symbol
_atom_site_label
_atom_site_fract_x
_atom_site_fract_y
_atom_site_fract_z
Si Si1 0.931547 0.713085 0.241356
Si Si2 0.185499 0.787735 0.124343
Si Si3 0.185500 0.787736 0.432156
Si Si4 0.324685 0.216787 0.646171
Si Si5 0.068454 0.713086 0.446713
Si Si6 0.559203 0.782658 0.680302
Si Si7 0.440797 0.217342 0.002693
Si Si8 0.675316 0.216786 0.672116
O O1 0.934689 0.500000 0.252216
O O2 0.872349 0.753750 0.060299
O O3 0.923249 0.778718 0.384875
O O4 1.000000 0.775839 0.293740
O O5 0.191170 0.000000 0.141681
O O6 0.173274 0.719408 0.259911
O O7 0.254478 0.724385 0.184139
O O8 0.254478 0.724384 0.579296
O O9 0.127652 0.753761 0.443251
O O10 0.191174 0.000000 0.431827
O O11 0.336390 0.268371 0.504586
O O12 0.326014 0.000000 0.649795
O O13 0.378021 0.275809 0.830487
O O14 0.065315 0.500000 0.448144
O O15 0.500000 0.728119 0.500000
O O16 0.555655 0.725208 0.833482
O O17 0.621979 0.724192 0.696424
O O18 0.559215 0.000000 0.682094
O O19 0.440784 0.000000 0.004449
O O20 0.500000 0.271880 0.000000
O O21 0.673988 0.000000 0.671753
#
# Coordination Sequence:
#
# PCOD9154995 Si02
#       8
#     4   4   4   4   4   4   4   4
#     4   9  19  35  51  67  90 120 153 189 228 270
#     4   9  18  31  47  69  95 121 150 187 231 276
#     4   9  18  31  47  69  95 121 150 187 231 276
#     4   8  14  25  38  53  79 112 142 176 219 263
#     4   9  19  35  51  67  90 120 153 189 228 270
#     4   9  15  21  31  49  74 107 146 182 216 257
#     4   9  15  21  31  49  74 107 146 182 216 257
#     4   8  14  25  38  53  79 112 142 176 219 263
#
# _framework density 20.373128000000001
#
# number of rings (size 3 to 8) (size 9 to 14) (size 15 to 20)
#    0.000    3.250    0.000    3.000    0.000    6.000 
#    0.000    6.250    0.000    0.000    0.000    0.000 
#    0.000    1.000    0.000    3.250    0.000    7.250 
#
# Total GULP energy -178418.823028 kJ/mol
# GULP energy per Si atom -5575.588220 kJ/mol
# Density = 2.032676 g / cm^3
# Si number density = 20.373128 Si / 1000 Ang^3
#
#
#
# Elastic Constant Matrix: (Units=GPa)
#
#
# Indices 1 2 3 4 5 6 
#
# 1 234.4883 6.1891 135.4650 0.0000 15.1561 0.0000
# 2 6.1891 47.6501 5.5252 0.0000 1.1769 0.0000
# 3 135.4650 5.5252 210.4252 0.0000 27.4306 0.0000
# 4 0.0000 0.0000 0.0000 31.4374 0.0000 24.6371
# 5 15.1561 1.1769 27.4306 0.0000 23.5128 0.0000
# 6 0.0000 0.0000 0.0000 24.6371 0.0000 45.3655
#
#
#
# Elastic Compliance Matrix: (Units=1/GPa)
#
#
# Indices 1 2 3 4 5 6 
#
# 1 0.006811 -0.000386 -0.004487 0.000000 0.000864 0.000000
# 2 -0.000386 0.021077 -0.000236 0.000000 -0.000531 0.000000
# 3 -0.004487 -0.000236 0.008572 0.000000 -0.007096 0.000000
# 4 0.000000 0.000000 0.000000 0.055379 0.000000 -0.030075
# 5 0.000864 -0.000531 -0.007096 0.000000 0.050279 0.000000
# 6 0.000000 0.000000 0.000000 -0.030075 0.000000 0.038376
#
#
# Mechanical properties :
#
#
# Convention : Reuss Voigt Hill
#
# Bulk Modulus (GPa) = 38.10593 87.43580 62.77086
# Shear Modulus (GPa) = 25.06770 43.08877 34.07823
#
# Velocity S-wave (km/s) = 3.51155 4.60388 4.09431
# Velocity P-wave (km/s) = 5.93178 8.44224 7.29580
#
# Compressibility (1/GPa) = 0.02624264
#
# Stress axis : x y z
#
# Youngs Moduli (GPa) = 146.81380 47.44537 116.65331
#
# Poissons Ratio (x) = 0.01830 0.52347
# Poissons Ratio (y) = 0.05663 0.02752
# Poissons Ratio (z) = 0.65881 0.01119
#
# Static dielectric constant tensor:
#      x y z
#    x 1.715030 0.000000 0.014320 
#    y 0.000000 1.779220 0.000000 
#    z 0.014320 0.000000 1.706940 
# 
# From -- ./inp_files/36045.got.cif
#   From: 2010.05.17/outbox.cif.g08.bks.cpg/sg10_19_cif.got.tgz:36045.got - 2010.06.03 11:33:40.
