data_PCOD9154507
_publ_section_title
;
Structure prediction by ZEFSAII (Michael W. Deem and Ramdas Pophale) SiO2 
 PCOD9154507
Probable space group: P 2/M
;
_chemical_formula_sum "Si O2"
_cell_formula_units_Z 28
_cell_length_a 10.371525
_cell_length_b 8.276474
_cell_length_c 30.495023
_cell_angle_alpha 90.000000
_cell_angle_beta 33.925403
_cell_angle_gamma 90.000000
_cell_volume 1460.962669
_symmetry_space_group_name_H-M "P 2/M"
_symmetry_group_IT_number 10
_symmetry_cell_setting 'monoclinic'
loop_
_space_group_symop_operation_xyz
x,y,z
-x,y,-z
-x,-y,-z
x,-y,z
loop_
_atom_site_type_symbol
_atom_site_label
_atom_site_fract_x
_atom_site_fract_y
_atom_site_fract_z
Si Si1 0.133952 0.197365 0.234747
Si Si2 0.616060 0.690181 0.512942
Si Si3 0.647527 0.803564 0.077576
Si Si4 0.099130 0.804699 0.903021
Si Si5 0.910106 0.810497 0.651647
Si Si6 0.456478 0.686598 0.735255
Si Si7 0.341769 0.809159 0.673228
O O1 0.384756 0.252366 0.147242
O O2 0.102334 0.246972 0.294375
O O3 0.914127 0.248778 0.268552
O O4 0.135658 0.000000 0.234283
O O5 0.500000 0.746366 0.500000
O O6 0.567636 0.500000 0.531450
O O7 0.505415 0.779644 0.585348
O O8 0.888087 0.719804 0.431055
O O9 0.746666 0.761266 0.097726
O O10 0.645865 0.000000 0.076810
O O11 0.838545 0.751841 0.988227
O O12 0.219268 0.731940 0.826771
O O13 0.101849 0.000000 0.898692
O O14 0.662839 0.787337 0.698956
O O15 0.969223 0.000000 0.635595
O O16 0.509472 0.500000 0.727900
O O17 0.432937 0.722385 0.690668
O O18 0.330030 0.000000 0.685896
#
# Coordination Sequence:
#
# PCOD9154507 Si02
#       7
#     4   4   4   4   4   4   4
#     4   9  17  32  59  91 115 141 191 249 289 329
#     4  11  23  39  60  90 126 155 185 231 293 352
#     4   8  14  28  56  91 116 141 188 247 292 329
#     4   9  16  31  58  86 115 151 191 238 289 344
#     4  11  21  38  65  90 114 149 199 246 283 339
#     4  12  25  40  56  83 123 160 192 237 300 356
#     4  11  23  40  62  86 114 155 202 243 287 341
#
# _framework density 19.165444999999998
#
# number of rings (size 3 to 8) (size 9 to 14) (size 15 to 20)
#    0.000    1.857    2.857    3.429    0.000    1.143 
#    0.000    5.000    0.000    4.286    0.000    0.000 
#    0.000    0.000    0.000    0.000    0.000    0.000 
#
# Total GULP energy -156356.319043 kJ/mol
# GULP energy per Si atom -5584.154252 kJ/mol
# Density = 1.912182 g / cm^3
# Si number density = 19.165445 Si / 1000 Ang^3
#
#
#
# Elastic Constant Matrix: (Units=GPa)
#
#
# Indices 1 2 3 4 5 6 
#
# 1 45.3321 -7.5354 3.0941 0.0000 1.8676 0.0000
# 2 -7.5354 19.1078 -7.8977 0.0000 2.7132 0.0000
# 3 3.0941 -7.8977 86.7992 0.0000 -6.4190 0.0000
# 4 0.0000 0.0000 0.0000 -66.5213 0.0000 -6.8642
# 5 1.8676 2.7132 -6.4190 0.0000 30.3493 0.0000
# 6 0.0000 0.0000 0.0000 -6.8642 0.0000 12.5075
#
#
#
# Elastic Compliance Matrix: (Units=1/GPa)
#
#
# Indices 1 2 3 4 5 6 
#
# 1 0.023770 0.009649 -0.000144 0.000000 -0.002356 0.000000
# 2 0.009649 0.058749 0.004642 0.000000 -0.004864 0.000000
# 3 -0.000144 0.004642 0.012108 0.000000 0.002155 0.000000
# 4 0.000000 0.000000 0.000000 -0.014227 0.000000 -0.007808
# 5 -0.002356 -0.004864 0.002155 0.000000 0.033985 0.000000
# 6 0.000000 0.000000 0.000000 -0.007808 0.000000 0.075667
#
#
# Mechanical properties :
#
#
# Convention : Reuss Voigt Hill
#
# Bulk Modulus (GPa) = 8.13522 14.06235 11.09878
# Shear Modulus (GPa) = 24.66318 6.17231 15.41774
#
# Velocity S-wave (km/s) = 3.59117 1.79653 2.83937
# Velocity P-wave (km/s) = 4.63134 3.41418 4.06853
#
# Compressibility (1/GPa) = 0.12292229
#
# Stress axis : x y z
#
# Youngs Moduli (GPa) = 42.06940 17.02146 82.59241
#
# Poissons Ratio (x) = -0.16424 0.01186
# Poissons Ratio (y) = -0.40594 -0.38338
# Poissons Ratio (z) = 0.00604 -0.07901
#
# Static dielectric constant tensor:
#      x y z
#    x 1.641180 0.000000 -0.017650 
#    y 0.000000 1.659940 0.000000 
#    z -0.017650 0.000000 1.664480 
# 
# From -- ./inp_files/91989.got.cif
#   From: 2010.05.17/outbox.cif.g08.bks.cpg/sg10_46_cif.got.tgz:91989.got - 2010.06.03 11:33:40.
