data_PCOD9154718
_publ_section_title
;
Structure prediction by ZEFSAII (Michael W. Deem and Ramdas Pophale) SiO2 
 PCOD9154718
Probable space group: P 2/M
;
_chemical_formula_sum "Si O2"
_cell_formula_units_Z 18
_cell_length_a 10.594386
_cell_length_b 7.375358
_cell_length_c 9.321714
_cell_angle_alpha 90.000000
_cell_angle_beta 97.509809
_cell_angle_gamma 90.000000
_cell_volume 722.126767
_symmetry_space_group_name_H-M "P 2/M"
_symmetry_group_IT_number 10
_symmetry_cell_setting 'monoclinic'
loop_
_space_group_symop_operation_xyz
x,y,z
-x,y,-z
-x,-y,-z
x,-y,z
loop_
_atom_site_type_symbol
_atom_site_label
_atom_site_fract_x
_atom_site_fract_y
_atom_site_fract_z
Si Si1 0.215670 0.785385 0.340434
Si Si2 0.601310 0.715110 0.397885
Si Si3 0.348710 0.500000 0.147226
Si Si4 0.328588 0.206837 0.900616
Si Si5 0.039127 0.781460 0.845882
O O1 0.262642 0.754115 0.509178
O O2 0.303660 0.658392 0.256109
O O3 0.070916 0.729810 0.281285
O O4 0.228510 0.000000 0.309751
O O5 0.500000 0.784715 0.500000
O O6 0.578707 0.500000 0.376854
O O7 0.596716 0.789904 0.237923
O O8 0.370864 0.342627 0.028334
O O9 0.184033 0.270578 0.840929
O O10 0.324744 0.000000 0.953301
O O11 0.038816 0.000000 0.849064
O O12 0.000000 0.717529 0.000000
#
# Coordination Sequence:
#
# PCOD9154718 Si02
#       5
#     4   4   2   4   4
#     4  11  23  41  67  98 132 174 215 258 325 386
#     4  11  25  48  69  91 128 170 222 279 321 375
#     4  12  22  39  65 102 134 170 213 269 312 382
#     4  11  23  41  67  98 132 174 215 258 325 386
#     4   9  18  35  62  97 137 167 203 263 316 382
#
# _framework density 24.926373000000002
#
# number of rings (size 3 to 8) (size 9 to 14) (size 15 to 20)
#    0.000    1.333    4.444    1.333    0.000    4.444 
#    0.000    6.667    0.000    2.667    0.000    0.000 
#    0.000    0.000    0.000    0.000    0.000    0.000 
#
# Total GULP energy -100308.683116 kJ/mol
# GULP energy per Si atom -5572.704618 kJ/mol
# Density = 2.486964 g / cm^3
# Si number density = 24.926373 Si / 1000 Ang^3
#
#
#
# Elastic Constant Matrix: (Units=GPa)
#
#
# Indices 1 2 3 4 5 6 
#
# 1 101.3809 -1.0812 19.2568 0.0000 7.3858 0.0000
# 2 -1.0812 164.8990 19.9806 0.0000 -17.2596 0.0000
# 3 19.2568 19.9806 99.9226 0.0000 -15.4034 0.0000
# 4 0.0000 0.0000 0.0000 77.7396 0.0000 -18.2355
# 5 7.3858 -17.2596 -15.4034 0.0000 30.5278 0.0000
# 6 0.0000 0.0000 0.0000 -18.2355 0.0000 19.7750
#
#
#
# Elastic Compliance Matrix: (Units=1/GPa)
#
#
# Indices 1 2 3 4 5 6 
#
# 1 0.010654 -0.000020 -0.002655 0.000000 -0.003928 0.000000
# 2 -0.000020 0.006504 -0.000791 0.000000 0.003283 0.000000
# 3 -0.002655 -0.000791 0.011611 0.000000 0.006054 0.000000
# 4 0.000000 0.000000 0.000000 0.016414 0.000000 0.015136
# 5 -0.003928 0.003283 0.006054 0.000000 0.038618 0.000000
# 6 0.000000 0.000000 0.000000 0.015136 0.000000 0.064526
#
#
# Mechanical properties :
#
#
# Convention : Reuss Voigt Hill
#
# Bulk Modulus (GPa) = 45.79151 49.16831 47.47991
# Shear Modulus (GPa) = 30.76239 47.47824 39.12032
#
# Velocity S-wave (km/s) = 3.51683 4.36907 3.96591
# Velocity P-wave (km/s) = 5.90774 6.72457 6.32935
#
# Compressibility (1/GPa) = 0.02183811
#
# Stress axis : x y z
#
# Youngs Moduli (GPa) = 93.86112 153.76123 86.12763
#
# Poissons Ratio (x) = 0.00302 0.22866
# Poissons Ratio (y) = 0.00184 0.06810
# Poissons Ratio (z) = 0.24919 0.12157
#
# Static dielectric constant tensor:
#      x y z
#    x 2.100970 0.000000 0.080390 
#    y 0.000000 1.937730 0.000000 
#    z 0.080390 0.000000 1.911390 
# 
# From -- ./inp_files/21642.got.cif
#   From: 2010.05.17/outbox.cif.g08.bks.cpg/sg10_11_cif.got.tgz:21642.got - 2010.06.03 11:33:40.
