data_PCOD9154902
_publ_section_title
;
Structure prediction by ZEFSAII (Michael W. Deem and Ramdas Pophale) SiO2 
 PCOD9154902
Probable space group: P 2/M
;
_chemical_formula_sum "Si O2"
_cell_formula_units_Z 32
_cell_length_a 20.532677
_cell_length_b 7.355409
_cell_length_c 11.181113
_cell_angle_alpha 90.000000
_cell_angle_beta 55.256394
_cell_angle_gamma 90.000000
_cell_volume 1387.574460
_symmetry_space_group_name_H-M "P 2/M"
_symmetry_group_IT_number 10
_symmetry_cell_setting 'monoclinic'
loop_
_space_group_symop_operation_xyz
x,y,z
-x,y,-z
-x,-y,-z
x,-y,z
loop_
_atom_site_type_symbol
_atom_site_label
_atom_site_fract_x
_atom_site_fract_y
_atom_site_fract_z
Si Si1 0.336886 0.722839 0.507266
Si Si2 0.481782 0.280821 0.214440
Si Si3 0.910134 0.277932 0.592111
Si Si4 0.102141 0.283784 0.134589
Si Si5 0.238369 0.721481 0.377392
Si Si6 0.947658 0.215117 0.167835
Si Si7 0.796907 0.709487 0.192710
Si Si8 0.620187 0.719034 0.920353
O O1 0.337826 0.500000 0.508904
O O2 0.426532 0.781848 0.381947
O O3 0.283157 0.778774 0.449891
O O4 0.286698 0.785737 0.674302
O O5 0.487003 0.500000 0.220722
O O6 0.430634 0.245641 0.147371
O O7 0.569473 0.213845 0.086859
O O8 0.912128 0.500000 0.585552
O O9 0.875348 0.222559 0.757283
O O10 0.851273 0.217832 0.549276
O O11 0.000000 0.214473 0.500000
O O12 0.111681 0.500000 0.122150
O O13 0.007873 0.254022 0.212157
O O14 0.155121 0.208881 0.969914
O O15 0.238795 0.500000 0.379361
O O16 0.292354 0.779106 0.207572
O O17 0.860141 0.290510 0.236968
O O18 0.939306 0.000000 0.167492
O O19 0.000000 0.283239 0.000000
O O20 0.781202 0.500000 0.178827
O O21 0.623722 0.500000 0.928539
#
# Coordination Sequence:
#
# PCOD9154902 Si02
#       8
#     4   4   4   4   4   4   4   4
#     4   8  13  19  31  52  75  93 115 148 185 223
#     4   7   9  14  24  42  66  92 115 139 177 220
#     4   9  17  25  34  49  70  96 128 162 189 214
#     4   9  17  28  40  55  73  95 125 158 189 221
#     4   8  13  20  29  46  68  93 125 156 184 214
#     4   9  17  28  41  56  73  95 124 156 189 225
#     4   9  16  25  39  58  77  96 119 151 190 227
#     4   7   9  14  25  39  62  92 119 145 175 215
#
# _framework density 23.061826
#
# number of rings (size 3 to 8) (size 9 to 14) (size 15 to 20)
#    0.000    3.750    0.000    2.625    1.750    1.500 
#    0.000    0.000    0.000    0.375    0.000    0.875 
#    0.000    7.000    0.000   10.125    0.000   21.875 
#
# Total GULP energy -178201.964389 kJ/mol
# GULP energy per Si atom -5568.811387 kJ/mol
# Density = 2.300934 g / cm^3
# Si number density = 23.061826 Si / 1000 Ang^3
#
#
#
# Elastic Constant Matrix: (Units=GPa)
#
#
# Indices 1 2 3 4 5 6 
#
# 1 14.4644 -3.2378 1.9577 0.0000 -5.7671 0.0000
# 2 -3.2378 85.2879 4.5734 0.0000 0.1558 0.0000
# 3 1.9577 4.5734 126.8918 0.0000 -35.0036 0.0000
# 4 0.0000 0.0000 0.0000 -17.8192 0.0000 10.6569
# 5 -5.7671 0.1558 -35.0036 0.0000 32.0608 0.0000
# 6 0.0000 0.0000 0.0000 10.6569 0.0000 11.4815
#
#
#
# Elastic Compliance Matrix: (Units=1/GPa)
#
#
# Indices 1 2 3 4 5 6 
#
# 1 0.076275 0.002671 0.003589 0.000000 0.017626 0.000000
# 2 0.002671 0.011854 -0.000503 0.000000 -0.000127 0.000000
# 3 0.003589 -0.000503 0.011480 0.000000 0.013181 0.000000
# 4 0.000000 0.000000 0.000000 -0.036087 0.000000 0.033495
# 5 0.017626 -0.000127 0.013181 0.000000 0.048753 0.000000
# 6 0.000000 0.000000 0.000000 0.033495 0.000000 0.056007
#
#
# Mechanical properties :
#
#
# Convention : Reuss Voigt Hill
#
# Bulk Modulus (GPa) = 8.99914 25.91452 17.45683
# Shear Modulus (GPa) = 25.79865 20.03467 22.91666
#
# Velocity S-wave (km/s) = 3.34829 2.95063 3.15573
# Velocity P-wave (km/s) = 4.34266 4.78223 4.56773
#
# Compressibility (1/GPa) = 0.11112177
#
# Stress axis : x y z
#
# Youngs Moduli (GPa) = 13.11044 84.36241 87.11071
#
# Poissons Ratio (x) = -0.22533 -0.31265
# Poissons Ratio (y) = -0.03502 0.04385
# Poissons Ratio (z) = -0.04705 0.04247
#
# Static dielectric constant tensor:
#      x y z
#    x 1.847610 0.000000 -0.022570 
#    y 0.000000 1.862940 0.000000 
#    z -0.022570 0.000000 1.958380 
# 
# From -- ./inp_files/56760.got.cif
#   From: 2010.05.17/outbox.cif.g08.bks.cpg/sg10_29_cif.got.tgz:56760.got - 2010.06.03 11:33:40.
