data_PCOD9154664
_publ_section_title
;
Structure prediction by ZEFSAII (Michael W. Deem and Ramdas Pophale) SiO2 
 PCOD9154664
Probable space group: P 2/M
;
_chemical_formula_sum "Si O2"
_cell_formula_units_Z 18
_cell_length_a 4.982608
_cell_length_b 7.799395
_cell_length_c 21.923108
_cell_angle_alpha 90.000000
_cell_angle_beta 70.302199
_cell_angle_gamma 90.000000
_cell_volume 802.107292
_symmetry_space_group_name_H-M "P 2/M"
_symmetry_group_IT_number 10
_symmetry_cell_setting 'monoclinic'
loop_
_space_group_symop_operation_xyz
x,y,z
-x,y,-z
-x,-y,-z
x,-y,z
loop_
_atom_site_type_symbol
_atom_site_label
_atom_site_fract_x
_atom_site_fract_y
_atom_site_fract_z
Si Si1 0.137712 0.195588 0.645899
Si Si2 0.065653 0.698606 0.858337
Si Si3 0.820806 0.500000 0.452624
Si Si4 0.451815 0.198488 0.935865
Si Si5 0.469633 0.706078 0.274558
O O1 0.121556 0.333198 0.593112
O O2 0.396486 0.245775 0.670487
O O3 0.843411 0.215696 0.706071
O O4 0.167732 0.000000 0.622753
O O5 0.010781 0.500000 0.847269
O O6 0.213930 0.712746 0.913054
O O7 0.303309 0.765957 0.793237
O O8 0.761722 0.789373 0.880828
O O9 0.500000 0.500000 0.500000
O O10 0.000000 0.500000 0.500000
O O11 0.365477 0.000000 0.948503
O O12 0.500000 0.271083 0.000000
O O13 0.443398 0.500000 0.271496
#
# Coordination Sequence:
#
# PCOD9154664 Si02
#       5
#     4   4   2   4   4
#     4  12  25  43  71 102 132 176 222 265 322 386
#     4  11  24  39  64  94 122 164 214 268 323 388
#     4  12  26  46  72  98 140 180 211 266 321 364
#     4  11  24  41  59  84 125 170 213 268 329 387
#     4  11  22  43  66  94 136 170 209 272 339 384
#
# _framework density 22.44089
#
# number of rings (size 3 to 8) (size 9 to 14) (size 15 to 20)
#    0.000    0.667    2.222    5.333    0.000   14.222 
#    0.000    0.000    0.000    0.000    0.000    0.000 
#    0.000    0.000    0.000    0.000    0.000    0.000 
#
# Total GULP energy -100827.964121 kJ/mol
# GULP energy per Si atom -5601.553562 kJ/mol
# Density = 2.238981 g / cm^3
# Si number density = 22.440890 Si / 1000 Ang^3
#
#
#
# Elastic Constant Matrix: (Units=GPa)
#
#
# Indices 1 2 3 4 5 6 
#
# 1 94.5144 -8.0673 -7.4802 0.0000 -6.5760 0.0000
# 2 -8.0673 88.0023 9.0414 0.0000 1.9730 0.0000
# 3 -7.4802 9.0414 65.4221 0.0000 -2.2942 0.0000
# 4 0.0000 0.0000 0.0000 -43.8635 0.0000 -59.5373
# 5 -6.5760 1.9730 -2.2942 0.0000 44.4659 0.0000
# 6 0.0000 0.0000 0.0000 -59.5373 0.0000 1.8568
#
#
#
# Elastic Compliance Matrix: (Units=1/GPa)
#
#
# Indices 1 2 3 4 5 6 
#
# 1 0.010859 0.000837 0.001183 0.000000 0.001630 0.000000
# 2 0.000837 0.011607 -0.001525 0.000000 -0.000470 0.000000
# 3 0.001183 -0.001525 0.015668 0.000000 0.001051 0.000000
# 4 0.000000 0.000000 0.000000 -0.000512 0.000000 -0.016419
# 5 0.001630 -0.000470 0.001051 0.000000 0.022805 0.000000
# 6 0.000000 0.000000 0.000000 -0.016419 0.000000 0.012096
#
#
# Mechanical properties :
#
#
# Convention : Reuss Voigt Hill
#
# Bulk Modulus (GPa) = 25.55883 26.10295 25.83089
# Shear Modulus (GPa) = 59.11923 17.45484 38.28703
#
# Velocity S-wave (km/s) = 5.13825 2.79196 4.13501
# Velocity P-wave (km/s) = 6.82761 4.69579 5.85947
#
# Compressibility (1/GPa) = 0.03912543
#
# Stress axis : x y z
#
# Youngs Moduli (GPa) = 92.09038 86.15270 63.82346
#
# Poissons Ratio (x) = -0.07214 -0.07550
# Poissons Ratio (y) = -0.07711 0.09732
# Poissons Ratio (z) = -0.10894 0.13137
#
# Static dielectric constant tensor:
#      x y z
#    x 1.765610 0.000000 -0.008360 
#    y 0.000000 1.756140 0.000000 
#    z -0.008360 0.000000 1.851160 
# 
# From -- ./inp_files/80880.got.cif
#   From: 2010.05.17/outbox.cif.g08.bks.cpg/sg10_41_cif.got.tgz:80880.got - 2010.06.03 11:33:40.
