data_PCOD9154612
_publ_section_title
;
Structure prediction by ZEFSAII (Michael W. Deem and Ramdas Pophale) SiO2 
 PCOD9154612
Probable space group: P 2/M
;
_chemical_formula_sum "Si O2"
_cell_formula_units_Z 32
_cell_length_a 29.837878
_cell_length_b 8.561558
_cell_length_c 12.055778
_cell_angle_alpha 90.000000
_cell_angle_beta 31.395808
_cell_angle_gamma 90.000000
_cell_volume 1604.388984
_symmetry_space_group_name_H-M "P 2/M"
_symmetry_group_IT_number 10
_symmetry_cell_setting 'monoclinic'
loop_
_space_group_symop_operation_xyz
x,y,z
-x,y,-z
-x,-y,-z
x,-y,z
loop_
_atom_site_type_symbol
_atom_site_label
_atom_site_fract_x
_atom_site_fract_y
_atom_site_fract_z
Si Si1 0.633299 0.188524 0.669568
Si Si2 0.760893 0.814908 0.918060
Si Si3 0.914621 0.189739 0.745548
Si Si4 0.811595 0.685377 0.345557
Si Si5 0.844211 0.315803 0.522700
Si Si6 0.966056 0.185705 0.884023
Si Si7 0.465358 0.188187 0.896949
Si Si8 0.576038 0.313637 0.258643
O O1 0.726998 0.261023 0.459142
O O2 0.562532 0.233973 0.727190
O O3 0.640201 0.000000 0.653564
O O4 0.593981 0.234579 0.872831
O O5 0.827630 0.755611 0.870246
O O6 0.806464 0.780494 0.704286
O O7 0.749864 0.000000 0.955131
O O8 0.668028 0.737299 0.111639
O O9 0.924616 0.228892 0.852815
O O10 0.000000 0.244163 0.500000
O O11 0.914198 0.000000 0.738436
O O12 0.824212 0.500000 0.309425
O O13 0.798928 0.723186 0.502155
O O14 0.896703 0.770406 0.122645
O O15 0.833173 0.500000 0.568476
O O16 0.944450 0.275876 0.295056
O O17 0.983347 0.000000 0.848534
O O18 0.436308 0.252843 0.840534
O O19 0.462913 0.000000 0.897232
O O20 0.500000 0.255646 0.500000
O O21 0.572387 0.500000 0.262570
#
# Coordination Sequence:
#
# PCOD9154612 Si02
#       8
#     4   4   4   4   4   4   4   4
#     4   9  19  37  61  89 116 145 189 245 294 346
#     4  11  22  39  66  91 114 152 200 247 293 349
#     4   9  18  37  61  87 116 144 188 246 295 340
#     4  11  24  38  53  81 122 159 192 235 291 353
#     4  11  23  39  58  84 121 157 192 238 292 350
#     4  11  22  38  61  85 113 153 198 245 292 343
#     4   9  19  38  64  89 114 147 193 244 293 348
#     4  11  25  42  58  84 124 161 195 242 296 351
#
# _framework density 19.945288999999999
#
# number of rings (size 3 to 8) (size 9 to 14) (size 15 to 20)
#    0.000    1.750    1.250    3.750    0.000    8.500 
#    0.000    8.125    0.000    0.000    0.000    0.000 
#    0.000    0.000    0.000    0.000    0.000    0.000 
#
# Total GULP energy -178828.581885 kJ/mol
# GULP energy per Si atom -5588.393184 kJ/mol
# Density = 1.989989 g / cm^3
# Si number density = 19.945289 Si / 1000 Ang^3
#
#
#
# Elastic Constant Matrix: (Units=GPa)
#
#
# Indices 1 2 3 4 5 6 
#
# 1 100.3876 10.5123 12.5134 0.0000 -20.0412 0.0000
# 2 10.5123 10.8838 -4.3940 0.0000 0.8117 0.0000
# 3 12.5134 -4.3940 50.9761 0.0000 -25.2234 0.0000
# 4 0.0000 0.0000 0.0000 20.6500 0.0000 -7.7819
# 5 -20.0412 0.8117 -25.2234 0.0000 33.4318 0.0000
# 6 0.0000 0.0000 0.0000 -7.7819 0.0000 42.1835
#
#
#
# Elastic Compliance Matrix: (Units=1/GPa)
#
#
# Indices 1 2 3 4 5 6 
#
# 1 0.012955 -0.013296 -0.000517 0.000000 0.007699 0.000000
# 2 -0.013296 0.109647 0.011895 0.000000 -0.001658 0.000000
# 3 -0.000517 0.011895 0.032669 0.000000 0.024049 0.000000
# 4 0.000000 0.000000 0.000000 0.052044 0.000000 0.009601
# 5 0.007699 -0.001658 0.024049 0.000000 0.052712 0.000000
# 6 0.000000 0.000000 0.000000 0.009601 0.000000 0.025477
#
#
# Mechanical properties :
#
#
# Convention : Reuss Voigt Hill
#
# Bulk Modulus (GPa) = 6.60346 22.16789 14.38567
# Shear Modulus (GPa) = 14.71374 28.82744 21.77059
#
# Velocity S-wave (km/s) = 2.71902 3.80587 3.30739
# Velocity P-wave (km/s) = 3.62979 5.51827 4.67048
#
# Compressibility (1/GPa) = 0.15143585
#
# Stress axis : x y z
#
# Youngs Moduli (GPa) = 77.18961 9.12016 30.61010
#
# Poissons Ratio (x) = 0.12126 0.01581
# Poissons Ratio (y) = 1.02629 -0.36409
# Poissons Ratio (z) = 0.03988 -0.10848
#
# Static dielectric constant tensor:
#      x y z
#    x 1.707850 0.000000 -0.001440 
#    y 0.000000 1.675120 0.000000 
#    z -0.001440 0.000000 1.686840 
# 
# From -- ./inp_files/58186.got.cif
#   From: 2010.05.17/outbox.cif.g08.bks.cpg/sg10_30_cif.got.tgz:58186.got - 2010.06.03 11:33:40.
