data_PCOD9154535
_publ_section_title
;
Structure prediction by ZEFSAII (Michael W. Deem and Ramdas Pophale) SiO2 
 PCOD9154535
Probable space group: P 2/M
;
_chemical_formula_sum "Si O2"
_cell_formula_units_Z 24
_cell_length_a 9.366549
_cell_length_b 18.637908
_cell_length_c 9.764587
_cell_angle_alpha 90.000000
_cell_angle_beta 134.796939
_cell_angle_gamma 90.000000
_cell_volume 1209.621195
_symmetry_space_group_name_H-M "P 2/M"
_symmetry_group_IT_number 10
_symmetry_cell_setting 'monoclinic'
loop_
_space_group_symop_operation_xyz
x,y,z
-x,y,-z
-x,-y,-z
x,-y,z
loop_
_atom_site_type_symbol
_atom_site_label
_atom_site_fract_x
_atom_site_fract_y
_atom_site_fract_z
Si Si1 0.591994 0.196161 0.415444
Si Si2 0.877166 0.674733 0.054617
Si Si3 0.944763 0.084085 0.621371
Si Si4 0.171322 0.834937 0.994704
Si Si5 0.842187 0.660410 0.513127
Si Si6 0.470233 0.417004 0.318118
O O1 0.500000 0.216206 0.500000
O O2 0.757313 0.133939 0.535295
O O3 0.398320 0.165641 0.204234
O O4 0.707496 0.267239 0.440196
O O5 0.839718 0.755613 0.079955
O O6 0.686655 0.630206 0.874705
O O7 0.000000 0.685360 0.000000
O O8 0.024259 0.641104 0.264363
O O9 0.000000 0.098047 0.500000
O O10 0.900261 0.000000 0.605943
O O11 0.120624 0.107403 0.844524
O O12 0.000000 0.841664 0.000000
O O13 0.682864 0.596929 0.389304
O O14 0.000000 0.670792 0.500000
O O15 0.500000 0.395749 0.500000
O O16 0.409143 0.500000 0.276405
#
# Coordination Sequence:
#
# PCOD9154535 Si02
#       6
#     4   4   4   4   4   4
#     4  12  22  43  72  98 130 176 232 275 326 394
#     4  11  21  40  70  97 130 172 228 277 327 393
#     4  11  26  46  65  99 143 176 216 276 338 397
#     4  11  22  40  70  99 127 174 226 281 326 392
#     4  12  25  42  67 100 136 176 222 276 338 392
#     4  11  24  43  69 100 134 179 227 273 329 400
#
# _framework density 19.840921000000002
#
# number of rings (size 3 to 8) (size 9 to 14) (size 15 to 20)
#    0.000    0.667    6.667    2.000    0.000    4.000 
#    0.000    2.500    0.000    0.000    0.000    0.000 
#    0.000    0.000    0.000    0.000    0.000    0.000 
#
# Total GULP energy -133942.863520 kJ/mol
# GULP energy per Si atom -5580.952647 kJ/mol
# Density = 1.979576 g / cm^3
# Si number density = 19.840921 Si / 1000 Ang^3
#
#
#
# Elastic Constant Matrix: (Units=GPa)
#
#
# Indices 1 2 3 4 5 6 
#
# 1 88.4247 18.2250 13.9907 0.0000 2.2231 0.0000
# 2 18.2250 66.1989 7.4212 0.0000 -2.8021 0.0000
# 3 13.9907 7.4212 100.1717 0.0000 13.4016 0.0000
# 4 0.0000 0.0000 0.0000 -17.4963 0.0000 -4.9455
# 5 2.2231 -2.8021 13.4016 0.0000 28.2315 0.0000
# 6 0.0000 0.0000 0.0000 -4.9455 0.0000 21.5783
#
#
#
# Elastic Compliance Matrix: (Units=1/GPa)
#
#
# Indices 1 2 3 4 5 6 
#
# 1 0.012210 -0.003233 -0.001382 0.000000 -0.000626 0.000000
# 2 -0.003233 0.016216 -0.001067 0.000000 0.002371 0.000000
# 3 -0.001382 -0.001067 0.010950 0.000000 -0.005195 0.000000
# 4 0.000000 0.000000 0.000000 -0.053678 0.000000 -0.012302
# 5 -0.000626 0.002371 -0.005195 0.000000 0.038172 0.000000
# 6 0.000000 0.000000 0.000000 -0.012302 0.000000 0.043523
#
#
# Mechanical properties :
#
#
# Convention : Reuss Voigt Hill
#
# Bulk Modulus (GPa) = 35.69923 37.11879 36.40901
# Shear Modulus (GPa) = 56.75698 20.80660 38.78179
#
# Velocity S-wave (km/s) = 5.35426 3.24183 4.42592
# Velocity P-wave (km/s) = 7.50040 5.72376 6.67148
#
# Compressibility (1/GPa) = 0.02801181
#
# Stress axis : x y z
#
# Youngs Moduli (GPa) = 81.90129 61.66744 91.32453
#
# Poissons Ratio (x) = 0.19937 0.12621
# Poissons Ratio (y) = 0.26479 0.09744
# Poissons Ratio (z) = 0.11319 0.06580
#
# Static dielectric constant tensor:
#      x y z
#    x 1.700170 0.000000 0.009140 
#    y 0.000000 1.709360 0.000000 
#    z 0.009140 0.000000 1.752400 
# 
# From -- ./inp_files/20267.got.cif
#   From: 2010.05.17/outbox.cif.g08.bks.cpg/sg10_11_cif.got.tgz:20267.got - 2010.06.03 11:33:40.
