data_PCOD9154619
_publ_section_title
;
Structure prediction by ZEFSAII (Michael W. Deem and Ramdas Pophale) SiO2 
 PCOD9154619
Probable space group: P 2/M
;
_chemical_formula_sum "Si O2"
_cell_formula_units_Z 20
_cell_length_a 8.045145
_cell_length_b 11.590950
_cell_length_c 9.763097
_cell_angle_alpha 90.000000
_cell_angle_beta 103.026711
_cell_angle_gamma 90.000000
_cell_volume 886.987813
_symmetry_space_group_name_H-M "P 2/M"
_symmetry_group_IT_number 10
_symmetry_cell_setting 'monoclinic'
loop_
_space_group_symop_operation_xyz
x,y,z
-x,y,-z
-x,-y,-z
x,-y,z
loop_
_atom_site_type_symbol
_atom_site_label
_atom_site_fract_x
_atom_site_fract_y
_atom_site_fract_z
Si Si1 0.795682 0.867253 0.428577
Si Si2 0.751464 0.500000 0.119415
Si Si3 0.105240 0.749726 0.823828
Si Si4 0.707127 0.742491 0.677557
Si Si5 0.347162 0.863336 0.069460
Si Si6 0.605397 0.500000 0.785977
O O1 0.792443 0.816463 0.276258
O O2 0.700910 0.785776 0.520519
O O3 0.000000 0.867801 0.500000
O O4 0.737295 0.000000 0.425545
O O5 0.852660 0.615316 0.169868
O O6 0.584672 0.500000 0.185705
O O7 0.711707 0.500000 0.948789
O O8 0.906422 0.758798 0.754532
O O9 0.179514 0.802877 0.976827
O O10 0.616319 0.826330 0.769041
O O11 0.647077 0.613697 0.704558
O O12 0.328935 0.000000 0.056217
O O13 0.500000 0.822824 0.000000
#
# Coordination Sequence:
#
# PCOD9154619 Si02
#       6
#     4   2   4   4   4   2
#     4   9  20  39  61  90 126 157 192 247 306 355
#     4  11  23  40  61  86 125 163 196 248 307 360
#     4  11  22  38  64  91 118 156 204 251 297 354
#     4  11  22  38  64  91 118 156 204 251 297 354
#     4  11  23  38  57  86 123 159 199 247 300 357
#     4  11  23  40  61  86 125 163 196 248 307 360
#
# _framework density 22.548224999999999
#
# number of rings (size 3 to 8) (size 9 to 14) (size 15 to 20)
#    0.000    1.400    2.000    3.600    0.000    4.800 
#    0.000    8.000    0.000    7.200    0.000    0.000 
#    0.000    0.000    0.000    0.000    0.000    0.000 
#
# Total GULP energy -111912.350795 kJ/mol
# GULP energy per Si atom -5595.617540 kJ/mol
# Density = 2.249690 g / cm^3
# Si number density = 22.548225 Si / 1000 Ang^3
#
#
#
# Elastic Constant Matrix: (Units=GPa)
#
#
# Indices 1 2 3 4 5 6 
#
# 1 71.5268 15.9680 7.0776 0.0000 -17.1331 0.0000
# 2 15.9680 98.9935 33.4101 0.0000 -27.4891 0.0000
# 3 7.0776 33.4101 113.4616 0.0000 -36.5132 0.0000
# 4 0.0000 0.0000 0.0000 42.5231 0.0000 -65.6485
# 5 -17.1331 -27.4891 -36.5132 0.0000 40.7229 0.0000
# 6 0.0000 0.0000 0.0000 -65.6485 0.0000 2.6846
#
#
#
# Elastic Compliance Matrix: (Units=1/GPa)
#
#
# Indices 1 2 3 4 5 6 
#
# 1 0.015844 -0.001057 0.001741 0.000000 0.007513 0.000000
# 2 -0.001057 0.012651 -0.001482 0.000000 0.006767 0.000000
# 3 0.001741 -0.001482 0.012728 0.000000 0.011144 0.000000
# 4 0.000000 0.000000 0.000000 -0.000640 0.000000 -0.015647
# 5 0.007513 0.006767 0.011144 0.000000 0.042277 0.000000
# 6 0.000000 0.000000 0.000000 -0.015647 0.000000 -0.010135
#
#
# Mechanical properties :
#
#
# Convention : Reuss Voigt Hill
#
# Bulk Modulus (GPa) = 25.23517 44.09928 34.66722
# Shear Modulus (GPa) = 57.12346 32.35452 44.73899
#
# Velocity S-wave (km/s) = 5.03874 3.79212 4.45921
# Velocity P-wave (km/s) = 6.71326 6.22686 6.47463
#
# Compressibility (1/GPa) = 0.03962724
#
# Stress axis : x y z
#
# Youngs Moduli (GPa) = 63.11463 79.04353 78.56962
#
# Poissons Ratio (x) = 0.08354 -0.13677
# Poissons Ratio (y) = 0.06670 0.11642
# Poissons Ratio (z) = -0.10987 0.11713
#
# Static dielectric constant tensor:
#      x y z
#    x 1.884860 0.000000 0.002300 
#    y 0.000000 1.750340 0.000000 
#    z 0.002300 0.000000 1.799340 
# 
# From -- ./inp_files/17815.got.cif
#   From: 2010.05.17/outbox.cif.g08.bks.cpg/sg10_9_cif.got.tgz:17815.got - 2010.06.03 11:33:40.
