data_PCOD9154878
_publ_section_title
;
Structure prediction by ZEFSAII (Michael W. Deem and Ramdas Pophale) SiO2 
 PCOD9154878
Probable space group: P 2/M
;
_chemical_formula_sum "Si O2"
_cell_formula_units_Z 28
_cell_length_a 16.232530
_cell_length_b 7.358552
_cell_length_c 14.487514
_cell_angle_alpha 90.000000
_cell_angle_beta 94.724214
_cell_angle_gamma 90.000000
_cell_volume 1724.624265
_symmetry_space_group_name_H-M "P 2/M"
_symmetry_group_IT_number 10
_symmetry_cell_setting 'monoclinic'
loop_
_space_group_symop_operation_xyz
x,y,z
-x,y,-z
-x,-y,-z
x,-y,z
loop_
_atom_site_type_symbol
_atom_site_label
_atom_site_fract_x
_atom_site_fract_y
_atom_site_fract_z
Si Si1 0.433349 0.500000 0.859728
Si Si2 0.300101 0.784219 0.812733
Si Si3 0.615003 0.500000 0.927653
Si Si4 0.252861 0.784270 0.020447
Si Si5 0.152932 0.777945 0.665921
Si Si6 0.072817 0.778468 0.075096
Si Si7 0.094123 0.788730 0.469705
Si Si8 0.973520 0.222395 0.723752
O O1 0.385111 0.673935 0.815580
O O2 0.531952 0.500000 0.860000
O O3 0.414069 0.500000 0.967853
O O4 0.233104 0.724696 0.730833
O O5 0.313611 0.000000 0.805433
O O6 0.261826 0.751467 0.911287
O O7 0.674154 0.674123 0.923512
O O8 0.162969 0.725243 0.047245
O O9 0.261546 0.000000 0.036012
O O10 0.147854 0.713838 0.559209
O O11 0.067794 0.723748 0.709020
O O12 0.151772 0.000000 0.664163
O O13 0.054642 0.720342 0.177877
O O14 0.071761 0.000000 0.074498
O O15 0.000000 0.719025 0.000000
O O16 0.085150 0.714023 0.365718
O O17 0.000000 0.784479 0.500000
O O18 0.117942 0.000000 0.462078
O O19 0.972848 0.000000 0.721688
#
# Coordination Sequence:
#
# PCOD9154878 Si02
#       8
#     2   4   2   4   4   4   4   4
#     4   9  18  30  44  62  80 103 133 163 204 252
#     4   9  16  26  41  61  84 106 131 165 202 242
#     4   9  18  32  45  58  81 107 133 167 202 243
#     4   9  17  28  42  60  82 110 139 165 197 234
#     4   8  12  19  33  54  80 108 135 164 201 239
#     4   9  15  22  34  54  81 112 144 172 196 226
#     4   7  10  16  27  47  75 105 137 169 198 231
#     4   8  12  18  30  50  78 111 144 172 195 227
#
# _framework density 16.235422
#
# number of rings (size 3 to 8) (size 9 to 14) (size 15 to 20)
#    0.000    3.571    0.000    2.571    0.000    4.000 
#    0.000    3.214    0.000    0.857    0.000    5.500 
#    0.000    2.286    0.000   11.143    0.000    0.286 
#
# Total GULP energy -155925.450157 kJ/mol
# GULP energy per Si atom -5568.766077 kJ/mol
# Density = 1.619847 g / cm^3
# Si number density = 16.235422 Si / 1000 Ang^3
#
#
#
# Elastic Constant Matrix: (Units=GPa)
#
#
# Indices 1 2 3 4 5 6 
#
# 1 121.9068 33.2004 71.5936 0.0000 29.0533 0.0000
# 2 33.2004 63.1602 31.0398 0.0000 10.4723 0.0000
# 3 71.5936 31.0398 124.1450 0.0000 22.6616 0.0000
# 4 0.0000 0.0000 0.0000 -0.4391 0.0000 9.6670
# 5 29.0533 10.4723 22.6616 0.0000 25.4718 0.0000
# 6 0.0000 0.0000 0.0000 9.6670 0.0000 23.4945
#
#
#
# Elastic Compliance Matrix: (Units=1/GPa)
#
#
# Indices 1 2 3 4 5 6 
#
# 1 0.015123 -0.003257 -0.005973 0.000000 -0.010597 0.000000
# 2 -0.003257 0.019112 -0.002560 0.000000 -0.001865 0.000000
# 3 -0.005973 -0.002560 0.012779 0.000000 -0.003504 0.000000
# 4 0.000000 0.000000 0.000000 -0.226417 0.000000 0.093161
# 5 -0.010597 -0.001865 -0.003504 0.000000 0.055230 0.000000
# 6 0.000000 0.000000 0.000000 0.093161 0.000000 0.004231
#
#
# Mechanical properties :
#
#
# Convention : Reuss Voigt Hill
#
# Bulk Modulus (GPa) = 42.67088 64.54219 53.60654
# Shear Modulus (GPa) = -56.46547 21.26398 -17.60074
#
# Velocity S-wave (km/s) = -5.90379 3.62294 -3.29613
# Velocity P-wave (km/s) = 4.48701 7.57240 4.31323
#
# Compressibility (1/GPa) = 0.02343519
#
# Stress axis : x y z
#
# Youngs Moduli (GPa) = 66.12364 52.32275 78.25213
#
# Poissons Ratio (x) = 0.17043 0.46738
# Poissons Ratio (y) = 0.21539 0.20030
# Poissons Ratio (z) = 0.39494 0.13393
#
# Static dielectric constant tensor:
#      x y z
#    x 1.506410 0.000000 0.013620 
#    y 0.000000 1.612720 0.000000 
#    z 0.013620 0.000000 1.558890 
# 
# From -- ./inp_files/65807.got.cif
#   From: 2010.05.17/outbox.cif.g08.bks.cpg/sg10_33_cif.got.tgz:65807.got - 2010.06.03 11:33:40.
