data_PCOD9154637
_publ_section_title
;
Structure prediction by ZEFSAII (Michael W. Deem and Ramdas Pophale) SiO2 
 PCOD9154637
Probable space group: P 2/M
;
_chemical_formula_sum "Si O2"
_cell_formula_units_Z 20
_cell_length_a 9.923887
_cell_length_b 11.796774
_cell_length_c 8.001122
_cell_angle_alpha 90.000000
_cell_angle_beta 88.902956
_cell_angle_gamma 90.000000
_cell_volume 936.518475
_symmetry_space_group_name_H-M "P 2/M"
_symmetry_group_IT_number 10
_symmetry_cell_setting 'monoclinic'
loop_
_space_group_symop_operation_xyz
x,y,z
-x,y,-z
-x,-y,-z
x,-y,z
loop_
_atom_site_type_symbol
_atom_site_label
_atom_site_fract_x
_atom_site_fract_y
_atom_site_fract_z
Si Si1 0.702039 0.740060 0.185727
Si Si2 0.866062 0.500000 0.785411
Si Si3 0.178059 0.500000 0.809019
Si Si4 0.049434 0.131104 0.689779
Si Si5 0.204685 0.745384 0.199168
Si Si6 0.453333 0.128290 0.310049
O O1 0.739398 0.612484 0.238523
O O2 0.801115 0.823745 0.283692
O O3 0.551156 0.782939 0.216303
O O4 0.739949 0.746318 0.989993
O O5 0.800253 0.617638 0.730002
O O6 0.025715 0.500000 0.741632
O O7 0.846367 0.500000 0.988517
O O8 0.000000 0.141370 0.500000
O O9 0.946826 0.208064 0.796805
O O10 0.039839 0.000000 0.739490
O O11 0.301125 0.828142 0.299596
O O12 0.500000 0.126194 0.500000
O O13 0.465201 0.000000 0.241842
#
# Coordination Sequence:
#
# PCOD9154637 Si02
#       6
#     4   2   2   4   4   4
#     4  11  22  39  65  91 118 157 206 251 294 357
#     4   9  18  37  62  91 125 155 190 248 311 352
#     4   9  18  37  62  91 125 155 190 248 311 352
#     4  11  23  38  57  86 124 161 198 247 308 359
#     4  11  22  39  65  91 118 157 206 251 294 357
#     4  11  25  44  61  84 126 167 198 247 312 363
#
# _framework density 21.355692000000001
#
# number of rings (size 3 to 8) (size 9 to 14) (size 15 to 20)
#    0.000    1.400    2.000    3.600    0.000    8.800 
#    0.000    9.000    0.000    0.000    0.000    0.000 
#    0.000    0.000    0.000    0.000    0.000    0.000 
#
# Total GULP energy -111860.339487 kJ/mol
# GULP energy per Si atom -5593.016974 kJ/mol
# Density = 2.130709 g / cm^3
# Si number density = 21.355692 Si / 1000 Ang^3
#
#
#
# Elastic Constant Matrix: (Units=GPa)
#
#
# Indices 1 2 3 4 5 6 
#
# 1 67.7217 10.4326 -0.9780 0.0000 -1.8834 0.0000
# 2 10.4326 132.8138 14.7542 0.0000 -6.1412 0.0000
# 3 -0.9780 14.7542 28.6622 0.0000 2.7473 0.0000
# 4 0.0000 0.0000 0.0000 126.2703 0.0000 -67.0320
# 5 -1.8834 -6.1412 2.7473 0.0000 36.4372 0.0000
# 6 0.0000 0.0000 0.0000 -67.0320 0.0000 86.6691
#
#
#
# Elastic Compliance Matrix: (Units=1/GPa)
#
#
# Indices 1 2 3 4 5 6 
#
# 1 0.014993 -0.001281 0.001125 0.000000 0.000474 0.000000
# 2 -0.001281 0.008197 -0.004421 0.000000 0.001649 0.000000
# 3 0.001125 -0.004421 0.037541 0.000000 -0.003517 0.000000
# 4 0.000000 0.000000 0.000000 0.013436 0.000000 0.010392
# 5 0.000474 0.001649 -0.003517 0.000000 0.028012 0.000000
# 6 0.000000 0.000000 0.000000 0.010392 0.000000 0.019575
#
#
# Mechanical properties :
#
#
# Convention : Reuss Voigt Hill
#
# Bulk Modulus (GPa) = 19.38831 30.84616 25.11723
# Shear Modulus (GPa) = 33.76079 63.54126 48.65102
#
# Velocity S-wave (km/s) = 3.98034 5.46062 4.77815
# Velocity P-wave (km/s) = 5.49751 7.36432 6.49830
#
# Compressibility (1/GPa) = 0.05157747
#
# Stress axis : x y z
#
# Youngs Moduli (GPa) = 66.69749 121.99055 26.63781
#
# Poissons Ratio (x) = 0.15625 -0.02998
# Poissons Ratio (y) = 0.08543 0.11778
# Poissons Ratio (z) = -0.07506 0.53937
#
# Static dielectric constant tensor:
#      x y z
#    x 1.708920 0.000000 -0.000740 
#    y 0.000000 1.754130 0.000000 
#    z -0.000740 0.000000 1.789700 
# 
# From -- ./inp_files/17888.got.cif
#   From: 2010.05.17/outbox.cif.g08.bks.cpg/sg10_9_cif.got.tgz:17888.got - 2010.06.03 11:33:40.
