data_PCOD9154447
_publ_section_title
;
Structure prediction by ZEFSAII (Michael W. Deem and Ramdas Pophale) SiO2 
 PCOD9154447
Probable space group: P 2/M
;
_chemical_formula_sum "Si O2"
_cell_formula_units_Z 24
_cell_length_a 7.905988
_cell_length_b 14.351734
_cell_length_c 9.774837
_cell_angle_alpha 90.000000
_cell_angle_beta 76.580450
_cell_angle_gamma 90.000000
_cell_volume 1078.816337
_symmetry_space_group_name_H-M "P 2/M"
_symmetry_group_IT_number 10
_symmetry_cell_setting 'monoclinic'
loop_
_space_group_symop_operation_xyz
x,y,z
-x,y,-z
-x,-y,-z
x,-y,z
loop_
_atom_site_type_symbol
_atom_site_label
_atom_site_fract_x
_atom_site_fract_y
_atom_site_fract_z
Si Si1 0.840041 0.106341 0.425594
Si Si2 0.292875 0.892595 0.076383
Si Si3 0.901655 0.606000 0.290936
Si Si4 0.804505 0.795298 0.172811
Si Si5 0.592919 0.201880 0.677260
Si Si6 0.268351 0.395927 0.378774
O O1 0.903440 0.144077 0.267698
O O2 0.686281 0.166661 0.522723
O O3 0.000000 0.111241 0.500000
O O4 0.780966 0.000000 0.423860
O O5 0.296618 0.845754 0.223308
O O6 0.233052 0.000000 0.087800
O O7 0.500000 0.894270 0.000000
O O8 0.193045 0.830353 0.982890
O O9 0.881158 0.500000 0.241728
O O10 0.853373 0.688189 0.195516
O O11 0.788023 0.614098 0.451756
O O12 0.097138 0.614653 0.315625
O O13 0.606577 0.819138 0.256514
O O14 0.605275 0.313078 0.680486
O O15 0.338298 0.500000 0.346860
#
# Coordination Sequence:
#
# PCOD9154447 Si02
#       6
#     4   4   4   4   4   4
#     4  11  23  37  54  79 112 145 181 230 280 329
#     4   9  20  38  56  77 112 152 185 223 276 333
#     4   9  18  34  56  81 113 150 182 220 275 333
#     4  11  21  35  58  85 110 143 186 232 278 325
#     4  11  21  35  58  85 110 143 186 232 278 325
#     4   9  18  34  56  81 113 150 182 220 275 333
#
# _framework density 22.246606
#
# number of rings (size 3 to 8) (size 9 to 14) (size 15 to 20)
#    0.000    2.000    1.667    3.500    0.000    3.333 
#    0.000    5.833    0.000   11.000    0.000    0.000 
#    0.000    0.000    0.000    0.000    0.000    0.000 
#
# Total GULP energy -134155.281521 kJ/mol
# GULP energy per Si atom -5589.803397 kJ/mol
# Density = 2.219597 g / cm^3
# Si number density = 22.246606 Si / 1000 Ang^3
#
#
#
# Elastic Constant Matrix: (Units=GPa)
#
#
# Indices 1 2 3 4 5 6 
#
# 1 44.9799 14.9142 6.5089 0.0000 8.4894 0.0000
# 2 14.9142 139.7055 40.0059 0.0000 32.4144 0.0000
# 3 6.5089 40.0059 105.9050 0.0000 33.5988 0.0000
# 4 0.0000 0.0000 0.0000 89.9250 0.0000 39.4714
# 5 8.4894 32.4144 33.5988 0.0000 34.6900 0.0000
# 6 0.0000 0.0000 0.0000 39.4714 0.0000 35.5332
#
#
#
# Elastic Compliance Matrix: (Units=1/GPa)
#
#
# Indices 1 2 3 4 5 6 
#
# 1 0.023592 -0.001563 0.000735 0.000000 -0.005024 0.000000
# 2 -0.001563 0.009328 -0.001131 0.000000 -0.007238 0.000000
# 3 0.000735 -0.001131 0.013781 0.000000 -0.012470 0.000000
# 4 0.000000 0.000000 0.000000 0.021702 0.000000 -0.024107
# 5 -0.005024 -0.007238 -0.012470 0.000000 0.048897 0.000000
# 6 0.000000 0.000000 0.000000 -0.024107 0.000000 0.054922
#
#
# Mechanical properties :
#
#
# Convention : Reuss Voigt Hill
#
# Bulk Modulus (GPa) = 23.37474 45.93870 34.65672
# Shear Modulus (GPa) = 26.26013 47.30705 36.78359
#
# Velocity S-wave (km/s) = 3.43944 4.61638 4.07067
# Velocity P-wave (km/s) = 5.12863 7.00780 6.14053
#
# Compressibility (1/GPa) = 0.04278123
#
# Stress axis : x y z
#
# Youngs Moduli (GPa) = 42.38638 107.20289 72.56476
#
# Poissons Ratio (x) = 0.16758 -0.05330
# Poissons Ratio (y) = 0.06626 0.08210
# Poissons Ratio (z) = -0.03113 0.12129
#
# Static dielectric constant tensor:
#      x y z
#    x 1.889220 0.000000 0.005370 
#    y 0.000000 1.784720 0.000000 
#    z 0.005370 0.000000 1.788300 
# 
# From -- ./inp_files/18769.got.cif
#   From: 2010.05.17/outbox.cif.g08.bks.cpg/sg10_10_cif.got.tgz:18769.got - 2010.06.03 11:33:40.
