data_PCOD9154003
_publ_section_title
;
Structure prediction by ZEFSAII (Michael W. Deem and Ramdas Pophale) SiO2 
 PCOD9154003
Probable space group: P 2/M
;
_chemical_formula_sum "Si O2"
_cell_formula_units_Z 18
_cell_length_a 5.394013
_cell_length_b 24.830526
_cell_length_c 5.204950
_cell_angle_alpha 90.000000
_cell_angle_beta 90.944385
_cell_angle_gamma 90.000000
_cell_volume 697.036425
_symmetry_space_group_name_H-M "P 2/M"
_symmetry_group_IT_number 10
_symmetry_cell_setting 'monoclinic'
loop_
_space_group_symop_operation_xyz
x,y,z
-x,y,-z
-x,-y,-z
x,-y,z
loop_
_atom_site_type_symbol
_atom_site_label
_atom_site_fract_x
_atom_site_fract_y
_atom_site_fract_z
Si Si1 0.752237 0.500000 0.662276
Si Si2 0.000000 0.795004 0.000000
Si Si3 0.748009 0.379308 0.851606
Si Si4 0.327529 0.000000 0.247665
Si Si5 0.746981 0.728633 0.638109
Si Si6 0.319983 0.118277 0.248684
O O1 0.500000 0.500000 0.500000
O O2 0.751686 0.443113 0.804557
O O3 0.000000 0.500000 0.500000
O O4 0.782701 0.751097 0.928993
O O5 0.899520 0.838724 0.789150
O O6 0.742463 0.336319 0.623902
O O7 0.500000 0.367469 0.000000
O O8 0.000000 0.366778 0.000000
O O9 0.500000 0.000000 0.500000
O O10 0.200738 0.058242 0.248821
O O11 0.500000 0.000000 0.000000
O O12 0.500000 0.749767 0.500000
O O13 0.000000 0.744941 0.500000
O O14 0.500000 0.124373 0.500000
O O15 0.500000 0.123669 0.000000
#
# Coordination Sequence:
#
# PCOD9154003 Si02
#       6
#     2   2   4   2   4   4
#     4  12  24  42  68 104 142 184 240 299 373 448
#     4  12  28  41  70  99 142 188 254 298 378 434
#     4  12  24  45  71 103 140 187 242 300 372 449
#     4   8  16  37  64  97 136 186 235 300 373 449
#     4  12  28  48  73 102 144 192 247 304 372 447
#     4  10  23  42  69 101 144 188 245 307 377 449
#
# _framework density 25.823613000000002
#
# number of rings (size 3 to 8) (size 9 to 14) (size 15 to 20)
#    0.000    0.889    1.111    5.333    6.222    0.444 
#    0.000    0.000    0.000    8.000    0.000    0.000 
#    0.000    0.000    0.000    0.000    0.000    0.000 
#
# Total GULP energy -100487.146005 kJ/mol
# GULP energy per Si atom -5582.619223 kJ/mol
# Density = 2.576484 g / cm^3
# Si number density = 25.823613 Si / 1000 Ang^3
#
#
#
# Elastic Constant Matrix: (Units=GPa)
#
#
# Indices 1 2 3 4 5 6 
#
# 1 197.4689 34.4493 75.8798 0.0000 26.6002 0.0000
# 2 34.4493 223.7232 23.5604 0.0000 14.9837 0.0000
# 3 75.8798 23.5604 135.9857 0.0000 30.8414 0.0000
# 4 0.0000 0.0000 0.0000 81.0157 0.0000 122.5046
# 5 26.6002 14.9837 30.8414 0.0000 71.2856 0.0000
# 6 0.0000 0.0000 0.0000 122.5046 0.0000 373.1769
#
#
#
# Elastic Compliance Matrix: (Units=1/GPa)
#
#
# Indices 1 2 3 4 5 6 
#
# 1 0.006581 -0.000600 -0.003371 0.000000 -0.000871 0.000000
# 2 -0.000600 0.004638 -0.000331 0.000000 -0.000608 0.000000
# 3 -0.003371 -0.000331 0.009969 0.000000 -0.002986 0.000000
# 4 0.000000 0.000000 0.000000 0.024510 0.000000 -0.008046
# 5 -0.000871 -0.000608 -0.002986 0.000000 0.015773 0.000000
# 6 0.000000 0.000000 0.000000 -0.008046 0.000000 0.005321
#
#
# Mechanical properties :
#
#
# Convention : Reuss Voigt Hill
#
# Bulk Modulus (GPa) = 79.46097 91.66187 85.56142
# Shear Modulus (GPa) = 62.82198 133.31484 98.06841
#
# Velocity S-wave (km/s) = 4.93763 7.19286 6.16917
# Velocity P-wave (km/s) = 7.95892 10.22523 9.16242
#
# Compressibility (1/GPa) = 0.01258480
#
# Stress axis : x y z
#
# Youngs Moduli (GPa) = 151.94247 215.62154 100.30973
#
# Poissons Ratio (x) = 0.12939 0.33813
# Poissons Ratio (y) = 0.09118 0.03319
# Poissons Ratio (z) = 0.51217 0.07134
#
# Static dielectric constant tensor:
#      x y z
#    x 2.008910 0.000000 -0.117960 
#    y 0.000000 2.405870 0.000000 
#    z -0.117960 0.000000 2.241720 
# 
# From -- ./inp_files/1814.got.cif
#   From: 2010.05.17/outbox.cif.g08.bks.cpg/sg10_1_cif.got.tgz:1814.got - 2010.06.03 11:33:40.
