data_PCOD9154765
_publ_section_title
;
Structure prediction by ZEFSAII (Michael W. Deem and Ramdas Pophale) SiO2 
 PCOD9154765
Probable space group: P 2/M
;
_chemical_formula_sum "Si O2"
_cell_formula_units_Z 28
_cell_length_a 9.871977
_cell_length_b 11.346009
_cell_length_c 14.699100
_cell_angle_alpha 90.000000
_cell_angle_beta 72.156946
_cell_angle_gamma 90.000000
_cell_volume 1567.216743
_symmetry_space_group_name_H-M "P 2/M"
_symmetry_group_IT_number 10
_symmetry_cell_setting 'monoclinic'
loop_
_space_group_symop_operation_xyz
x,y,z
-x,y,-z
-x,-y,-z
x,-y,z
loop_
_atom_site_type_symbol
_atom_site_label
_atom_site_fract_x
_atom_site_fract_y
_atom_site_fract_z
Si Si1 0.201026 0.363513 0.622330
Si Si2 0.924327 0.761263 0.708503
Si Si3 0.730915 0.357643 0.598964
Si Si4 0.426715 0.757536 0.690410
Si Si5 0.717635 0.862224 0.895592
Si Si6 0.631894 0.000000 0.403915
Si Si7 0.605089 0.138387 0.113212
Si Si8 0.961068 0.000000 0.402196
O O1 0.167605 0.500000 0.625032
O O2 0.220778 0.323786 0.513398
O O3 0.342430 0.338697 0.649649
O O4 0.074598 0.297201 0.698658
O O5 0.847634 0.680625 0.648636
O O6 0.823900 0.783779 0.815193
O O7 0.964897 0.886191 0.656492
O O8 0.707266 0.500000 0.605967
O O9 0.590370 0.282434 0.651438
O O10 0.391505 0.881961 0.649754
O O11 0.378670 0.777400 0.803988
O O12 0.559894 0.855273 0.884395
O O13 0.761040 0.000000 0.881551
O O14 0.698989 0.831381 0.005594
O O15 0.500000 0.000000 0.500000
O O16 0.790470 0.000000 0.415899
O O17 0.631982 0.000000 0.130800
O O18 0.000000 0.000000 0.500000
#
# Coordination Sequence:
#
# PCOD9154765 Si02
#       8
#     4   4   4   4   4   2   4   2
#     4  11  24  41  58  81 120 167 203 240 286 354
#     4  12  22  38  62  88 123 153 197 252 299 351
#     4  11  24  41  62  87 116 165 215 242 282 352
#     4  12  22  38  62  88 123 153 197 252 299 351
#     4   9  18  35  59  88 118 151 192 237 295 364
#     4  12  26  38  57  90 129 163 194 241 307 366
#     4   9  18  35  59  88 118 151 192 237 295 364
#     4  12  26  38  57  90 129 163 194 241 307 366
#
# _framework density 17.866066
#
# number of rings (size 3 to 8) (size 9 to 14) (size 15 to 20)
#    0.000    1.143    4.286    4.286    2.000    2.286 
#    0.000    0.714    0.000    7.714    0.000    0.000 
#    0.000    0.000    0.000    0.000    0.000    0.000 
#
# Total GULP energy -156321.268056 kJ/mol
# GULP energy per Si atom -5582.902431 kJ/mol
# Density = 1.782540 g / cm^3
# Si number density = 17.866066 Si / 1000 Ang^3
#
#
#
# Elastic Constant Matrix: (Units=GPa)
#
#
# Indices 1 2 3 4 5 6 
#
# 1 38.0944 1.1930 4.0190 0.0000 -3.0849 0.0000
# 2 1.1930 52.6472 25.5410 0.0000 -1.0754 0.0000
# 3 4.0190 25.5410 125.4251 0.0000 0.6258 0.0000
# 4 0.0000 0.0000 0.0000 12.5172 0.0000 -4.5230
# 5 -3.0849 -1.0754 0.6258 0.0000 19.4241 0.0000
# 6 0.0000 0.0000 0.0000 -4.5230 0.0000 18.6717
#
#
#
# Elastic Compliance Matrix: (Units=1/GPa)
#
#
# Indices 1 2 3 4 5 6 
#
# 1 0.026689 -0.000103 -0.000856 0.000000 0.004261 0.000000
# 2 -0.000103 0.021110 -0.004302 0.000000 0.001291 0.000000
# 3 -0.000856 -0.004302 0.008880 0.000000 -0.000660 0.000000
# 4 0.000000 0.000000 0.000000 0.087553 0.000000 0.021209
# 5 0.004261 0.001291 -0.000660 0.000000 0.052252 0.000000
# 6 0.000000 0.000000 0.000000 0.021209 0.000000 0.058694
#
#
# Mechanical properties :
#
#
# Convention : Reuss Voigt Hill
#
# Bulk Modulus (GPa) = 21.66447 30.85250 26.25849
# Shear Modulus (GPa) = 17.78822 22.48352 20.13587
#
# Velocity S-wave (km/s) = 3.15880 3.55131 3.36079
# Velocity P-wave (km/s) = 5.04544 5.84140 5.45795
#
# Compressibility (1/GPa) = 0.04615853
#
# Stress axis : x y z
#
# Youngs Moduli (GPa) = 37.46849 47.37072 112.61749
#
# Poissons Ratio (x) = 0.00486 0.09635
# Poissons Ratio (y) = 0.00385 0.48447
# Poissons Ratio (z) = 0.03206 0.20378
#
# Static dielectric constant tensor:
#      x y z
#    x 1.589100 0.000000 0.003970 
#    y 0.000000 1.626630 0.000000 
#    z 0.003970 0.000000 1.597670 
# 
# From -- ./inp_files/28362.got.cif
#   From: 2010.05.17/outbox.cif.g08.bks.cpg/sg10_15_cif.got.tgz:28362.got - 2010.06.03 11:33:40.
