data_PCOD9154709
_publ_section_title
;
Structure prediction by ZEFSAII (Michael W. Deem and Ramdas Pophale) SiO2 
 PCOD9154709
Probable space group: P 2/M
;
_chemical_formula_sum "Si O2"
_cell_formula_units_Z 26
_cell_length_a 9.762275
_cell_length_b 17.249994
_cell_length_c 9.693980
_cell_angle_alpha 90.000000
_cell_angle_beta 46.788032
_cell_angle_gamma 90.000000
_cell_volume 1189.777461
_symmetry_space_group_name_H-M "P 2/M"
_symmetry_group_IT_number 10
_symmetry_cell_setting 'monoclinic'
loop_
_space_group_symop_operation_xyz
x,y,z
-x,y,-z
-x,-y,-z
x,-y,z
loop_
_atom_site_type_symbol
_atom_site_label
_atom_site_fract_x
_atom_site_fract_y
_atom_site_fract_z
Si Si1 0.585492 0.092533 0.090558
Si Si2 0.953087 0.809553 0.870909
Si Si3 0.000000 0.381727 0.000000
Si Si4 0.281369 0.413953 0.628374
Si Si5 0.231701 0.642719 0.074963
Si Si6 0.336869 0.645284 0.308280
Si Si7 0.636500 0.804297 0.538962
O O1 0.463043 0.131249 0.296777
O O2 0.582426 0.000000 0.105164
O O3 0.500000 0.114614 0.000000
O O4 0.797116 0.125034 0.951852
O O5 0.150637 0.822276 0.656562
O O6 0.848560 0.728719 0.903388
O O7 0.000000 0.806942 0.000000
O O8 0.179308 0.350078 0.792666
O O9 0.895383 0.411698 0.934132
O O10 0.500000 0.403760 0.500000
O O11 0.233397 0.500000 0.715275
O O12 0.252167 0.407321 0.486898
O O13 0.225416 0.636451 0.243292
O O14 0.445819 0.629512 0.880240
O O15 0.343154 0.729302 0.376234
O O16 0.500000 0.791430 0.500000
#
# Coordination Sequence:
#
# PCOD9154709 Si02
#       7
#     4   4   2   4   4   4   4
#     4  11  26  46  66  97 139 176 217 274 333 393
#     4  12  23  42  67 100 130 170 220 277 331 383
#     4  12  23  42  68  96 129 172 220 272 323 390
#     4  11  24  43  66  96 133 174 219 271 332 392
#     4  11  23  40  68 100 131 167 223 272 332 391
#     4  11  23  43  67  97 133 176 212 279 335 386
#     4  12  24  42  71  98 130 174 227 273 331 392
#
# _framework density 21.852826
#
# number of rings (size 3 to 8) (size 9 to 14) (size 15 to 20)
#    0.000    0.615    5.385    2.538    0.000    5.538 
#    0.000    5.385    0.000    0.000    0.000    0.000 
#    0.000    0.000    0.000    0.000    0.000    0.000 
#
# Total GULP energy -145111.011144 kJ/mol
# GULP energy per Si atom -5581.192736 kJ/mol
# Density = 2.180309 g / cm^3
# Si number density = 21.852826 Si / 1000 Ang^3
#
#
#
# Elastic Constant Matrix: (Units=GPa)
#
#
# Indices 1 2 3 4 5 6 
#
# 1 178.9636 33.4330 75.3328 0.0000 27.9879 0.0000
# 2 33.4330 77.0087 38.4935 0.0000 3.6107 0.0000
# 3 75.3328 38.4935 181.2650 0.0000 5.6291 0.0000
# 4 0.0000 0.0000 0.0000 24.6029 0.0000 -0.0438
# 5 27.9879 3.6107 5.6291 0.0000 57.0080 0.0000
# 6 0.0000 0.0000 0.0000 -0.0438 0.0000 11.5574
#
#
#
# Elastic Compliance Matrix: (Units=1/GPa)
#
#
# Indices 1 2 3 4 5 6 
#
# 1 0.007565 -0.001799 -0.002658 0.000000 -0.003337 0.000000
# 2 -0.001799 0.014977 -0.002438 0.000000 0.000175 0.000000
# 3 -0.002658 -0.002438 0.007116 0.000000 0.000757 0.000000
# 4 0.000000 0.000000 0.000000 0.040646 0.000000 0.000154
# 5 -0.003337 0.000175 0.000757 0.000000 0.019094 0.000000
# 6 0.000000 0.000000 0.000000 0.000154 0.000000 0.086525
#
#
# Mechanical properties :
#
#
# Convention : Reuss Voigt Hill
#
# Bulk Modulus (GPa) = 63.02526 81.30621 72.16573
# Shear Modulus (GPa) = 25.64065 37.96553 31.80309
#
# Velocity S-wave (km/s) = 3.42911 4.17265 3.81902
# Velocity P-wave (km/s) = 6.67696 7.77828 7.24857
#
# Compressibility (1/GPa) = 0.01586665
#
# Stress axis : x y z
#
# Youngs Moduli (GPa) = 132.19356 66.76825 140.53220
#
# Poissons Ratio (x) = 0.12012 0.37356
# Poissons Ratio (y) = 0.23781 0.34267
# Poissons Ratio (z) = 0.35139 0.16280
#
# Static dielectric constant tensor:
#      x y z
#    x 1.808860 0.000000 -0.011850 
#    y 0.000000 1.947430 0.000000 
#    z -0.011850 0.000000 1.814100 
# 
# From -- ./inp_files/20424.got.cif
#   From: 2010.05.17/outbox.cif.g08.bks.cpg/sg10_11_cif.got.tgz:20424.got - 2010.06.03 11:33:40.
