data_PCOD9154216
_publ_section_title
;
Structure prediction by ZEFSAII (Michael W. Deem and Ramdas Pophale) SiO2 
 PCOD9154216
Probable space group: P 2/M
;
_chemical_formula_sum "Si O2"
_cell_formula_units_Z 32
_cell_length_a 14.805765
_cell_length_b 8.950202
_cell_length_c 17.370700
_cell_angle_alpha 90.000000
_cell_angle_beta 90.000638
_cell_angle_gamma 90.000000
_cell_volume 2301.871145
_symmetry_space_group_name_H-M "P 2/M"
_symmetry_group_IT_number 10
_symmetry_cell_setting 'monoclinic'
loop_
_space_group_symop_operation_xyz
x,y,z
-x,y,-z
-x,-y,-z
x,-y,z
loop_
_atom_site_type_symbol
_atom_site_label
_atom_site_fract_x
_atom_site_fract_y
_atom_site_fract_z
Si Si1 0.601232 0.824610 0.780483
Si Si2 0.500002 0.678749 0.910284
Si Si3 0.396048 0.318180 0.499997
Si Si4 0.897214 0.179089 0.408896
Si Si5 0.102784 0.179089 0.408896
Si Si6 0.281698 0.320951 0.650391
Si Si7 0.398778 0.824609 0.780479
Si Si8 0.718306 0.679049 0.650396
O O1 0.584785 0.747680 0.863374
O O2 0.500006 0.808921 0.744083
O O3 0.672914 0.745820 0.726440
O O4 0.619834 0.000000 0.788958
O O5 0.500003 0.500000 0.902321
O O6 0.415222 0.747679 0.863370
O O7 0.500000 0.717627 0.000000
O O8 0.500000 0.267000 0.500000
O O9 0.397419 0.500000 0.499997
O O10 0.341750 0.272129 0.576391
O O11 0.341751 0.272129 0.423602
O O12 0.886764 0.212880 0.500000
O O13 0.819099 0.261944 0.363162
O O14 0.999999 0.219465 0.386995
O O15 0.887822 0.000000 0.400330
O O16 0.180897 0.261944 0.363161
O O17 0.112176 0.000000 0.400330
O O18 0.282823 0.500000 0.653433
O O19 0.327097 0.254179 0.726433
O O20 0.380176 0.000000 0.788953
O O21 0.717181 0.500000 0.653438
#
# Coordination Sequence:
#
# PCOD9154216 Si02
#       8
#     4   4   4   4   4   4   4   4
#     4   9  19  31  45  66  93 124 153 184 222 266
#     4   9  17  31  51  72  93 120 151 183 222 266
#     4   9  18  28  38  57  84 118 154 188 227 268
#     4   9  18  32  47  61  82 115 154 198 243 283
#     4   9  18  32  47  61  82 115 154 198 243 283
#     4  11  19  29  45  64  88 119 155 197 238 270
#     4   9  19  31  45  66  93 124 153 184 222 266
#     4  11  19  29  45  64  88 119 155 197 238 270
#
# _framework density 13.901733999999999
#
# number of rings (size 3 to 8) (size 9 to 14) (size 15 to 20)
#    0.750    1.750    1.250    3.000    0.000    2.500 
#    0.000    1.250    0.000    3.000    0.000    0.000 
#    0.000    1.000    0.000   10.500    0.000    4.500 
#
# Total GULP energy -178154.498865 kJ/mol
# GULP energy per Si atom -5567.328090 kJ/mol
# Density = 1.387009 g / cm^3
# Si number density = 13.901734 Si / 1000 Ang^3
#
#
#
# Elastic Constant Matrix: (Units=GPa)
#
#
# Indices 1 2 3 4 5 6 
#
# 1 103.2346 51.3178 61.6515 0.0000 -1.8988 0.0000
# 2 51.3178 61.2807 50.2593 0.0000 -0.0890 0.0000
# 3 61.6515 50.2593 106.3620 0.0000 2.1411 0.0000
# 4 0.0000 0.0000 0.0000 16.1840 0.0000 -0.5724
# 5 -1.8988 -0.0890 2.1411 0.0000 9.4297 0.0000
# 6 0.0000 0.0000 0.0000 -0.5724 0.0000 23.2483
#
#
#
# Elastic Compliance Matrix: (Units=1/GPa)
#
#
# Indices 1 2 3 4 5 6 
#
# 1 0.018614 -0.010858 -0.005759 0.000000 0.004953 0.000000
# 2 -0.010858 0.033070 -0.009338 0.000000 0.000246 0.000000
# 3 -0.005759 -0.009338 0.017256 0.000000 -0.005166 0.000000
# 4 0.000000 0.000000 0.000000 0.061843 0.000000 0.001523
# 5 0.004953 0.000246 -0.005166 0.000000 0.108221 0.000000
# 6 0.000000 0.000000 0.000000 0.001523 0.000000 0.043051
#
#
# Mechanical properties :
#
#
# Convention : Reuss Voigt Hill
#
# Bulk Modulus (GPa) = 58.71426 66.37049 62.54237
# Shear Modulus (GPa) = 14.72142 16.94897 15.83520
#
# Velocity S-wave (km/s) = 3.25770 3.49549 3.37869
# Velocity P-wave (km/s) = 7.51512 8.00859 7.76578
#
# Compressibility (1/GPa) = 0.01703164
#
# Stress axis : x y z
#
# Youngs Moduli (GPa) = 53.72237 30.23922 57.95073
#
# Poissons Ratio (x) = 0.32833 0.33371
# Poissons Ratio (y) = 0.58331 0.54113
# Poissons Ratio (z) = 0.30936 0.28236
#
# Static dielectric constant tensor:
#      x y z
#    x 1.450440 0.000000 -0.001140 
#    y 0.000000 1.460680 0.000000 
#    z -0.001140 0.000000 1.436370 
# 
# From -- ./inp_files/66036.got.cif
#   From: 2010.05.17/outbox.cif.g08.bks.cpg/sg10_34_cif.got.tgz:66036.got - 2010.06.03 11:33:40.
