data_PCOD9154842
_publ_section_title
;
Structure prediction by ZEFSAII (Michael W. Deem and Ramdas Pophale) SiO2 
 PCOD9154842
Probable space group: P 2/M
;
_chemical_formula_sum "Si O2"
_cell_formula_units_Z 19
_cell_length_a 16.735739
_cell_length_b 7.482973
_cell_length_c 16.574475
_cell_angle_alpha 90.000000
_cell_angle_beta 25.150737
_cell_angle_gamma 90.000000
_cell_volume 882.163270
_symmetry_space_group_name_H-M "P 2/M"
_symmetry_group_IT_number 10
_symmetry_cell_setting 'monoclinic'
loop_
_space_group_symop_operation_xyz
x,y,z
-x,y,-z
-x,-y,-z
x,-y,z
loop_
_atom_site_type_symbol
_atom_site_label
_atom_site_fract_x
_atom_site_fract_y
_atom_site_fract_z
Si Si1 0.272533 0.295771 0.705611
Si Si2 0.717853 0.000000 0.435125
Si Si3 0.316586 0.294068 0.059050
Si Si4 0.078283 0.000000 0.188743
Si Si5 0.734341 0.000000 0.156671
Si Si6 0.000000 0.000000 0.500000
Si Si7 0.735583 0.294194 0.699242
O O1 0.500000 0.304649 0.500000
O O2 0.202178 0.500000 0.768664
O O3 0.232146 0.175184 0.664102
O O4 0.219006 0.174718 0.831778
O O5 0.853574 0.000000 0.387628
O O6 0.491989 0.000000 0.652772
O O7 0.287093 0.500000 0.064959
O O8 0.173134 0.168007 0.145633
O O9 0.297772 0.277619 0.173181
O O10 0.535606 0.249354 0.841798
O O11 0.154679 0.000000 0.027359
O O12 0.898265 0.155020 0.537769
O O13 0.783821 0.500000 0.637313
#
# Coordination Sequence:
#
# PCOD9154842 Si02
#       7
#     4   2   4   2   2   1   4
#     4   8  15  33  59  78 101 142 182 220 271 319
#     4   9  20  36  52  79 113 137 175 231 268 319
#     4   9  20  40  57  72 104 149 188 224 270 325
#     4  12  22  34  54  82 114 146 182 218 280 338
#     4   9  20  36  52  79 113 137 175 231 268 319
#     4  12  18  26  56  90 108 122 166 230 292 324
#     4   9  19  37  58  78 104 139 187 235 266 314
#
# _framework density 21.537962
#
# number of rings (size 3 to 8) (size 9 to 14) (size 15 to 20)
#    0.000    2.737    0.000    4.105    0.000    5.053 
#    7.579    1.053    0.000    0.000    0.000    0.000 
#    0.000    0.000    0.000    0.000    0.000    0.000 
#
# Total GULP energy -105853.268648 kJ/mol
# GULP energy per Si atom -5571.224666 kJ/mol
# Density = 2.148894 g / cm^3
# Si number density = 21.537962 Si / 1000 Ang^3
#
#
#
# Elastic Constant Matrix: (Units=GPa)
#
#
# Indices 1 2 3 4 5 6 
#
# 1 62.7084 47.1166 24.2242 0.0000 -33.5331 0.0000
# 2 47.1166 119.2294 39.3047 0.0000 -23.4768 0.0000
# 3 24.2242 39.3047 77.8893 0.0000 -24.1275 0.0000
# 4 0.0000 0.0000 0.0000 -31.1509 0.0000 -5.6074
# 5 -33.5331 -23.4768 -24.1275 0.0000 45.7716 0.0000
# 6 0.0000 0.0000 0.0000 -5.6074 0.0000 14.0912
#
#
#
# Elastic Compliance Matrix: (Units=1/GPa)
#
#
# Indices 1 2 3 4 5 6 
#
# 1 0.033585 -0.009514 0.000557 0.000000 0.020019 0.000000
# 2 -0.009514 0.013105 -0.004459 0.000000 -0.002599 0.000000
# 3 0.000557 -0.004459 0.017131 0.000000 0.007151 0.000000
# 4 0.000000 0.000000 0.000000 -0.029956 0.000000 -0.011921
# 5 0.020019 -0.002599 0.007151 0.000000 0.038950 0.000000
# 6 0.000000 0.000000 0.000000 -0.011921 0.000000 0.066223
#
#
# Mechanical properties :
#
#
# Convention : Reuss Voigt Hill
#
# Bulk Modulus (GPa) = 27.03546 53.45757 40.24651
# Shear Modulus (GPa) = 28.05840 15.68783 21.87311
#
# Velocity S-wave (km/s) = 3.61327 2.70178 3.19024
# Velocity P-wave (km/s) = 5.47607 5.88276 5.68305
#
# Compressibility (1/GPa) = 0.03698847
#
# Stress axis : x y z
#
# Youngs Moduli (GPa) = 29.77532 76.30615 58.37388
#
# Poissons Ratio (x) = 0.72595 -0.03250
# Poissons Ratio (y) = 0.28327 0.26031
# Poissons Ratio (z) = -0.01658 0.34027
#
# Static dielectric constant tensor:
#      x y z
#    x 1.777460 0.000000 0.050900 
#    y 0.000000 1.934230 0.000000 
#    z 0.050900 0.000000 1.918570 
# 
# From -- ./inp_files/77318.got.cif
#   From: 2010.05.17/outbox.cif.g08.bks.cpg/sg10_39_cif.got.tgz:77318.got - 2010.06.03 11:33:40.
