data_PCOD9154778
_publ_section_title
;
Structure prediction by ZEFSAII (Michael W. Deem and Ramdas Pophale) SiO2 
 PCOD9154778
Probable space group: P 2/M
;
_chemical_formula_sum "Si O2"
_cell_formula_units_Z 26
_cell_length_a 7.167338
_cell_length_b 14.999802
_cell_length_c 10.851018
_cell_angle_alpha 90.000000
_cell_angle_beta 77.645093
_cell_angle_gamma 90.000000
_cell_volume 1139.561492
_symmetry_space_group_name_H-M "P 2/M"
_symmetry_group_IT_number 10
_symmetry_cell_setting 'monoclinic'
loop_
_space_group_symop_operation_xyz
x,y,z
-x,y,-z
-x,-y,-z
x,-y,z
loop_
_atom_site_type_symbol
_atom_site_label
_atom_site_fract_x
_atom_site_fract_y
_atom_site_fract_z
Si Si1 0.319271 0.600018 0.226261
Si Si2 0.137255 0.397566 0.691519
Si Si3 0.827516 0.248092 0.120953
Si Si4 0.317337 0.283527 0.448275
Si Si5 0.729913 0.902127 0.602204
Si Si6 0.500000 0.720412 0.000000
Si Si7 0.274769 0.904727 0.691473
O O1 0.391611 0.500000 0.202942
O O2 0.397986 0.648751 0.335787
O O3 0.092227 0.598104 0.277024
O O4 0.366679 0.657730 0.101027
O O5 0.208200 0.500000 0.676441
O O6 0.187992 0.343607 0.809039
O O7 0.198662 0.339963 0.563957
O O8 0.635673 0.226729 0.072279
O O9 0.834179 0.175015 0.227569
O O10 0.000000 0.246068 0.000000
O O11 0.500000 0.248156 0.500000
O O12 0.214274 0.202367 0.388729
O O13 0.505535 0.900709 0.670572
O O14 0.758908 0.906084 0.450323
O O15 0.803585 0.000000 0.638131
O O16 0.212607 0.000000 0.752632
#
# Coordination Sequence:
#
# PCOD9154778 Si02
#       7
#     4   4   4   4   4   2   4
#     4  11  25  42  61  88 124 169 216 263 315 380
#     4  11  24  43  63  88 123 167 214 269 322 372
#     4  12  24  43  65  92 128 168 213 264 314 380
#     4  12  21  36  63  95 125 160 210 262 322 376
#     4   9  16  31  59  93 124 157 204 256 313 380
#     4  12  25  42  65  92 126 172 217 260 313 382
#     4   9  17  34  62  93 124 162 207 255 313 377
#
# _framework density 22.815794
#
# number of rings (size 3 to 8) (size 9 to 14) (size 15 to 20)
#    0.000    1.231    4.615    3.923    0.000    5.538 
#    0.000    0.385    0.000    3.692    0.000    0.000 
#    0.000    0.000    0.000    0.000    0.000    0.000 
#
# Total GULP energy -145212.294209 kJ/mol
# GULP energy per Si atom -5585.088239 kJ/mol
# Density = 2.276386 g / cm^3
# Si number density = 22.815794 Si / 1000 Ang^3
#
#
#
# Elastic Constant Matrix: (Units=GPa)
#
#
# Indices 1 2 3 4 5 6 
#
# 1 52.5716 2.8862 -0.7738 0.0000 -1.8308 0.0000
# 2 2.8862 100.8815 35.4957 0.0000 -18.3725 0.0000
# 3 -0.7738 35.4957 100.9830 0.0000 -20.4262 0.0000
# 4 0.0000 0.0000 0.0000 18.9521 0.0000 -3.8604
# 5 -1.8308 -18.3725 -20.4262 0.0000 34.1477 0.0000
# 6 0.0000 0.0000 0.0000 -3.8604 0.0000 9.8219
#
#
#
# Elastic Compliance Matrix: (Units=1/GPa)
#
#
# Indices 1 2 3 4 5 6 
#
# 1 0.019097 -0.000548 0.000553 0.000000 0.001060 0.000000
# 2 -0.000548 0.011888 -0.003293 0.000000 0.004397 0.000000
# 3 0.000553 -0.003293 0.012187 0.000000 0.005547 0.000000
# 4 0.000000 0.000000 0.000000 0.057356 0.000000 0.022543
# 5 0.001060 0.004397 0.005547 0.000000 0.035025 0.000000
# 6 0.000000 0.000000 0.000000 0.022543 0.000000 0.110673
#
#
# Mechanical properties :
#
#
# Convention : Reuss Voigt Hill
#
# Bulk Modulus (GPa) = 27.32609 36.62804 31.97707
# Shear Modulus (GPa) = 18.86786 27.03954 22.95370
#
# Velocity S-wave (km/s) = 2.87882 3.44630 3.17526
# Velocity P-wave (km/s) = 4.80135 5.65019 5.24298
#
# Compressibility (1/GPa) = 0.03659506
#
# Stress axis : x y z
#
# Youngs Moduli (GPa) = 52.36471 84.11971 82.05693
#
# Poissons Ratio (x) = 0.04610 -0.04541
# Poissons Ratio (y) = 0.02870 0.27025
# Poissons Ratio (z) = -0.02898 0.27705
#
# Static dielectric constant tensor:
#      x y z
#    x 1.969020 0.000000 0.023120 
#    y 0.000000 1.907070 0.000000 
#    z 0.023120 0.000000 1.789260 
# 
# From -- ./inp_files/42610.got.cif
#   From: 2010.05.17/outbox.cif.g08.bks.cpg/sg10_22_cif.got.tgz:42610.got - 2010.06.03 11:33:40.
