data_PCOD9154425
_publ_section_title
;
Structure prediction by ZEFSAII (Michael W. Deem and Ramdas Pophale) SiO2 
 PCOD9154425
Probable space group: P 2/M
;
_chemical_formula_sum "Si O2"
_cell_formula_units_Z 28
_cell_length_a 15.112584
_cell_length_b 7.843468
_cell_length_c 11.728539
_cell_angle_alpha 90.000000
_cell_angle_beta 110.997466
_cell_angle_gamma 90.000000
_cell_volume 1297.925854
_symmetry_space_group_name_H-M "P 2/M"
_symmetry_group_IT_number 10
_symmetry_cell_setting 'monoclinic'
loop_
_space_group_symop_operation_xyz
x,y,z
-x,y,-z
-x,-y,-z
x,-y,z
loop_
_atom_site_type_symbol
_atom_site_label
_atom_site_fract_x
_atom_site_fract_y
_atom_site_fract_z
Si Si1 0.955751 0.792308 0.653817
Si Si2 0.299313 0.800628 0.187454
Si Si3 0.392708 0.301637 0.463882
Si Si4 0.464877 0.697524 0.104034
Si Si5 0.350694 0.802678 0.686310
Si Si6 0.909874 0.208448 0.886609
Si Si7 0.854456 0.791653 0.374625
O O1 0.919464 0.736106 0.759604
O O2 0.892384 0.737903 0.516924
O O3 0.064211 0.741073 0.676867
O O4 0.954325 0.000000 0.652662
O O5 0.340420 0.713865 0.319720
O O6 0.373449 0.779157 0.119707
O O7 0.192771 0.740119 0.113488
O O8 0.293673 0.000000 0.213436
O O9 0.500000 0.234215 0.500000
O O10 0.398961 0.500000 0.498878
O O11 0.342740 0.208902 0.545834
O O12 0.440993 0.500000 0.074501
O O13 0.554133 0.710966 0.230169
O O14 0.500000 0.771831 0.000000
O O15 0.252857 0.733341 0.693337
O O16 0.361728 0.000000 0.724190
O O17 0.913179 0.000000 0.889618
O O18 0.000000 0.268413 0.000000
O O19 0.851423 0.000000 0.373826
#
# Coordination Sequence:
#
# PCOD9154425 Si02
#       7
#     4   4   4   4   4   4   4
#     4   8  13  26  45  70 109 146 173 207 269 340
#     4  11  22  37  61  90 116 145 189 245 291 329
#     4  11  22  36  57  83 116 155 191 227 282 350
#     4  11  25  43  58  75 109 156 195 227 277 346
#     4  11  21  34  57  89 117 142 186 241 286 330
#     4   9  18  31  50  80 115 146 177 224 286 341
#     4   8  15  26  46  77 109 140 172 218 275 327
#
# _framework density 21.572883000000001
#
# number of rings (size 3 to 8) (size 9 to 14) (size 15 to 20)
#    0.000    2.143    1.429    3.429    0.000    5.143 
#    0.000    2.857    0.000    1.714    0.000   25.000 
#    0.000    0.000    0.000    0.000    0.000    0.000 
#
# Total GULP energy -156389.724948 kJ/mol
# GULP energy per Si atom -5585.347320 kJ/mol
# Density = 2.152378 g / cm^3
# Si number density = 21.572883 Si / 1000 Ang^3
#
#
#
# Elastic Constant Matrix: (Units=GPa)
#
#
# Indices 1 2 3 4 5 6 
#
# 1 175.9064 1.8045 48.2771 0.0000 11.9434 0.0000
# 2 1.8045 27.7640 -2.5565 0.0000 2.6363 0.0000
# 3 48.2771 -2.5565 66.8838 0.0000 -5.5092 0.0000
# 4 0.0000 0.0000 0.0000 9.1129 0.0000 -10.1678
# 5 11.9434 2.6363 -5.5092 0.0000 31.9220 0.0000
# 6 0.0000 0.0000 0.0000 -10.1678 0.0000 15.7309
#
#
#
# Elastic Compliance Matrix: (Units=1/GPa)
#
#
# Indices 1 2 3 4 5 6 
#
# 1 0.007531 -0.000664 -0.005771 0.000000 -0.003759 0.000000
# 2 -0.000664 0.036450 0.001669 0.000000 -0.002474 0.000000
# 3 -0.005771 0.001669 0.019626 0.000000 0.005408 0.000000
# 4 0.000000 0.000000 0.000000 0.393568 0.000000 0.254387
# 5 -0.003759 -0.002474 0.005408 0.000000 0.033870 0.000000
# 6 0.000000 0.000000 0.000000 0.254387 0.000000 0.227995
#
#
# Mechanical properties :
#
#
# Convention : Reuss Voigt Hill
#
# Bulk Modulus (GPa) = 18.49308 40.62272 29.55790
# Shear Modulus (GPa) = 6.69706 26.22175 16.45941
#
# Velocity S-wave (km/s) = 1.76384 3.49018 2.76518
# Velocity P-wave (km/s) = 3.56920 5.92563 4.89144
#
# Compressibility (1/GPa) = 0.05407428
#
# Stress axis : x y z
#
# Youngs Moduli (GPa) = 132.79205 27.43515 50.95332
#
# Poissons Ratio (x) = 0.01821 0.29403
# Poissons Ratio (y) = 0.08816 -0.08502
# Poissons Ratio (z) = 0.76629 -0.04578
#
# Static dielectric constant tensor:
#      x y z
#    x 1.794950 0.000000 -0.000550 
#    y 0.000000 1.776570 0.000000 
#    z -0.000550 0.000000 1.757100 
# 
# From -- ./inp_files/49376.got.cif
#   From: 2010.05.17/outbox.cif.g08.bks.cpg/sg10_25_cif.got.tgz:49376.got - 2010.06.03 11:33:40.
