data_PCOD9154825
_publ_section_title
;
Structure prediction by ZEFSAII (Michael W. Deem and Ramdas Pophale) SiO2 
 PCOD9154825
Probable space group: P 2/M
;
_chemical_formula_sum "Si O2"
_cell_formula_units_Z 14
_cell_length_a 5.285478
_cell_length_b 19.919673
_cell_length_c 5.481384
_cell_angle_alpha 90.000000
_cell_angle_beta 89.652627
_cell_angle_gamma 90.000000
_cell_volume 577.096872
_symmetry_space_group_name_H-M "P 2/M"
_symmetry_group_IT_number 10
_symmetry_cell_setting 'monoclinic'
loop_
_space_group_symop_operation_xyz
x,y,z
-x,y,-z
-x,-y,-z
x,-y,z
loop_
_atom_site_type_symbol
_atom_site_label
_atom_site_fract_x
_atom_site_fract_y
_atom_site_fract_z
Si Si1 0.150133 0.000000 0.750291
Si Si2 0.000000 0.391373 0.000000
Si Si3 0.647395 0.150719 0.247586
Si Si4 0.328109 0.500000 0.248299
Si Si5 0.760773 0.293793 0.342659
O O1 0.278162 0.072697 0.756145
O O2 0.000000 0.000000 0.500000
O O3 0.000000 0.000000 0.000000
O O4 0.783111 0.343925 0.116232
O O5 0.138117 0.437304 0.203503
O O6 0.500000 0.156006 0.500000
O O7 0.820838 0.216589 0.260789
O O8 0.500000 0.161715 0.000000
O O9 0.500000 0.500000 0.500000
O O10 0.500000 0.500000 0.000000
O O11 0.500000 0.297903 0.500000
O O12 0.000000 0.313209 0.500000
#
# Coordination Sequence:
#
# PCOD9154825 Si02
#       5
#     2   2   4   2   4
#     4  12  24  40  72 104 152 212 273 333 402 474
#     4  11  30  50  86 119 170 210 280 337 414 502
#     4  11  25  46  70 108 155 210 270 337 402 480
#     4  11  30  55  85 122 166 216 274 334 416 500
#     4  11  29  49  81 119 165 214 276 336 414 487
#
# _framework density 24.259357999999999
#
# number of rings (size 3 to 8) (size 9 to 14) (size 15 to 20)
#    0.000    0.857    0.000    3.429   18.000    1.143 
#    0.000    2.143    0.000    0.000    0.000    0.000 
#    0.000    0.000    0.000    0.000    0.000    0.000 
#
# Total GULP energy -78166.681488 kJ/mol
# GULP energy per Si atom -5583.334392 kJ/mol
# Density = 2.420414 g / cm^3
# Si number density = 24.259358 Si / 1000 Ang^3
#
#
#
# Elastic Constant Matrix: (Units=GPa)
#
#
# Indices 1 2 3 4 5 6 
#
# 1 98.0104 45.0274 50.1680 0.0000 -6.9335 0.0000
# 2 45.0274 218.1620 49.2655 0.0000 -9.2877 0.0000
# 3 50.1680 49.2655 179.9445 0.0000 7.8091 0.0000
# 4 0.0000 0.0000 0.0000 47.9007 0.0000 -3.2970
# 5 -6.9335 -9.2877 7.8091 0.0000 51.6979 0.0000
# 6 0.0000 0.0000 0.0000 -3.2970 0.0000 49.8433
#
#
#
# Elastic Compliance Matrix: (Units=1/GPa)
#
#
# Indices 1 2 3 4 5 6 
#
# 1 0.012793 -0.001852 -0.003140 0.000000 0.001857 0.000000
# 2 -0.001852 0.005215 -0.000948 0.000000 0.000832 0.000000
# 3 -0.003140 -0.000948 0.006762 0.000000 -0.001613 0.000000
# 4 0.000000 0.000000 0.000000 0.020972 0.000000 0.001387
# 5 0.001857 0.000832 -0.001613 0.000000 0.019985 0.000000
# 6 0.000000 0.000000 0.000000 0.001387 0.000000 0.020155
#
#
# Mechanical properties :
#
#
# Convention : Reuss Voigt Hill
#
# Bulk Modulus (GPa) = 77.57647 87.22654 82.40151
# Shear Modulus (GPa) = 48.99153 53.33212 51.16182
#
# Velocity S-wave (km/s) = 4.49875 4.69381 4.59731
# Velocity P-wave (km/s) = 7.68325 8.08763 7.88803
#
# Compressibility (1/GPa) = 0.01289051
#
# Stress axis : x y z
#
# Youngs Moduli (GPa) = 78.17039 191.73902 147.88241
#
# Poissons Ratio (x) = 0.35513 0.46436
# Poissons Ratio (y) = 0.14478 0.14013
# Poissons Ratio (z) = 0.24546 0.18169
#
# Static dielectric constant tensor:
#      x y z
#    x 2.013290 0.000000 0.072810 
#    y 0.000000 2.265600 0.000000 
#    z 0.072810 0.000000 2.274230 
# 
# From -- ./inp_files/880.got.cif
#   From: 2010.05.17/outbox.cif.g08.bks.cpg/sg10_1_cif.got.tgz:880.got - 2010.06.03 11:33:40.
