data_PCOD9154433
_publ_section_title
;
Structure prediction by ZEFSAII (Michael W. Deem and Ramdas Pophale) SiO2 
 PCOD9154433
Probable space group: P 2/M
;
_chemical_formula_sum "Si O2"
_cell_formula_units_Z 32
_cell_length_a 17.573958
_cell_length_b 23.579347
_cell_length_c 12.141297
_cell_angle_alpha 90.000000
_cell_angle_beta 20.739480
_cell_angle_gamma 90.000000
_cell_volume 1781.624099
_symmetry_space_group_name_H-M "P 2/M"
_symmetry_group_IT_number 10
_symmetry_cell_setting 'monoclinic'
loop_
_space_group_symop_operation_xyz
x,y,z
-x,y,-z
-x,-y,-z
x,-y,z
loop_
_atom_site_type_symbol
_atom_site_label
_atom_site_fract_x
_atom_site_fract_y
_atom_site_fract_z
Si Si1 0.770730 0.435659 0.749073
Si Si2 0.526097 0.369079 0.697327
Si Si3 0.146256 0.063694 0.516288
Si Si4 0.137139 0.281032 0.200381
Si Si5 0.447742 0.063517 0.889226
Si Si6 0.875149 0.360216 0.407483
Si Si7 0.177915 0.435052 0.857636
Si Si8 0.151927 0.849891 0.184995
O O1 0.752994 0.500000 0.733361
O O2 0.757690 0.391965 0.666710
O O3 0.000000 0.428769 0.500000
O O4 0.589584 0.420590 0.082251
O O5 0.715231 0.348432 0.523241
O O6 0.631870 0.395650 0.445543
O O7 0.346885 0.320916 0.923849
O O8 0.311935 0.071522 0.391764
O O9 0.978135 0.113978 0.729237
O O10 0.051615 0.000000 0.650681
O O11 0.294039 0.063884 0.205698
O O12 0.193281 0.215550 0.104137
O O13 0.000000 0.285544 0.500000
O O14 0.987501 0.305353 0.306211
O O15 0.427120 0.000000 0.869260
O O16 0.361376 0.113522 0.930627
O O17 0.057998 0.404149 0.119689
O O18 0.239935 0.500000 0.798024
O O19 0.000000 0.437150 0.000000
O O20 0.000000 0.849775 0.500000
#
# Coordination Sequence:
#
# PCOD9154433 Si02
#       8
#     4   4   4   4   4   4   4   4
#     4  11  21  35  55  78 103 127 160 201 246 310
#     4  11  21  37  56  73 100 132 162 206 257 301
#     4   8  13  22  37  59  85 116 160 206 245 285
#     4  11  22  36  46  71 102 133 180 211 235 297
#     4   8  13  22  37  59  85 116 160 206 245 285
#     4  11  21  37  56  73 100 132 162 206 257 301
#     4   9  20  37  57  81 100 119 161 212 260 318
#     4   9  17  26  40  56  88 127 164 205 241 277
#
# _framework density 17.961141000000001
#
# number of rings (size 3 to 8) (size 9 to 14) (size 15 to 20)
#    0.000    2.250    2.500    2.250    0.000    5.000 
#    0.000    3.125    0.000    0.000    0.000    0.000 
#    0.000    0.000    0.000    9.000    0.000   56.000 
#
# Total GULP energy -178506.135130 kJ/mol
# GULP energy per Si atom -5578.316723 kJ/mol
# Density = 1.792026 g / cm^3
# Si number density = 17.961141 Si / 1000 Ang^3
#
#
#
# Elastic Constant Matrix: (Units=GPa)
#
#
# Indices 1 2 3 4 5 6 
#
# 1 49.4223 36.8608 15.6329 0.0000 -20.9890 0.0000
# 2 36.8608 140.2269 26.9463 0.0000 -26.6717 0.0000
# 3 15.6329 26.9463 59.1532 0.0000 -8.3701 0.0000
# 4 0.0000 0.0000 0.0000 0.1846 0.0000 12.0594
# 5 -20.9890 -26.6717 -8.3701 0.0000 23.3711 0.0000
# 6 0.0000 0.0000 0.0000 12.0594 0.0000 -10.2777
#
#
#
# Elastic Compliance Matrix: (Units=1/GPa)
#
#
# Indices 1 2 3 4 5 6 
#
# 1 0.035255 -0.003510 -0.004008 0.000000 0.026221 0.000000
# 2 -0.003510 0.009928 -0.002568 0.000000 0.007258 0.000000
# 3 -0.004008 -0.002568 0.019182 0.000000 0.000340 0.000000
# 4 0.000000 0.000000 0.000000 0.069761 0.000000 0.081855
# 5 0.026221 0.007258 0.000340 0.000000 0.074741 0.000000
# 6 0.000000 0.000000 0.000000 0.081855 0.000000 -0.001253
#
#
# Mechanical properties :
#
#
# Convention : Reuss Voigt Hill
#
# Bulk Modulus (GPa) = 22.62777 45.29805 33.96291
# Shear Modulus (GPa) = 20.61705 13.94641 17.28173
#
# Velocity S-wave (km/s) = 3.39170 2.78956 3.10526
# Velocity P-wave (km/s) = 5.28807 5.97079 5.63977
#
# Compressibility (1/GPa) = 0.04419349
#
# Stress axis : x y z
#
# Youngs Moduli (GPa) = 28.36487 100.72617 52.13123
#
# Poissons Ratio (x) = 0.35353 0.20895
# Poissons Ratio (y) = 0.09956 0.13387
# Poissons Ratio (z) = 0.11369 0.25865
#
# Static dielectric constant tensor:
#      x y z
#    x 1.633910 0.000000 -0.027560 
#    y 0.000000 1.595310 0.000000 
#    z -0.027560 0.000000 1.620280 
# 
# From -- ./inp_files/54267.got.cif
#   From: 2010.05.17/outbox.cif.g08.bks.cpg/sg10_28_cif.got.tgz:54267.got - 2010.06.03 11:33:40.
