data_PCOD9154144
_publ_section_title
;
Structure prediction by ZEFSAII (Michael W. Deem and Ramdas Pophale) SiO2 
 PCOD9154144
Probable space group: P 2/M
;
_chemical_formula_sum "Si O2"
_cell_formula_units_Z 13
_cell_length_a 4.990103
_cell_length_b 9.996586
_cell_length_c 14.693550
_cell_angle_alpha 90.000000
_cell_angle_beta 119.970698
_cell_angle_gamma 90.000000
_cell_volume 634.960545
_symmetry_space_group_name_H-M "P 2/M"
_symmetry_group_IT_number 10
_symmetry_cell_setting 'monoclinic'
loop_
_space_group_symop_operation_xyz
x,y,z
-x,y,-z
-x,-y,-z
x,-y,z
loop_
_atom_site_type_symbol
_atom_site_label
_atom_site_fract_x
_atom_site_fract_y
_atom_site_fract_z
Si Si1 0.271066 0.778936 0.746343
Si Si2 0.000000 0.500000 0.000000
Si Si3 0.737705 0.500000 0.154571
Si Si4 0.432097 0.846425 0.387629
Si Si5 0.366342 0.000000 0.078543
O O1 0.219594 0.635421 0.781799
O O2 0.403459 0.771383 0.667018
O O3 0.935345 0.846970 0.689122
O O4 0.509078 0.870491 0.845449
O O5 0.624594 0.500000 0.931606
O O6 0.032088 0.500000 0.892298
O O7 0.500000 0.792975 0.500000
O O8 0.548322 0.000000 0.403720
O O9 0.500000 0.000000 0.000000
O O10 0.000000 0.000000 0.000000
#
# Coordination Sequence:
#
# PCOD9154144 Si02
#       5
#     4   1   2   4   2
#     4  12  24  45  64 100 130 171 215 272 321 386
#     4  10  24  46  60  92 118 194 212 252 300 408
#     4  11  26  42  69  88 138 168 223 258 326 380
#     4  11  22  42  70  97 128 171 217 269 327 386
#     4  12  26  40  63  96 133 170 218 266 320 375
#
# _framework density 20.473714000000001
#
# number of rings (size 3 to 8) (size 9 to 14) (size 15 to 20)
#    0.000    0.615    3.077    4.615    6.462    2.462 
#    0.000    4.615    0.000    0.000    0.000    0.000 
#    0.000    0.000    0.000    0.000    0.000    0.000 
#
# Total GULP energy -72431.806369 kJ/mol
# GULP energy per Si atom -5571.677413 kJ/mol
# Density = 2.042712 g / cm^3
# Si number density = 20.473714 Si / 1000 Ang^3
#
#
#
# Elastic Constant Matrix: (Units=GPa)
#
#
# Indices 1 2 3 4 5 6 
#
# 1 177.9066 31.2665 53.8559 0.0000 -47.7072 0.0000
# 2 31.2665 117.8609 63.7843 0.0000 -24.4412 0.0000
# 3 53.8559 63.7843 112.6343 0.0000 -51.8412 0.0000
# 4 0.0000 0.0000 0.0000 24.4585 0.0000 -10.4261
# 5 -47.7072 -24.4412 -51.8412 0.0000 54.5391 0.0000
# 6 0.0000 0.0000 0.0000 -10.4261 0.0000 8.3384
#
#
#
# Elastic Compliance Matrix: (Units=1/GPa)
#
#
# Indices 1 2 3 4 5 6 
#
# 1 0.007419 -0.000407 -0.000736 0.000000 0.005608 0.000000
# 2 -0.000407 0.012375 -0.007866 0.000000 -0.002287 0.000000
# 3 -0.000736 -0.007866 0.020917 0.000000 0.015713 0.000000
# 4 0.000000 0.000000 0.000000 0.087549 0.000000 0.109469
# 5 0.005608 -0.002287 0.015713 0.000000 0.037152 0.000000
# 6 0.000000 0.000000 0.000000 0.109469 0.000000 0.256803
#
#
# Mechanical properties :
#
#
# Convention : Reuss Voigt Hill
#
# Bulk Modulus (GPa) = 44.06591 78.46835 61.26713
# Shear Modulus (GPa) = 11.16576 34.76689 22.96632
#
# Velocity S-wave (km/s) = 2.33785 4.12530 3.35288
# Velocity P-wave (km/s) = 5.37190 7.81667 6.70663
#
# Compressibility (1/GPa) = 0.02269328
#
# Stress axis : x y z
#
# Youngs Moduli (GPa) = 134.78919 80.80622 47.80797
#
# Poissons Ratio (x) = 0.03289 0.03518
# Poissons Ratio (y) = 0.05486 0.37607
# Poissons Ratio (z) = 0.09918 0.63564
#
# Static dielectric constant tensor:
#      x y z
#    x 1.668000 0.000000 -0.002400 
#    y 0.000000 1.725820 0.000000 
#    z -0.002400 0.000000 1.736290 
# 
# From -- ./inp_files/45742.got.cif
#   From: 2010.05.17/outbox.cif.g08.bks.cpg/sg10_23_cif.got.tgz:45742.got - 2010.06.03 11:33:40.
