data_PCOD9154157
_publ_section_title
;
Structure prediction by ZEFSAII (Michael W. Deem and Ramdas Pophale) SiO2 
 PCOD9154157
Probable space group: P 2/M
;
_chemical_formula_sum "Si O2"
_cell_formula_units_Z 14
_cell_length_a 5.027233
_cell_length_b 16.993117
_cell_length_c 8.215864
_cell_angle_alpha 90.000000
_cell_angle_beta 56.040803
_cell_angle_gamma 90.000000
_cell_volume 582.154112
_symmetry_space_group_name_H-M "P 2/M"
_symmetry_group_IT_number 10
_symmetry_cell_setting 'monoclinic'
loop_
_space_group_symop_operation_xyz
x,y,z
-x,y,-z
-x,-y,-z
x,-y,z
loop_
_atom_site_type_symbol
_atom_site_label
_atom_site_fract_x
_atom_site_fract_y
_atom_site_fract_z
Si Si1 0.500000 0.815750 0.000000
Si Si2 0.095983 0.307655 0.294489
Si Si3 0.614149 0.908746 0.634671
Si Si4 0.681552 0.589748 0.220192
O O1 0.196890 0.758307 0.131769
O O2 0.514819 0.865445 0.160575
O O3 0.401633 0.362869 0.226717
O O4 0.000000 0.270622 0.500000
O O5 0.813373 0.362790 0.329155
O O6 0.500000 0.874797 0.500000
O O7 0.000000 0.909271 0.500000
O O8 0.503845 0.000000 0.679593
O O9 0.581335 0.500000 0.285784
O O10 0.000000 0.586976 0.000000
#
# Coordination Sequence:
#
# PCOD9154157 Si02
#       4
#     2   4   4   4
#     4  12  25  46  69 102 146 186 218 288 349 406
#     4  12  26  42  66 100 134 178 231 280 345 413
#     4  10  24  46  73 105 137 179 233 278 332 411
#     4  11  23  45  69  93 130 179 232 288 343 404
#
# _framework density 24.048617
#
# number of rings (size 3 to 8) (size 9 to 14) (size 15 to 20)
#    0.000    0.857    2.857    3.000    0.000   13.714 
#    0.000    4.286    0.000    0.000    0.000    0.000 
#    0.000    0.000    0.000    0.000    0.000    0.000 
#
# Total GULP energy -78455.867607 kJ/mol
# GULP energy per Si atom -5603.990543 kJ/mol
# Density = 2.399388 g / cm^3
# Si number density = 24.048617 Si / 1000 Ang^3
#
#
#
# Elastic Constant Matrix: (Units=GPa)
#
#
# Indices 1 2 3 4 5 6 
#
# 1 150.8184 43.3974 48.8656 0.0000 15.0932 0.0000
# 2 43.3974 139.0541 72.7785 0.0000 19.5805 0.0000
# 3 48.8656 72.7785 180.7449 0.0000 27.3947 0.0000
# 4 0.0000 0.0000 0.0000 99.5907 0.0000 8.7235
# 5 15.0932 19.5805 27.3947 0.0000 45.7132 0.0000
# 6 0.0000 0.0000 0.0000 8.7235 0.0000 15.6529
#
#
#
# Elastic Compliance Matrix: (Units=1/GPa)
#
#
# Indices 1 2 3 4 5 6 
#
# 1 0.007596 -0.001557 -0.001262 0.000000 -0.001085 0.000000
# 2 -0.001557 0.009579 -0.003181 0.000000 -0.001683 0.000000
# 3 -0.001262 -0.003181 0.007573 0.000000 -0.002759 0.000000
# 4 0.000000 0.000000 0.000000 0.010556 0.000000 -0.005883
# 5 -0.001085 -0.001683 -0.002759 0.000000 0.024608 0.000000
# 6 0.000000 0.000000 0.000000 -0.005883 0.000000 0.067164
#
#
# Mechanical properties :
#
#
# Convention : Reuss Voigt Hill
#
# Bulk Modulus (GPa) = 78.44943 88.96672 83.70808
# Shear Modulus (GPa) = 34.88514 52.56309 43.72412
#
# Velocity S-wave (km/s) = 3.81282 4.68022 4.26861
# Velocity P-wave (km/s) = 7.21633 8.14130 7.69273
#
# Compressibility (1/GPa) = 0.01274707
#
# Stress axis : x y z
#
# Youngs Moduli (GPa) = 131.64648 104.39104 132.04833
#
# Poissons Ratio (x) = 0.16257 0.16667
# Poissons Ratio (y) = 0.20502 0.42007
# Poissons Ratio (z) = 0.16616 0.33208
#
# Static dielectric constant tensor:
#      x y z
#    x 1.866680 0.000000 0.032410 
#    y 0.000000 1.913750 0.000000 
#    z 0.032410 0.000000 1.874640 
# 
# From -- ./inp_files/14290.got.cif
#   From: 2010.05.17/outbox.cif.g08.bks.cpg/sg10_8_cif.got.tgz:14290.got - 2010.06.03 11:33:40.
