data_PCOD9154043
_publ_section_title
;
Structure prediction by ZEFSAII (Michael W. Deem and Ramdas Pophale) SiO2 
 PCOD9154043
Probable space group: P 2/M
;
_chemical_formula_sum "Si O2"
_cell_formula_units_Z 21
_cell_length_a 14.527615
_cell_length_b 11.087724
_cell_length_c 12.817729
_cell_angle_alpha 90.000000
_cell_angle_beta 28.742441
_cell_angle_gamma 90.000000
_cell_volume 992.837783
_symmetry_space_group_name_H-M "P 2/M"
_symmetry_group_IT_number 10
_symmetry_cell_setting 'monoclinic'
loop_
_space_group_symop_operation_xyz
x,y,z
-x,y,-z
-x,-y,-z
x,-y,z
loop_
_atom_site_type_symbol
_atom_site_label
_atom_site_fract_x
_atom_site_fract_y
_atom_site_fract_z
Si Si1 0.229360 0.633303 0.266788
Si Si2 0.957333 0.799401 0.866720
Si Si3 0.620492 0.638098 0.283641
Si Si4 0.000000 0.000000 0.000000
Si Si5 0.655526 0.286329 0.623244
Si Si6 0.335518 0.134670 0.023096
O O1 0.279280 0.500000 0.172958
O O2 0.307764 0.644033 0.305923
O O3 0.297558 0.751418 0.136455
O O4 0.000000 0.639440 0.500000
O O5 0.826779 0.856427 0.904610
O O6 0.142674 0.739207 0.631386
O O7 0.815166 0.705796 0.064218
O O8 0.016995 0.896183 0.892276
O O9 0.500000 0.692626 0.500000
O O10 0.662785 0.500000 0.267388
O O11 0.484868 0.647006 0.317258
O O12 0.541017 0.163750 0.766932
O O13 0.330907 0.000000 0.074081
#
# Coordination Sequence:
#
# PCOD9154043 Si02
#       6
#     4   4   4   1   4   4
#     4  11  24  44  71 103 143 188 232 285 347 419
#     4  11  24  44  68 103 133 183 229 289 347 415
#     4  10  23  44  68 100 140 177 228 291 351 417
#     4  12  24  44  72  94 136 178 240 282 352 410
#     4  11  24  43  69 104 136 184 233 283 350 415
#     4  11  25  45  68 103 141 182 234 288 347 411
#
# _framework density 21.151492000000001
#
# number of rings (size 3 to 8) (size 9 to 14) (size 15 to 20)
#    0.000    1.143    2.857    2.286    1.333    8.000 
#    0.000    4.762    0.000    0.000    0.000    0.000 
#    0.000    0.000    0.000    0.000    0.000    0.000 
#
# Total GULP energy -117120.469632 kJ/mol
# GULP energy per Si atom -5577.165221 kJ/mol
# Density = 2.110335 g / cm^3
# Si number density = 21.151492 Si / 1000 Ang^3
#
#
#
# Elastic Constant Matrix: (Units=GPa)
#
#
# Indices 1 2 3 4 5 6 
#
# 1 30.3817 2.7034 3.9461 0.0000 18.1748 0.0000
# 2 2.7034 151.5612 72.5802 0.0000 11.8053 0.0000
# 3 3.9461 72.5802 144.9470 0.0000 -9.0932 0.0000
# 4 0.0000 0.0000 0.0000 10.5147 0.0000 16.2835
# 5 18.1748 11.8053 -9.0932 0.0000 41.1415 0.0000
# 6 0.0000 0.0000 0.0000 16.2835 0.0000 12.9462
#
#
#
# Elastic Compliance Matrix: (Units=1/GPa)
#
#
# Indices 1 2 3 4 5 6 
#
# 1 0.046521 0.002870 -0.004101 0.000000 -0.022281 0.000000
# 2 0.002870 0.009383 -0.005096 0.000000 -0.005087 0.000000
# 3 -0.004101 -0.005096 0.009905 0.000000 0.005463 0.000000
# 4 0.000000 0.000000 0.000000 -0.100338 0.000000 0.126203
# 5 -0.022281 -0.005087 0.005463 0.000000 0.036816 0.000000
# 6 0.000000 0.000000 0.000000 0.126203 0.000000 -0.081493
#
#
# Mechanical properties :
#
#
# Convention : Reuss Voigt Hill
#
# Bulk Modulus (GPa) = 18.81302 53.92771 36.37036
# Shear Modulus (GPa) = -102.39271 29.43116 -36.48078
#
# Velocity S-wave (km/s) = -6.96522 3.73426 -4.15750
# Velocity P-wave (km/s) = 7.46807 6.64411 2.41121
#
# Compressibility (1/GPa) = 0.05315468
#
# Stress axis : x y z
#
# Youngs Moduli (GPa) = 21.49569 106.57250 100.95804
#
# Poissons Ratio (x) = -0.30584 0.41406
# Poissons Ratio (y) = -0.06169 0.51446
# Poissons Ratio (z) = 0.08816 0.54307
#
# Static dielectric constant tensor:
#      x y z
#    x 1.759130 0.000000 0.010990 
#    y 0.000000 1.757710 0.000000 
#    z 0.010990 0.000000 1.767160 
# 
# From -- ./inp_files/51000.got.cif
#   From: 2010.05.17/outbox.cif.g08.bks.cpg/sg10_26_cif.got.tgz:51000.got - 2010.06.03 11:33:40.
