data_PCOD9154870
_publ_section_title
;
Structure prediction by ZEFSAII (Michael W. Deem and Ramdas Pophale) SiO2 
 PCOD9154870
Probable space group: P 2/M
;
_chemical_formula_sum "Si O2"
_cell_formula_units_Z 16
_cell_length_a 7.977003
_cell_length_b 18.406952
_cell_length_c 8.693135
_cell_angle_alpha 90.000000
_cell_angle_beta 146.562079
_cell_angle_gamma 90.000000
_cell_volume 703.356968
_symmetry_space_group_name_H-M "P 2/M"
_symmetry_group_IT_number 10
_symmetry_cell_setting 'monoclinic'
loop_
_space_group_symop_operation_xyz
x,y,z
-x,y,-z
-x,-y,-z
x,-y,z
loop_
_atom_site_type_symbol
_atom_site_label
_atom_site_fract_x
_atom_site_fract_y
_atom_site_fract_z
Si Si1 0.676675 0.625358 0.290694
Si Si2 0.399453 0.845166 0.097925
Si Si3 0.337533 0.000000 0.206681
Si Si4 0.789198 0.241981 0.606880
Si Si5 0.346515 0.500000 0.217781
O O1 0.782958 0.687885 0.491097
O O2 0.450638 0.570145 0.201802
O O3 0.000000 0.588024 0.500000
O O4 0.500000 0.650501 0.000000
O O5 0.117474 0.788318 0.916022
O O6 0.500000 0.838501 0.000000
O O7 0.360576 0.927832 0.120769
O O8 0.685085 0.822180 0.417693
O O9 0.500000 0.000000 0.500000
O O10 0.000000 0.000000 0.000000
O O11 0.500000 0.252017 0.500000
O O12 0.500000 0.500000 0.500000
O O13 0.000000 0.500000 0.000000
#
# Coordination Sequence:
#
# PCOD9154870 Si02
#       5
#     4   4   2   4   2
#     4  12  25  45  70 101 139 183 229 283 345 412
#     4  12  25  44  68  99 135 177 228 283 342 408
#     4  12  25  44  69 100 137 182 229 286 349 412
#     4  12  25  43  68  99 135 179 228 282 340 407
#     4  12  26  46  72 106 142 182 230 286 344 412
#
# _framework density 22.748048000000001
#
# number of rings (size 3 to 8) (size 9 to 14) (size 15 to 20)
#    0.000    0.000    0.000   12.375    0.000    2.000 
#    0.000    3.750    0.000    0.000    0.000    0.000 
#    0.000    0.000    0.000    0.000    0.000    0.000 
#
# Total GULP energy -89341.159103 kJ/mol
# GULP energy per Si atom -5583.822444 kJ/mol
# Density = 2.269627 g / cm^3
# Si number density = 22.748048 Si / 1000 Ang^3
#
#
#
# Elastic Constant Matrix: (Units=GPa)
#
#
# Indices 1 2 3 4 5 6 
#
# 1 152.9688 39.0627 36.7745 0.0000 8.9689 0.0000
# 2 39.0627 137.3951 6.6895 0.0000 8.0688 0.0000
# 3 36.7745 6.6895 137.0214 0.0000 10.9611 0.0000
# 4 0.0000 0.0000 0.0000 27.4032 0.0000 3.3795
# 5 8.9689 8.0688 10.9611 0.0000 44.5335 0.0000
# 6 0.0000 0.0000 0.0000 3.3795 0.0000 35.5536
#
#
#
# Elastic Compliance Matrix: (Units=1/GPa)
#
#
# Indices 1 2 3 4 5 6 
#
# 1 0.007541 -0.002012 -0.001870 0.000000 -0.000694 0.000000
# 2 -0.002012 0.007902 0.000241 0.000000 -0.001086 0.000000
# 3 -0.001870 0.000241 0.007918 0.000000 -0.001616 0.000000
# 4 0.000000 0.000000 0.000000 0.036925 0.000000 -0.003510
# 5 -0.000694 -0.001086 -0.001616 0.000000 0.023189 0.000000
# 6 0.000000 0.000000 0.000000 -0.003510 0.000000 0.028460
#
#
# Mechanical properties :
#
#
# Convention : Reuss Voigt Hill
#
# Bulk Modulus (GPa) = 62.19449 65.82652 64.01050
# Shear Modulus (GPa) = 40.13546 44.48863 42.31205
#
# Velocity S-wave (km/s) = 4.20497 4.42714 4.31749
# Velocity P-wave (km/s) = 7.13972 7.42515 7.28383
#
# Compressibility (1/GPa) = 0.01607859
#
# Stress axis : x y z
#
# Youngs Moduli (GPa) = 132.60042 126.54346 126.30144
#
# Poissons Ratio (x) = 0.25464 0.23622
# Poissons Ratio (y) = 0.26683 -0.03046
# Poissons Ratio (z) = 0.24800 -0.03051
#
# Static dielectric constant tensor:
#      x y z
#    x 2.060200 0.000000 -0.019350 
#    y 0.000000 1.860720 0.000000 
#    z -0.019350 0.000000 1.784580 
# 
# From -- ./inp_files/4255.got.cif
#   From: 2010.05.17/outbox.cif.g08.bks.cpg/sg10_3_cif.got.tgz:4255.got - 2010.06.03 11:33:40.
