data_PCOD9154404
_publ_section_title
;
Structure prediction by ZEFSAII (Michael W. Deem and Ramdas Pophale) SiO2 
 PCOD9154404
Probable space group: P 2/M
;
_chemical_formula_sum "Si O2"
_cell_formula_units_Z 22
_cell_length_a 12.094671
_cell_length_b 21.534614
_cell_length_c 12.036475
_cell_angle_alpha 90.000000
_cell_angle_beta 24.542743
_cell_angle_gamma 90.000000
_cell_volume 1302.169889
_symmetry_space_group_name_H-M "P 2/M"
_symmetry_group_IT_number 10
_symmetry_cell_setting 'monoclinic'
loop_
_space_group_symop_operation_xyz
x,y,z
-x,y,-z
-x,-y,-z
x,-y,z
loop_
_atom_site_type_symbol
_atom_site_label
_atom_site_fract_x
_atom_site_fract_y
_atom_site_fract_z
Si Si1 0.591521 0.138707 0.544296
Si Si2 0.786801 0.500000 0.291969
Si Si3 0.217136 0.269740 0.703324
Si Si4 0.473805 0.425511 0.155860
Si Si5 0.090409 0.929314 0.047641
Si Si6 0.049057 0.615281 0.708834
O O1 0.500000 0.129678 0.500000
O O2 0.706902 0.208091 0.435779
O O3 0.828907 0.091478 0.352060
O O4 0.327091 0.119569 0.850963
O O5 0.500000 0.500000 0.500000
O O6 0.833320 0.560505 0.322827
O O7 0.000000 0.500000 0.000000
O O8 0.500000 0.290032 0.500000
O O9 0.099717 0.321666 0.729544
O O10 0.000000 0.256321 0.000000
O O11 0.454168 0.500000 0.194649
O O12 0.218436 0.391320 0.440886
O O13 0.500000 0.417287 0.000000
O O14 0.740528 0.399210 0.968859
O O15 0.173185 0.000000 0.993929
O O16 0.000000 0.927006 0.000000
#
# Coordination Sequence:
#
# PCOD9154404 Si02
#       6
#     4   2   4   4   4   4
#     4   9  16  26  39  56  84 120 159 196 228 264
#     4  12  22  34  49  72 101 126 156 196 232 270
#     4  11  21  34  48  67  97 134 167 195 228 284
#     4  11  22  39  58  76  94 116 152 203 255 300
#     4   9  15  23  37  57  80 111 157 207 238 255
#     4  12  22  37  54  75  96 126 160 196 246 288
#
# _framework density 16.894877000000001
#
# number of rings (size 3 to 8) (size 9 to 14) (size 15 to 20)
#    0.000    1.455    1.818    7.091    0.000    3.636 
#    0.000    0.000    0.000    0.000    0.000    0.000 
#    0.000    0.000    0.000    0.000    0.000   63.636 
#
# Total GULP energy -122711.278441 kJ/mol
# GULP energy per Si atom -5577.785384 kJ/mol
# Density = 1.685642 g / cm^3
# Si number density = 16.894877 Si / 1000 Ang^3
#
#
#
# Elastic Constant Matrix: (Units=GPa)
#
#
# Indices 1 2 3 4 5 6 
#
# 1 25.3256 16.0031 -2.8158 0.0000 -0.1583 0.0000
# 2 16.0031 97.4301 20.0071 0.0000 -0.7461 0.0000
# 3 -2.8158 20.0071 61.4037 0.0000 -2.8473 0.0000
# 4 0.0000 0.0000 0.0000 24.5964 0.0000 -7.0996
# 5 -0.1583 -0.7461 -2.8473 0.0000 24.3135 0.0000
# 6 0.0000 0.0000 0.0000 -7.0996 0.0000 1.3819
#
#
#
# Elastic Compliance Matrix: (Units=1/GPa)
#
#
# Indices 1 2 3 4 5 6 
#
# 1 0.045366 -0.008445 0.004860 0.000000 0.000605 0.000000
# 2 -0.008445 0.012572 -0.004493 0.000000 -0.000195 0.000000
# 3 0.004860 -0.004493 0.018066 0.000000 0.002009 0.000000
# 4 0.000000 0.000000 0.000000 -0.084183 0.000000 -0.432501
# 5 0.000605 -0.000195 0.002009 0.000000 0.041363 0.000000
# 6 0.000000 0.000000 0.000000 -0.432501 0.000000 -1.498386
#
#
# Mechanical properties :
#
#
# Convention : Reuss Voigt Hill
#
# Bulk Modulus (GPa) = 16.70881 27.83869 22.27375
# Shear Modulus (GPa) = -3.49871 20.12270 8.31200
#
# Velocity S-wave (km/s) = -1.44061 3.45491 2.22048
# Velocity P-wave (km/s) = 2.67286 5.69461 4.44819
#
# Compressibility (1/GPa) = 0.05984868
#
# Stress axis : x y z
#
# Youngs Moduli (GPa) = 22.04289 79.54249 55.35408
#
# Poissons Ratio (x) = 0.67172 -0.26902
# Poissons Ratio (y) = 0.18615 0.24868
# Poissons Ratio (z) = -0.10713 0.35735
#
# Static dielectric constant tensor:
#      x y z
#    x 1.542650 0.000000 0.006790 
#    y 0.000000 1.583310 0.000000 
#    z 0.006790 0.000000 1.613620 
# 
# From -- ./inp_files/48093.got.cif
#   From: 2010.05.17/outbox.cif.g08.bks.cpg/sg10_25_cif.got.tgz:48093.got - 2010.06.03 11:33:40.
