data_PCOD9154571
_publ_section_title
;
Structure prediction by ZEFSAII (Michael W. Deem and Ramdas Pophale) SiO2 
 PCOD9154571
Probable space group: P 2/M
;
_chemical_formula_sum "Si O2"
_cell_formula_units_Z 28
_cell_length_a 30.098607
_cell_length_b 8.894557
_cell_length_c 22.862265
_cell_angle_alpha 90.000000
_cell_angle_beta 15.758991
_cell_angle_gamma 90.000000
_cell_volume 1662.287393
_symmetry_space_group_name_H-M "P 2/M"
_symmetry_group_IT_number 10
_symmetry_cell_setting 'monoclinic'
loop_
_space_group_symop_operation_xyz
x,y,z
-x,y,-z
-x,-y,-z
x,-y,z
loop_
_atom_site_type_symbol
_atom_site_label
_atom_site_fract_x
_atom_site_fract_y
_atom_site_fract_z
Si Si1 0.149540 0.678512 0.226624
Si Si2 0.022470 0.822745 0.179335
Si Si3 0.186964 0.821236 0.393146
Si Si4 0.631239 0.177285 0.955554
Si Si5 0.374403 0.180182 0.708937
Si Si6 0.712868 0.678354 0.609827
Si Si7 0.739441 0.677764 0.038039
O O1 0.135145 0.500000 0.255017
O O2 0.221322 0.760956 0.191758
O O3 0.273065 0.702340 0.014981
O O4 0.976409 0.743831 0.425072
O O5 0.854343 0.735033 0.386420
O O6 0.101180 0.768414 0.141253
O O7 0.992075 0.000000 0.217958
O O8 0.182242 0.790747 0.936579
O O9 0.322973 0.800651 0.170365
O O10 0.245222 0.750484 0.380142
O O11 0.159919 0.000000 0.434933
O O12 0.610145 0.000000 0.992282
O O13 0.465956 0.264144 0.180491
O O14 0.500000 0.228352 0.500000
O O15 0.389548 0.000000 0.697778
O O16 0.394505 0.261059 0.746359
O O17 0.717587 0.500000 0.608183
O O18 0.764315 0.500000 0.016059
#
# Coordination Sequence:
#
# PCOD9154571 Si02
#       7
#     4   4   4   4   4   4   4
#     4  11  22  36  54  76 104 135 172 216 260 309
#     4   9  17  30  50  72 100 135 166 201 246 296
#     4  11  22  37  56  75  98 132 173 217 264 314
#     4  11  25  39  52  73 101 134 175 218 263 313
#     4   8  15  27  45  74 107 135 166 205 247 293
#     4  12  23  36  54  76 102 133 173 217 261 312
#     4   9  17  29  47  74 102 132 166 201 248 298
#
# _framework density 16.844259000000001
#
# number of rings (size 3 to 8) (size 9 to 14) (size 15 to 20)
#    0.857    1.000    1.429    3.857    0.000    7.714 
#    0.000    0.000    0.000    0.000    0.000    1.000 
#    0.000    8.000    0.000    0.000    0.000    0.000 
#
# Total GULP energy -155942.270550 kJ/mol
# GULP energy per Si atom -5569.366805 kJ/mol
# Density = 1.680592 g / cm^3
# Si number density = 16.844259 Si / 1000 Ang^3
#
#
#
# Elastic Constant Matrix: (Units=GPa)
#
#
# Indices 1 2 3 4 5 6 
#
# 1 15.9727 7.1208 8.2258 0.0000 0.4261 0.0000
# 2 7.1208 70.9973 29.4025 0.0000 10.7789 0.0000
# 3 8.2258 29.4025 77.5023 0.0000 9.3726 0.0000
# 4 0.0000 0.0000 0.0000 18.0500 0.0000 -0.7171
# 5 0.4261 10.7789 9.3726 0.0000 26.1074 0.0000
# 6 0.0000 0.0000 0.0000 -0.7171 0.0000 24.3605
#
#
#
# Elastic Compliance Matrix: (Units=1/GPa)
#
#
# Indices 1 2 3 4 5 6 
#
# 1 0.067630 -0.004877 -0.005685 0.000000 0.002950 0.000000
# 2 -0.004877 0.017667 -0.005553 0.000000 -0.005221 0.000000
# 3 -0.005685 -0.005553 0.016020 0.000000 -0.003366 0.000000
# 4 0.000000 0.000000 0.000000 0.055467 0.000000 0.001633
# 5 0.002950 -0.005221 -0.003366 0.000000 0.041619 0.000000
# 6 0.000000 0.000000 0.000000 0.001633 0.000000 0.041098
#
#
# Mechanical properties :
#
#
# Convention : Reuss Voigt Hill
#
# Bulk Modulus (GPa) = 14.47455 28.21895 21.34675
# Shear Modulus (GPa) = 16.96306 21.68513 19.32410
#
# Velocity S-wave (km/s) = 3.17685 3.59191 3.39074
# Velocity P-wave (km/s) = 4.69770 5.83024 5.29434
#
# Compressibility (1/GPa) = 0.06908678
#
# Stress axis : x y z
#
# Youngs Moduli (GPa) = 14.78643 56.60399 62.42196
#
# Poissons Ratio (x) = 0.27604 0.35485
# Poissons Ratio (y) = 0.07211 0.34665
# Poissons Ratio (z) = 0.08406 0.31434
#
# Static dielectric constant tensor:
#      x y z
#    x 1.555210 0.000000 0.027880 
#    y 0.000000 1.556410 0.000000 
#    z 0.027880 0.000000 1.611960 
# 
# From -- ./inp_files/86673.got.cif
#   From: 2010.05.17/outbox.cif.g08.bks.cpg/sg10_44_cif.got.tgz:86673.got - 2010.06.03 11:33:40.
