data_PCOD9154980
_publ_section_title
;
Structure prediction by ZEFSAII (Michael W. Deem and Ramdas Pophale) SiO2 
 PCOD9154980
Probable space group: P 2/M
;
_chemical_formula_sum "Si O2"
_cell_formula_units_Z 24
_cell_length_a 24.674811
_cell_length_b 7.448900
_cell_length_c 18.660739
_cell_angle_alpha 90.000000
_cell_angle_beta 19.788924
_cell_angle_gamma 90.000000
_cell_volume 1161.195571
_symmetry_space_group_name_H-M "P 2/M"
_symmetry_group_IT_number 10
_symmetry_cell_setting 'monoclinic'
loop_
_space_group_symop_operation_xyz
x,y,z
-x,y,-z
-x,-y,-z
x,-y,z
loop_
_atom_site_type_symbol
_atom_site_label
_atom_site_fract_x
_atom_site_fract_y
_atom_site_fract_z
Si Si1 0.154376 0.279711 0.263221
Si Si2 0.844524 0.719279 0.394213
Si Si3 0.499356 0.703408 0.843678
Si Si4 0.498847 0.786922 0.677982
Si Si5 0.160661 0.207854 0.767324
Si Si6 0.851080 0.715119 0.894802
O O1 0.159614 0.500000 0.256957
O O2 0.138821 0.221088 0.199992
O O3 0.000000 0.224873 0.500000
O O4 0.326987 0.217230 0.078535
O O5 0.839952 0.500000 0.398836
O O6 0.675170 0.781757 0.638836
O O7 0.852336 0.781415 0.302473
O O8 0.000667 0.779655 0.242710
O O9 0.502089 0.500000 0.868283
O O10 0.490856 0.700176 0.766994
O O11 0.660892 0.719837 0.438471
O O12 0.518035 0.000000 0.666001
O O13 0.327065 0.758456 0.855765
O O14 0.836970 0.000000 0.211829
O O15 0.000000 0.290941 0.000000
O O16 0.863120 0.500000 0.877802
#
# Coordination Sequence:
#
# PCOD9154980 Si02
#       6
#     4   4   4   4   4   4
#     4   8  13  23  41  63  86 114 145 175 210 250
#     4   9  17  29  45  65  87 114 146 176 211 253
#     4   8  14  26  43  61  84 113 143 175 210 251
#     4   9  16  27  45  65  83 109 144 174 207 256
#     4   9  18  32  48  66  87 110 139 177 217 255
#     4   9  17  29  44  63  89 116 143 178 213 248
#
# _framework density 20.668353
#
# number of rings (size 3 to 8) (size 9 to 14) (size 15 to 20)
#    0.000    3.333    0.000    1.500    0.000    1.667 
#    0.000    1.667    0.000   18.000    0.000    0.000 
#    0.000   22.667    0.000    0.000    0.000    0.000 
#
# Total GULP energy -133622.430852 kJ/mol
# GULP energy per Si atom -5567.601285 kJ/mol
# Density = 2.062131 g / cm^3
# Si number density = 20.668353 Si / 1000 Ang^3
#
#
#
# Elastic Constant Matrix: (Units=GPa)
#
#
# Indices 1 2 3 4 5 6 
#
# 1 47.9136 -6.1878 58.5435 0.0000 -35.0046 0.0000
# 2 -6.1878 68.4170 -2.6198 0.0000 -0.4725 0.0000
# 3 58.5435 -2.6198 251.3236 0.0000 -41.0801 0.0000
# 4 0.0000 0.0000 0.0000 13.3589 0.0000 20.2283
# 5 -35.0046 -0.4725 -41.0801 0.0000 40.1631 0.0000
# 6 0.0000 0.0000 0.0000 20.2283 0.0000-1441.2260
#
#
#
# Elastic Compliance Matrix: (Units=1/GPa)
#
#
# Indices 1 2 3 4 5 6 
#
# 1 0.069634 0.006379 -0.007471 0.000000 0.053124 0.000000
# 2 0.006379 0.015212 -0.000467 0.000000 0.005260 0.000000
# 3 -0.007471 -0.000467 0.005582 0.000000 -0.000807 0.000000
# 4 0.000000 0.000000 0.000000 0.073298 0.000000 0.001029
# 5 0.053124 0.005260 -0.000807 0.000000 0.070436 0.000000
# 6 0.000000 0.000000 0.000000 0.001029 0.000000 -0.000679
#
#
# Mechanical properties :
#
#
# Convention : Reuss Voigt Hill
#
# Bulk Modulus (GPa) = 11.45353 51.90288 31.67820
# Shear Modulus (GPa) = 18.81780 -256.34624 -118.76422
#
# Velocity S-wave (km/s) = 3.02066 -11.14888 -7.58858
# Velocity P-wave (km/s) = 4.20945 11.85594 7.83722
#
# Compressibility (1/GPa) = 0.08730934
#
# Stress axis : x y z
#
# Youngs Moduli (GPa) = 14.36072 65.73938 179.13373
#
# Poissons Ratio (x) = -0.41933 1.33826
# Poissons Ratio (y) = -0.09160 0.08374
# Poissons Ratio (z) = 0.10729 0.03073
#
# Static dielectric constant tensor:
#      x y z
#    x 1.689820 0.000000 -0.043680 
#    y 0.000000 1.810530 0.000000 
#    z -0.043680 0.000000 1.810940 
# 
# From -- ./inp_files/31201.got.cif
#   From: 2010.05.17/outbox.cif.g08.bks.cpg/sg10_16_cif.got.tgz:31201.got - 2010.06.03 11:33:40.
