data_PCOD9154560
_publ_section_title
;
Structure prediction by ZEFSAII (Michael W. Deem and Ramdas Pophale) SiO2 
 PCOD9154560
Probable space group: P 2/M
;
_chemical_formula_sum "Si O2"
_cell_formula_units_Z 24
_cell_length_a 16.145836
_cell_length_b 14.072624
_cell_length_c 9.570606
_cell_angle_alpha 90.000000
_cell_angle_beta 148.841715
_cell_angle_gamma 90.000000
_cell_volume 1125.135777
_symmetry_space_group_name_H-M "P 2/M"
_symmetry_group_IT_number 10
_symmetry_cell_setting 'monoclinic'
loop_
_space_group_symop_operation_xyz
x,y,z
-x,y,-z
-x,-y,-z
x,-y,z
loop_
_atom_site_type_symbol
_atom_site_label
_atom_site_fract_x
_atom_site_fract_y
_atom_site_fract_z
Si Si1 0.817885 0.614250 0.279272
Si Si2 0.485335 0.301807 0.322092
Si Si3 0.991769 0.883884 0.326801
Si Si4 0.351363 0.107164 0.137628
Si Si5 0.672586 0.892488 0.229358
Si Si6 0.339395 0.391010 0.672560
O O1 0.787901 0.500000 0.224970
O O2 0.791335 0.640847 0.403310
O O3 0.000000 0.632312 0.500000
O O4 0.684044 0.666416 0.992313
O O5 0.500000 0.341861 0.500000
O O6 0.483384 0.187941 0.332890
O O7 0.621019 0.333968 0.409680
O O8 0.152507 0.854148 0.477164
O O9 0.000000 0.850415 0.500000
O O10 0.997080 0.000000 0.336662
O O11 0.811857 0.860302 0.020350
O O12 0.390479 0.000000 0.235401
O O13 0.313067 0.100276 0.916958
O O14 0.657474 0.000000 0.268185
O O15 0.500000 0.842752 0.000000
O O16 0.306844 0.500000 0.585413
O O17 0.500000 0.390805 0.000000
#
# Coordination Sequence:
#
# PCOD9154560 Si02
#       6
#     4   4   4   4   4   4
#     4   9  19  38  64  91 116 145 182 223 277 351
#     4  11  22  34  53  83 116 152 193 238 288 335
#     4   7  11  22  39  58  84 119 163 217 272 322
#     4   9  18  31  44  63  99 148 195 235 279 330
#     4   8  13  22  40  67  92 117 164 232 291 332
#     4   8  16  34  59  84 112 145 179 221 278 345
#
# _framework density 21.330759
#
# number of rings (size 3 to 8) (size 9 to 14) (size 15 to 20)
#    0.000    3.333    0.000    3.500    0.000    5.667 
#    0.000    0.833    0.000    3.000    0.000    0.000 
#    0.000    9.333    0.000    0.000    0.000    0.000 
#
# Total GULP energy -133626.840111 kJ/mol
# GULP energy per Si atom -5567.785005 kJ/mol
# Density = 2.128221 g / cm^3
# Si number density = 21.330759 Si / 1000 Ang^3
#
#
#
# Elastic Constant Matrix: (Units=GPa)
#
#
# Indices 1 2 3 4 5 6 
#
# 1 166.1152 36.5225 55.7562 0.0000 29.1910 0.0000
# 2 36.5225 106.0710 19.5363 0.0000 2.1149 0.0000
# 3 55.7562 19.5363 48.4815 0.0000 3.6054 0.0000
# 4 0.0000 0.0000 0.0000 63.2718 0.0000 8.0742
# 5 29.1910 2.1149 3.6054 0.0000 38.3688 0.0000
# 6 0.0000 0.0000 0.0000 8.0742 0.0000 6.9991
#
#
#
# Elastic Compliance Matrix: (Units=1/GPa)
#
#
# Indices 1 2 3 4 5 6 
#
# 1 0.011956 -0.001658 -0.012499 0.000000 -0.007830 0.000000
# 2 -0.001658 0.010415 -0.002357 0.000000 0.000909 0.000000
# 3 -0.012499 -0.002357 0.035482 0.000000 0.006305 0.000000
# 4 0.000000 0.000000 0.000000 0.018533 0.000000 -0.021380
# 5 -0.007830 0.000909 0.006305 0.000000 0.031377 0.000000
# 6 0.000000 0.000000 0.000000 -0.021380 0.000000 0.167539
#
#
# Mechanical properties :
#
#
# Convention : Reuss Voigt Hill
#
# Bulk Modulus (GPa) = 40.28504 60.47752 50.38128
# Shear Modulus (GPa) = 15.79251 35.65147 25.72199
#
# Velocity S-wave (km/s) = 2.72391 4.09267 3.47632
# Velocity P-wave (km/s) = 5.36841 7.12370 6.30741
#
# Compressibility (1/GPa) = 0.02482311
#
# Stress axis : x y z
#
# Youngs Moduli (GPa) = 83.64097 96.01827 28.18319
#
# Poissons Ratio (x) = 0.15924 0.35227
# Poissons Ratio (y) = 0.13871 0.06643
# Poissons Ratio (z) = 1.04545 0.22633
#
# Static dielectric constant tensor:
#      x y z
#    x 1.813200 0.000000 0.055540 
#    y 0.000000 1.832640 0.000000 
#    z 0.055540 0.000000 1.874060 
# 
# From -- ./inp_files/29682.got.cif
#   From: 2010.05.17/outbox.cif.g08.bks.cpg/sg10_15_cif.got.tgz:29682.got - 2010.06.03 11:33:40.
