data_PCOD9154298
_publ_section_title
;
Structure prediction by ZEFSAII (Michael W. Deem and Ramdas Pophale) SiO2 
 PCOD9154298
Probable space group: P 2/M
;
_chemical_formula_sum "Si O2"
_cell_formula_units_Z 28
_cell_length_a 22.385806
_cell_length_b 11.681990
_cell_length_c 16.588626
_cell_angle_alpha 90.000000
_cell_angle_beta 160.615331
_cell_angle_gamma 90.000000
_cell_volume 1439.854689
_symmetry_space_group_name_H-M "P 2/M"
_symmetry_group_IT_number 10
_symmetry_cell_setting 'monoclinic'
loop_
_space_group_symop_operation_xyz
x,y,z
-x,y,-z
-x,-y,-z
x,-y,z
loop_
_atom_site_type_symbol
_atom_site_label
_atom_site_fract_x
_atom_site_fract_y
_atom_site_fract_z
Si Si1 0.193424 0.246072 0.576658
Si Si2 0.459910 0.363144 0.591938
Si Si3 0.299042 0.000000 0.771294
Si Si4 0.220582 0.760511 0.931492
Si Si5 0.230329 0.363699 0.464940
Si Si6 0.781095 0.628455 0.229840
Si Si7 0.885250 0.367447 0.937119
Si Si8 0.177743 0.000000 0.787745
O O1 0.208667 0.113186 0.619323
O O2 0.285568 0.289415 0.612409
O O3 0.267018 0.311692 0.748389
O O4 0.981060 0.276017 0.301523
O O5 0.502588 0.500000 0.635850
O O6 0.353349 0.353953 0.541929
O O7 0.313562 0.324966 0.338310
O O8 0.633851 0.281895 0.818264
O O9 0.314801 0.000000 0.888292
O O10 0.500000 0.000000 0.000000
O O11 0.279840 0.694143 0.926252
O O12 0.201540 0.890298 0.874961
O O13 0.222750 0.500000 0.475355
O O14 0.029153 0.320793 0.183654
O O15 0.713662 0.500000 0.142524
O O16 0.000000 0.628291 0.500000
O O17 0.858251 0.500000 0.925008
O O18 0.000000 0.366349 0.000000
O O19 0.000000 0.000000 0.500000
#
# Coordination Sequence:
#
# PCOD9154298 Si02
#       8
#     4   4   2   4   4   4   4   2
#     4  11  21  35  52  76 104 135 173 217 263 307
#     4   9  18  32  53  82 109 137 176 213 253 310
#     4  12  26  40  56  75 100 135 181 226 261 301
#     4  11  20  33  54  74 101 136 177 218 253 307
#     4   9  18  32  52  79 111 142 171 210 263 310
#     4   9  17  29  47  71 100 133 164 200 249 305
#     4   7  12  28  51  73 104 143 174 204 248 309
#     4  12  20  42  58  71  96 141 185 214 255 311
#
# _framework density 19.446407000000001
#
# number of rings (size 3 to 8) (size 9 to 14) (size 15 to 20)
#    0.000    2.286    2.857    3.000    2.000    1.714 
#    0.000    0.714    0.000    6.857    0.000    5.000 
#    0.000    0.000    0.000    0.000    0.000    0.000 
#
# Total GULP energy -155998.249438 kJ/mol
# GULP energy per Si atom -5571.366051 kJ/mol
# Density = 1.940215 g / cm^3
# Si number density = 19.446407 Si / 1000 Ang^3
#
#
#
# Elastic Constant Matrix: (Units=GPa)
#
#
# Indices 1 2 3 4 5 6 
#
# 1 40.3694 1.3751 -14.2533 0.0000 -3.5468 0.0000
# 2 1.3751 85.6874 11.9207 0.0000 -9.7536 0.0000
# 3 -14.2533 11.9207 103.5598 0.0000 -0.8197 0.0000
# 4 0.0000 0.0000 0.0000 20.7419 0.0000 18.6862
# 5 -3.5468 -9.7536 -0.8197 0.0000 19.9498 0.0000
# 6 0.0000 0.0000 0.0000 18.6862 0.0000 6.0330
#
#
#
# Elastic Compliance Matrix: (Units=1/GPa)
#
#
# Indices 1 2 3 4 5 6 
#
# 1 0.026513 -0.000414 0.003734 0.000000 0.004665 0.000000
# 2 -0.000414 0.012563 -0.001456 0.000000 0.006009 0.000000
# 3 0.003734 -0.001456 0.010341 0.000000 0.000377 0.000000
# 4 0.000000 0.000000 0.000000 -0.026928 0.000000 0.083406
# 5 0.004665 0.006009 0.000377 0.000000 0.053909 0.000000
# 6 0.000000 0.000000 0.000000 0.083406 0.000000 -0.092581
#
#
# Mechanical properties :
#
#
# Convention : Reuss Voigt Hill
#
# Bulk Modulus (GPa) = 18.81611 25.30019 22.05815
# Shear Modulus (GPa) = -2276.38938 24.71653 -1125.83642
#
# Velocity S-wave (km/s) = -34.25110 3.56899 -24.08734
# Velocity P-wave (km/s) = 39.42698 5.47923 27.60856
#
# Compressibility (1/GPa) = 0.05314594
#
# Stress axis : x y z
#
# Youngs Moduli (GPa) = 37.71671 79.59590 96.70547
#
# Poissons Ratio (x) = 0.03295 -0.36107
# Poissons Ratio (y) = 0.01561 0.14076
# Poissons Ratio (z) = -0.14082 0.11586
#
# Static dielectric constant tensor:
#      x y z
#    x 1.743970 0.000000 0.058300 
#    y 0.000000 1.654430 0.000000 
#    z 0.058300 0.000000 1.797910 
# 
# From -- ./inp_files/80224.got.cif
#   From: 2010.05.17/outbox.cif.g08.bks.cpg/sg10_41_cif.got.tgz:80224.got - 2010.06.03 11:33:40.
