data_PCOD9154859
_publ_section_title
;
Structure prediction by ZEFSAII (Michael W. Deem and Ramdas Pophale) SiO2 
 PCOD9154859
Probable space group: P 2/M
;
_chemical_formula_sum "Si O2"
_cell_formula_units_Z 32
_cell_length_a 15.698272
_cell_length_b 9.331104
_cell_length_c 15.698269
_cell_angle_alpha 90.000000
_cell_angle_beta 55.474703
_cell_angle_gamma 90.000000
_cell_volume 1894.517034
_symmetry_space_group_name_H-M "P 2/M"
_symmetry_group_IT_number 10
_symmetry_cell_setting 'monoclinic'
loop_
_space_group_symop_operation_xyz
x,y,z
-x,y,-z
-x,-y,-z
x,-y,z
loop_
_atom_site_type_symbol
_atom_site_label
_atom_site_fract_x
_atom_site_fract_y
_atom_site_fract_z
Si Si1 0.357993 0.329574 0.412551
Si Si2 0.323749 0.834012 0.605762
Si Si3 0.087449 0.670426 0.142008
Si Si4 0.435455 0.169273 0.721503
Si Si5 0.894237 0.165988 0.176252
Si Si6 0.163956 0.168418 0.450509
Si Si7 0.049491 0.831582 0.336044
Si Si8 0.778497 0.830727 0.064545
O O1 0.358632 0.500000 0.410665
O O2 0.345775 0.269984 0.515660
O O3 0.465079 0.264256 0.317708
O O4 0.261208 0.265597 0.416053
O O5 0.395989 0.807856 0.646793
O O6 0.206159 0.820771 0.706159
O O7 0.339289 0.000000 0.569960
O O8 0.089335 0.500000 0.141368
O O9 0.083948 0.734403 0.238792
O O10 0.984340 0.730016 0.154226
O O11 0.182291 0.735744 0.034921
O O12 0.337217 0.200205 0.837217
O O13 0.459547 0.000000 0.715758
O O14 0.853207 0.192143 0.104011
O O15 0.930040 0.000000 0.160712
O O16 0.118913 0.187553 0.381087
O O17 0.068498 0.198996 0.568498
O O18 0.190540 0.000000 0.445984
O O19 0.054016 0.000000 0.309460
O O20 0.784242 0.000000 0.040452
#
# Coordination Sequence:
#
# PCOD9154859 Si02
#       8
#     4   4   4   4   4   4   4   4
#     4  12  23  31  47  77 109 138 164 198 253 312
#     4   9  18  33  52  73  99 134 176 216 248 285
#     4  12  23  31  47  77 109 138 164 198 253 312
#     4   9  19  36  55  72  94 132 180 221 251 283
#     4   9  18  33  52  73  99 134 176 216 248 285
#     4   9  19  37  59  79  99 128 168 210 248 290
#     4   9  19  37  59  79  99 128 168 210 248 290
#     4   9  19  36  55  72  94 132 180 221 251 283
#
# _framework density 16.89085
#
# number of rings (size 3 to 8) (size 9 to 14) (size 15 to 20)
#    0.000    2.250    0.000    6.000    0.000    9.000 
#    0.000    3.750    0.000    0.750    0.000    5.250 
#    0.000    0.000    0.000    0.000    0.000    0.000 
#
# Total GULP energy -178731.936354 kJ/mol
# GULP energy per Si atom -5585.373011 kJ/mol
# Density = 1.685241 g / cm^3
# Si number density = 16.890850 Si / 1000 Ang^3
#
#
#
# Elastic Constant Matrix: (Units=GPa)
#
#
# Indices 1 2 3 4 5 6 
#
# 1 86.5268 74.1186 47.2883 0.0000 -17.2879 0.0000
# 2 74.1186 119.4191 82.5264 0.0000 -7.2810 0.0000
# 3 47.2883 82.5264 105.7845 0.0000 0.6102 0.0000
# 4 0.0000 0.0000 0.0000 -45.0932 0.0000 -2.8162
# 5 -17.2879 -7.2810 0.6102 0.0000 14.0999 0.0000
# 6 0.0000 0.0000 0.0000 -2.8162 0.0000 -48.3445
#
#
#
# Elastic Compliance Matrix: (Units=1/GPa)
#
#
# Indices 1 2 3 4 5 6 
#
# 1 0.035031 -0.019019 -0.001013 0.000000 0.033174 0.000000
# 2 -0.019019 0.030023 -0.014879 0.000000 -0.007172 0.000000
# 3 -0.001013 -0.014879 0.021571 0.000000 -0.009859 0.000000
# 4 0.000000 0.000000 0.000000 -0.022257 0.000000 0.001297
# 5 0.033174 -0.007172 -0.009859 0.000000 0.108321 0.000000
# 6 0.000000 0.000000 0.000000 0.001297 0.000000 -0.020760
#
#
# Mechanical properties :
#
#
# Convention : Reuss Voigt Hill
#
# Bulk Modulus (GPa) = 59.51757 79.95522 69.73640
# Shear Modulus (GPa) = 21.99239 -8.68108 6.65566
#
# Velocity S-wave (km/s) = 3.61228 -2.26951 1.98720
# Velocity P-wave (km/s) = 7.26024 6.36958 6.82945
#
# Compressibility (1/GPa) = 0.01680176
#
# Stress axis : x y z
#
# Youngs Moduli (GPa) = 28.54623 33.30750 46.35943
#
# Poissons Ratio (x) = 0.63348 0.04698
# Poissons Ratio (y) = 0.54293 0.68977
# Poissons Ratio (z) = 0.02893 0.49558
#
# Static dielectric constant tensor:
#      x y z
#    x 1.565400 0.000000 -0.007700 
#    y 0.000000 1.545930 0.000000 
#    z -0.007700 0.000000 1.574300 
# 
# From -- ./inp_files/66482.got.cif
#   From: 2010.05.17/outbox.cif.g08.bks.cpg/sg10_34_cif.got.tgz:66482.got - 2010.06.03 11:33:40.
