data_PCOD9154194
_publ_section_title
;
Structure prediction by ZEFSAII (Michael W. Deem and Ramdas Pophale) SiO2 
 PCOD9154194
Probable space group: P 2/M
;
_chemical_formula_sum "Si O2"
_cell_formula_units_Z 19
_cell_length_a 4.951617
_cell_length_b 16.981460
_cell_length_c 9.882138
_cell_angle_alpha 90.000000
_cell_angle_beta 106.539907
_cell_angle_gamma 90.000000
_cell_volume 796.563192
_symmetry_space_group_name_H-M "P 2/M"
_symmetry_group_IT_number 10
_symmetry_cell_setting 'monoclinic'
loop_
_space_group_symop_operation_xyz
x,y,z
-x,y,-z
-x,-y,-z
x,-y,z
loop_
_atom_site_type_symbol
_atom_site_label
_atom_site_fract_x
_atom_site_fract_y
_atom_site_fract_z
Si Si1 0.923876 0.675489 0.840334
Si Si2 0.718670 0.088775 0.369300
Si Si3 0.181747 0.150945 0.905692
Si Si4 0.500000 0.500000 0.500000
Si Si5 0.693623 0.352048 0.350304
Si Si6 0.500000 0.781564 0.500000
O O1 0.037529 0.764892 0.854583
O O2 0.071452 0.636899 0.731114
O O3 0.592084 0.670455 0.770818
O O4 0.000000 0.642844 0.000000
O O5 0.802686 0.101106 0.227220
O O6 0.486468 0.153982 0.377226
O O7 0.000000 0.102213 0.500000
O O8 0.618544 0.000000 0.376522
O O9 0.500000 0.165427 0.000000
O O10 0.000000 0.113512 0.000000
O O11 0.642122 0.430974 0.424872
O O12 0.714708 0.280676 0.462875
#
# Coordination Sequence:
#
# PCOD9154194 Si02
#       6
#     4   4   4   1   4   2
#     4  11  22  41  70 101 129 175 223 276 326 408
#     4  11  25  42  65  98 138 181 235 292 345 406
#     4  11  24  43  70 100 139 180 235 286 342 414
#     4  10  28  46  68 102 142 174 218 280 338 402
#     4  11  24  43  70  98 135 172 223 274 341 399
#     4  11  23  39  67  92 126 180 225 281 333 409
#
# _framework density 23.852473
#
# number of rings (size 3 to 8) (size 9 to 14) (size 15 to 20)
#    0.000    1.053    2.105    4.737    2.947    5.053 
#    0.000    3.158    0.000    0.000    0.000    0.000 
#    0.000    0.000    0.000    0.000    0.000    0.000 
#
# Total GULP energy -106000.697317 kJ/mol
# GULP energy per Si atom -5578.984069 kJ/mol
# Density = 2.379818 g / cm^3
# Si number density = 23.852473 Si / 1000 Ang^3
#
#
#
# Elastic Constant Matrix: (Units=GPa)
#
#
# Indices 1 2 3 4 5 6 
#
# 1 98.9482 -0.1497 52.0851 0.0000 3.5772 0.0000
# 2 -0.1497 161.3176 46.1021 0.0000 -14.7180 0.0000
# 3 52.0851 46.1021 154.6548 0.0000 -32.4403 0.0000
# 4 0.0000 0.0000 0.0000 4.1825 0.0000 -15.9098
# 5 3.5772 -14.7180 -32.4403 0.0000 68.4567 0.0000
# 6 0.0000 0.0000 0.0000 -15.9098 0.0000 7.5267
#
#
#
# Elastic Compliance Matrix: (Units=1/GPa)
#
#
# Indices 1 2 3 4 5 6 
#
# 1 0.013060 0.001286 -0.005404 0.000000 -0.002967 0.000000
# 2 0.001286 0.006922 -0.002441 0.000000 0.000264 0.000000
# 3 -0.005404 -0.002441 0.009952 0.000000 0.004474 0.000000
# 4 0.000000 0.000000 0.000000 -0.033959 0.000000 -0.071782
# 5 -0.002967 0.000264 0.004474 0.000000 0.016940 0.000000
# 6 0.000000 0.000000 0.000000 -0.071782 0.000000 -0.018871
#
#
# Mechanical properties :
#
#
# Convention : Reuss Voigt Hill
#
# Bulk Modulus (GPa) = 59.46866 67.88839 63.67852
# Shear Modulus (GPa) = 391.61190 37.15872 214.38531
#
# Velocity S-wave (km/s) = 12.82721 3.95125 9.49078
# Velocity P-wave (km/s) = 15.63231 7.02425 12.11836
#
# Compressibility (1/GPa) = 0.01681558
#
# Stress axis : x y z
#
# Youngs Moduli (GPa) = 76.56890 144.46996 100.48170
#
# Poissons Ratio (x) = -0.18576 0.54301
# Poissons Ratio (y) = -0.09845 0.24528
# Poissons Ratio (z) = 0.41378 0.35265
#
# Static dielectric constant tensor:
#      x y z
#    x 1.971200 0.000000 0.040170 
#    y 0.000000 1.826090 0.000000 
#    z 0.040170 0.000000 1.962790 
# 
# From -- ./inp_files/14821.got.cif
#   From: 2010.05.17/outbox.cif.g08.bks.cpg/sg10_8_cif.got.tgz:14821.got - 2010.06.03 11:33:40.
