data_PCOD9154291
_publ_section_title
;
Structure prediction by ZEFSAII (Michael W. Deem and Ramdas Pophale) SiO2 
 PCOD9154291
Probable space group: P 2/M
;
_chemical_formula_sum "Si O2"
_cell_formula_units_Z 16
_cell_length_a 13.542913
_cell_length_b 16.321234
_cell_length_c 10.998812
_cell_angle_alpha 90.000000
_cell_angle_beta 20.189847
_cell_angle_gamma 90.000000
_cell_volume 839.065661
_symmetry_space_group_name_H-M "P 2/M"
_symmetry_group_IT_number 10
_symmetry_cell_setting 'monoclinic'
loop_
_space_group_symop_operation_xyz
x,y,z
-x,y,-z
-x,-y,-z
x,-y,z
loop_
_atom_site_type_symbol
_atom_site_label
_atom_site_fract_x
_atom_site_fract_y
_atom_site_fract_z
Si Si1 0.175541 0.409214 0.918546
Si Si2 0.337740 0.756249 0.818849
Si Si3 0.238391 0.855184 0.520119
Si Si4 0.473759 0.000000 0.389883
Si Si5 0.917318 0.000000 0.455670
O O1 0.500000 0.418645 0.500000
O O2 0.072695 0.500000 0.077324
O O3 0.197402 0.334589 0.987324
O O4 0.000000 0.384891 0.000000
O O5 0.500000 0.759418 0.500000
O O6 0.540380 0.782973 0.697196
O O7 0.075330 0.818322 0.117308
O O8 0.251640 0.917222 0.388963
O O9 0.298184 0.920361 0.555832
O O10 0.500000 0.000000 0.500000
O O11 0.781509 0.000000 0.966872
O O12 0.000000 0.000000 0.500000
#
# Coordination Sequence:
#
# PCOD9154291 Si02
#       5
#     4   4   4   2   2
#     4   9  17  29  46  72 110 155 187 217 272 343
#     4  11  20  32  52  80 114 145 187 233 279 333
#     4  11  23  36  54  78 106 146 188 234 281 333
#     4  11  24  38  58  83 112 145 185 237 282 344
#     4  11  26  44  59  78 112 155 193 241 292 340
#
# _framework density 19.068828
#
# number of rings (size 3 to 8) (size 9 to 14) (size 15 to 20)
#    0.000    1.500    2.500    4.500    3.500    3.000 
#    0.000    1.875    0.000    0.000    0.000    0.000 
#    0.000    6.000    0.000    0.000    0.000    0.000 
#
# Total GULP energy -89164.809992 kJ/mol
# GULP energy per Si atom -5572.800624 kJ/mol
# Density = 1.902543 g / cm^3
# Si number density = 19.068828 Si / 1000 Ang^3
#
#
#
# Elastic Constant Matrix: (Units=GPa)
#
#
# Indices 1 2 3 4 5 6 
#
# 1 144.6015 47.1232 33.2707 0.0000 -14.4833 0.0000
# 2 47.1232 140.5304 10.4932 0.0000 -2.2793 0.0000
# 3 33.2707 10.4932 66.8691 0.0000 -17.0735 0.0000
# 4 0.0000 0.0000 0.0000 33.5532 0.0000 -8.0369
# 5 -14.4833 -2.2793 -17.0735 0.0000 33.5307 0.0000
# 6 0.0000 0.0000 0.0000 -8.0369 0.0000 33.7390
#
#
#
# Elastic Compliance Matrix: (Units=1/GPa)
#
#
# Indices 1 2 3 4 5 6 
#
# 1 0.008762 -0.002649 -0.003475 0.000000 0.001835 0.000000
# 2 -0.002649 0.008001 -0.000104 0.000000 -0.000653 0.000000
# 3 -0.003475 -0.000104 0.018753 0.000000 0.008041 0.000000
# 4 0.000000 0.000000 0.000000 0.031607 0.000000 0.007529
# 5 0.001835 -0.000653 0.008041 0.000000 0.034666 0.000000
# 6 0.000000 0.000000 0.000000 0.007529 0.000000 0.031433
#
#
# Mechanical properties :
#
#
# Convention : Reuss Voigt Hill
#
# Bulk Modulus (GPa) = 43.36681 59.30837 51.33759
# Shear Modulus (GPa) = 32.60171 37.57218 35.08694
#
# Velocity S-wave (km/s) = 4.13932 4.44367 4.29419
# Velocity P-wave (km/s) = 6.75551 7.58275 7.18105
#
# Compressibility (1/GPa) = 0.02305911
#
# Stress axis : x y z
#
# Youngs Moduli (GPa) = 114.12601 124.97895 53.32430
#
# Poissons Ratio (x) = 0.33106 0.18533
# Poissons Ratio (y) = 0.30231 0.00557
# Poissons Ratio (z) = 0.39664 0.01306
#
# Static dielectric constant tensor:
#      x y z
#    x 1.854900 0.000000 0.013780 
#    y 0.000000 1.749830 0.000000 
#    z 0.013780 0.000000 1.680410 
# 
# From -- ./inp_files/51766.got.cif
#   From: 2010.05.17/outbox.cif.g08.bks.cpg/sg10_26_cif.got.tgz:51766.got - 2010.06.03 11:33:40.
