data_PCOD9154326
_publ_section_title
;
Structure prediction by ZEFSAII (Michael W. Deem and Ramdas Pophale) SiO2 
 PCOD9154326
Probable space group: P 2/M
;
_chemical_formula_sum "Si O2"
_cell_formula_units_Z 24
_cell_length_a 9.289244
_cell_length_b 19.518551
_cell_length_c 9.826338
_cell_angle_alpha 90.000000
_cell_angle_beta 48.414309
_cell_angle_gamma 90.000000
_cell_volume 1332.601403
_symmetry_space_group_name_H-M "P 2/M"
_symmetry_group_IT_number 10
_symmetry_cell_setting 'monoclinic'
loop_
_space_group_symop_operation_xyz
x,y,z
-x,y,-z
-x,-y,-z
x,-y,z
loop_
_atom_site_type_symbol
_atom_site_label
_atom_site_fract_x
_atom_site_fract_y
_atom_site_fract_z
Si Si1 0.760088 0.500000 0.933254
Si Si2 0.491262 0.888096 0.840083
Si Si3 0.794758 0.000000 0.689112
Si Si4 0.647271 0.500000 0.685027
Si Si5 0.469737 0.268193 0.857155
Si Si6 0.181939 0.355333 0.488321
Si Si7 0.182295 0.000000 0.992023
Si Si8 0.075008 0.647457 0.103345
O O1 0.704069 0.500000 0.809222
O O2 0.868236 0.571073 0.885883
O O3 0.583294 0.500000 0.152312
O O4 0.479513 0.810074 0.799961
O O5 0.679881 0.934400 0.702510
O O6 0.314163 0.932119 0.891189
O O7 0.500000 0.885589 0.000000
O O8 0.000000 0.000000 0.500000
O O9 0.827676 0.000000 0.833535
O O10 0.733551 0.432470 0.561454
O O11 0.642035 0.310286 0.678977
O O12 0.500000 0.267671 0.000000
O O13 0.263314 0.304846 0.976324
O O14 0.000000 0.354319 0.500000
O O15 0.091014 0.330037 0.687136
O O16 0.000000 0.000000 0.000000
O O17 0.000000 0.642925 0.000000
#
# Coordination Sequence:
#
# PCOD9154326 Si02
#       8
#     2   4   2   2   4   4   2   4
#     4  11  20  39  62  84 115 154 190 253 303 338
#     4   8  18  35  58  85 119 152 188 239 282 334
#     4   9  17  35  60  90 116 147 195 237 274 332
#     4  11  20  36  66  87 108 145 210 254 281 342
#     4  11  21  40  62  88 119 154 202 245 287 352
#     4  12  22  38  64  89 110 155 205 245 292 352
#     4   9  17  35  62  86 116 157 189 223 288 345
#     4  12  26  41  59  86 123 155 193 247 308 353
#
# _framework density 18.009885000000001
#
# number of rings (size 3 to 8) (size 9 to 14) (size 15 to 20)
#    0.000    1.500    5.000    2.000    0.000    2.000 
#    3.000    2.500    3.667    0.000    0.000    0.000 
#    0.000    0.000    0.000    0.000    0.000    0.000 
#
# Total GULP energy -133662.003746 kJ/mol
# GULP energy per Si atom -5569.250156 kJ/mol
# Density = 1.796889 g / cm^3
# Si number density = 18.009885 Si / 1000 Ang^3
#
#
#
# Elastic Constant Matrix: (Units=GPa)
#
#
# Indices 1 2 3 4 5 6 
#
# 1 62.5129 35.3588 18.6278 0.0000 -12.7161 0.0000
# 2 35.3588 158.8779 48.1209 0.0000 -29.8356 0.0000
# 3 18.6278 48.1209 121.6310 0.0000 -30.0151 0.0000
# 4 0.0000 0.0000 0.0000 9.3215 0.0000 15.9215
# 5 -12.7161 -29.8356 -30.0151 0.0000 30.2193 0.0000
# 6 0.0000 0.0000 0.0000 15.9215 0.0000 21.6045
#
#
#
# Elastic Compliance Matrix: (Units=1/GPa)
#
#
# Indices 1 2 3 4 5 6 
#
# 1 0.018847 -0.003238 -0.000579 0.000000 0.004158 0.000000
# 2 -0.003238 0.008512 -0.001502 0.000000 0.005549 0.000000
# 3 -0.000579 -0.001502 0.011231 0.000000 0.009429 0.000000
# 4 0.000000 0.000000 0.000000 -0.414608 0.000000 0.305548
# 5 0.004158 0.005549 0.009429 0.000000 0.049685 0.000000
# 6 0.000000 0.000000 0.000000 0.305548 0.000000 -0.178888
#
#
# Mechanical properties :
#
#
# Convention : Reuss Voigt Hill
#
# Bulk Modulus (GPa) = 35.77695 60.80409 48.29052
# Shear Modulus (GPa) = -10.30363 28.29000 8.99319
#
# Velocity S-wave (km/s) = -2.39448 3.96764 2.23703
# Velocity P-wave (km/s) = 3.50194 7.40434 5.79172
#
# Compressibility (1/GPa) = 0.02795095
#
# Stress axis : x y z
#
# Youngs Moduli (GPa) = 53.05973 117.48310 89.03664
#
# Poissons Ratio (x) = 0.38042 0.05156
# Poissons Ratio (y) = 0.17181 0.13376
# Poissons Ratio (z) = 0.03073 0.17649
#
# Static dielectric constant tensor:
#      x y z
#    x 1.601570 0.000000 0.011060 
#    y 0.000000 1.959110 0.000000 
#    z 0.011060 0.000000 1.621090 
# 
# From -- ./inp_files/20177.got.cif
#   From: 2010.05.17/outbox.cif.g08.bks.cpg/sg10_11_cif.got.tgz:20177.got - 2010.06.03 11:33:40.
