data_PCOD9154451
_publ_section_title
;
Structure prediction by ZEFSAII (Michael W. Deem and Ramdas Pophale) SiO2 
 PCOD9154451
Probable space group: P 2/M
;
_chemical_formula_sum "Si O2"
_cell_formula_units_Z 32
_cell_length_a 29.509285
_cell_length_b 8.039822
_cell_length_c 12.305495
_cell_angle_alpha 90.000000
_cell_angle_beta 30.118966
_cell_angle_gamma 90.000000
_cell_volume 1464.982202
_symmetry_space_group_name_H-M "P 2/M"
_symmetry_group_IT_number 10
_symmetry_cell_setting 'monoclinic'
loop_
_space_group_symop_operation_xyz
x,y,z
-x,y,-z
-x,-y,-z
x,-y,z
loop_
_atom_site_type_symbol
_atom_site_label
_atom_site_fract_x
_atom_site_fract_y
_atom_site_fract_z
Si Si1 0.012076 0.805651 0.598526
Si Si2 0.336570 0.193518 0.899131
Si Si3 0.790396 0.703300 0.434555
Si Si4 0.146601 0.693139 0.923166
Si Si5 0.817157 0.694025 0.624029
Si Si6 0.509987 0.306182 0.274206
Si Si7 0.689707 0.193284 0.285703
Si Si8 0.412542 0.702204 0.115393
O O1 0.090267 0.714722 0.503027
O O2 0.000000 0.743597 0.500000
O O3 0.037655 0.000000 0.538307
O O4 0.920471 0.786148 0.856736
O O5 0.260022 0.213915 0.148338
O O6 0.358657 0.000000 0.837989
O O7 0.427067 0.281225 0.752239
O O8 0.299995 0.256359 0.859480
O O9 0.790999 0.500000 0.428629
O O10 0.847957 0.759134 0.211452
O O11 0.824092 0.751434 0.484582
O O12 0.685790 0.759165 0.642189
O O13 0.118623 0.500000 0.979112
O O14 0.247188 0.707648 0.763282
O O15 0.790043 0.500000 0.676829
O O16 0.487276 0.500000 0.308638
O O17 0.416276 0.209834 0.470435
O O18 0.569752 0.254458 0.046548
O O19 0.716989 0.000000 0.234679
O O20 0.411018 0.500000 0.126143
O O21 0.500000 0.761064 0.000000
#
# Coordination Sequence:
#
# PCOD9154451 Si02
#       8
#     4   4   4   4   4   4   4   4
#     4  11  25  45  66  91 127 164 197 245 312 371
#     4  11  23  39  58  84 124 167 202 248 314 371
#     4   9  19  37  60  91 126 157 196 252 314 357
#     4  11  23  41  67  94 120 156 204 253 300 361
#     4  11  22  40  67  94 122 158 206 257 301 363
#     4  11  21  35  59  88 117 158 212 259 299 360
#     4  11  24  40  57  83 125 168 202 250 315 369
#     4   9  16  30  55  84 117 157 200 247 299 352
#
# _framework density 21.843267000000001
#
# number of rings (size 3 to 8) (size 9 to 14) (size 15 to 20)
#    0.000    1.500    1.250    4.125    0.000   10.000 
#    0.000    5.000    0.000    1.500    0.000    0.000 
#    0.000    0.000    0.000    0.000    0.000    0.000 
#
# Total GULP energy -178924.691004 kJ/mol
# GULP energy per Si atom -5591.396594 kJ/mol
# Density = 2.179355 g / cm^3
# Si number density = 21.843267 Si / 1000 Ang^3
#
#
#
# Elastic Constant Matrix: (Units=GPa)
#
#
# Indices 1 2 3 4 5 6 
#
# 1 82.6776 -10.0214 36.0735 0.0000 5.7927 0.0000
# 2 -10.0214 17.7214 -5.2376 0.0000 1.4722 0.0000
# 3 36.0735 -5.2376 102.1948 0.0000 17.0226 0.0000
# 4 0.0000 0.0000 0.0000 26.7750 0.0000 -4.2427
# 5 5.7927 1.4722 17.0226 0.0000 37.2641 0.0000
# 6 0.0000 0.0000 0.0000 -4.2427 0.0000 35.2462
#
#
#
# Elastic Compliance Matrix: (Units=1/GPa)
#
#
# Indices 1 2 3 4 5 6 
#
# 1 0.015130 0.007137 -0.004910 0.000000 -0.000391 0.000000
# 2 0.007137 0.061193 0.001304 0.000000 -0.004123 0.000000
# 3 -0.004910 0.001304 0.012411 0.000000 -0.004958 0.000000
# 4 0.000000 0.000000 0.000000 0.038075 0.000000 0.004583
# 5 -0.000391 -0.004123 -0.004958 0.000000 0.029324 0.000000
# 6 0.000000 0.000000 0.000000 0.004583 0.000000 0.028924
#
#
# Mechanical properties :
#
#
# Convention : Reuss Voigt Hill
#
# Bulk Modulus (GPa) = 10.43886 27.13587 18.78737
# Shear Modulus (GPa) = 23.81799 31.97569 27.89684
#
# Velocity S-wave (km/s) = 3.30571 3.83021 3.57758
# Velocity P-wave (km/s) = 4.39996 5.65779 5.06805
#
# Compressibility (1/GPa) = 0.09579587
#
# Stress axis : x y z
#
# Youngs Moduli (GPa) = 66.09440 16.34178 80.57417
#
# Poissons Ratio (x) = -0.11664 0.39560
# Poissons Ratio (y) = -0.47174 -0.10503
# Poissons Ratio (z) = 0.32451 -0.02130
#
# Static dielectric constant tensor:
#      x y z
#    x 1.800750 0.000000 0.025690 
#    y 0.000000 1.760720 0.000000 
#    z 0.025690 0.000000 1.775950 
# 
# From -- ./inp_files/49953.got.cif
#   From: 2010.05.17/outbox.cif.g08.bks.cpg/sg10_25_cif.got.tgz:49953.got - 2010.06.03 11:33:40.
