data_PCOD9154093
_publ_section_title
;
Structure prediction by ZEFSAII (Michael W. Deem and Ramdas Pophale) SiO2 
 PCOD9154093
Probable space group: P 2/M
;
_chemical_formula_sum "Si O2"
_cell_formula_units_Z 16
_cell_length_a 10.428557
_cell_length_b 13.901235
_cell_length_c 5.713292
_cell_angle_alpha 90.000000
_cell_angle_beta 107.148412
_cell_angle_gamma 90.000000
_cell_volume 791.434207
_symmetry_space_group_name_H-M "P 2/M"
_symmetry_group_IT_number 10
_symmetry_cell_setting 'monoclinic'
loop_
_space_group_symop_operation_xyz
x,y,z
-x,y,-z
-x,-y,-z
x,-y,z
loop_
_atom_site_type_symbol
_atom_site_label
_atom_site_fract_x
_atom_site_fract_y
_atom_site_fract_z
Si Si1 0.155106 0.687512 0.632270
Si Si2 0.077685 0.500000 0.798144
Si Si3 0.417322 0.000000 0.208032
Si Si4 0.345730 0.609946 0.328644
Si Si5 0.649847 0.199980 0.979818
O O1 0.149572 0.602632 0.822125
O O2 0.236212 0.635623 0.467671
O O3 0.239654 0.779214 0.762465
O O4 0.000000 0.712485 0.500000
O O5 0.000000 0.500000 0.500000
O O6 0.000000 0.500000 0.000000
O O7 0.500000 0.000000 0.500000
O O8 0.500000 0.000000 0.000000
O O9 0.334919 0.900398 0.148334
O O10 0.500000 0.606938 0.500000
O O11 0.320800 0.500000 0.230604
O O12 0.344272 0.704599 0.170668
O O13 0.500000 0.199135 0.000000
#
# Coordination Sequence:
#
# PCOD9154093 Si02
#       5
#     4   2   2   4   4
#     4  11  25  40  63  99 141 187 231 279 346 420
#     4  10  24  42  60  92 140 192 231 264 325 418
#     4  10  24  46  75 103 131 181 240 291 344 417
#     4  11  23  39  63 100 143 179 229 291 353 412
#     4  11  24  41  69  99 134 182 235 294 346 417
#
# _framework density 20.216463000000001
#
# number of rings (size 3 to 8) (size 9 to 14) (size 15 to 20)
#    0.000    1.250    3.750    0.750   12.250    0.500 
#    0.000    0.625    0.000    1.500    0.000    0.000 
#    0.000    0.000    0.000    0.000    0.000    0.000 
#
# Total GULP energy -89137.894244 kJ/mol
# GULP energy per Si atom -5571.118390 kJ/mol
# Density = 2.017045 g / cm^3
# Si number density = 20.216463 Si / 1000 Ang^3
#
#
#
# Elastic Constant Matrix: (Units=GPa)
#
#
# Indices 1 2 3 4 5 6 
#
# 1 133.6585 45.1545 38.5478 0.0000 12.3258 0.0000
# 2 45.1545 193.2674 65.6549 0.0000 21.3694 0.0000
# 3 38.5478 65.6549 70.3818 0.0000 4.6654 0.0000
# 4 0.0000 0.0000 0.0000 23.5971 0.0000 -2.6227
# 5 12.3258 21.3694 4.6654 0.0000 45.4326 0.0000
# 6 0.0000 0.0000 0.0000 -2.6227 0.0000 13.0945
#
#
#
# Elastic Compliance Matrix: (Units=1/GPa)
#
#
# Indices 1 2 3 4 5 6 
#
# 1 0.009075 -0.000398 -0.004479 0.000000 -0.001815 0.000000
# 2 -0.000398 0.007979 -0.007031 0.000000 -0.002923 0.000000
# 3 -0.004479 -0.007031 0.023078 0.000000 0.002152 0.000000
# 4 0.000000 0.000000 0.000000 0.043343 0.000000 0.008681
# 5 -0.001815 -0.002923 0.002152 0.000000 0.023657 0.000000
# 6 0.000000 0.000000 0.000000 0.008681 0.000000 0.078107
#
#
# Mechanical properties :
#
#
# Convention : Reuss Voigt Hill
#
# Bulk Modulus (GPa) = 61.29163 77.33580 69.31371
# Shear Modulus (GPa) = 23.31076 32.95488 28.13282
#
# Velocity S-wave (km/s) = 3.39935 4.04183 3.73444
# Velocity P-wave (km/s) = 6.76690 7.75363 7.27701
#
# Compressibility (1/GPa) = 0.01631544
#
# Stress axis : x y z
#
# Youngs Moduli (GPa) = 110.18856 125.32920 43.33206
#
# Poissons Ratio (x) = 0.04990 0.19408
# Poissons Ratio (y) = 0.04387 0.30468
# Poissons Ratio (z) = 0.49351 0.88123
#
# Static dielectric constant tensor:
#      x y z
#    x 1.618140 0.000000 0.009370 
#    y 0.000000 1.754430 0.000000 
#    z 0.009370 0.000000 1.921410 
# 
# From -- ./inp_files/6360.got.cif
#   From: 2010.05.17/outbox.cif.g08.bks.cpg/sg10_4_cif.got.tgz:6360.got - 2010.06.03 11:33:40.
