data_PCOD9154800
_publ_section_title
;
Structure prediction by ZEFSAII (Michael W. Deem and Ramdas Pophale) SiO2 
 PCOD9154800
Probable space group: P 2/M
;
_chemical_formula_sum "Si O2"
_cell_formula_units_Z 15
_cell_length_a 6.775393
_cell_length_b 22.260470
_cell_length_c 5.091699
_cell_angle_alpha 90.000000
_cell_angle_beta 107.733973
_cell_angle_gamma 90.000000
_cell_volume 731.455454
_symmetry_space_group_name_H-M "P 2/M"
_symmetry_group_IT_number 10
_symmetry_cell_setting 'monoclinic'
loop_
_space_group_symop_operation_xyz
x,y,z
-x,y,-z
-x,-y,-z
x,-y,z
loop_
_atom_site_type_symbol
_atom_site_label
_atom_site_fract_x
_atom_site_fract_y
_atom_site_fract_z
Si Si1 0.139031 0.778698 0.303047
Si Si2 0.500000 0.399949 0.000000
Si Si3 0.851056 0.500000 0.189598
Si Si4 0.359704 0.099638 0.200221
Si Si5 0.000000 0.000000 0.000000
Si Si6 0.500000 0.684578 0.500000
O O1 0.259792 0.837717 0.253385
O O2 0.301864 0.727715 0.448000
O O3 0.000000 0.793767 0.500000
O O4 0.000000 0.758321 0.000000
O O5 0.301369 0.442694 0.877483
O O6 0.528091 0.357690 0.761358
O O7 0.000000 0.500000 0.500000
O O8 0.000000 0.500000 0.000000
O O9 0.500000 0.077633 0.500000
O O10 0.180626 0.052351 0.067478
O O11 0.500000 0.108757 0.000000
#
# Coordination Sequence:
#
# PCOD9154800 Si02
#       6
#     4   2   2   4   1   2
#     4  12  26  45  71 100 137 186 231 282 351 414
#     4  11  26  44  68 110 136 181 236 280 338 405
#     4  11  24  45  74 100 142 185 226 287 337 395
#     4  12  27  47  72 101 135 178 233 288 351 420
#     4  12  28  46  76 100 138 176 238 292 350 414
#     4  12  26  43  70  99 148 178 232 288 338 412
#
# _framework density 20.507057
#
# number of rings (size 3 to 8) (size 9 to 14) (size 15 to 20)
#    0.000    0.267    2.667    5.600    1.867    9.600 
#    0.000    0.000    0.000    0.000    0.000    0.000 
#    0.000    0.000    0.000    0.000    0.000    0.000 
#
# Total GULP energy -83757.669016 kJ/mol
# GULP energy per Si atom -5583.844601 kJ/mol
# Density = 2.046038 g / cm^3
# Si number density = 20.507057 Si / 1000 Ang^3
#
#
#
# Elastic Constant Matrix: (Units=GPa)
#
#
# Indices 1 2 3 4 5 6 
#
# 1 185.6933 89.8399 89.7406 0.0000 -9.5159 0.0000
# 2 89.8399 168.7376 53.6030 0.0000 -5.7146 0.0000
# 3 89.7406 53.6030 149.2844 0.0000 -20.9100 0.0000
# 4 0.0000 0.0000 0.0000-1858.5190 0.0000 1633.7465
# 5 -9.5159 -5.7146 -20.9100 0.0000 41.8119 0.0000
# 6 0.0000 0.0000 0.0000 1633.7465 0.0000-1401.7177
#
#
#
# Elastic Compliance Matrix: (Units=1/GPa)
#
#
# Indices 1 2 3 4 5 6 
#
# 1 0.009141 -0.003517 -0.004310 0.000000 -0.000556 0.000000
# 2 -0.003517 0.008046 -0.000788 0.000000 -0.000095 0.000000
# 3 -0.004310 -0.000788 0.010130 0.000000 0.003977 0.000000
# 4 0.000000 0.000000 0.000000 0.021899 0.000000 0.025524
# 5 -0.000556 -0.000095 0.003977 0.000000 0.025766 0.000000
# 6 0.000000 0.000000 0.000000 0.025524 0.000000 0.029035
#
#
# Mechanical properties :
#
#
# Convention : Reuss Voigt Hill
#
# Bulk Modulus (GPa) = 99.14229 107.78691 103.46460
# Shear Modulus (GPa) = 40.12525 -625.64952 -292.76214
#
# Velocity S-wave (km/s) = 4.42821 -17.48577 -11.96125
# Velocity P-wave (km/s) = 8.63689 18.84130 11.84058
#
# Compressibility (1/GPa) = 0.01008651
#
# Stress axis : x y z
#
# Youngs Moduli (GPa) = 109.39623 124.28737 98.71836
#
# Poissons Ratio (x) = 0.43706 0.42550
# Poissons Ratio (y) = 0.38469 0.07783
# Poissons Ratio (z) = 0.47152 0.09799
#
# Static dielectric constant tensor:
#      x y z
#    x 1.703720 0.000000 0.022630 
#    y 0.000000 1.667810 0.000000 
#    z 0.022630 0.000000 1.698430 
# 
# From -- ./inp_files/1439.got.cif
#   From: 2010.05.17/outbox.cif.g08.bks.cpg/sg10_1_cif.got.tgz:1439.got - 2010.06.03 11:33:40.
