data_PCOD9154831
_publ_section_title
;
Structure prediction by ZEFSAII (Michael W. Deem and Ramdas Pophale) SiO2 
 PCOD9154831
Probable space group: P 2/M
;
_chemical_formula_sum "Si O2"
_cell_formula_units_Z 13
_cell_length_a 8.742883
_cell_length_b 13.894117
_cell_length_c 4.738129
_cell_angle_alpha 90.000000
_cell_angle_beta 119.062595
_cell_angle_gamma 90.000000
_cell_volume 503.093169
_symmetry_space_group_name_H-M "P 2/M"
_symmetry_group_IT_number 10
_symmetry_cell_setting 'monoclinic'
loop_
_space_group_symop_operation_xyz
x,y,z
-x,y,-z
-x,-y,-z
x,-y,z
loop_
_atom_site_type_symbol
_atom_site_label
_atom_site_fract_x
_atom_site_fract_y
_atom_site_fract_z
Si Si1 0.330007 0.603676 0.544034
Si Si2 0.000000 0.500000 0.000000
Si Si3 0.293289 0.893975 0.364137
Si Si4 0.195425 0.224784 0.771625
O O1 0.500000 0.617639 0.500000
O O2 0.343782 0.500000 0.709026
O O3 0.306195 0.686899 0.749962
O O4 0.151453 0.583322 0.205450
O O5 0.500000 0.892976 0.500000
O O6 0.257878 0.869333 0.655866
O O7 0.224126 0.000000 0.230876
O O8 0.214944 0.806973 0.110360
O O9 0.000000 0.244927 0.500000
#
# Coordination Sequence:
#
# PCOD9154831 Si02
#       4
#     4   1   4   4
#     4   9  21  43  72 108 151 192 244 298 365 432
#     4   8  18  40  78 104 150 198 242 302 358 438
#     4  11  26  49  73 104 144 192 247 305 369 440
#     4  12  26  43  75 108 146 190 245 306 365 437
#
# _framework density 25.840143999999999
#
# number of rings (size 3 to 8) (size 9 to 14) (size 15 to 20)
#    0.923    0.615    0.000    3.692    4.308    6.769 
#    0.000    1.538    0.000   10.154    0.000    0.000 
#    0.000    0.000    0.000    0.000    0.000    0.000 
#
# Total GULP energy -72560.751886 kJ/mol
# GULP energy per Si atom -5581.596299 kJ/mol
# Density = 2.578133 g / cm^3
# Si number density = 25.840144 Si / 1000 Ang^3
#
#
#
# Elastic Constant Matrix: (Units=GPa)
#
#
# Indices 1 2 3 4 5 6 
#
# 1 68.8364 27.3170 29.2938 0.0000 21.9163 0.0000
# 2 27.3170 170.4103 13.8552 0.0000 0.4980 0.0000
# 3 29.2938 13.8552 113.3884 0.0000 33.5116 0.0000
# 4 0.0000 0.0000 0.0000 -301.8271 0.0000 431.3307
# 5 21.9163 0.4980 33.5116 0.0000 52.9151 0.0000
# 6 0.0000 0.0000 0.0000 431.3307 0.0000 -569.7658
#
#
#
# Elastic Compliance Matrix: (Units=1/GPa)
#
#
# Indices 1 2 3 4 5 6 
#
# 1 0.018686 -0.002757 -0.002720 0.000000 -0.005991 0.000000
# 2 -0.002757 0.006344 -0.000471 0.000000 0.001380 0.000000
# 3 -0.002720 -0.000471 0.011374 0.000000 -0.006072 0.000000
# 4 0.000000 0.000000 0.000000 0.040479 0.000000 0.030644
# 5 -0.005991 0.001380 -0.006072 0.000000 0.025212 0.000000
# 6 0.000000 0.000000 0.000000 0.030644 0.000000 0.021444
#
#
# Mechanical properties :
#
#
# Convention : Reuss Voigt Hill
#
# Bulk Modulus (GPa) = 40.80151 54.84079 47.82115
# Shear Modulus (GPa) = 34.81771 -144.92427 -55.05328
#
# Velocity S-wave (km/s) = 3.67471 -7.49711 -4.62078
# Velocity P-wave (km/s) = 5.81627 7.32619 3.14993
#
# Compressibility (1/GPa) = 0.02450890
#
# Stress axis : x y z
#
# Youngs Moduli (GPa) = 53.51569 157.62029 87.91831
#
# Poissons Ratio (x) = 0.43452 0.23915
# Poissons Ratio (y) = 0.14753 0.04141
# Poissons Ratio (z) = 0.14557 0.07424
#
# Static dielectric constant tensor:
#      x y z
#    x 1.968940 0.000000 0.024830 
#    y 0.000000 2.029830 0.000000 
#    z 0.024830 0.000000 2.043130 
# 
# From -- ./inp_files/3509.got.cif
#   From: 2010.05.17/outbox.cif.g08.bks.cpg/sg10_2_cif.got.tgz:3509.got - 2010.06.03 11:33:40.
