data_PCOD9154352
_publ_section_title
;
Structure prediction by ZEFSAII (Michael W. Deem and Ramdas Pophale) SiO2 
 PCOD9154352
Probable space group: P 2/M
;
_chemical_formula_sum "Si O2"
_cell_formula_units_Z 32
_cell_length_a 11.147884
_cell_length_b 14.978947
_cell_length_c 18.090723
_cell_angle_alpha 90.000000
_cell_angle_beta 27.580909
_cell_angle_gamma 90.000000
_cell_volume 1398.657314
_symmetry_space_group_name_H-M "P 2/M"
_symmetry_group_IT_number 10
_symmetry_cell_setting 'monoclinic'
loop_
_space_group_symop_operation_xyz
x,y,z
-x,y,-z
-x,-y,-z
x,-y,z
loop_
_atom_site_type_symbol
_atom_site_label
_atom_site_fract_x
_atom_site_fract_y
_atom_site_fract_z
Si Si1 0.158876 0.236810 0.102962
Si Si2 0.305033 0.871650 0.828746
Si Si3 0.043322 0.747931 0.337257
Si Si4 0.998603 0.603071 0.090976
Si Si5 0.397915 0.897617 0.182181
Si Si6 0.522191 0.319457 0.304252
Si Si7 0.730109 0.404345 0.691805
Si Si8 0.289901 0.098445 0.676917
O O1 0.160000 0.325254 0.051203
O O2 0.927872 0.173111 0.200601
O O3 0.091556 0.258106 0.224030
O O4 0.406079 0.171128 0.965292
O O5 0.478779 0.900050 0.802840
O O6 0.327741 0.765304 0.810746
O O7 0.409306 0.904657 0.693212
O O8 0.000000 0.897421 0.000000
O O9 0.124812 0.845517 0.323731
O O10 0.232274 0.677341 0.274145
O O11 0.751306 0.718561 0.516820
O O12 0.048322 0.500000 0.083510
O O13 0.697973 0.632209 0.268820
O O14 0.000000 0.609449 0.000000
O O15 0.388239 0.000000 0.160214
O O16 0.467133 0.385548 0.266375
O O17 0.682385 0.500000 0.754070
O O18 0.000000 0.408566 0.500000
O O19 0.500000 0.119321 0.500000
O O20 0.178487 0.000000 0.720906
#
# Coordination Sequence:
#
# PCOD9154352 Si02
#       8
#     4   4   4   4   4   4   4   4
#     4  12  25  43  69 100 140 187 227 294 354 421
#     4  12  22  41  73 101 131 178 233 292 346 420
#     4  11  26  42  66  97 142 184 233 284 352 419
#     4  11  25  45  73 106 138 178 230 289 357 424
#     4  12  26  46  72 100 136 190 246 291 344 419
#     4  11  20  42  70  98 139 179 222 291 355 410
#     4   9  19  37  64  93 124 170 222 270 331 409
#     4  11  24  41  65 101 140 178 226 290 359 418
#
# _framework density 22.879086000000001
#
# number of rings (size 3 to 8) (size 9 to 14) (size 15 to 20)
#    0.000    0.875    3.750    3.375    0.000    3.000 
#    0.000    2.500    0.000    1.500    0.000    0.000 
#    0.000    0.000    0.000    0.000    0.000    0.000 
#
# Total GULP energy -178888.974753 kJ/mol
# GULP energy per Si atom -5590.280461 kJ/mol
# Density = 2.282701 g / cm^3
# Si number density = 22.879086 Si / 1000 Ang^3
#
#
#
# Elastic Constant Matrix: (Units=GPa)
#
#
# Indices 1 2 3 4 5 6 
#
# 1 93.8052 23.8305 41.0196 0.0000 5.4398 0.0000
# 2 23.8305 190.4346 31.9473 0.0000 -4.2902 0.0000
# 3 41.0196 31.9473 87.9889 0.0000 -0.2953 0.0000
# 4 0.0000 0.0000 0.0000 13.3168 0.0000 -6.3678
# 5 5.4398 -4.2902 -0.2953 0.0000 37.6990 0.0000
# 6 0.0000 0.0000 0.0000 -6.3678 0.0000 0.1626
#
#
#
# Elastic Compliance Matrix: (Units=1/GPa)
#
#
# Indices 1 2 3 4 5 6 
#
# 1 0.013634 -0.000730 -0.006098 0.000000 -0.002098 0.000000
# 2 -0.000730 0.005645 -0.001707 0.000000 0.000734 0.000000
# 3 -0.006098 -0.001707 0.014830 0.000000 0.000802 0.000000
# 4 0.000000 0.000000 0.000000 -0.004236 0.000000 -0.165898
# 5 -0.002098 0.000734 0.000802 0.000000 0.026919 0.000000
# 6 0.000000 0.000000 0.000000 -0.165898 0.000000 -0.346937
#
#
# Mechanical properties :
#
#
# Convention : Reuss Voigt Hill
#
# Bulk Modulus (GPa) = 58.68700 62.86928 60.77814
# Shear Modulus (GPa) = -18.69896 28.59778 4.94941
#
# Velocity S-wave (km/s) = -2.86194 3.53930 1.47241
# Velocity P-wave (km/s) = 3.84522 6.65138 5.43261
#
# Compressibility (1/GPa) = 0.01703955
#
# Stress axis : x y z
#
# Youngs Moduli (GPa) = 73.34506 177.13457 67.42965
#
# Poissons Ratio (x) = 0.12938 0.41118
# Poissons Ratio (y) = 0.05357 0.11509
# Poissons Ratio (z) = 0.44726 0.30233
#
# Static dielectric constant tensor:
#      x y z
#    x 1.869280 0.000000 -0.070230 
#    y 0.000000 1.876330 0.000000 
#    z -0.070230 0.000000 1.956010 
# 
# From -- ./inp_files/77011.got.cif
#   From: 2010.05.17/outbox.cif.g08.bks.cpg/sg10_39_cif.got.tgz:77011.got - 2010.06.03 11:33:40.
