data_PCOD9154213
_publ_section_title
;
Structure prediction by ZEFSAII (Michael W. Deem and Ramdas Pophale) SiO2 
 PCOD9154213
Probable space group: P 2/M
;
_chemical_formula_sum "Si O2"
_cell_formula_units_Z 32
_cell_length_a 24.497289
_cell_length_b 7.596828
_cell_length_c 21.515170
_cell_angle_alpha 90.000000
_cell_angle_beta 155.943176
_cell_angle_gamma 90.000000
_cell_volume 1632.204315
_symmetry_space_group_name_H-M "P 2/M"
_symmetry_group_IT_number 10
_symmetry_cell_setting 'monoclinic'
loop_
_space_group_symop_operation_xyz
x,y,z
-x,y,-z
-x,-y,-z
x,-y,z
loop_
_atom_site_type_symbol
_atom_site_label
_atom_site_fract_x
_atom_site_fract_y
_atom_site_fract_z
Si Si1 0.906487 0.211821 0.634154
Si Si2 0.644749 0.788030 0.124041
Si Si3 0.442986 0.201895 0.094318
Si Si4 0.726123 0.700539 0.336865
Si Si5 0.274543 0.785490 0.437580
Si Si6 0.033452 0.784883 0.103910
Si Si7 0.853621 0.785247 0.032823
Si Si8 0.435690 0.216264 0.227262
O O1 0.854696 0.268673 0.513309
O O2 0.797667 0.267634 0.573052
O O3 0.049770 0.270256 0.809784
O O4 0.907391 0.000000 0.634833
O O5 0.745107 0.739268 0.283593
O O6 0.643329 0.000000 0.119428
O O7 0.500000 0.730096 0.000000
O O8 0.645888 0.721078 0.054465
O O9 0.597172 0.197637 0.230426
O O10 0.437707 0.278208 0.157635
O O11 0.397997 0.000000 0.054842
O O12 0.684989 0.500000 0.300201
O O13 0.177885 0.729776 0.281073
O O14 0.427482 0.726654 0.597398
O O15 0.274215 0.000000 0.437089
O O16 0.924808 0.731006 0.042812
O O17 0.033054 0.000000 0.102610
O O18 0.000000 0.724245 0.000000
O O19 0.853871 0.000000 0.033195
O O20 0.701929 0.727541 0.884063
O O21 0.438250 0.000000 0.229646
#
# Coordination Sequence:
#
# PCOD9154213 Si02
#       8
#     4   4   4   4   4   4   4   4
#     4   9  15  27  43  59  81 112 146 178 219 260
#     4   8  15  26  39  57  81 111 144 175 218 265
#     4   9  16  27  43  60  83 115 143 177 222 262
#     4  11  19  25  39  63  87 109 141 183 221 255
#     4   8  13  21  38  58  78 109 144 177 212 247
#     4   8  13  22  34  53  87 125 149 166 203 259
#     4   8  15  24  39  62  83 108 145 183 213 250
#     4   9  14  23  40  62  82 102 142 190 219 244
#
# _framework density 19.605388000000001
#
# number of rings (size 3 to 8) (size 9 to 14) (size 15 to 20)
#    0.000    3.250    1.250    3.375    0.000    2.250 
#    0.000    0.625    0.000    5.250    0.000    5.250 
#    0.000    8.000    0.000    4.500    0.000    5.000 
#
# Total GULP energy -178231.525760 kJ/mol
# GULP energy per Si atom -5569.735180 kJ/mol
# Density = 1.956076 g / cm^3
# Si number density = 19.605388 Si / 1000 Ang^3
#
#
#
# Elastic Constant Matrix: (Units=GPa)
#
#
# Indices 1 2 3 4 5 6 
#
# 1 103.3035 3.5173 97.3863 0.0000 -29.3286 0.0000
# 2 3.5173 42.2008 6.0140 0.0000 -2.8733 0.0000
# 3 97.3863 6.0140 176.7523 0.0000 -20.9183 0.0000
# 4 0.0000 0.0000 0.0000 -23.3455 0.0000 10.8096
# 5 -29.3286 -2.8733 -20.9183 0.0000 38.4200 0.0000
# 6 0.0000 0.0000 0.0000 10.8096 0.0000 -20.3565
#
#
#
# Elastic Compliance Matrix: (Units=1/GPa)
#
#
# Indices 1 2 3 4 5 6 
#
# 1 0.024504 0.000507 -0.012078 0.000000 0.012167 0.000000
# 2 0.000507 0.023896 -0.000893 0.000000 0.001688 0.000000
# 3 -0.012078 -0.000893 0.012018 0.000000 -0.002743 0.000000
# 4 0.000000 0.000000 0.000000 -0.056801 0.000000 -0.030162
# 5 0.012167 0.001688 -0.002743 0.000000 0.033949 0.000000
# 6 0.000000 0.000000 0.000000 -0.030162 0.000000 -0.065141
#
#
# Mechanical properties :
#
#
# Convention : Reuss Voigt Hill
#
# Bulk Modulus (GPa) = 28.17651 59.56579 43.87115
# Shear Modulus (GPa) = 544.52245 13.29954 278.91099
#
# Velocity S-wave (km/s) = 16.68365 2.60736 11.94032
# Velocity P-wave (km/s) = 19.63488 6.28592 14.57809
#
# Compressibility (1/GPa) = 0.03549055
#
# Stress axis : x y z
#
# Youngs Moduli (GPa) = 40.81018 41.84781 83.20735
#
# Poissons Ratio (x) = -0.02123 1.00500
# Poissons Ratio (y) = -0.02071 0.07429
# Poissons Ratio (z) = 0.49292 0.03736
#
# Static dielectric constant tensor:
#      x y z
#    x 1.674300 0.000000 -0.033190 
#    y 0.000000 1.711340 0.000000 
#    z -0.033190 0.000000 1.698440 
# 
# From -- ./inp_files/91223.got.cif
#   From: 2010.05.17/outbox.cif.g08.bks.cpg/sg10_46_cif.got.tgz:91223.got - 2010.06.03 11:33:40.
