data_PCOD9154567
_publ_section_title
;
Structure prediction by ZEFSAII (Michael W. Deem and Ramdas Pophale) SiO2 
 PCOD9154567
Probable space group: P 2/M
;
_chemical_formula_sum "Si O2"
_cell_formula_units_Z 32
_cell_length_a 21.330692
_cell_length_b 14.519432
_cell_length_c 15.776996
_cell_angle_alpha 90.000000
_cell_angle_beta 19.306526
_cell_angle_gamma 90.000000
_cell_volume 1615.513127
_symmetry_space_group_name_H-M "P 2/M"
_symmetry_group_IT_number 10
_symmetry_cell_setting 'monoclinic'
loop_
_space_group_symop_operation_xyz
x,y,z
-x,y,-z
-x,-y,-z
x,-y,z
loop_
_atom_site_type_symbol
_atom_site_label
_atom_site_fract_x
_atom_site_fract_y
_atom_site_fract_z
Si Si1 0.113321 0.215391 0.081636
Si Si2 0.477075 0.395417 0.240607
Si Si3 0.697688 0.893792 0.302304
Si Si4 0.316041 0.387924 0.183946
Si Si5 0.583924 0.108459 0.026505
Si Si6 0.912414 0.604586 0.369919
Si Si7 0.804802 0.891544 0.584775
Si Si8 0.496796 0.215393 0.698149
O O1 0.039247 0.318852 0.164570
O O2 0.965706 0.162973 0.330600
O O3 0.148620 0.159188 0.950582
O O4 0.312050 0.219676 0.875909
O O5 0.509977 0.500000 0.228551
O O6 0.290172 0.397413 0.419657
O O7 0.446841 0.318849 0.349360
O O8 0.650216 0.365685 0.957143
O O9 0.500000 0.894201 0.500000
O O10 0.652991 0.840820 0.446202
O O11 0.749663 0.000000 0.250333
O O12 0.326246 0.500000 0.173739
O O13 0.135090 0.365697 0.472251
O O14 0.500000 0.350766 0.000000
O O15 0.747185 0.140857 0.752822
O O16 0.616900 0.000000 0.001651
O O17 0.386886 0.115696 0.226218
O O18 0.558270 0.162965 0.145440
O O19 0.987009 0.500000 0.274473
O O20 0.854010 0.000000 0.527458
#
# Coordination Sequence:
#
# PCOD9154567 Si02
#       8
#     4   4   4   4   4   4   4   4
#     4  11  22  35  56  83 110 142 185 233 281 327
#     4   9  18  34  55  79 110 149 189 225 267 325
#     4   9  20  40  60  77 104 146 189 227 274 333
#     4   7  12  26  49  73  98 137 182 213 247 306
#     4   9  19  36  56  79 110 146 180 218 272 338
#     4   9  18  34  55  79 110 149 189 225 267 325
#     4   9  19  36  56  79 110 146 180 218 272 338
#     4  11  22  35  56  83 110 142 185 233 281 327
#
# _framework density 19.807948
#
# number of rings (size 3 to 8) (size 9 to 14) (size 15 to 20)
#    0.000    2.750    0.000    3.750    1.750    2.500 
#    0.000    4.375    0.000   10.500    0.000    0.000 
#    0.000    0.000    0.000    0.000    0.000    0.000 
#
# Total GULP energy -178531.784213 kJ/mol
# GULP energy per Si atom -5579.118257 kJ/mol
# Density = 1.976286 g / cm^3
# Si number density = 19.807948 Si / 1000 Ang^3
#
#
#
# Elastic Constant Matrix: (Units=GPa)
#
#
# Indices 1 2 3 4 5 6 
#
# 1 51.0344 47.9574 20.0176 0.0000 30.3729 0.0000
# 2 47.9574 147.1036 73.6116 0.0000 38.8237 0.0000
# 3 20.0176 73.6116 93.3119 0.0000 33.6093 0.0000
# 4 0.0000 0.0000 0.0000 19.0763 0.0000 26.1927
# 5 30.3729 38.8237 33.6093 0.0000 30.4445 0.0000
# 6 0.0000 0.0000 0.0000 26.1927 0.0000 1.7391
#
#
#
# Elastic Compliance Matrix: (Units=1/GPa)
#
#
# Indices 1 2 3 4 5 6 
#
# 1 0.071096 -0.014627 0.025094 0.000000 -0.079979 0.000000
# 2 -0.014627 0.015390 -0.011937 0.000000 0.008144 0.000000
# 3 0.025094 -0.011937 0.030354 0.000000 -0.043323 0.000000
# 4 0.000000 0.000000 0.000000 -0.002664 0.000000 0.040119
# 5 -0.079979 0.008144 -0.043323 0.000000 0.150078 0.000000
# 6 0.000000 0.000000 0.000000 0.040119 0.000000 -0.029219
#
#
# Mechanical properties :
#
#
# Convention : Reuss Voigt Hill
#
# Bulk Modulus (GPa) = 8.77954 63.84702 36.31328
# Shear Modulus (GPa) = 18.11971 20.24286 19.18128
#
# Velocity S-wave (km/s) = 3.02780 3.20027 3.11523
# Velocity P-wave (km/s) = 4.08232 6.77928 5.59571
#
# Compressibility (1/GPa) = 0.11390115
#
# Stress axis : x y z
#
# Youngs Moduli (GPa) = 14.06547 64.97576 32.94448
#
# Poissons Ratio (x) = 0.95043 -0.82672
# Poissons Ratio (y) = 0.20574 0.39324
# Poissons Ratio (z) = -0.35296 0.77559
#
# Static dielectric constant tensor:
#      x y z
#    x 1.704920 0.000000 -0.000190 
#    y 0.000000 1.715890 0.000000 
#    z -0.000190 0.000000 1.704820 
# 
# From -- ./inp_files/70763.got.cif
#   From: 2010.05.17/outbox.cif.g08.bks.cpg/sg10_36_cif.got.tgz:70763.got - 2010.06.03 11:33:40.
