data_PCOD9154714
_publ_section_title
;
Structure prediction by ZEFSAII (Michael W. Deem and Ramdas Pophale) SiO2 
 PCOD9154714
Probable space group: P 2/M
;
_chemical_formula_sum "Si O2"
_cell_formula_units_Z 24
_cell_length_a 8.858050
_cell_length_b 18.423350
_cell_length_c 8.748098
_cell_angle_alpha 90.000000
_cell_angle_beta 131.764709
_cell_angle_gamma 90.000000
_cell_volume 1064.861342
_symmetry_space_group_name_H-M "P 2/M"
_symmetry_group_IT_number 10
_symmetry_cell_setting 'monoclinic'
loop_
_space_group_symop_operation_xyz
x,y,z
-x,y,-z
-x,-y,-z
x,-y,z
loop_
_atom_site_type_symbol
_atom_site_label
_atom_site_fract_x
_atom_site_fract_y
_atom_site_fract_z
Si Si1 0.213795 0.418020 0.234956
Si Si2 0.579643 0.082753 0.824835
Si Si3 0.399258 0.336496 0.083123
Si Si4 0.034162 0.305046 0.343074
Si Si5 0.403317 0.777389 0.582703
Si Si6 0.158350 0.082472 0.727323
O O1 0.264544 0.500000 0.314589
O O2 0.365705 0.387200 0.208077
O O3 0.169075 0.366968 0.350546
O O4 0.000000 0.419825 0.000000
O O5 0.515010 0.145852 0.668355
O O6 0.372863 0.078438 0.784655
O O7 0.618731 0.000000 0.796177
O O8 0.768501 0.108776 0.057080
O O9 0.535795 0.268733 0.227454
O O10 0.500000 0.371122 0.000000
O O11 0.180346 0.306426 0.885474
O O12 0.163047 0.231339 0.407136
O O13 0.000000 0.318343 0.500000
O O14 0.500000 0.740904 0.500000
O O15 0.000000 0.115559 0.500000
O O16 0.083407 0.000000 0.705227
#
# Coordination Sequence:
#
# PCOD9154714 Si02
#       6
#     4   4   4   4   4   4
#     4   9  20  41  67  97 137 173 208 263 322 380
#     4   9  20  35  55  87 122 161 215 273 326 387
#     4  11  23  41  67  96 130 168 220 270 319 393
#     4  11  23  41  66  95 130 172 220 267 319 387
#     4  12  25  41  62  90 128 173 220 270 332 390
#     4   8  15  31  55  84 119 155 198 256 321 386
#
# _framework density 22.538145
#
# number of rings (size 3 to 8) (size 9 to 14) (size 15 to 20)
#    0.000    2.000    3.333    1.000    2.333    3.000 
#    0.000    1.667    0.000    0.000    0.000    7.000 
#    0.000    0.000    0.000    0.000    0.000    0.000 
#
# Total GULP energy -133760.250346 kJ/mol
# GULP energy per Si atom -5573.343764 kJ/mol
# Density = 2.248685 g / cm^3
# Si number density = 22.538145 Si / 1000 Ang^3
#
#
#
# Elastic Constant Matrix: (Units=GPa)
#
#
# Indices 1 2 3 4 5 6 
#
# 1 98.2158 28.4862 36.3757 0.0000 -14.4431 0.0000
# 2 28.4862 80.2298 42.4811 0.0000 -8.1475 0.0000
# 3 36.3757 42.4811 108.5487 0.0000 17.2496 0.0000
# 4 0.0000 0.0000 0.0000 17.2186 0.0000 -6.3634
# 5 -14.4431 -8.1475 17.2496 0.0000 47.6587 0.0000
# 6 0.0000 0.0000 0.0000 -6.3634 0.0000 10.6594
#
#
#
# Elastic Compliance Matrix: (Units=1/GPa)
#
#
# Indices 1 2 3 4 5 6 
#
# 1 0.013166 -0.001693 -0.004602 0.000000 0.005367 0.000000
# 2 -0.001693 0.017264 -0.006978 0.000000 0.004964 0.000000
# 3 -0.004602 -0.006978 0.014745 0.000000 -0.007925 0.000000
# 4 0.000000 0.000000 0.000000 0.074517 0.000000 0.044485
# 5 0.005367 0.004964 -0.007925 0.000000 0.026326 0.000000
# 6 0.000000 0.000000 0.000000 0.044485 0.000000 0.120371
#
#
# Mechanical properties :
#
#
# Convention : Reuss Voigt Hill
#
# Bulk Modulus (GPa) = 53.68002 55.74227 54.71114
# Shear Modulus (GPa) = 16.71428 27.08408 21.89918
#
# Velocity S-wave (km/s) = 2.72619 3.47031 3.12051
# Velocity P-wave (km/s) = 5.81193 6.39090 6.10828
#
# Compressibility (1/GPa) = 0.01862890
#
# Stress axis : x y z
#
# Youngs Moduli (GPa) = 75.95076 57.92350 67.81989
#
# Poissons Ratio (x) = 0.09806 0.31214
# Poissons Ratio (y) = 0.12857 0.47324
# Poissons Ratio (z) = 0.34956 0.40419
#
# Static dielectric constant tensor:
#      x y z
#    x 1.863970 0.000000 -0.019460 
#    y 0.000000 1.914480 0.000000 
#    z -0.019460 0.000000 1.918530 
# 
# From -- ./inp_files/20279.got.cif
#   From: 2010.05.17/outbox.cif.g08.bks.cpg/sg10_11_cif.got.tgz:20279.got - 2010.06.03 11:33:40.
