data_PCOD9154667
_publ_section_title
;
Structure prediction by ZEFSAII (Michael W. Deem and Ramdas Pophale) SiO2 
 PCOD9154667
Probable space group: P 2/M
;
_chemical_formula_sum "Si O2"
_cell_formula_units_Z 15
_cell_length_a 8.425004
_cell_length_b 18.894364
_cell_length_c 7.202666
_cell_angle_alpha 90.000000
_cell_angle_beta 36.957102
_cell_angle_gamma 90.000000
_cell_volume 689.329484
_symmetry_space_group_name_H-M "P 2/M"
_symmetry_group_IT_number 10
_symmetry_cell_setting 'monoclinic'
loop_
_space_group_symop_operation_xyz
x,y,z
-x,y,-z
-x,-y,-z
x,-y,z
loop_
_atom_site_type_symbol
_atom_site_label
_atom_site_fract_x
_atom_site_fract_y
_atom_site_fract_z
Si Si1 0.569655 0.212011 0.715990
Si Si2 0.769416 0.500000 0.362942
Si Si3 0.000000 0.000000 0.500000
Si Si4 0.734078 0.639937 0.636815
Si Si5 0.072245 0.120280 0.132389
O O1 0.634027 0.293334 0.609353
O O2 0.827128 0.166608 0.432704
O O3 0.500000 0.213107 0.000000
O O4 0.318196 0.172431 0.866479
O O5 0.500000 0.500000 0.500000
O O6 0.788428 0.570153 0.469157
O O7 0.000000 0.500000 0.000000
O O8 0.883328 0.061659 0.751888
O O9 0.000000 0.661061 0.500000
O O10 0.500000 0.623851 0.000000
O O11 0.000000 0.087641 0.000000
#
# Coordination Sequence:
#
# PCOD9154667 Si02
#       5
#     4   2   1   4   4
#     4  11  22  45  69 100 136 181 229 292 348 411
#     4  12  26  42  64 104 148 184 230 298 352 392
#     4  12  26  50  72 100 148 180 234 286 360 428
#     4  11  23  43  72  98 135 189 237 281 343 423
#     4  12  26  44  72 103 137 183 232 288 352 420
#
# _framework density 21.760276000000001
#
# number of rings (size 3 to 8) (size 9 to 14) (size 15 to 20)
#    0.000    0.533    2.667    6.800    0.000    5.333 
#    0.000    2.667    0.000    0.000    0.000    0.000 
#    0.000    0.000    0.000    0.000    0.000    0.000 
#
# Total GULP energy -83655.407152 kJ/mol
# GULP energy per Si atom -5577.027143 kJ/mol
# Density = 2.171075 g / cm^3
# Si number density = 21.760276 Si / 1000 Ang^3
#
#
#
# Elastic Constant Matrix: (Units=GPa)
#
#
# Indices 1 2 3 4 5 6 
#
# 1 67.3205 44.9910 14.4793 0.0000 -10.6197 0.0000
# 2 44.9910 176.1936 73.7823 0.0000 12.5767 0.0000
# 3 14.4793 73.7823 167.1624 0.0000 -17.0861 0.0000
# 4 0.0000 0.0000 0.0000 -0.8423 0.0000 16.0121
# 5 -10.6197 12.5767 -17.0861 0.0000 35.5720 0.0000
# 6 0.0000 0.0000 0.0000 16.0121 0.0000 -5.2375
#
#
#
# Elastic Compliance Matrix: (Units=1/GPa)
#
#
# Indices 1 2 3 4 5 6 
#
# 1 0.020463 -0.006844 0.002230 0.000000 0.009600 0.000000
# 2 -0.006844 0.009884 -0.004560 0.000000 -0.007728 0.000000
# 3 0.002230 -0.004560 0.008449 0.000000 0.006336 0.000000
# 4 0.000000 0.000000 0.000000 0.020786 0.000000 0.063546
# 5 0.009600 -0.007728 0.006336 0.000000 0.036754 0.000000
# 6 0.000000 0.000000 0.000000 0.063546 0.000000 0.003343
#
#
# Mechanical properties :
#
#
# Convention : Reuss Voigt Hill
#
# Bulk Modulus (GPa) = 48.90435 75.24244 62.07339
# Shear Modulus (GPa) = 40.04997 24.39335 32.22166
#
# Velocity S-wave (km/s) = 4.29477 3.35177 3.85223
# Velocity P-wave (km/s) = 6.86413 7.04501 6.95516
#
# Compressibility (1/GPa) = 0.02044808
#
# Stress axis : x y z
#
# Youngs Moduli (GPa) = 48.86827 101.17014 118.35228
#
# Poissons Ratio (x) = 0.69243 -0.26388
# Poissons Ratio (y) = 0.33446 0.53967
# Poissons Ratio (z) = -0.10896 0.46132
#
# Static dielectric constant tensor:
#      x y z
#    x 1.877030 0.000000 -0.004760 
#    y 0.000000 1.824960 0.000000 
#    z -0.004760 0.000000 1.737530 
# 
# From -- ./inp_files/19460.got.cif
#   From: 2010.05.17/outbox.cif.g08.bks.cpg/sg10_10_cif.got.tgz:19460.got - 2010.06.03 11:33:40.
