data_PCOD9154895
_publ_section_title
;
Structure prediction by ZEFSAII (Michael W. Deem and Ramdas Pophale) SiO2 
 PCOD9154895
Probable space group: P 2/M
;
_chemical_formula_sum "Si O2"
_cell_formula_units_Z 32
_cell_length_a 21.135600
_cell_length_b 7.317956
_cell_length_c 8.060644
_cell_angle_alpha 90.000000
_cell_angle_beta 67.411393
_cell_angle_gamma 90.000000
_cell_volume 1151.093642
_symmetry_space_group_name_H-M "P 2/M"
_symmetry_group_IT_number 10
_symmetry_cell_setting 'monoclinic'
loop_
_space_group_symop_operation_xyz
x,y,z
-x,y,-z
-x,-y,-z
x,-y,z
loop_
_atom_site_type_symbol
_atom_site_label
_atom_site_fract_x
_atom_site_fract_y
_atom_site_fract_z
Si Si1 0.335717 0.717493 0.715672
Si Si2 0.172834 0.221260 0.159706
Si Si3 0.044370 0.223211 0.113331
Si Si4 0.578806 0.718822 0.056837
Si Si5 0.208662 0.781413 0.658030
Si Si6 0.915678 0.221269 0.423459
Si Si7 0.546692 0.714389 0.622362
Si Si8 0.293174 0.782484 0.256185
O O1 0.345612 0.500000 0.708208
O O2 0.371593 0.788364 0.845239
O O3 0.255198 0.747651 0.772114
O O4 0.381360 0.792312 0.515826
O O5 0.122286 0.285150 0.063709
O O6 0.125151 0.263835 0.368959
O O7 0.246905 0.288405 0.148180
O O8 0.178251 0.000000 0.137112
O O9 0.993367 0.278000 0.314252
O O10 0.048374 0.000000 0.102930
O O11 0.000000 0.279399 0.000000
O O12 0.572022 0.500000 0.073706
O O13 0.503274 0.788522 0.182462
O O14 0.626543 0.749081 0.849567
O O15 0.133521 0.718146 0.679439
O O16 0.257772 0.712600 0.458762
O O17 0.203508 0.000000 0.657433
O O18 0.918495 0.000000 0.418359
O O19 0.500000 0.722223 0.500000
O O20 0.557792 0.500000 0.647734
O O21 0.284226 0.000000 0.269044
#
# Coordination Sequence:
#
# PCOD9154895 Si02
#       8
#     4   4   4   4   4   4   4   4
#     4   9  17  30  49  70  89 113 148 187 225 266
#     4   8  14  25  39  54  78 114 148 175 209 256
#     4   9  15  21  33  57  84 107 138 181 220 252
#     4   9  17  30  49  70  89 113 148 187 225 266
#     4   9  18  31  45  64  92 123 152 182 219 264
#     4   8  14  25  39  54  78 114 148 175 209 256
#     4   7  12  26  46  65  86 112 144 183 222 261
#     4   9  18  31  45  64  92 123 152 182 219 264
#
# _framework density 27.799648999999999
#
# number of rings (size 3 to 8) (size 9 to 14) (size 15 to 20)
#    0.000    3.500    0.000    3.375    0.000    3.500 
#    0.000    3.750    0.000    6.000    0.000    0.875 
#    0.000    7.000    0.000    0.000    0.000    0.000 
#
# Total GULP energy -178752.744016 kJ/mol
# GULP energy per Si atom -5586.023251 kJ/mol
# Density = 2.773638 g / cm^3
# Si number density = 27.799649 Si / 1000 Ang^3
#
#
#
# Elastic Constant Matrix: (Units=GPa)
#
#
# Indices 1 2 3 4 5 6 
#
# 1 190.5581 -10.3023 11.9464 0.0000 -29.7886 0.0000
# 2 -10.3023 111.8592 -11.9150 0.0000 0.5406 0.0000
# 3 11.9464 -11.9150 76.3426 0.0000 -20.4666 0.0000
# 4 0.0000 0.0000 0.0000 -11.9463 0.0000 26.1168
# 5 -29.7886 0.5406 -20.4666 0.0000 62.0733 0.0000
# 6 0.0000 0.0000 0.0000 26.1168 0.0000 -63.3165
#
#
#
# Elastic Compliance Matrix: (Units=1/GPa)
#
#
# Indices 1 2 3 4 5 6 
#
# 1 0.005703 0.000503 -0.000089 0.000000 0.002703 0.000000
# 2 0.000503 0.009146 0.001527 0.000000 0.000665 0.000000
# 3 -0.000089 0.001527 0.014629 0.000000 0.004767 0.000000
# 4 0.000000 0.000000 0.000000 -0.852102 0.000000 -0.351476
# 5 0.002703 0.000665 0.004767 0.000000 0.018973 0.000000
# 6 0.000000 0.000000 0.000000 -0.351476 0.000000 -0.160771
#
#
# Mechanical properties :
#
#
# Convention : Reuss Voigt Hill
#
# Bulk Modulus (GPa) = 29.97733 39.80200 34.88966
# Shear Modulus (GPa) = -5.22366 23.29750 9.03692
#
# Velocity S-wave (km/s) = -1.37227 2.89805 1.80493
# Velocity P-wave (km/s) = 2.88027 5.05438 4.11356
#
# Compressibility (1/GPa) = 0.03335854
#
# Stress axis : x y z
#
# Youngs Moduli (GPa) = 175.34431 109.34281 68.35633
#
# Poissons Ratio (x) = -0.05496 0.00611
# Poissons Ratio (y) = -0.08814 -0.10438
# Poissons Ratio (z) = 0.01566 -0.16697
#
# Static dielectric constant tensor:
#      x y z
#    x 2.162710 0.000000 0.081960 
#    y 0.000000 2.067720 0.000000 
#    z 0.081960 0.000000 2.279800 
# 
# From -- ./inp_files/34605.got.cif
#   From: 2010.05.17/outbox.cif.g08.bks.cpg/sg10_18_cif.got.tgz:34605.got - 2010.06.03 11:33:40.
