data_PCOD9154725
_publ_section_title
;
Structure prediction by ZEFSAII (Michael W. Deem and Ramdas Pophale) SiO2 
 PCOD9154725
Probable space group: P 2/M
;
_chemical_formula_sum "Si O2"
_cell_formula_units_Z 24
_cell_length_a 18.054702
_cell_length_b 11.242389
_cell_length_c 11.716540
_cell_angle_alpha 90.000000
_cell_angle_beta 30.873286
_cell_angle_gamma 90.000000
_cell_volume 1220.352050
_symmetry_space_group_name_H-M "P 2/M"
_symmetry_group_IT_number 10
_symmetry_cell_setting 'monoclinic'
loop_
_space_group_symop_operation_xyz
x,y,z
-x,y,-z
-x,-y,-z
x,-y,z
loop_
_atom_site_type_symbol
_atom_site_label
_atom_site_fract_x
_atom_site_fract_y
_atom_site_fract_z
Si Si1 0.361093 0.360631 0.518744
Si Si2 0.179835 0.762818 0.576629
Si Si3 0.835539 0.000000 0.255372
Si Si4 0.871133 0.359923 0.975715
Si Si5 0.663172 0.233141 0.099106
Si Si6 0.658076 0.141221 0.848537
Si Si7 0.334634 0.000000 0.754646
O O1 0.396351 0.500000 0.481518
O O2 0.285882 0.330412 0.497994
O O3 0.506385 0.285130 0.339369
O O4 0.242003 0.332238 0.772799
O O5 0.230051 0.794270 0.383235
O O6 0.017149 0.714528 0.796261
O O7 0.195906 0.883674 0.628345
O O8 0.748939 0.000000 0.253022
O O9 0.000000 0.000000 0.000000
O O10 0.904368 0.500000 0.937352
O O11 0.786064 0.326236 0.973098
O O12 0.695401 0.115704 0.130095
O O13 0.659638 0.198172 0.971484
O O14 0.689593 0.000000 0.814907
O O15 0.500000 0.152808 0.000000
O O16 0.500000 0.000000 0.500000
#
# Coordination Sequence:
#
# PCOD9154725 Si02
#       7
#     4   4   2   4   4   4   2
#     4  11  23  42  68  97 133 176 220 268 325 393
#     4  12  23  43  67  98 130 173 223 264 330 392
#     4  12  24  39  63  99 135 164 207 273 329 393
#     4  11  25  44  67  97 137 175 213 274 337 383
#     4  12  23  43  66  99 132 173 223 266 331 392
#     4  11  24  45  68  95 133 179 216 269 329 394
#     4  12  24  35  63 101 131 162 207 277 333 379
#
# _framework density 19.666456
#
# number of rings (size 3 to 8) (size 9 to 14) (size 15 to 20)
#    0.000    0.500    3.333    7.000    0.000    3.333 
#    0.000    5.833    0.000    0.000    0.000    0.000 
#    0.000    0.000    0.000    0.000    0.000    0.000 
#
# Total GULP energy -134356.459910 kJ/mol
# GULP energy per Si atom -5598.185830 kJ/mol
# Density = 1.962169 g / cm^3
# Si number density = 19.666456 Si / 1000 Ang^3
#
#
#
# Elastic Constant Matrix: (Units=GPa)
#
#
# Indices 1 2 3 4 5 6 
#
# 1 140.6747 55.5166 63.4417 0.0000 1.3730 0.0000
# 2 55.5166 109.1271 62.5591 0.0000 8.0711 0.0000
# 3 63.4417 62.5591 93.2916 0.0000 2.0113 0.0000
# 4 0.0000 0.0000 0.0000 19.5597 0.0000 -0.3887
# 5 1.3730 8.0711 2.0113 0.0000 43.4776 0.0000
# 6 0.0000 0.0000 0.0000 -0.3887 0.0000 27.5072
#
#
#
# Elastic Compliance Matrix: (Units=1/GPa)
#
#
# Indices 1 2 3 4 5 6 
#
# 1 0.010528 -0.002065 -0.005781 0.000000 0.000318 0.000000
# 2 -0.002065 0.015525 -0.008955 0.000000 -0.002403 0.000000
# 3 -0.005781 -0.008955 0.020636 0.000000 0.000890 0.000000
# 4 0.000000 0.000000 0.000000 0.051140 0.000000 0.000723
# 5 0.000318 -0.002403 0.000890 0.000000 0.023395 0.000000
# 6 0.000000 0.000000 0.000000 0.000723 0.000000 0.036364
#
#
# Mechanical properties :
#
#
# Convention : Reuss Voigt Hill
#
# Bulk Modulus (GPa) = 76.41193 78.45869 77.43531
# Shear Modulus (GPa) = 25.56843 28.88062 27.22453
#
# Velocity S-wave (km/s) = 3.60961 3.83629 3.72467
# Velocity P-wave (km/s) = 7.50404 7.72037 7.61297
#
# Compressibility (1/GPa) = 0.01308696
#
# Stress axis : x y z
#
# Youngs Moduli (GPa) = 94.98718 64.41033 48.45839
#
# Poissons Ratio (x) = 0.13302 0.28015
# Poissons Ratio (y) = 0.19616 0.43394
# Poissons Ratio (z) = 0.54915 0.57678
#
# Static dielectric constant tensor:
#      x y z
#    x 1.666110 0.000000 0.002810 
#    y 0.000000 1.717790 0.000000 
#    z 0.002810 0.000000 1.659990 
# 
# From -- ./inp_files/53607.got.cif
#   From: 2010.05.17/outbox.cif.g08.bks.cpg/sg10_27_cif.got.tgz:53607.got - 2010.06.03 11:33:40.
