data_PCOD9154488
_publ_section_title
;
Structure prediction by ZEFSAII (Michael W. Deem and Ramdas Pophale) SiO2 
 PCOD9154488
Probable space group: P 2/M
;
_chemical_formula_sum "Si O2"
_cell_formula_units_Z 20
_cell_length_a 9.253657
_cell_length_b 24.610211
_cell_length_c 6.942941
_cell_angle_alpha 90.000000
_cell_angle_beta 146.803750
_cell_angle_gamma 90.000000
_cell_volume 865.691276
_symmetry_space_group_name_H-M "P 2/M"
_symmetry_group_IT_number 10
_symmetry_cell_setting 'monoclinic'
loop_
_space_group_symop_operation_xyz
x,y,z
-x,y,-z
-x,-y,-z
x,-y,z
loop_
_atom_site_type_symbol
_atom_site_label
_atom_site_fract_x
_atom_site_fract_y
_atom_site_fract_z
Si Si1 0.778070 0.000000 0.419469
Si Si2 0.015332 0.227074 0.751118
Si Si3 0.482109 0.715803 0.745811
Si Si4 0.779751 0.500000 0.916018
Si Si5 0.272294 0.391733 0.901895
Si Si6 0.781258 0.882543 0.423061
O O1 0.783451 0.058613 0.529256
O O2 0.000000 0.000000 0.500000
O O3 0.500000 0.000000 0.000000
O O4 0.881319 0.169469 0.652489
O O5 0.000000 0.229568 0.500000
O O6 0.320674 0.239788 0.123429
O O7 0.822486 0.271921 0.626307
O O8 0.600577 0.656885 0.832020
O O9 0.500000 0.718722 0.000000
O O10 0.500000 0.500000 0.500000
O O11 0.798855 0.445788 0.063541
O O12 0.000000 0.500000 0.000000
O O13 0.000000 0.371630 0.500000
O O14 0.500000 0.405021 0.000000
O O15 0.000000 0.887403 0.500000
O O16 0.500000 0.873082 0.000000
#
# Coordination Sequence:
#
# PCOD9154488 Si02
#       6
#     2   4   4   2   4   4
#     4   8  14  20  24  34  52  86 132 172 208 254
#     4   9  14  21  33  53  78 103 132 179 235 273
#     4   9  16  25  41  64  86 107 140 185 233 277
#     4  12  26  42  58  80 108 136 166 204 246 294
#     4  11  21  37  59  80 102 132 168 206 246 295
#     4   9  14  19  27  38  60  92 129 172 218 261
#
# _framework density 23.102924000000002
#
# number of rings (size 3 to 8) (size 9 to 14) (size 15 to 20)
#    0.000    2.400    0.000    7.800    0.000    0.000 
#    0.000    0.000    0.000    0.000    0.000    0.000 
#    0.000    0.000    0.000    0.000    0.000    0.000 
#
# Total GULP energy -111602.645032 kJ/mol
# GULP energy per Si atom -5580.132252 kJ/mol
# Density = 2.305034 g / cm^3
# Si number density = 23.102924 Si / 1000 Ang^3
#
#
#
# Elastic Constant Matrix: (Units=GPa)
#
#
# Indices 1 2 3 4 5 6 
#
# 1 72.4737 25.3961 45.4718 0.0000 12.5378 0.0000
# 2 25.3961 197.6153 42.7720 0.0000 19.9208 0.0000
# 3 45.4718 42.7720 133.0115 0.0000 34.0345 0.0000
# 4 0.0000 0.0000 0.0000 9.7185 0.0000 36.5014
# 5 12.5378 19.9208 34.0345 0.0000 40.4295 0.0000
# 6 0.0000 0.0000 0.0000 36.5014 0.0000 -18.5397
#
#
#
# Elastic Compliance Matrix: (Units=1/GPa)
#
#
# Indices 1 2 3 4 5 6 
#
# 1 0.017764 -0.001031 -0.005687 0.000000 -0.000214 0.000000
# 2 -0.001031 0.005575 -0.001044 0.000000 -0.001548 0.000000
# 3 -0.005687 -0.001044 0.011745 0.000000 -0.007609 0.000000
# 4 0.000000 0.000000 0.000000 0.012257 0.000000 0.024133
# 5 -0.000214 -0.001548 -0.007609 0.000000 0.031969 0.000000
# 6 0.000000 0.000000 0.000000 0.024133 0.000000 -0.006425
#
#
# Mechanical properties :
#
#
# Convention : Reuss Voigt Hill
#
# Bulk Modulus (GPa) = 51.12210 70.04228 60.58219
# Shear Modulus (GPa) = 52.67087 25.61902 39.14495
#
# Velocity S-wave (km/s) = 4.77994 3.33364 4.12074
# Velocity P-wave (km/s) = 7.25533 6.72316 6.99431
#
# Compressibility (1/GPa) = 0.01956101
#
# Stress axis : x y z
#
# Youngs Moduli (GPa) = 56.29265 179.37676 85.14198
#
# Poissons Ratio (x) = 0.18485 0.48419
# Poissons Ratio (y) = 0.05801 0.08891
# Poissons Ratio (z) = 0.32013 0.18731
#
# Static dielectric constant tensor:
#      x y z
#    x 1.883110 0.000000 -0.055440 
#    y 0.000000 1.988470 0.000000 
#    z -0.055440 0.000000 1.834240 
# 
# From -- ./inp_files/20809.got.cif
#   From: 2010.05.17/outbox.cif.g08.bks.cpg/sg10_11_cif.got.tgz:20809.got - 2010.06.03 11:33:40.
