data_PCOD9154179
_publ_section_title
;
Structure prediction by ZEFSAII (Michael W. Deem and Ramdas Pophale) SiO2 
 PCOD9154179
Probable space group: P 2/M
;
_chemical_formula_sum "Si O2"
_cell_formula_units_Z 26
_cell_length_a 8.399269
_cell_length_b 22.010580
_cell_length_c 8.855370
_cell_angle_alpha 90.000000
_cell_angle_beta 129.886332
_cell_angle_gamma 90.000000
_cell_volume 1256.189501
_symmetry_space_group_name_H-M "P 2/M"
_symmetry_group_IT_number 10
_symmetry_cell_setting 'monoclinic'
loop_
_space_group_symop_operation_xyz
x,y,z
-x,y,-z
-x,-y,-z
x,-y,z
loop_
_atom_site_type_symbol
_atom_site_label
_atom_site_fract_x
_atom_site_fract_y
_atom_site_fract_z
Si Si1 0.708976 0.500000 0.217861
Si Si2 0.415086 0.175403 0.605780
Si Si3 0.720587 0.244001 0.199221
Si Si4 0.380931 0.500000 0.269654
Si Si5 0.000000 0.404920 0.000000
Si Si6 0.086725 0.069178 0.382295
Si Si7 0.841521 0.152932 0.037169
Si Si8 0.903305 0.629725 0.274549
O O1 0.598172 0.500000 0.309978
O O2 0.831112 0.560365 0.251466
O O3 0.500000 0.500000 0.000000
O O4 0.500000 0.202007 0.500000
O O5 0.287393 0.223170 0.631889
O O6 0.272199 0.117554 0.482215
O O7 0.614652 0.153792 0.824219
O O8 0.868958 0.203303 0.185580
O O9 0.744971 0.314572 0.178422
O O10 0.500000 0.225875 0.000000
O O11 0.500000 0.500000 0.500000
O O12 0.216554 0.555474 0.138943
O O13 0.999859 0.370395 0.836932
O O14 0.000000 0.073026 0.500000
O O15 0.907938 0.090565 0.158062
O O16 0.151023 0.000000 0.391974
O O17 0.000000 0.166462 0.000000
O O18 0.000000 0.642075 0.500000
#
# Coordination Sequence:
#
# PCOD9154179 Si02
#       8
#     2   4   4   2   2   4   4   4
#     4  12  21  43  69  88 139 175 212 283 346 392
#     4  11  23  44  69  97 136 179 224 279 334 403
#     4  10  25  45  66  95 133 175 229 278 336 401
#     4  11  22  42  74  95 132 183 215 269 350 410
#     4  11  24  44  64 104 138 164 227 280 328 416
#     4  11  24  42  69  99 133 176 225 272 337 403
#     4  11  23  42  69  96 134 178 221 280 339 396
#     4  12  26  43  69 101 133 180 227 283 347 410
#
# _framework density 20.697514000000002
#
# number of rings (size 3 to 8) (size 9 to 14) (size 15 to 20)
#    0.000    0.923    4.615    2.077    3.231    1.231 
#    2.769    2.308    0.000    0.000    0.000    0.000 
#    0.000    0.000    0.000    0.000    0.000    0.000 
#
# Total GULP energy -144736.481255 kJ/mol
# GULP energy per Si atom -5566.787741 kJ/mol
# Density = 2.065041 g / cm^3
# Si number density = 20.697514 Si / 1000 Ang^3
#
#
#
# Elastic Constant Matrix: (Units=GPa)
#
#
# Indices 1 2 3 4 5 6 
#
# 1 108.5627 46.0345 32.8135 0.0000 -45.5767 0.0000
# 2 46.0345 85.8153 -0.5203 0.0000 -13.9455 0.0000
# 3 32.8135 -0.5203 109.3822 0.0000 -21.5044 0.0000
# 4 0.0000 0.0000 0.0000 23.7393 0.0000 20.5053
# 5 -45.5767 -13.9455 -21.5044 0.0000 49.5729 0.0000
# 6 0.0000 0.0000 0.0000 20.5053 0.0000 62.4559
#
#
#
# Elastic Compliance Matrix: (Units=1/GPa)
#
#
# Indices 1 2 3 4 5 6 
#
# 1 0.019720 -0.008247 -0.003112 0.000000 0.014460 0.000000
# 2 -0.008247 0.015725 0.002108 0.000000 -0.002245 0.000000
# 3 -0.003112 0.002108 0.010539 0.000000 0.002303 0.000000
# 4 0.000000 0.000000 0.000000 0.058799 0.000000 -0.019305
# 5 0.014460 -0.002245 0.002303 0.000000 0.033834 0.000000
# 6 0.000000 0.000000 0.000000 -0.019305 0.000000 0.022349
#
#
# Mechanical properties :
#
#
# Convention : Reuss Voigt Hill
#
# Bulk Modulus (GPa) = 36.39041 51.15728 43.77385
# Shear Modulus (GPa) = 26.50691 42.18246 34.34468
#
# Velocity S-wave (km/s) = 3.58254 4.51937 4.07795
# Velocity P-wave (km/s) = 5.89347 7.21133 6.58545
#
# Compressibility (1/GPa) = 0.02747977
#
# Stress axis : x y z
#
# Youngs Moduli (GPa) = 50.71080 63.59234 94.88832
#
# Poissons Ratio (x) = 0.52447 0.29531
# Poissons Ratio (y) = 0.41823 -0.19999
# Poissons Ratio (z) = 0.15782 -0.13403
#
# Static dielectric constant tensor:
#      x y z
#    x 1.851210 0.000000 -0.049430 
#    y 0.000000 1.658750 0.000000 
#    z -0.049430 0.000000 1.796980 
# 
# From -- ./inp_files/20508.got.cif
#   From: 2010.05.17/outbox.cif.g08.bks.cpg/sg10_11_cif.got.tgz:20508.got - 2010.06.03 11:33:40.
