data_PCOD9154593
_publ_section_title
;
Structure prediction by ZEFSAII (Michael W. Deem and Ramdas Pophale) SiO2 
 PCOD9154593
Probable space group: P 2/M
;
_chemical_formula_sum "Si O2"
_cell_formula_units_Z 28
_cell_length_a 10.027454
_cell_length_b 10.876471
_cell_length_c 14.846056
_cell_angle_alpha 90.000000
_cell_angle_beta 70.605025
_cell_angle_gamma 90.000000
_cell_volume 1527.275606
_symmetry_space_group_name_H-M "P 2/M"
_symmetry_group_IT_number 10
_symmetry_cell_setting 'monoclinic'
loop_
_space_group_symop_operation_xyz
x,y,z
-x,y,-z
-x,-y,-z
x,-y,z
loop_
_atom_site_type_symbol
_atom_site_label
_atom_site_fract_x
_atom_site_fract_y
_atom_site_fract_z
Si Si1 0.378208 0.750293 0.314010
Si Si2 0.938269 0.500000 0.367066
Si Si3 0.111994 0.234583 0.689551
Si Si4 0.147404 0.148277 0.009497
Si Si5 0.319886 0.852459 0.796935
Si Si6 0.764854 0.500000 0.591125
Si Si7 0.654285 0.141517 0.494240
Si Si8 0.189385 0.855813 0.204537
O O1 0.543439 0.774876 0.261410
O O2 0.328387 0.619337 0.363883
O O3 0.332356 0.845338 0.402219
O O4 0.298896 0.780639 0.239589
O O5 0.920518 0.378645 0.310985
O O6 0.823925 0.500000 0.475175
O O7 0.092863 0.500000 0.379503
O O8 0.192551 0.188227 0.760370
O O9 0.217780 0.206313 0.584212
O O10 0.965084 0.162232 0.717512
O O11 0.271051 0.171190 0.910068
O O12 0.132381 0.000000 0.019731
O O13 0.177611 0.190107 0.104050
O O14 0.000000 0.194737 0.000000
O O15 0.344955 0.000000 0.780499
O O16 0.500000 0.192416 0.500000
O O17 0.656773 0.000000 0.464612
O O18 0.228335 0.000000 0.195735
#
# Coordination Sequence:
#
# PCOD9154593 Si02
#       8
#     4   2   4   4   4   2   4   4
#     4  12  24  40  61  88 126 167 204 255 304 366
#     4  11  24  43  61  84 120 167 224 255 292 353
#     4  12  22  38  63  89 120 164 207 251 299 364
#     4   9  18  35  62  92 126 160 196 249 311 377
#     4  11  22  39  64  97 129 158 198 253 318 375
#     4  11  24  45  59  80 125 172 216 251 301 354
#     4  11  22  37  57  90 130 161 192 250 318 372
#     4  11  22  37  62  96 123 157 205 254 316 371
#
# _framework density 18.333300000000001
#
# number of rings (size 3 to 8) (size 9 to 14) (size 15 to 20)
#    0.000    1.000    5.714    2.571    0.000    1.714 
#    0.000    5.000    0.000    5.143    0.000    0.000 
#    0.000    0.000    0.000    0.000    0.000    0.000 
#
# Total GULP energy -156331.026821 kJ/mol
# GULP energy per Si atom -5583.250958 kJ/mol
# Density = 1.829157 g / cm^3
# Si number density = 18.333300 Si / 1000 Ang^3
#
#
#
# Elastic Constant Matrix: (Units=GPa)
#
#
# Indices 1 2 3 4 5 6 
#
# 1 42.8905 9.1811 -6.6487 0.0000 -0.1940 0.0000
# 2 9.1811 64.9399 4.0474 0.0000 -8.2373 0.0000
# 3 -6.6487 4.0474 66.1171 0.0000 6.0407 0.0000
# 4 0.0000 0.0000 0.0000 6.6175 0.0000 -2.4163
# 5 -0.1940 -8.2373 6.0407 0.0000 29.9241 0.0000
# 6 0.0000 0.0000 0.0000 -2.4163 0.0000 24.3089
#
#
#
# Elastic Compliance Matrix: (Units=1/GPa)
#
#
# Indices 1 2 3 4 5 6 
#
# 1 0.024570 -0.003837 0.002840 0.000000 -0.001470 0.000000
# 2 -0.003837 0.016684 -0.001859 0.000000 0.004943 0.000000
# 3 0.002840 -0.001859 0.015862 0.000000 -0.003695 0.000000
# 4 0.000000 0.000000 0.000000 0.156807 0.000000 0.015586
# 5 -0.001470 0.004943 -0.003695 0.000000 0.035515 0.000000
# 6 0.000000 0.000000 0.000000 0.015586 0.000000 0.042686
#
#
# Mechanical properties :
#
#
# Convention : Reuss Voigt Hill
#
# Bulk Modulus (GPa) = 19.45374 20.78968 20.12171
# Shear Modulus (GPa) = 15.87450 23.32795 19.60122
#
# Velocity S-wave (km/s) = 2.94578 3.57099 3.27335
# Velocity P-wave (km/s) = 4.71215 5.32608 5.02849
#
# Compressibility (1/GPa) = 0.05140399
#
# Stress axis : x y z
#
# Youngs Moduli (GPa) = 40.69980 59.93694 63.04510
#
# Poissons Ratio (x) = 0.22999 -0.17905
# Poissons Ratio (y) = 0.15617 0.11719
# Poissons Ratio (z) = -0.11559 0.11141
#
# Static dielectric constant tensor:
#      x y z
#    x 1.640710 0.000000 0.008680 
#    y 0.000000 1.611720 0.000000 
#    z 0.008680 0.000000 1.639600 
# 
# From -- ./inp_files/60970.got.cif
#   From: 2010.05.17/outbox.cif.g08.bks.cpg/sg10_31_cif.got.tgz:60970.got - 2010.06.03 11:33:40.
