data_PCOD9154112
_publ_section_title
;
Structure prediction by ZEFSAII (Michael W. Deem and Ramdas Pophale) SiO2 
 PCOD9154112
Probable space group: P 2/M
;
_chemical_formula_sum "Si O2"
_cell_formula_units_Z 20
_cell_length_a 9.786891
_cell_length_b 7.808466
_cell_length_c 13.471265
_cell_angle_alpha 90.000000
_cell_angle_beta 106.154692
_cell_angle_gamma 90.000000
_cell_volume 988.832099
_symmetry_space_group_name_H-M "P 2/M"
_symmetry_group_IT_number 10
_symmetry_cell_setting 'monoclinic'
loop_
_space_group_symop_operation_xyz
x,y,z
-x,y,-z
-x,-y,-z
x,-y,z
loop_
_atom_site_type_symbol
_atom_site_label
_atom_site_fract_x
_atom_site_fract_y
_atom_site_fract_z
Si Si1 0.340869 0.793293 0.993237
Si Si2 0.773614 0.801828 0.812741
Si Si3 0.337301 0.500000 0.346267
Si Si4 0.323863 0.500000 0.577041
Si Si5 0.929366 0.299226 0.188180
Si Si6 0.871856 0.804711 0.397427
O O1 0.222025 0.723780 0.894902
O O2 0.338322 0.000000 0.984154
O O3 0.500000 0.734177 0.000000
O O4 0.295616 0.751351 0.096365
O O5 0.721445 0.669436 0.719229
O O6 0.944340 0.783155 0.850442
O O7 0.737390 0.000000 0.784020
O O8 0.296258 0.500000 0.453430
O O9 0.507886 0.500000 0.373068
O O10 0.250630 0.666850 0.608925
O O11 0.959691 0.500000 0.205370
O O12 0.926328 0.216046 0.296200
O O13 0.000000 0.769965 0.500000
O O14 0.823347 0.000000 0.403369
#
# Coordination Sequence:
#
# PCOD9154112 Si02
#       6
#     4   4   2   2   4   4
#     4  10  24  43  65  96 133 173 221 272 327 395
#     4  11  24  44  69  95 133 177 221 271 328 393
#     4  11  26  44  67  97 134 174 223 269 334 399
#     4  11  25  44  65  98 136 173 218 281 331 384
#     4  12  24  40  68  99 134 174 221 274 330 392
#     4  11  24  42  69  99 132 175 225 272 327 390
#
# _framework density 20.225881000000001
#
# number of rings (size 3 to 8) (size 9 to 14) (size 15 to 20)
#    0.000    1.000    2.000    3.900    4.200    6.000 
#    0.000    2.000    0.000    0.000    0.000    0.000 
#    0.000    0.000    0.000    0.000    0.000    0.000 
#
# Total GULP energy -111920.607029 kJ/mol
# GULP energy per Si atom -5596.030351 kJ/mol
# Density = 2.017985 g / cm^3
# Si number density = 20.225881 Si / 1000 Ang^3
#
#
#
# Elastic Constant Matrix: (Units=GPa)
#
#
# Indices 1 2 3 4 5 6 
#
# 1 139.3043 31.7122 55.9088 0.0000 -17.5006 0.0000
# 2 31.7122 75.3161 15.1698 0.0000 3.8031 0.0000
# 3 55.9088 15.1698 87.7715 0.0000 1.3344 0.0000
# 4 0.0000 0.0000 0.0000 31.0226 0.0000 4.2036
# 5 -17.5006 3.8031 1.3344 0.0000 29.0919 0.0000
# 6 0.0000 0.0000 0.0000 4.2036 0.0000 17.6127
#
#
#
# Elastic Compliance Matrix: (Units=1/GPa)
#
#
# Indices 1 2 3 4 5 6 
#
# 1 0.011914 -0.004008 -0.007018 0.000000 0.008013 0.000000
# 2 -0.004008 0.015188 -0.000005 0.000000 -0.004396 0.000000
# 3 -0.007018 -0.000005 0.015940 0.000000 -0.004952 0.000000
# 4 0.000000 0.000000 0.000000 0.033312 0.000000 -0.007950
# 5 0.008013 -0.004396 -0.004952 0.000000 0.039996 0.000000
# 6 0.000000 0.000000 0.000000 -0.007950 0.000000 0.058675
#
#
# Mechanical properties :
#
#
# Convention : Reuss Voigt Hill
#
# Bulk Modulus (GPa) = 47.66554 56.44150 52.05352
# Shear Modulus (GPa) = 24.50016 28.85218 26.67617
#
# Velocity S-wave (km/s) = 3.48419 3.78100 3.63562
# Velocity P-wave (km/s) = 6.30903 6.85765 6.58905
#
# Compressibility (1/GPa) = 0.02097952
#
# Stress axis : x y z
#
# Youngs Moduli (GPa) = 83.93294 65.84211 62.73524
#
# Poissons Ratio (x) = 0.26387 0.44030
# Poissons Ratio (y) = 0.33637 0.00034
# Poissons Ratio (z) = 0.58907 0.00035
#
# Static dielectric constant tensor:
#      x y z
#    x 1.703130 0.000000 -0.002100 
#    y 0.000000 1.701970 0.000000 
#    z -0.002100 0.000000 1.681020 
# 
# From -- ./inp_files/40900.got.cif
#   From: 2010.05.17/outbox.cif.g08.bks.cpg/sg10_21_cif.got.tgz:40900.got - 2010.06.03 11:33:40.
