data_PCOD9154634
_publ_section_title
;
Structure prediction by ZEFSAII (Michael W. Deem and Ramdas Pophale) SiO2 
 PCOD9154634
Probable space group: P 2/M
;
_chemical_formula_sum "Si O2"
_cell_formula_units_Z 28
_cell_length_a 14.519159
_cell_length_b 20.321437
_cell_length_c 9.116392
_cell_angle_alpha 90.000000
_cell_angle_beta 150.351449
_cell_angle_gamma 90.000000
_cell_volume 1330.582732
_symmetry_space_group_name_H-M "P 2/M"
_symmetry_group_IT_number 10
_symmetry_cell_setting 'monoclinic'
loop_
_space_group_symop_operation_xyz
x,y,z
-x,y,-z
-x,-y,-z
x,-y,z
loop_
_atom_site_type_symbol
_atom_site_label
_atom_site_fract_x
_atom_site_fract_y
_atom_site_fract_z
Si Si1 0.642935 0.428572 0.832956
Si Si2 0.360363 0.846143 0.183357
Si Si3 0.952914 0.571428 0.762893
Si Si4 0.888878 0.288396 0.574818
Si Si5 0.699482 0.925492 0.199482
Si Si6 0.702939 0.711604 0.016999
Si Si7 0.037370 0.846143 0.214376
O O1 0.500000 0.425912 0.500000
O O2 0.616524 0.500000 0.871124
O O3 0.852020 0.428430 0.056059
O O4 0.620232 0.361410 0.890753
O O5 0.500000 0.872508 0.500000
O O6 0.331945 0.888072 0.997178
O O7 0.414466 0.771346 0.212664
O O8 0.160591 0.842459 0.981773
O O9 0.861924 0.500000 0.607324
O O10 0.849712 0.638590 0.579191
O O11 0.000000 0.574088 0.000000
O O12 0.752284 0.272163 0.252284
O O13 0.883731 0.228654 0.681928
O O14 0.097911 0.290293 0.793733
O O15 0.833288 0.888072 0.498521
O O16 0.767410 0.000000 0.267410
O O17 0.500000 0.928424 0.000000
O O18 0.000000 0.872508 0.000000
#
# Coordination Sequence:
#
# PCOD9154634 Si02
#       7
#     4   4   4   4   4   4   4
#     4   9  17  29  47  71 102 142 187 236 287 340
#     4  11  22  39  64  92 124 162 201 245 296 352
#     4   9  17  29  47  71 102 142 187 236 287 340
#     4   9  17  31  52  79 111 146 191 243 291 341
#     4  11  25  45  67  93 124 155 194 244 295 355
#     4   9  17  31  52  79 111 146 191 243 291 341
#     4  11  22  39  64  92 124 162 201 245 296 352
#
# _framework density 21.043412
#
# number of rings (size 3 to 8) (size 9 to 14) (size 15 to 20)
#    0.000    2.143    1.429    2.143    0.000    2.286 
#    0.000    4.286    0.000    0.000    0.000    4.000 
#    0.000    0.000    0.000    0.000    0.000    0.000 
#
# Total GULP energy -156254.220120 kJ/mol
# GULP energy per Si atom -5580.507861 kJ/mol
# Density = 2.099552 g / cm^3
# Si number density = 21.043412 Si / 1000 Ang^3
#
#
#
# Elastic Constant Matrix: (Units=GPa)
#
#
# Indices 1 2 3 4 5 6 
#
# 1 51.4259 33.6805 18.3306 0.0000 -20.3317 0.0000
# 2 33.6805 149.7187 57.9280 0.0000 -24.6704 0.0000
# 3 18.3306 57.9280 99.7191 0.0000 -28.8042 0.0000
# 4 0.0000 0.0000 0.0000 -5.7922 0.0000 -39.4963
# 5 -20.3317 -24.6704 -28.8042 0.0000 35.1594 0.0000
# 6 0.0000 0.0000 0.0000 -39.4963 0.0000 -44.6070
#
#
#
# Elastic Compliance Matrix: (Units=1/GPa)
#
#
# Indices 1 2 3 4 5 6 
#
# 1 0.027326 -0.004466 0.001612 0.000000 0.013989 0.000000
# 2 -0.004466 0.009523 -0.004620 0.000000 0.000315 0.000000
# 3 0.001612 -0.004620 0.015391 0.000000 0.010299 0.000000
# 4 0.000000 0.000000 0.000000 0.034271 0.000000 -0.030345
# 5 0.013989 0.000315 0.010299 0.000000 0.045189 0.000000
# 6 0.000000 0.000000 0.000000 -0.030345 0.000000 0.004450
#
#
# Mechanical properties :
#
#
# Convention : Reuss Voigt Hill
#
# Bulk Modulus (GPa) = 26.81568 57.86021 42.33794
# Shear Modulus (GPa) = 30.57528 9.68034 20.12781
#
# Velocity S-wave (km/s) = 3.81591 2.14713 3.09607
# Velocity P-wave (km/s) = 5.67323 5.80536 5.73968
#
# Compressibility (1/GPa) = 0.03729162
#
# Stress axis : x y z
#
# Youngs Moduli (GPa) = 36.59459 105.00477 64.97384
#
# Poissons Ratio (x) = 0.46894 -0.10473
# Poissons Ratio (y) = 0.16343 0.30021
# Poissons Ratio (z) = -0.05898 0.48517
#
# Static dielectric constant tensor:
#      x y z
#    x 1.741540 0.000000 0.016610 
#    y 0.000000 1.805010 0.000000 
#    z 0.016610 0.000000 1.725210 
# 
# From -- ./inp_files/30353.got.cif
#   From: 2010.05.17/outbox.cif.g08.bks.cpg/sg10_16_cif.got.tgz:30353.got - 2010.06.03 11:33:40.
