data_PCOD9154829
_publ_section_title
;
Structure prediction by ZEFSAII (Michael W. Deem and Ramdas Pophale) SiO2 
 PCOD9154829
Probable space group: P 2/M
;
_chemical_formula_sum "Si O2"
_cell_formula_units_Z 22
_cell_length_a 10.184902
_cell_length_b 15.584464
_cell_length_c 6.770935
_cell_angle_alpha 90.000000
_cell_angle_beta 104.459300
_cell_angle_gamma 90.000000
_cell_volume 1040.683401
_symmetry_space_group_name_H-M "P 2/M"
_symmetry_group_IT_number 10
_symmetry_cell_setting 'monoclinic'
loop_
_space_group_symop_operation_xyz
x,y,z
-x,y,-z
-x,-y,-z
x,-y,z
loop_
_atom_site_type_symbol
_atom_site_label
_atom_site_fract_x
_atom_site_fract_y
_atom_site_fract_z
Si Si1 0.000000 0.352193 0.000000
Si Si2 0.500000 0.214908 0.500000
Si Si3 0.187986 0.780622 0.922950
Si Si4 0.592674 0.335680 0.201192
Si Si5 0.000000 0.846163 0.500000
Si Si6 0.944923 0.500000 0.696208
Si Si7 0.758054 0.099502 0.694870
Si Si8 0.347892 0.500000 0.535037
O O1 0.127476 0.290268 0.047586
O O2 0.002445 0.415135 0.817894
O O3 0.504580 0.279387 0.318130
O O4 0.633560 0.156087 0.564520
O O5 0.314602 0.735381 0.868892
O O6 0.083418 0.796956 0.703341
O O7 0.209693 0.862379 0.073581
O O8 0.665636 0.412521 0.343787
O O9 0.500000 0.377824 0.000000
O O10 0.884796 0.893215 0.589770
O O11 0.781759 0.500000 0.657387
O O12 0.000000 0.500000 0.500000
O O13 0.720187 0.000000 0.697484
O O14 0.500000 0.500000 0.500000
#
# Coordination Sequence:
#
# PCOD9154829 Si02
#       8
#     2   2   4   4   2   2   4   2
#     4  11  26  44  71 100 142 184 235 288 354 423
#     4  12  25  49  74 106 140 194 238 281 361 438
#     4  12  26  44  76 105 140 188 238 295 351 432
#     4  12  26  47  73 103 144 188 240 290 357 417
#     4  12  25  46  74 105 138 188 228 293 362 418
#     4  11  27  47  68 102 141 187 234 290 350 431
#     4  12  27  48  73 109 144 183 240 300 358 426
#     4  12  28  43  73 105 144 183 237 300 344 418
#
# _framework density 21.139953999999999
#
# number of rings (size 3 to 8) (size 9 to 14) (size 15 to 20)
#    0.000    0.182    6.364    1.909    8.909    2.909 
#    0.000    0.909    0.000    0.000    0.000    0.000 
#    0.000    0.000    0.000    0.000    0.000    0.000 
#
# Total GULP energy -122883.992516 kJ/mol
# GULP energy per Si atom -5585.636023 kJ/mol
# Density = 2.109184 g / cm^3
# Si number density = 21.139954 Si / 1000 Ang^3
#
#
#
# Elastic Constant Matrix: (Units=GPa)
#
#
# Indices 1 2 3 4 5 6 
#
# 1 66.3343 1.3433 1.2371 0.0000 -14.5882 0.0000
# 2 1.3433 112.8918 24.1472 0.0000 -4.6666 0.0000
# 3 1.2371 24.1472 80.3689 0.0000 -6.3570 0.0000
# 4 0.0000 0.0000 0.0000 31.3020 0.0000 -8.2034
# 5 -14.5882 -4.6666 -6.3570 0.0000 43.6510 0.0000
# 6 0.0000 0.0000 0.0000 -8.2034 0.0000 33.9070
#
#
#
# Elastic Compliance Matrix: (Units=1/GPa)
#
#
# Indices 1 2 3 4 5 6 
#
# 1 0.016274 -0.000007 0.000184 0.000000 0.005465 0.000000
# 2 -0.000007 0.009482 -0.002801 0.000000 0.000603 0.000000
# 3 0.000184 -0.002801 0.013417 0.000000 0.001716 0.000000
# 4 0.000000 0.000000 0.000000 0.034110 0.000000 0.008252
# 5 0.005465 0.000603 0.001716 0.000000 0.025050 0.000000
# 6 0.000000 0.000000 0.000000 0.008252 0.000000 0.031489
#
#
# Mechanical properties :
#
#
# Convention : Reuss Voigt Hill
#
# Bulk Modulus (GPa) = 29.47736 34.78336 32.13036
# Shear Modulus (GPa) = 34.15813 37.29649 35.72731
#
# Velocity S-wave (km/s) = 4.02407 4.20487 4.11547
# Velocity P-wave (km/s) = 5.96365 6.32963 6.14936
#
# Compressibility (1/GPa) = 0.03392434
#
# Stress axis : x y z
#
# Youngs Moduli (GPa) = 61.44895 105.46054 74.53153
#
# Poissons Ratio (x) = 0.00075 -0.01370
# Poissons Ratio (y) = 0.00044 0.20877
# Poissons Ratio (z) = -0.01130 0.29541
#
# Static dielectric constant tensor:
#      x y z
#    x 1.781500 0.000000 0.044630 
#    y 0.000000 1.689250 0.000000 
#    z 0.044630 0.000000 1.657980 
# 
# From -- ./inp_files/6857.got.cif
#   From: 2010.05.17/outbox.cif.g08.bks.cpg/sg10_4_cif.got.tgz:6857.got - 2010.06.03 11:33:40.
