data_PCOD9154149
_publ_section_title
;
Structure prediction by ZEFSAII (Michael W. Deem and Ramdas Pophale) SiO2 
 PCOD9154149
Probable space group: P 2/M
;
_chemical_formula_sum "Si O2"
_cell_formula_units_Z 15
_cell_length_a 7.253683
_cell_length_b 19.845660
_cell_length_c 6.495800
_cell_angle_alpha 90.000000
_cell_angle_beta 137.461767
_cell_angle_gamma 90.000000
_cell_volume 632.202429
_symmetry_space_group_name_H-M "P 2/M"
_symmetry_group_IT_number 10
_symmetry_cell_setting 'monoclinic'
loop_
_space_group_symop_operation_xyz
x,y,z
-x,y,-z
-x,-y,-z
x,-y,z
loop_
_atom_site_type_symbol
_atom_site_label
_atom_site_fract_x
_atom_site_fract_y
_atom_site_fract_z
Si Si1 0.912866 0.345910 0.669440
Si Si2 0.500000 0.896693 0.500000
Si Si3 0.586148 0.575338 0.829606
Si Si4 0.000000 0.000000 0.000000
Si Si5 0.294135 0.212271 0.645645
O O1 0.694771 0.405460 0.510968
O O2 0.773563 0.273137 0.568708
O O3 0.000000 0.345529 0.500000
O O4 0.191986 0.365452 0.010104
O O5 0.573357 0.849119 0.367187
O O6 0.762650 0.941735 0.768074
O O7 0.685601 0.500000 0.867759
O O8 0.500000 0.574930 0.000000
O O9 0.000000 0.193124 0.500000
O O10 0.500000 0.233736 0.000000
#
# Coordination Sequence:
#
# PCOD9154149 Si02
#       5
#     4   2   4   1   4
#     4   9  16  27  44  72 108 144 192 248 288 340
#     4  11  24  46  68  94 127 162 194 242 297 356
#     4   9  15  23  38  65 105 149 191 241 298 346
#     4  10  24  46  68  94 132 156 194 246 284 354
#     4  11  22  39  64  93 124 160 204 250 299 353
#
# _framework density 23.726578
#
# number of rings (size 3 to 8) (size 9 to 14) (size 15 to 20)
#    0.000    2.133    0.000    6.400    0.000    3.200 
#    0.000   13.333    0.000    0.000    0.000    5.600 
#    0.000    0.000    0.000    8.267    0.000    0.000 
#
# Total GULP energy -83665.105305 kJ/mol
# GULP energy per Si atom -5577.673687 kJ/mol
# Density = 2.367258 g / cm^3
# Si number density = 23.726578 Si / 1000 Ang^3
#
#
#
# Elastic Constant Matrix: (Units=GPa)
#
#
# Indices 1 2 3 4 5 6 
#
# 1 71.5768 36.3695 29.1347 0.0000 13.6482 0.0000
# 2 36.3695 184.5775 82.7143 0.0000 16.9180 0.0000
# 3 29.1347 82.7143 209.2324 0.0000 12.4400 0.0000
# 4 0.0000 0.0000 0.0000 30.9091 0.0000 15.1420
# 5 13.6482 16.9180 12.4400 0.0000 42.6079 0.0000
# 6 0.0000 0.0000 0.0000 15.1420 0.0000 -21.1909
#
#
#
# Elastic Compliance Matrix: (Units=1/GPa)
#
#
# Indices 1 2 3 4 5 6 
#
# 1 0.016385 -0.002366 -0.001109 0.000000 -0.003985 0.000000
# 2 -0.002366 0.007078 -0.002388 0.000000 -0.001355 0.000000
# 3 -0.001109 -0.002388 0.005903 0.000000 -0.000420 0.000000
# 4 0.000000 0.000000 0.000000 0.023964 0.000000 0.017124
# 5 -0.003985 -0.001355 -0.000420 0.000000 0.025407 0.000000
# 6 0.000000 0.000000 0.000000 0.017124 0.000000 -0.034954
#
#
# Mechanical properties :
#
#
# Convention : Reuss Voigt Hill
#
# Bulk Modulus (GPa) = 56.69278 84.64707 70.66993
# Shear Modulus (GPa) = 81.44694 31.60978 56.52836
#
# Velocity S-wave (km/s) = 5.86531 3.65396 4.88637
# Velocity P-wave (km/s) = 8.35555 7.31816 7.85400
#
# Compressibility (1/GPa) = 0.01763893
#
# Stress axis : x y z
#
# Youngs Moduli (GPa) = 61.03282 141.27359 169.40824
#
# Poissons Ratio (x) = 0.33427 0.18790
# Poissons Ratio (y) = 0.14441 0.40458
# Poissons Ratio (z) = 0.06770 0.33739
#
# Static dielectric constant tensor:
#      x y z
#    x 2.068170 0.000000 -0.085250 
#    y 0.000000 1.858950 0.000000 
#    z -0.085250 0.000000 1.866740 
# 
# From -- ./inp_files/19801.got.cif
#   From: 2010.05.17/outbox.cif.g08.bks.cpg/sg10_10_cif.got.tgz:19801.got - 2010.06.03 11:33:40.
