data_PCOD9154405
_publ_section_title
;
Structure prediction by ZEFSAII (Michael W. Deem and Ramdas Pophale) SiO2 
 PCOD9154405
Probable space group: P 2/M
;
_chemical_formula_sum "Si O2"
_cell_formula_units_Z 30
_cell_length_a 14.207176
_cell_length_b 30.873649
_cell_length_c 12.085574
_cell_angle_alpha 90.000000
_cell_angle_beta 159.159017
_cell_angle_gamma 90.000000
_cell_volume 1885.988729
_symmetry_space_group_name_H-M "P 2/M"
_symmetry_group_IT_number 10
_symmetry_cell_setting 'monoclinic'
loop_
_space_group_symop_operation_xyz
x,y,z
-x,y,-z
-x,-y,-z
x,-y,z
loop_
_atom_site_type_symbol
_atom_site_label
_atom_site_fract_x
_atom_site_fract_y
_atom_site_fract_z
Si Si1 0.934307 0.450327 0.795731
Si Si2 0.797960 0.160412 0.876242
Si Si3 0.049731 0.251923 0.185481
Si Si4 0.791668 0.000000 0.869117
Si Si5 0.800123 0.919544 0.042131
Si Si6 0.556159 0.700660 0.695125
Si Si7 0.564062 0.601333 0.702306
Si Si8 0.354279 0.948177 0.722755
O O1 0.952784 0.500000 0.778511
O O2 0.644756 0.430109 0.469393
O O3 0.000000 0.450577 0.000000
O O4 0.145592 0.418902 0.970685
O O5 0.500000 0.169670 0.500000
O O6 0.774236 0.124545 0.944906
O O7 0.000000 0.145647 0.000000
O O8 0.942879 0.203242 0.083307
O O9 0.352102 0.266545 0.529759
O O10 0.000000 0.259102 0.000000
O O11 0.854477 0.283271 0.036389
O O12 0.500000 0.000000 0.500000
O O13 0.823051 0.042278 0.977792
O O14 0.000000 0.000000 0.000000
O O15 0.072453 0.924205 0.409801
O O16 0.547380 0.929454 0.840664
O O17 0.500000 0.702007 0.500000
O O18 0.529220 0.650898 0.700717
O O19 0.500000 0.601431 0.500000
O O20 0.315395 0.000000 0.661603
O O21 0.500000 0.943346 0.000000
#
# Coordination Sequence:
#
# PCOD9154405 Si02
#       8
#     4   4   4   2   4   4   4   4
#     4   9  15  21  27  36  53  76 101 135 186 246
#     4  11  21  34  48  68  95 124 148 171 206 262
#     4   9  16  26  39  53  73 100 129 158 194 235
#     4  12  22  34  49  72 101 128 152 176 206 248
#     4  12  22  37  54  75  97 124 151 181 217 257
#     4   9  15  23  35  49  64  86 120 161 195 230
#     4   9  15  21  29  41  55  74 106 146 188 232
#     4  11  22  39  58  76  94 117 151 190 224 253
#
# _framework density 15.906776000000001
#
# number of rings (size 3 to 8) (size 9 to 14) (size 15 to 20)
#    0.000    1.867    1.333    6.000    0.000    5.867 
#    0.000    0.000    0.000    0.000    0.000    0.000 
#    0.000    0.000    0.000    0.000    0.000    0.000 
#
# Total GULP energy -167183.326737 kJ/mol
# GULP energy per Si atom -5572.777558 kJ/mol
# Density = 1.587057 g / cm^3
# Si number density = 15.906776 Si / 1000 Ang^3
#
#
#
# Elastic Constant Matrix: (Units=GPa)
#
#
# Indices 1 2 3 4 5 6 
#
# 1 28.2794 16.6783 5.8319 0.0000 12.5304 0.0000
# 2 16.6783 94.6354 21.2969 0.0000 7.0023 0.0000
# 3 5.8319 21.2969 49.0953 0.0000 15.1233 0.0000
# 4 0.0000 0.0000 0.0000 15.2178 0.0000 13.6001
# 5 12.5304 7.0023 15.1233 0.0000 23.7578 0.0000
# 6 0.0000 0.0000 0.0000 13.6001 0.0000 11.1842
#
#
#
# Elastic Compliance Matrix: (Units=1/GPa)
#
#
# Indices 1 2 3 4 5 6 
#
# 1 0.051837 -0.008438 0.006417 0.000000 -0.028938 0.000000
# 2 -0.008438 0.013085 -0.006041 0.000000 0.004440 0.000000
# 3 0.006417 -0.006041 0.028263 0.000000 -0.019595 0.000000
# 4 0.000000 0.000000 0.000000 -0.757523 0.000000 0.921154
# 5 -0.028938 0.004440 -0.019595 0.000000 0.068519 0.000000
# 6 0.000000 0.000000 0.000000 0.921154 0.000000 -1.030719
#
#
# Mechanical properties :
#
#
# Convention : Reuss Voigt Hill
#
# Bulk Modulus (GPa) = 12.97710 28.84717 20.91213
# Shear Modulus (GPa) = -3.15512 18.57883 7.71185
#
# Velocity S-wave (km/s) = -1.40990 3.42128 2.20424
# Velocity P-wave (km/s) = 2.35064 5.81218 4.43322
#
# Compressibility (1/GPa) = 0.07705881
#
# Stress axis : x y z
#
# Youngs Moduli (GPa) = 19.29130 76.42282 35.38204
#
# Poissons Ratio (x) = 0.64489 -0.22704
# Poissons Ratio (y) = 0.16279 0.21376
# Poissons Ratio (z) = -0.12379 0.46170
#
# Static dielectric constant tensor:
#      x y z
#    x 1.515560 0.000000 0.026520 
#    y 0.000000 1.526250 0.000000 
#    z 0.026520 0.000000 1.547050 
# 
# From -- ./inp_files/52137.got.cif
#   From: 2010.05.17/outbox.cif.g08.bks.cpg/sg10_27_cif.got.tgz:52137.got - 2010.06.03 11:33:40.
