data_PCOD9154401
_publ_section_title
;
Structure prediction by ZEFSAII (Michael W. Deem and Ramdas Pophale) SiO2 
 PCOD9154401
Probable space group: P 2/M
;
_chemical_formula_sum "Si O2"
_cell_formula_units_Z 32
_cell_length_a 17.658945
_cell_length_b 8.403846
_cell_length_c 12.023496
_cell_angle_alpha 90.000000
_cell_angle_beta 71.794115
_cell_angle_gamma 90.000000
_cell_volume 1695.000233
_symmetry_space_group_name_H-M "P 2/M"
_symmetry_group_IT_number 10
_symmetry_cell_setting 'monoclinic'
loop_
_space_group_symop_operation_xyz
x,y,z
-x,y,-z
-x,-y,-z
x,-y,z
loop_
_atom_site_type_symbol
_atom_site_label
_atom_site_fract_x
_atom_site_fract_y
_atom_site_fract_z
Si Si1 0.731099 0.687816 0.489936
Si Si2 0.358836 0.811201 0.263930
Si Si3 0.194896 0.693603 0.959357
Si Si4 0.413350 0.812934 0.586401
Si Si5 0.465674 0.685481 0.787743
Si Si6 0.350905 0.189820 0.012805
Si Si7 0.862263 0.695069 0.260053
Si Si8 0.029431 0.316504 0.115141
O O1 0.738906 0.500000 0.504971
O O2 0.708679 0.768714 0.616201
O O3 0.656933 0.719580 0.441262
O O4 0.809309 0.746205 0.388487
O O5 0.441458 0.728298 0.260487
O O6 0.339505 0.763467 0.146538
O O7 0.373064 0.000000 0.260175
O O8 0.195469 0.500000 0.961362
O O9 0.179665 0.740310 0.837715
O O10 0.275665 0.756742 0.974350
O O11 0.118181 0.751883 0.066193
O O12 0.500000 0.763743 0.500000
O O13 0.418216 0.781884 0.715180
O O14 0.402845 0.000000 0.567303
O O15 0.453896 0.500000 0.771742
O O16 0.428949 0.732207 0.922979
O O17 0.359715 0.000000 0.003949
O O18 0.864505 0.500000 0.258540
O O19 0.953922 0.753161 0.215216
O O20 0.038087 0.500000 0.148060
O O21 0.000000 0.320532 0.000000
#
# Coordination Sequence:
#
# PCOD9154401 Si02
#       8
#     4   4   4   4   4   4   4   4
#     4  11  21  33  54  81 108 139 179 225 264 305
#     4  11  24  41  55  70  99 142 183 218 266 320
#     4   9  16  30  55  83 108 136 171 211 256 310
#     4  11  22  36  55  77 108 145 173 204 256 319
#     4  12  24  38  59  82 103 129 173 227 269 309
#     4  11  24  39  55  74 103 140 176 218 267 320
#     4   8  15  28  49  82 114 136 163 206 262 315
#     4   7  11  23  47  78 110 138 163 199 254 315
#
# _framework density 18.879052999999999
#
# number of rings (size 3 to 8) (size 9 to 14) (size 15 to 20)
#    0.000    2.000    1.250    5.250    0.000    5.000 
#    0.000    0.625    0.000    5.625    0.000    5.250 
#    0.000    0.000    0.000    0.000    0.000    0.000 
#
# Total GULP energy -178603.733612 kJ/mol
# GULP energy per Si atom -5581.366675 kJ/mol
# Density = 1.883608 g / cm^3
# Si number density = 18.879053 Si / 1000 Ang^3
#
#
#
# Elastic Constant Matrix: (Units=GPa)
#
#
# Indices 1 2 3 4 5 6 
#
# 1 29.6032 -1.6628 24.3319 0.0000 -17.4205 0.0000
# 2 -1.6628 9.8126 0.2927 0.0000 -3.4087 0.0000
# 3 24.3319 0.2927 124.6795 0.0000 -22.5571 0.0000
# 4 0.0000 0.0000 0.0000 24.5973 0.0000 2.1338
# 5 -17.4205 -3.4087 -22.5571 0.0000 32.6746 0.0000
# 6 0.0000 0.0000 0.0000 2.1338 0.0000 -1.2068
#
#
#
# Elastic Compliance Matrix: (Units=1/GPa)
#
#
# Indices 1 2 3 4 5 6 
#
# 1 0.056156 0.019365 -0.005968 0.000000 0.027840 0.000000
# 2 0.019365 0.112857 -0.000053 0.000000 0.022062 0.000000
# 3 -0.005968 -0.000053 0.009837 0.000000 0.003604 0.000000
# 4 0.000000 0.000000 0.000000 0.035248 0.000000 0.062325
# 5 0.027840 0.022062 0.003604 0.000000 0.050237 0.000000
# 6 0.000000 0.000000 0.000000 0.062325 0.000000 -0.718441
#
#
# Mechanical properties :
#
#
# Convention : Reuss Voigt Hill
#
# Bulk Modulus (GPa) = 4.86524 23.33541 14.10032
# Shear Modulus (GPa) = -12.12763 20.62192 4.24714
#
# Velocity S-wave (km/s) = -2.53728 3.30861 1.50151
# Velocity P-wave (km/s) = 2.44971 5.19453 3.23899
#
# Compressibility (1/GPa) = 0.20553965
#
# Stress axis : x y z
#
# Youngs Moduli (GPa) = 17.80760 8.86075 101.65302
#
# Poissons Ratio (x) = -0.17159 0.60664
# Poissons Ratio (y) = -0.34485 0.00536
# Poissons Ratio (z) = 0.10627 0.00047
#
# Static dielectric constant tensor:
#      x y z
#    x 1.638540 0.000000 -0.029610 
#    y 0.000000 1.645530 0.000000 
#    z -0.029610 0.000000 1.691060 
# 
# From -- ./inp_files/54769.got.cif
#   From: 2010.05.17/outbox.cif.g08.bks.cpg/sg10_28_cif.got.tgz:54769.got - 2010.06.03 11:33:40.
