data_PCOD9154557
_publ_section_title
;
Structure prediction by ZEFSAII (Michael W. Deem and Ramdas Pophale) SiO2 
 PCOD9154557
Probable space group: P 2/M
;
_chemical_formula_sum "Si O2"
_cell_formula_units_Z 32
_cell_length_a 29.166654
_cell_length_b 13.743389
_cell_length_c 10.228724
_cell_angle_alpha 90.000000
_cell_angle_beta 29.317737
_cell_angle_gamma 90.000000
_cell_volume 2007.658266
_symmetry_space_group_name_H-M "P 2/M"
_symmetry_group_IT_number 10
_symmetry_cell_setting 'monoclinic'
loop_
_space_group_symop_operation_xyz
x,y,z
-x,y,-z
-x,-y,-z
x,-y,z
loop_
_atom_site_type_symbol
_atom_site_label
_atom_site_fract_x
_atom_site_fract_y
_atom_site_fract_z
Si Si1 0.208025 0.883773 0.247987
Si Si2 0.304095 0.798480 0.262520
Si Si3 0.990315 0.882500 0.374537
Si Si4 0.499307 0.115418 0.850818
Si Si5 0.380806 0.612664 0.653632
Si Si6 0.689390 0.190999 0.259272
Si Si7 0.803508 0.117313 0.224249
Si Si8 0.398255 0.612577 0.922577
O O1 0.243668 0.832368 0.289440
O O2 0.104727 0.849940 0.459010
O O3 0.206024 0.000000 0.273426
O O4 0.277781 0.857928 0.956573
O O5 0.246695 0.825125 0.534831
O O6 0.400736 0.858663 0.031572
O O7 0.338374 0.688092 0.155360
O O8 0.000000 0.846569 0.500000
O O9 0.982972 0.000000 0.401373
O O10 0.085823 0.862434 0.059829
O O11 0.585378 0.159462 0.558200
O O12 0.512016 0.000000 0.822954
O O13 0.500000 0.151098 0.000000
O O14 0.356733 0.500000 0.687010
O O15 0.315838 0.692890 0.748010
O O16 0.378446 0.627336 0.816850
O O17 0.489612 0.627251 0.341277
O O18 0.757191 0.152143 0.204083
O O19 0.789399 0.000000 0.273853
O O20 0.378147 0.500000 0.003470
#
# Coordination Sequence:
#
# PCOD9154557 Si02
#       8
#     4   4   4   4   4   4   4   4
#     4  11  22  34  53  82 111 137 183 233 265 314
#     4  12  22  35  52  81 112 145 182 221 269 320
#     4   9  18  35  56  77 103 142 185 227 268 314
#     4  11  22  34  48  71 115 160 182 202 257 329
#     4   9  18  34  54  77 104 139 185 233 270 309
#     4  12  20  33  55  80 105 145 186 216 262 325
#     4  11  22  36  55  78 112 151 182 215 267 329
#     4   9  18  35  54  74 105 144 182 227 273 315
#
# _framework density 15.938967
#
# number of rings (size 3 to 8) (size 9 to 14) (size 15 to 20)
#    0.000    1.500    5.000    3.000    0.000    1.000 
#    0.000    3.750    0.000    2.250    0.000    5.250 
#    0.000    0.000    0.000    0.000    0.000    0.000 
#
# Total GULP energy -178527.381303 kJ/mol
# GULP energy per Si atom -5578.980666 kJ/mol
# Density = 1.590269 g / cm^3
# Si number density = 15.938967 Si / 1000 Ang^3
#
#
#
# Elastic Constant Matrix: (Units=GPa)
#
#
# Indices 1 2 3 4 5 6 
#
# 1 40.4449 0.8529 -13.4739 0.0000 -3.6706 0.0000
# 2 0.8529 76.9184 10.0140 0.0000 5.6742 0.0000
# 3 -13.4739 10.0140 33.5961 0.0000 -3.7632 0.0000
# 4 0.0000 0.0000 0.0000 10.9515 0.0000 8.3975
# 5 -3.6706 5.6742 -3.7632 0.0000 23.2783 0.0000
# 6 0.0000 0.0000 0.0000 8.3975 0.0000 15.7982
#
#
#
# Elastic Compliance Matrix: (Units=1/GPa)
#
#
# Indices 1 2 3 4 5 6 
#
# 1 0.030034 -0.002677 0.013695 0.000000 0.007602 0.000000
# 2 -0.002677 0.014144 -0.005829 0.000000 -0.004812 0.000000
# 3 0.013695 -0.005829 0.038086 0.000000 0.009737 0.000000
# 4 0.000000 0.000000 0.000000 0.154134 0.000000 -0.081930
# 5 0.007602 -0.004812 0.009737 0.000000 0.046904 0.000000
# 6 0.000000 0.000000 0.000000 -0.081930 0.000000 0.106848
#
#
# Mechanical properties :
#
#
# Convention : Reuss Voigt Hill
#
# Bulk Modulus (GPa) = 10.79422 16.19392 13.49407
# Shear Modulus (GPa) = 12.17576 20.24334 16.20955
#
# Velocity S-wave (km/s) = 2.76687 3.56765 3.19247
# Velocity P-wave (km/s) = 4.12242 5.21084 4.69825
#
# Compressibility (1/GPa) = 0.09264218
#
# Stress axis : x y z
#
# Youngs Moduli (GPa) = 33.29600 70.70001 26.25661
#
# Poissons Ratio (x) = 0.18924 -0.35957
# Poissons Ratio (y) = 0.08912 0.15304
# Poissons Ratio (z) = -0.45597 0.41208
#
# Static dielectric constant tensor:
#      x y z
#    x 1.536730 0.000000 0.001220 
#    y 0.000000 1.525060 0.000000 
#    z 0.001220 0.000000 1.527610 
# 
# From -- ./inp_files/35149.got.cif
#   From: 2010.05.17/outbox.cif.g08.bks.cpg/sg10_18_cif.got.tgz:35149.got - 2010.06.03 11:33:40.
