data_PCOD9154891
_publ_section_title
;
Structure prediction by ZEFSAII (Michael W. Deem and Ramdas Pophale) SiO2 
 PCOD9154891
Probable space group: P 2/M
;
_chemical_formula_sum "Si O2"
_cell_formula_units_Z 32
_cell_length_a 6.999156
_cell_length_b 7.536404
_cell_length_c 22.698276
_cell_angle_alpha 90.000000
_cell_angle_beta 89.442344
_cell_angle_gamma 90.000000
_cell_volume 1197.242559
_symmetry_space_group_name_H-M "P 2/M"
_symmetry_group_IT_number 10
_symmetry_cell_setting 'monoclinic'
loop_
_space_group_symop_operation_xyz
x,y,z
-x,y,-z
-x,-y,-z
x,-y,z
loop_
_atom_site_type_symbol
_atom_site_label
_atom_site_fract_x
_atom_site_fract_y
_atom_site_fract_z
Si Si1 0.989869 0.290957 0.819152
Si Si2 0.020394 0.702587 0.938632
Si Si3 0.877102 0.796789 0.697814
Si Si4 0.472317 0.296254 0.932189
Si Si5 0.182695 0.783601 0.425814
Si Si6 0.322727 0.709216 0.678731
Si Si7 0.569615 0.716211 0.197916
Si Si8 0.267996 0.211959 0.550112
O O1 0.009333 0.500000 0.829088
O O2 0.855641 0.273763 0.763674
O O3 0.927844 0.213684 0.881647
O O4 0.205124 0.229253 0.806170
O O5 0.947200 0.500000 0.945811
O O6 0.244454 0.693710 0.927613
O O7 0.000000 0.797948 0.000000
O O8 0.784681 0.711952 0.640094
O O9 0.108344 0.788808 0.685892
O O10 0.822709 0.000000 0.699743
O O11 0.545214 0.500000 0.934471
O O12 0.519120 0.223743 0.865210
O O13 0.500000 0.222781 0.000000
O O14 0.298495 0.721746 0.482949
O O15 0.957374 0.747430 0.438389
O O16 0.200329 0.000000 0.423697
O O17 0.295620 0.500000 0.687852
O O18 0.459509 0.769672 0.732478
O O19 0.374796 0.735985 0.609904
O O20 0.551218 0.500000 0.195727
O O21 0.289246 0.000000 0.547182
#
# Coordination Sequence:
#
# PCOD9154891 Si02
#       8
#     4   4   4   4   4   4   4   4
#     4   8  13  21  31  43  59  78 101 129 160 194
#     4   8  13  21  33  48  66  88 111 135 168 207
#     4   9  14  20  29  39  52  73 101 130 161 193
#     4   8  12  18  29  45  64  85 110 139 167 195
#     4   7  11  18  26  34  47  69  95 125 159 191
#     4   9  14  19  26  37  54  74  97 127 163 197
#     4   7  11  18  26  37  55  76  96 124 160 189
#     4   8  12  19  27  34  47  69  98 128 157 189
#
# _framework density 26.728083999999999
#
# number of rings (size 3 to 8) (size 9 to 14) (size 15 to 20)
#    0.000    4.000    0.000    4.500    0.000    0.000 
#    0.000    5.625    0.000    0.375    0.000    0.000 
#    0.000   50.000    0.000    0.000    0.000    1.250 
#
# Total GULP energy -178206.005107 kJ/mol
# GULP energy per Si atom -5568.937660 kJ/mol
# Density = 2.666725 g / cm^3
# Si number density = 26.728084 Si / 1000 Ang^3
#
#
#
# Elastic Constant Matrix: (Units=GPa)
#
#
# Indices 1 2 3 4 5 6 
#
# 1 88.3886 -0.7797 53.1495 0.0000 33.5156 0.0000
# 2 -0.7797 70.3962 11.6417 0.0000 -3.9397 0.0000
# 3 53.1495 11.6417 392.0735 0.0000 -8.0784 0.0000
# 4 0.0000 0.0000 0.0000 137.7078 0.0000 -11.2689
# 5 33.5156 -3.9397 -8.0784 0.0000 46.4533 0.0000
# 6 0.0000 0.0000 0.0000 -11.2689 0.0000 6.3306
#
#
#
# Elastic Compliance Matrix: (Units=1/GPa)
#
#
# Indices 1 2 3 4 5 6 
#
# 1 0.018083 -0.000106 -0.002727 0.000000 -0.013530 0.000000
# 2 -0.000106 0.014337 -0.000386 0.000000 0.001225 0.000000
# 3 -0.002727 -0.000386 0.002982 0.000000 0.002453 0.000000
# 4 0.000000 0.000000 0.000000 0.008500 0.000000 0.015130
# 5 -0.013530 0.001225 0.002453 0.000000 0.031819 0.000000
# 6 0.000000 0.000000 0.000000 0.015130 0.000000 0.184895
#
#
# Mechanical properties :
#
#
# Convention : Reuss Voigt Hill
#
# Bulk Modulus (GPa) = 34.52608 75.43127 54.97867
# Shear Modulus (GPa) = 18.06958 70.55480 44.31219
#
# Velocity S-wave (km/s) = 2.60292 5.14340 4.07614
# Velocity P-wave (km/s) = 4.68819 7.97219 6.53968
#
# Compressibility (1/GPa) = 0.02896361
#
# Stress axis : x y z
#
# Youngs Moduli (GPa) = 55.30137 69.75178 335.32109
#
# Poissons Ratio (x) = 0.00739 0.91439
# Poissons Ratio (y) = 0.00586 0.12946
# Poissons Ratio (z) = 0.15080 0.02693
#
# Static dielectric constant tensor:
#      x y z
#    x 2.914740 0.000000 -0.073430 
#    y 0.000000 2.029670 0.000000 
#    z -0.073430 0.000000 2.271610 
# 
# From -- ./inp_files/88453.got.cif
#   From: 2010.05.17/outbox.cif.g08.bks.cpg/sg10_45_cif.got.tgz:88453.got - 2010.06.03 11:33:40.
