data_PCOD9154441
_publ_section_title
;
Structure prediction by ZEFSAII (Michael W. Deem and Ramdas Pophale) SiO2 
 PCOD9154441
Probable space group: P 2/M
;
_chemical_formula_sum "Si O2"
_cell_formula_units_Z 24
_cell_length_a 15.547108
_cell_length_b 12.137895
_cell_length_c 21.567888
_cell_angle_alpha 90.000000
_cell_angle_beta 160.560437
_cell_angle_gamma 90.000000
_cell_volume 1354.565618
_symmetry_space_group_name_H-M "P 2/M"
_symmetry_group_IT_number 10
_symmetry_cell_setting 'monoclinic'
loop_
_space_group_symop_operation_xyz
x,y,z
-x,y,-z
-x,-y,-z
x,-y,z
loop_
_atom_site_type_symbol
_atom_site_label
_atom_site_fract_x
_atom_site_fract_y
_atom_site_fract_z
Si Si1 0.553205 0.874052 0.433177
Si Si2 0.927000 0.125937 0.806911
Si Si3 0.579771 0.729988 0.882730
Si Si4 0.791488 0.729983 0.488574
Si Si5 0.927157 0.500000 0.306410
Si Si6 0.811348 0.874173 0.311336
Si Si7 0.555700 0.500000 0.935026
O O1 0.270949 0.855195 0.270980
O O2 0.753687 0.868916 0.626833
O O3 0.636058 0.786834 0.438390
O O4 0.560693 0.000000 0.413534
O O5 0.028036 0.000000 0.880815
O O6 0.154607 0.213207 0.956897
O O7 0.390907 0.723860 0.695461
O O8 0.441403 0.808211 0.839454
O O9 0.605258 0.609466 0.929191
O O10 0.900918 0.609487 0.577029
O O11 0.033454 0.808256 0.635463
O O12 0.737740 0.500000 0.237711
O O13 0.743392 0.500000 0.121694
O O14 0.000000 0.876232 0.500000
O O15 0.756701 0.000000 0.256677
#
# Coordination Sequence:
#
# PCOD9154441 Si02
#       7
#     4   4   4   4   2   4   2
#     4   9  19  37  59  83 115 153 189 228 278 334
#     4   9  19  37  59  83 115 153 189 228 278 334
#     4  11  21  35  57  83 114 147 187 234 280 332
#     4  11  21  35  57  83 114 147 187 234 280 332
#     4  11  23  39  58  79 110 151 193 231 277 338
#     4   9  18  31  49  78 114 145 172 215 278 335
#     4  11  23  39  58  79 110 151 193 231 277 338
#
# _framework density 17.717856999999999
#
# number of rings (size 3 to 8) (size 9 to 14) (size 15 to 20)
#    0.000    2.000    1.667    3.500    0.000    3.333 
#    0.000    2.500    0.000    9.000    0.000    0.000 
#    0.000    0.000    0.000    0.000    0.000    0.000 
#
# Total GULP energy -134023.742123 kJ/mol
# GULP energy per Si atom -5584.322588 kJ/mol
# Density = 1.767753 g / cm^3
# Si number density = 17.717857 Si / 1000 Ang^3
#
#
#
# Elastic Constant Matrix: (Units=GPa)
#
#
# Indices 1 2 3 4 5 6 
#
# 1 100.9300 86.1400 33.9012 0.0000 16.3750 0.0000
# 2 86.1400 198.6449 65.2846 0.0000 26.2297 0.0000
# 3 33.9012 65.2846 70.9642 0.0000 21.2427 0.0000
# 4 0.0000 0.0000 0.0000 13.1558 0.0000 4.2325
# 5 16.3750 26.2297 21.2427 0.0000 20.8315 0.0000
# 6 0.0000 0.0000 0.0000 4.2325 0.0000 16.4263
#
#
#
# Elastic Compliance Matrix: (Units=1/GPa)
#
#
# Indices 1 2 3 4 5 6 
#
# 1 0.016118 -0.006195 -0.000782 0.000000 -0.004073 0.000000
# 2 -0.006195 0.009761 -0.005468 0.000000 -0.001845 0.000000
# 3 -0.000782 -0.005468 0.024830 0.000000 -0.017820 0.000000
# 4 0.000000 0.000000 0.000000 0.082883 0.000000 -0.021356
# 5 -0.004073 -0.001845 -0.017820 0.000000 0.071701 0.000000
# 6 0.000000 0.000000 0.000000 -0.021356 0.000000 0.066381
#
#
# Mechanical properties :
#
#
# Convention : Reuss Voigt Hill
#
# Bulk Modulus (GPa) = 38.73029 82.35455 60.54242
# Shear Modulus (GPa) = 16.38429 22.43027 19.40728
#
# Velocity S-wave (km/s) = 3.04424 3.56191 3.31320
# Velocity P-wave (km/s) = 5.85350 7.96858 6.99148
#
# Compressibility (1/GPa) = 0.02581958
#
# Stress axis : x y z
#
# Youngs Moduli (GPa) = 62.04161 102.44724 40.27343
#
# Poissons Ratio (x) = 0.63463 0.03149
# Poissons Ratio (y) = 0.38433 0.22023
# Poissons Ratio (z) = 0.04852 0.56021
#
# Static dielectric constant tensor:
#      x y z
#    x 1.590510 0.000000 -0.003350 
#    y 0.000000 1.575900 0.000000 
#    z -0.003350 0.000000 1.593060 
# 
# From -- ./inp_files/24077.got.cif
#   From: 2010.05.17/outbox.cif.g08.bks.cpg/sg10_13_cif.got.tgz:24077.got - 2010.06.03 11:33:40.
