data_PCOD9154275
_publ_section_title
;
Structure prediction by ZEFSAII (Michael W. Deem and Ramdas Pophale) SiO2 
 PCOD9154275
Probable space group: P 2/M
;
_chemical_formula_sum "Si O2"
_cell_formula_units_Z 28
_cell_length_a 29.098967
_cell_length_b 8.695722
_cell_length_c 9.864979
_cell_angle_alpha 90.000000
_cell_angle_beta 39.120137
_cell_angle_gamma 90.000000
_cell_volume 1574.973703
_symmetry_space_group_name_H-M "P 2/M"
_symmetry_group_IT_number 10
_symmetry_cell_setting 'monoclinic'
loop_
_space_group_symop_operation_xyz
x,y,z
-x,y,-z
-x,-y,-z
x,-y,z
loop_
_atom_site_type_symbol
_atom_site_label
_atom_site_fract_x
_atom_site_fract_y
_atom_site_fract_z
Si Si1 0.547606 0.817818 0.701969
Si Si2 0.806293 0.684530 0.183878
Si Si3 0.204418 0.685748 0.234377
Si Si4 0.082679 0.312657 0.297218
Si Si5 0.679509 0.683495 0.255109
Si Si6 0.753397 0.818196 0.580999
Si Si7 0.403009 0.317194 0.122017
O O1 0.604644 0.769054 0.456518
O O2 0.581730 0.760848 0.767035
O O3 0.538101 0.000000 0.727816
O O4 0.469212 0.736438 0.874882
O O5 0.808917 0.500000 0.199262
O O6 0.736054 0.714525 0.248990
O O7 0.796671 0.767655 0.347767
O O8 0.876209 0.732267 0.935207
O O9 0.203209 0.500000 0.250932
O O10 0.134990 0.731795 0.302136
O O11 0.207203 0.763319 0.373139
O O12 0.276518 0.724898 0.981386
O O13 0.081996 0.500000 0.298431
O O14 0.000000 0.258515 0.500000
O O15 0.666607 0.500000 0.283618
O O16 0.674993 0.735388 0.752489
O O17 0.742532 0.000000 0.606149
O O18 0.404828 0.500000 0.135823
#
# Coordination Sequence:
#
# PCOD9154275 Si02
#       7
#     4   4   4   4   4   4   4
#     4  11  20  31  50  79 109 137 176 225 272 317
#     4   9  17  31  55  81 106 139 177 219 264 317
#     4   9  19  35  56  80 108 143 178 218 268 321
#     4   8  15  32  60  90 111 132 174 225 263 306
#     4   9  17  32  53  76 102 139 185 225 263 317
#     4  12  23  35  51  77 110 143 180 225 270 320
#     4  11  21  34  52  73 103 142 182 226 270 315
#
# _framework density 17.778074
#
# number of rings (size 3 to 8) (size 9 to 14) (size 15 to 20)
#    0.000    2.143    1.429    6.429    0.000    0.571 
#    0.000    3.571    0.000   10.286    0.000    0.000 
#    0.000    0.000    0.000    0.000    0.000    0.000 
#
# Total GULP energy -156284.515039 kJ/mol
# GULP energy per Si atom -5581.589823 kJ/mol
# Density = 1.773761 g / cm^3
# Si number density = 17.778074 Si / 1000 Ang^3
#
#
#
# Elastic Constant Matrix: (Units=GPa)
#
#
# Indices 1 2 3 4 5 6 
#
# 1 66.9164 18.2693 50.8282 0.0000 5.1302 0.0000
# 2 18.2693 43.2650 23.7491 0.0000 6.1763 0.0000
# 3 50.8282 23.7491 113.3544 0.0000 -8.7475 0.0000
# 4 0.0000 0.0000 0.0000 -32.2620 0.0000 -27.6420
# 5 5.1302 6.1763 -8.7475 0.0000 31.3926 0.0000
# 6 0.0000 0.0000 0.0000 -27.6420 0.0000 -22.7447
#
#
#
# Elastic Compliance Matrix: (Units=1/GPa)
#
#
# Indices 1 2 3 4 5 6 
#
# 1 0.024574 -0.003571 -0.010758 0.000000 -0.006311 0.000000
# 2 -0.003571 0.028142 -0.004780 0.000000 -0.006285 0.000000
# 3 -0.010758 -0.004780 0.015182 0.000000 0.006929 0.000000
# 4 0.000000 0.000000 0.000000 0.750828 0.000000 -0.912494
# 5 -0.006311 -0.006285 0.006929 0.000000 0.036053 0.000000
# 6 0.000000 0.000000 0.000000 -0.912494 0.000000 1.065004
#
#
# Mechanical properties :
#
#
# Convention : Reuss Voigt Hill
#
# Bulk Modulus (GPa) = 33.69158 45.46991 39.58074
# Shear Modulus (GPa) = 2.54079 3.98980 3.26529
#
# Velocity S-wave (km/s) = 1.19678 1.49970 1.35672
# Velocity P-wave (km/s) = 4.57187 5.35077 4.97658
#
# Compressibility (1/GPa) = 0.02968100
#
# Stress axis : x y z
#
# Youngs Moduli (GPa) = 40.69292 35.53377 65.86732
#
# Poissons Ratio (x) = 0.12688 0.70861
# Poissons Ratio (y) = 0.14530 0.31485
# Poissons Ratio (z) = 0.43778 0.16986
#
# Static dielectric constant tensor:
#      x y z
#    x 1.588320 0.000000 -0.002280 
#    y 0.000000 1.589760 0.000000 
#    z -0.002280 0.000000 1.622240 
# 
# From -- ./inp_files/37080.got.cif
#   From: 2010.05.17/outbox.cif.g08.bks.cpg/sg10_19_cif.got.tgz:37080.got - 2010.06.03 11:33:40.
