data_PCOD9154111
_publ_section_title
;
Structure prediction by ZEFSAII (Michael W. Deem and Ramdas Pophale) SiO2 
 PCOD9154111
Probable space group: P 2/M
;
_chemical_formula_sum "Si O2"
_cell_formula_units_Z 28
_cell_length_a 9.208528
_cell_length_b 12.516123
_cell_length_c 14.614454
_cell_angle_alpha 90.000000
_cell_angle_beta 62.478321
_cell_angle_gamma 90.000000
_cell_volume 1493.777704
_symmetry_space_group_name_H-M "P 2/M"
_symmetry_group_IT_number 10
_symmetry_cell_setting 'monoclinic'
loop_
_space_group_symop_operation_xyz
x,y,z
-x,y,-z
-x,-y,-z
x,-y,z
loop_
_atom_site_type_symbol
_atom_site_label
_atom_site_fract_x
_atom_site_fract_y
_atom_site_fract_z
Si Si1 0.694169 0.500000 0.434480
Si Si2 0.827314 0.233627 0.087072
Si Si3 0.526638 0.125268 0.781899
Si Si4 0.147808 0.705310 0.710822
Si Si5 0.412504 0.884959 0.621489
Si Si6 0.793669 0.307058 0.749041
Si Si7 0.322578 0.622060 0.026119
Si Si8 0.178048 0.500000 0.401769
O O1 0.500000 0.500000 0.500000
O O2 0.776188 0.599501 0.357069
O O3 0.724366 0.500000 0.533684
O O4 0.664479 0.158580 0.143168
O O5 0.863016 0.291199 0.174531
O O6 0.770306 0.317277 0.026626
O O7 0.000000 0.185097 0.000000
O O8 0.536496 0.133938 0.668800
O O9 0.658423 0.212259 0.780331
O O10 0.553874 0.000000 0.800564
O O11 0.277729 0.796580 0.655575
O O12 0.978511 0.733440 0.709414
O O13 0.500000 0.888372 0.500000
O O14 0.334391 0.000000 0.664474
O O15 0.768338 0.370928 0.851154
O O16 0.788683 0.394425 0.669220
O O17 0.347482 0.500000 0.989748
O O18 0.500000 0.669726 0.000000
O O19 0.000000 0.500000 0.500000
#
# Coordination Sequence:
#
# PCOD9154111 Si02
#       8
#     2   4   4   4   4   4   4   2
#     4  12  28  42  64  97 133 165 212 252 325 377
#     4  11  23  40  66  92 129 168 213 266 317 371
#     4  10  24  43  65  94 127 166 217 266 316 381
#     4  11  24  39  63  96 127 163 211 257 310 381
#     4   9  20  41  64  87 120 161 209 265 315 362
#     4  12  23  42  65  91 131 166 212 254 314 379
#     4  11  23  40  63  93 128 170 209 252 316 376
#     4  12  26  44  62  94 136 176 199 262 317 378
#
# _framework density 18.744422
#
# number of rings (size 3 to 8) (size 9 to 14) (size 15 to 20)
#    0.000    1.143    5.000    0.429    7.000    1.143 
#    0.000    1.429    0.000    3.000    0.000    0.000 
#    0.000    0.000    0.000    0.000    0.000    0.000 
#
# Total GULP energy -155910.614436 kJ/mol
# GULP energy per Si atom -5568.236230 kJ/mol
# Density = 1.870176 g / cm^3
# Si number density = 18.744422 Si / 1000 Ang^3
#
#
#
# Elastic Constant Matrix: (Units=GPa)
#
#
# Indices 1 2 3 4 5 6 
#
# 1 130.2756 64.3966 37.7016 0.0000 3.3998 0.0000
# 2 64.3966 116.3011 38.3046 0.0000 5.8853 0.0000
# 3 37.7016 38.3046 106.2455 0.0000 15.8381 0.0000
# 4 0.0000 0.0000 0.0000 10.6886 0.0000 3.1092
# 5 3.3998 5.8853 15.8381 0.0000 31.3967 0.0000
# 6 0.0000 0.0000 0.0000 3.1092 0.0000 19.1985
#
#
#
# Elastic Compliance Matrix: (Units=1/GPa)
#
#
# Indices 1 2 3 4 5 6 
#
# 1 0.010925 -0.005417 -0.002053 0.000000 0.000868 0.000000
# 2 -0.005417 0.012443 -0.002491 0.000000 -0.000489 0.000000
# 3 -0.002053 -0.002491 0.011825 0.000000 -0.005276 0.000000
# 4 0.000000 0.000000 0.000000 0.098183 0.000000 -0.015901
# 5 0.000868 -0.000489 -0.005276 0.000000 0.034510 0.000000
# 6 0.000000 0.000000 0.000000 -0.015901 0.000000 0.054663
#
#
# Mechanical properties :
#
#
# Convention : Reuss Voigt Hill
#
# Bulk Modulus (GPa) = 65.48282 70.40308 67.94295
# Shear Modulus (GPa) = 20.19701 26.41807 23.30754
#
# Velocity S-wave (km/s) = 3.28608 3.75825 3.53007
# Velocity P-wave (km/s) = 7.02910 7.51489 7.27605
#
# Compressibility (1/GPa) = 0.01527118
#
# Stress axis : x y z
#
# Youngs Moduli (GPa) = 91.53058 80.36662 84.56438
#
# Poissons Ratio (x) = 0.43535 0.17364
# Poissons Ratio (y) = 0.49583 0.21064
# Poissons Ratio (z) = 0.18794 0.20018
#
# Static dielectric constant tensor:
#      x y z
#    x 1.634170 0.000000 -0.034570 
#    y 0.000000 1.684000 0.000000 
#    z -0.034570 0.000000 1.720220 
# 
# From -- ./inp_files/61180.got.cif
#   From: 2010.05.17/outbox.cif.g08.bks.cpg/sg10_31_cif.got.tgz:61180.got - 2010.06.03 11:33:40.
