data_PCOD9154395
_publ_section_title
;
Structure prediction by ZEFSAII (Michael W. Deem and Ramdas Pophale) SiO2 
 PCOD9154395
Probable space group: P 2/M
;
_chemical_formula_sum "Si O2"
_cell_formula_units_Z 28
_cell_length_a 13.962887
_cell_length_b 14.561819
_cell_length_c 8.924241
_cell_angle_alpha 90.000000
_cell_angle_beta 108.636933
_cell_angle_gamma 90.000000
_cell_volume 1719.372823
_symmetry_space_group_name_H-M "P 2/M"
_symmetry_group_IT_number 10
_symmetry_cell_setting 'monoclinic'
loop_
_space_group_symop_operation_xyz
x,y,z
-x,y,-z
-x,-y,-z
x,-y,z
loop_
_atom_site_type_symbol
_atom_site_label
_atom_site_fract_x
_atom_site_fract_y
_atom_site_fract_z
Si Si1 0.691252 0.212427 0.275309
Si Si2 0.380078 0.395156 0.260739
Si Si3 0.308749 0.212427 0.084057
Si Si4 0.619922 0.604844 0.380661
Si Si5 0.106481 0.893207 0.623059
Si Si6 0.106481 0.106793 0.983423
Si Si7 0.500000 0.890821 0.678430
O O1 0.679857 0.316574 0.325335
O O2 0.797651 0.167365 0.374534
O O3 0.599033 0.155386 0.300334
O O4 0.683393 0.208105 0.091697
O O5 0.353022 0.500000 0.207153
O O6 0.320144 0.316574 0.145479
O O7 0.367504 0.384915 0.433752
O O8 0.500000 0.383255 0.289542
O O9 0.400967 0.155385 0.201301
O O10 0.202349 0.167365 0.076883
O O11 0.646978 0.500000 0.354131
O O12 0.098721 0.889840 0.799361
O O13 0.000000 0.863649 0.500000
O O14 0.123675 0.000000 0.588569
O O15 0.123676 0.000000 0.035106
O O16 0.000000 0.136351 0.000000
O O17 0.500000 0.874467 0.500000
O O18 0.500000 0.000000 0.705694
#
# Coordination Sequence:
#
# PCOD9154395 Si02
#       7
#     4   4   4   4   4   4   4
#     4  11  21  33  52  78 106 134 166 212 262 305
#     4   9  18  33  52  74 103 137 172 210 251 301
#     4  11  21  33  52  78 106 134 166 212 262 305
#     4   9  18  33  52  74 103 137 172 210 251 301
#     4   9  19  35  53  74 101 134 172 211 252 299
#     4   9  19  35  53  74 101 134 172 211 252 299
#     4  11  23  35  48  71 104 141 175 204 244 305
#
# _framework density 16.285008000000001
#
# number of rings (size 3 to 8) (size 9 to 14) (size 15 to 20)
#    0.000    2.143    1.429    3.000    0.000    5.143 
#    0.000    4.286    0.000    0.857    0.000    0.000 
#    0.000    0.000    0.000    0.000    0.000    0.000 
#
# Total GULP energy -156270.996490 kJ/mol
# GULP energy per Si atom -5581.107018 kJ/mol
# Density = 1.624794 g / cm^3
# Si number density = 16.285008 Si / 1000 Ang^3
#
#
#
# Elastic Constant Matrix: (Units=GPa)
#
#
# Indices 1 2 3 4 5 6 
#
# 1 138.0889 89.0088 47.8924 0.0000 15.1852 0.0000
# 2 89.0088 126.9314 59.5794 0.0000 13.1758 0.0000
# 3 47.8924 59.5794 56.1525 0.0000 21.4986 0.0000
# 4 0.0000 0.0000 0.0000 27.5740 0.0000 -2.9031
# 5 15.1852 13.1758 21.4986 0.0000 25.3130 0.0000
# 6 0.0000 0.0000 0.0000 -2.9031 0.0000 21.0896
#
#
#
# Elastic Compliance Matrix: (Units=1/GPa)
#
#
# Indices 1 2 3 4 5 6 
#
# 1 0.013531 -0.008454 -0.001700 0.000000 -0.002273 0.000000
# 2 -0.008454 0.022441 -0.020848 0.000000 0.011098 0.000000
# 3 -0.001700 -0.020848 0.054582 0.000000 -0.034486 0.000000
# 4 0.000000 0.000000 0.000000 0.036799 0.000000 0.005066
# 5 -0.002273 0.011098 -0.034486 0.000000 0.064382 0.000000
# 6 0.000000 0.000000 0.000000 0.005066 0.000000 0.048114
#
#
# Mechanical properties :
#
#
# Convention : Reuss Voigt Hill
#
# Bulk Modulus (GPa) = 35.02790 79.34822 57.18806
# Shear Modulus (GPa) = 16.05806 23.10813 19.58310
#
# Velocity S-wave (km/s) = 3.14357 3.77102 3.47150
# Velocity P-wave (km/s) = 5.89339 8.23355 7.15973
#
# Compressibility (1/GPa) = 0.02854867
#
# Stress axis : x y z
#
# Youngs Moduli (GPa) = 73.90613 44.56187 18.32090
#
# Poissons Ratio (x) = 0.37675 0.03114
# Poissons Ratio (y) = 0.62483 0.38196
# Poissons Ratio (z) = 0.12562 0.92904
#
# Static dielectric constant tensor:
#      x y z
#    x 1.520540 0.000000 -0.009370 
#    y 0.000000 1.547230 0.000000 
#    z -0.009370 0.000000 1.541450 
# 
# From -- ./inp_files/24876.got.cif
#   From: 2010.05.17/outbox.cif.g08.bks.cpg/sg10_13_cif.got.tgz:24876.got - 2010.06.03 11:33:40.
