data_PCOD9154705
_publ_section_title
;
Structure prediction by ZEFSAII (Michael W. Deem and Ramdas Pophale) SiO2 
 PCOD9154705
Probable space group: P 2/M
;
_chemical_formula_sum "Si O2"
_cell_formula_units_Z 23
_cell_length_a 13.099104
_cell_length_b 14.108826
_cell_length_c 6.978471
_cell_angle_alpha 90.000000
_cell_angle_beta 45.783540
_cell_angle_gamma 90.000000
_cell_volume 924.349880
_symmetry_space_group_name_H-M "P 2/M"
_symmetry_group_IT_number 10
_symmetry_cell_setting 'monoclinic'
loop_
_space_group_symop_operation_xyz
x,y,z
-x,y,-z
-x,-y,-z
x,-y,z
loop_
_atom_site_type_symbol
_atom_site_label
_atom_site_fract_x
_atom_site_fract_y
_atom_site_fract_z
Si Si1 0.786541 0.302796 0.769911
Si Si2 0.500000 0.771452 0.000000
Si Si3 0.000000 0.000000 0.000000
Si Si4 0.627078 0.500000 0.584398
Si Si5 0.299139 0.500000 0.053900
Si Si6 0.875940 0.161135 0.964489
Si Si7 0.600370 0.106487 0.527710
Si Si8 0.855291 0.652174 0.249858
O O1 0.790886 0.404857 0.868666
O O2 0.858619 0.317928 0.469077
O O3 0.617398 0.288515 0.957261
O O4 0.844512 0.209778 0.801676
O O5 0.589757 0.834284 0.733833
O O6 0.002934 0.913176 0.830389
O O7 0.665193 0.500000 0.763108
O O8 0.712548 0.592445 0.402599
O O9 0.540369 0.500000 0.238756
O O10 0.748655 0.099187 0.223655
O O11 0.861266 0.253266 0.117684
O O12 0.500000 0.153459 0.500000
O O13 0.548468 0.000000 0.637828
O O14 0.000000 0.600527 0.000000
#
# Coordination Sequence:
#
# PCOD9154705 Si02
#       8
#     4   2   1   2   2   4   4   4
#     4  11  24  42  72 107 147 193 235 296 370 424
#     4  12  21  39  70 106 146 184 230 296 374 444
#     4  12  28  56  72  98 146 188 256 304 348 422
#     4   9  19  39  72 105 146 195 233 290 361 422
#     4   9  20  41  66 109 153 182 230 296 365 443
#     4  12  25  46  73  99 140 191 242 305 357 427
#     4  11  23  40  66 101 142 179 234 305 375 429
#     4  11  23  43  68 100 143 194 250 294 338 420
#
# _framework density 24.882353999999999
#
# number of rings (size 3 to 8) (size 9 to 14) (size 15 to 20)
#    0.000    1.043    5.217    2.609    0.000    1.391 
#    1.565    2.609    0.000    4.174    0.000    0.000 
#    0.000    0.000    0.000    0.000    0.000    0.000 
#
# Total GULP energy -128293.628803 kJ/mol
# GULP energy per Si atom -5577.983861 kJ/mol
# Density = 2.482572 g / cm^3
# Si number density = 24.882354 Si / 1000 Ang^3
#
#
#
# Elastic Constant Matrix: (Units=GPa)
#
#
# Indices 1 2 3 4 5 6 
#
# 1 57.9372 27.4308 11.5690 0.0000 -1.6233 0.0000
# 2 27.4308 178.4951 24.8971 0.0000 14.6047 0.0000
# 3 11.5690 24.8971 118.4287 0.0000 4.0963 0.0000
# 4 0.0000 0.0000 0.0000 9.5855 0.0000 -6.1948
# 5 -1.6233 14.6047 4.0963 0.0000 38.1755 0.0000
# 6 0.0000 0.0000 0.0000 -6.1948 0.0000 32.6360
#
#
#
# Elastic Compliance Matrix: (Units=1/GPa)
#
#
# Indices 1 2 3 4 5 6 
#
# 1 0.018952 -0.002897 -0.001313 0.000000 0.002055 0.000000
# 2 -0.002897 0.006385 -0.000974 0.000000 -0.002461 0.000000
# 3 -0.001313 -0.000974 0.008799 0.000000 -0.000627 0.000000
# 4 0.000000 0.000000 0.000000 0.118911 0.000000 0.022571
# 5 0.002055 -0.002461 -0.000627 0.000000 0.027291 0.000000
# 6 0.000000 0.000000 0.000000 0.022571 0.000000 0.034925
#
#
# Mechanical properties :
#
#
# Convention : Reuss Voigt Hill
#
# Bulk Modulus (GPa) = 42.07764 53.62831 47.85297
# Shear Modulus (GPa) = 21.40827 35.47701 28.44264
#
# Velocity S-wave (km/s) = 2.93640 3.78006 3.38462
# Velocity P-wave (km/s) = 5.33329 6.37584 5.87773
#
# Compressibility (1/GPa) = 0.02376559
#
# Stress axis : x y z
#
# Youngs Moduli (GPa) = 52.76568 156.61877 113.65343
#
# Poissons Ratio (x) = 0.45379 0.14926
# Poissons Ratio (y) = 0.15289 0.11071
# Poissons Ratio (z) = 0.06930 0.15257
#
# Static dielectric constant tensor:
#      x y z
#    x 2.411460 0.000000 -0.163830 
#    y 0.000000 1.996140 0.000000 
#    z -0.163830 0.000000 2.153990 
# 
# From -- ./inp_files/9195.got.cif
#   From: 2010.05.17/outbox.cif.g08.bks.cpg/sg10_5_cif.got.tgz:9195.got - 2010.06.03 11:33:40.
