data_PCOD9154074
_publ_section_title
;
Structure prediction by ZEFSAII (Michael W. Deem and Ramdas Pophale) SiO2 
 PCOD9154074
Probable space group: P 2/M
;
_chemical_formula_sum "Si O2"
_cell_formula_units_Z 12
_cell_length_a 5.473667
_cell_length_b 15.732719
_cell_length_c 4.710918
_cell_angle_alpha 90.000000
_cell_angle_beta 89.041312
_cell_angle_gamma 90.000000
_cell_volume 405.627047
_symmetry_space_group_name_H-M "P 2/M"
_symmetry_group_IT_number 10
_symmetry_cell_setting 'monoclinic'
loop_
_space_group_symop_operation_xyz
x,y,z
-x,y,-z
-x,-y,-z
x,-y,z
loop_
_atom_site_type_symbol
_atom_site_label
_atom_site_fract_x
_atom_site_fract_y
_atom_site_fract_z
Si Si1 0.755264 0.248271 0.615482
Si Si2 0.193852 0.000000 0.245571
Si Si3 0.500000 0.847850 0.000000
Si Si4 0.251305 0.598109 0.814745
O O1 0.500000 0.212400 0.500000
O O2 0.716571 0.224695 0.946474
O O3 0.753947 0.339929 0.457264
O O4 0.000000 0.205826 0.500000
O O5 0.368341 0.918848 0.204066
O O6 0.000000 0.000000 0.500000
O O7 0.000000 0.000000 0.000000
O O8 0.248732 0.500000 0.718862
O O9 0.500000 0.607545 0.000000
O O10 0.000000 0.611564 0.000000
#
# Coordination Sequence:
#
# PCOD9154074 Si02
#       4
#     4   2   2   4
#     4  12  29  47  78 120 163 215 269 344 411 488
#     4  11  28  57  88 120 165 222 271 339 420 518
#     4  11  30  50  81 122 166 208 277 338 422 501
#     4  10  23  48  79 115 163 221 282 343 410 487
#
# _framework density 29.583825999999998
#
# number of rings (size 3 to 8) (size 9 to 14) (size 15 to 20)
#    0.000    1.000    0.000    3.000   16.333    2.667 
#    0.000    0.833    0.000    0.000    0.000    0.000 
#    0.000    0.000    0.000    0.000    0.000    0.000 
#
# Total GULP energy -66907.050176 kJ/mol
# GULP energy per Si atom -5575.587515 kJ/mol
# Density = 2.951649 g / cm^3
# Si number density = 29.583826 Si / 1000 Ang^3
#
#
#
# Elastic Constant Matrix: (Units=GPa)
#
#
# Indices 1 2 3 4 5 6 
#
# 1 272.3914 72.2050 116.0233 0.0000 -58.4790 0.0000
# 2 72.2050 307.6273 91.7747 0.0000 -35.4240 0.0000
# 3 116.0233 91.7747 221.2046 0.0000 -53.8872 0.0000
# 4 0.0000 0.0000 0.0000 66.2178 0.0000 -15.3716
# 5 -58.4790 -35.4240 -53.8872 0.0000 102.9104 0.0000
# 6 0.0000 0.0000 0.0000 -15.3716 0.0000 44.5273
#
#
#
# Elastic Compliance Matrix: (Units=1/GPa)
#
#
# Indices 1 2 3 4 5 6 
#
# 1 0.005002 -0.000368 -0.002074 0.000000 0.001630 0.000000
# 2 -0.000368 0.003763 -0.001265 0.000000 0.000424 0.000000
# 3 -0.002074 -0.001265 0.006580 0.000000 0.001831 0.000000
# 4 0.000000 0.000000 0.000000 0.016417 0.000000 0.005668
# 5 0.001630 0.000424 0.001831 0.000000 0.011748 0.000000
# 6 0.000000 0.000000 0.000000 0.005668 0.000000 0.024415
#
#
# Mechanical properties :
#
#
# Convention : Reuss Voigt Hill
#
# Bulk Modulus (GPa) = 126.08649 151.24771 138.66710
# Shear Modulus (GPa) = 64.11719 77.47912 70.79816
#
# Velocity S-wave (km/s) = 4.66048 5.12314 4.89728
# Velocity P-wave (km/s) = 8.46598 9.28609 8.88550
#
# Compressibility (1/GPa) = 0.00793106
#
# Stress axis : x y z
#
# Youngs Moduli (GPa) = 199.92247 265.72789 151.98639
#
# Poissons Ratio (x) = 0.09769 0.31522
# Poissons Ratio (y) = 0.07350 0.19230
# Poissons Ratio (z) = 0.41464 0.33620
#
# Static dielectric constant tensor:
#      x y z
#    x 2.300580 0.000000 -0.067480 
#    y 0.000000 2.321740 0.000000 
#    z -0.067480 0.000000 0.989910 
# 
# From -- ./inp_files/739.got.cif
#   From: 2010.05.17/outbox.cif.g08.bks.cpg/sg10_1_cif.got.tgz:739.got - 2010.06.03 11:33:40.
