data_PCOD9154247
_publ_section_title
;
Structure prediction by ZEFSAII (Michael W. Deem and Ramdas Pophale) SiO2 
 PCOD9154247
Probable space group: P 2/M
;
_chemical_formula_sum "Si O2"
_cell_formula_units_Z 32
_cell_length_a 24.250349
_cell_length_b 9.028970
_cell_length_c 11.724043
_cell_angle_alpha 90.000000
_cell_angle_beta 126.730695
_cell_angle_gamma 90.000000
_cell_volume 2057.372572
_symmetry_space_group_name_H-M "P 2/M"
_symmetry_group_IT_number 10
_symmetry_cell_setting 'monoclinic'
loop_
_space_group_symop_operation_xyz
x,y,z
-x,y,-z
-x,-y,-z
x,-y,z
loop_
_atom_site_type_symbol
_atom_site_label
_atom_site_fract_x
_atom_site_fract_y
_atom_site_fract_z
Si Si1 0.608069 0.679241 0.194229
Si Si2 0.704982 0.320205 0.696728
Si Si3 0.729272 0.823205 0.480157
Si Si4 0.145610 0.330194 0.067583
Si Si5 0.535961 0.320388 0.872139
Si Si6 0.129473 0.669952 0.323868
Si Si7 0.566075 0.680553 0.655025
Si Si8 0.008520 0.169947 0.872175
O O1 0.616239 0.500000 0.209470
O O2 0.675659 0.758469 0.323013
O O3 0.542362 0.719656 0.192185
O O4 0.585292 0.721744 0.037986
O O5 0.705673 0.500000 0.681469
O O6 0.707780 0.244427 0.576680
O O7 0.775520 0.281580 0.850645
O O8 0.636943 0.277572 0.681362
O O9 0.806681 0.765766 0.553073
O O10 0.727665 0.000000 0.482211
O O11 0.137872 0.500000 0.020236
O O12 0.136580 0.328761 0.194287
O O13 0.084056 0.233868 0.941162
O O14 0.536605 0.500000 0.871242
O O15 0.558585 0.267506 0.775960
O O16 0.135508 0.500000 0.368412
O O17 0.054452 0.736016 0.255823
O O18 0.500000 0.727800 0.500000
O O19 0.565357 0.500000 0.656259
O O20 0.002646 0.000000 0.830097
O O21 0.000000 0.175253 0.000000
#
# Coordination Sequence:
#
# PCOD9154247 Si02
#       8
#     4   4   4   4   4   4   4   4
#     4   9  16  29  47  64  84 110 142 178 216 256
#     4   9  17  28  42  60  84 114 146 179 214 254
#     4  11  20  28  40  60  86 114 145 178 213 253
#     4   8  14  23  34  50  74 107 142 171 203 245
#     4   8  15  27  46  69  86 106 141 181 215 252
#     4   9  16  26  39  55  78 108 140 173 209 250
#     4   9  15  24  43  69  90 108 138 180 218 250
#     4   9  15  22  34  53  77 106 138 171 206 244
#
# _framework density 15.553819000000001
#
# number of rings (size 3 to 8) (size 9 to 14) (size 15 to 20)
#    0.000    3.000    0.000    4.125    0.000    6.500 
#    0.000    1.250    0.000    4.125    0.000    0.000 
#    0.000    1.000    0.000   11.750    0.000    5.000 
#
# Total GULP energy -178181.950396 kJ/mol
# GULP energy per Si atom -5568.185950 kJ/mol
# Density = 1.551842 g / cm^3
# Si number density = 15.553819 Si / 1000 Ang^3
#
#
#
# Elastic Constant Matrix: (Units=GPa)
#
#
# Indices 1 2 3 4 5 6 
#
# 1 83.5512 29.4341 57.7663 0.0000 26.3060 0.0000
# 2 29.4341 56.7020 41.5391 0.0000 15.9459 0.0000
# 3 57.7663 41.5391 94.2695 0.0000 27.1831 0.0000
# 4 0.0000 0.0000 0.0000 5.6844 0.0000 -0.9620
# 5 26.3060 15.9459 27.1831 0.0000 27.1299 0.0000
# 6 0.0000 0.0000 0.0000 -0.9620 0.0000 2.2908
#
#
#
# Elastic Compliance Matrix: (Units=1/GPa)
#
#
# Indices 1 2 3 4 5 6 
#
# 1 0.023137 -0.001228 -0.010372 0.000000 -0.011319 0.000000
# 2 -0.001228 0.026674 -0.009596 0.000000 -0.004872 0.000000
# 3 -0.010372 -0.009596 0.023437 0.000000 -0.007786 0.000000
# 4 0.000000 0.000000 0.000000 0.189376 0.000000 0.079524
# 5 -0.011319 -0.004872 -0.007786 0.000000 0.058500 0.000000
# 6 0.000000 0.000000 0.000000 0.079524 0.000000 0.469928
#
#
# Mechanical properties :
#
#
# Convention : Reuss Voigt Hill
#
# Bulk Modulus (GPa) = 32.41049 54.66685 43.53867
# Shear Modulus (GPa) = 5.92607 14.07324 9.99965
#
# Velocity S-wave (km/s) = 1.95405 3.01127 2.53831
# Velocity P-wave (km/s) = 5.09647 6.87848 6.05341
#
# Compressibility (1/GPa) = 0.03085420
#
# Stress axis : x y z
#
# Youngs Moduli (GPa) = 43.22139 37.49014 42.66705
#
# Poissons Ratio (x) = 0.04605 0.44256
# Poissons Ratio (y) = 0.05309 0.40943
# Poissons Ratio (z) = 0.44831 0.35975
#
# Static dielectric constant tensor:
#      x y z
#    x 1.518420 0.000000 0.015590 
#    y 0.000000 1.515980 0.000000 
#    z 0.015590 0.000000 1.511640 
# 
# From -- ./inp_files/56447.got.cif
#   From: 2010.05.17/outbox.cif.g08.bks.cpg/sg10_29_cif.got.tgz:56447.got - 2010.06.03 11:33:40.
