data_PCOD9154159
_publ_section_title
;
Structure prediction by ZEFSAII (Michael W. Deem and Ramdas Pophale) SiO2 
 PCOD9154159
Probable space group: P 2/M
;
_chemical_formula_sum "Si O2"
_cell_formula_units_Z 15
_cell_length_a 5.418160
_cell_length_b 22.140063
_cell_length_c 5.160459
_cell_angle_alpha 90.000000
_cell_angle_beta 93.087306
_cell_angle_gamma 90.000000
_cell_volume 618.141966
_symmetry_space_group_name_H-M "P 2/M"
_symmetry_group_IT_number 10
_symmetry_cell_setting 'monoclinic'
loop_
_space_group_symop_operation_xyz
x,y,z
-x,y,-z
-x,-y,-z
x,-y,z
loop_
_atom_site_type_symbol
_atom_site_label
_atom_site_fract_x
_atom_site_fract_y
_atom_site_fract_z
Si Si1 0.328130 0.934243 0.241952
Si Si2 0.000000 0.500000 0.500000
Si Si3 0.759093 0.605078 0.174174
Si Si4 0.335266 0.739665 0.733600
Si Si5 0.000000 0.168531 0.000000
O O1 0.500000 0.926806 0.500000
O O2 0.198301 0.000000 0.257994
O O3 0.500000 0.936905 0.000000
O O4 0.160573 0.877019 0.181242
O O5 0.190811 0.552764 0.618156
O O6 0.756475 0.671109 0.304957
O O7 0.500000 0.597096 0.000000
O O8 0.000000 0.601900 0.000000
O O9 0.500000 0.757743 0.500000
O O10 0.132188 0.787774 0.802737
O O11 0.500000 0.737036 0.000000
#
# Coordination Sequence:
#
# PCOD9154159 Si02
#       5
#     4   1   4   4   2
#     4  10  24  46  73 112 156 200 258 325 393 475
#     4  12  28  46  88 112 158 212 274 338 406 494
#     4  11  27  51  77 117 160 209 270 339 412 488
#     4  11  28  50  76 112 160 205 263 334 405 481
#     4  12  25  48  82 113 150 214 262 326 398 487
#
# _framework density 24.266269999999999
#
# number of rings (size 3 to 8) (size 9 to 14) (size 15 to 20)
#    0.000    1.067    1.333    2.000    7.467    9.600 
#    0.000    6.667    0.000    2.400    0.000    0.000 
#    0.000    0.000    0.000    0.000    0.000    0.000 
#
# Total GULP energy -83805.723914 kJ/mol
# GULP energy per Si atom -5587.048261 kJ/mol
# Density = 2.421104 g / cm^3
# Si number density = 24.266270 Si / 1000 Ang^3
#
#
#
# Elastic Constant Matrix: (Units=GPa)
#
#
# Indices 1 2 3 4 5 6 
#
# 1 140.1504 103.0365 69.3106 0.0000 9.3131 0.0000
# 2 103.0365 293.8412 72.7828 0.0000 11.4788 0.0000
# 3 69.3106 72.7828 156.2124 0.0000 -1.3050 0.0000
# 4 0.0000 0.0000 0.0000 -1.2982 0.0000 41.1173
# 5 9.3131 11.4788 -1.3050 0.0000 48.0004 0.0000
# 6 0.0000 0.0000 0.0000 41.1173 0.0000 85.5067
#
#
#
# Elastic Compliance Matrix: (Units=1/GPa)
#
#
# Indices 1 2 3 4 5 6 
#
# 1 0.011208 -0.002978 -0.003598 0.000000 -0.001560 0.000000
# 2 -0.002978 0.004684 -0.000866 0.000000 -0.000566 0.000000
# 3 -0.003598 -0.000866 0.008411 0.000000 0.001134 0.000000
# 4 0.000000 0.000000 0.000000 -0.047461 0.000000 0.022822
# 5 -0.001560 -0.000566 0.001134 0.000000 0.021302 0.000000
# 6 0.000000 0.000000 0.000000 0.022822 0.000000 0.000721
#
#
# Mechanical properties :
#
#
# Convention : Reuss Voigt Hill
#
# Bulk Modulus (GPa) = 106.17322 120.05152 113.11237
# Shear Modulus (GPa) = 296.06510 49.44672 172.75591
#
# Velocity S-wave (km/s) = 11.05765 4.51896 8.44668
# Velocity P-wave (km/s) = 14.38323 8.76401 11.90977
#
# Compressibility (1/GPa) = 0.00941857
#
# Stress axis : x y z
#
# Youngs Moduli (GPa) = 89.22485 213.49588 118.89144
#
# Poissons Ratio (x) = 0.63574 0.42782
# Poissons Ratio (y) = 0.26569 0.10294
# Poissons Ratio (z) = 0.32107 0.18486
#
# Static dielectric constant tensor:
#      x y z
#    x 1.971260 0.000000 0.003340 
#    y 0.000000 1.935460 0.000000 
#    z 0.003340 0.000000 1.909050 
# 
# From -- ./inp_files/1312.got.cif
#   From: 2010.05.17/outbox.cif.g08.bks.cpg/sg10_1_cif.got.tgz:1312.got - 2010.06.03 11:33:40.
