data_PCOD9154371
_publ_section_title
;
Structure prediction by ZEFSAII (Michael W. Deem and Ramdas Pophale) SiO2 
 PCOD9154371
Probable space group: P 2/M
;
_chemical_formula_sum "Si O2"
_cell_formula_units_Z 24
_cell_length_a 21.679738
_cell_length_b 8.942497
_cell_length_c 9.912901
_cell_angle_alpha 90.000000
_cell_angle_beta 33.387313
_cell_angle_gamma 90.000000
_cell_volume 1057.571776
_symmetry_space_group_name_H-M "P 2/M"
_symmetry_group_IT_number 10
_symmetry_cell_setting 'monoclinic'
loop_
_space_group_symop_operation_xyz
x,y,z
-x,y,-z
-x,-y,-z
x,-y,z
loop_
_atom_site_type_symbol
_atom_site_label
_atom_site_fract_x
_atom_site_fract_y
_atom_site_fract_z
Si Si1 0.324446 0.322150 0.794304
Si Si2 0.389791 0.826352 0.940302
Si Si3 0.817720 0.820089 0.328146
Si Si4 0.149611 0.175530 0.285418
Si Si5 0.598846 0.322681 0.650176
Si Si6 0.005622 0.181508 0.205219
O O1 0.330611 0.500000 0.798806
O O2 0.399724 0.245725 0.772891
O O3 0.360946 0.284766 0.576898
O O4 0.201512 0.263777 0.064880
O O5 0.473515 0.741531 0.886297
O O6 0.420609 0.000000 0.883307
O O7 0.254673 0.817779 0.201007
O O8 0.696048 0.749056 0.562228
O O9 0.907178 0.779599 0.279284
O O10 0.806797 0.000000 0.346797
O O11 0.879758 0.770611 0.075665
O O12 0.040575 0.229331 0.564725
O O13 0.137996 0.000000 0.270189
O O14 0.596731 0.500000 0.670706
O O15 0.009711 0.000000 0.203512
#
# Coordination Sequence:
#
# PCOD9154371 Si02
#       6
#     4   4   4   4   4   4
#     4   9  18  31  47  70  99 134 162 190 238 286
#     4   9  18  30  50  75  97 127 162 197 237 286
#     4   9  18  32  56  76  92 124 163 203 242 286
#     4   8  16  30  51  74  96 124 160 200 239 286
#     4  11  21  32  46  70 106 133 158 197 238 284
#     4   8  15  34  56  75  94 119 161 207 248 283
#
# _framework density 22.693497000000001
#
# number of rings (size 3 to 8) (size 9 to 14) (size 15 to 20)
#    1.000    2.000    0.000    2.500    0.000    4.667 
#    0.000    5.000    0.000   10.000    0.000    0.000 
#    0.000    0.000    0.000    0.000    0.000    0.000 
#
# Total GULP energy -133855.324562 kJ/mol
# GULP energy per Si atom -5577.305190 kJ/mol
# Density = 2.264185 g / cm^3
# Si number density = 22.693497 Si / 1000 Ang^3
#
#
#
# Elastic Constant Matrix: (Units=GPa)
#
#
# Indices 1 2 3 4 5 6 
#
# 1 91.5762 15.8280 28.3263 0.0000 -19.2553 0.0000
# 2 15.8280 26.2321 23.4347 0.0000 -7.3853 0.0000
# 3 28.3263 23.4347 111.0531 0.0000 -4.3616 0.0000
# 4 0.0000 0.0000 0.0000 12.1822 0.0000 -1.2304
# 5 -19.2553 -7.3853 -4.3616 0.0000 43.6885 0.0000
# 6 0.0000 0.0000 0.0000 -1.2304 0.0000 6.0847
#
#
#
# Elastic Compliance Matrix: (Units=1/GPa)
#
#
# Indices 1 2 3 4 5 6 
#
# 1 0.013465 -0.004740 -0.002241 0.000000 0.004909 0.000000
# 2 -0.004740 0.050865 -0.009306 0.000000 0.005580 0.000000
# 3 -0.002241 -0.009306 0.011485 0.000000 -0.001414 0.000000
# 4 0.000000 0.000000 0.000000 0.083798 0.000000 0.016945
# 5 0.004909 0.005580 -0.001414 0.000000 0.025855 0.000000
# 6 0.000000 0.000000 0.000000 0.016945 0.000000 0.167772
#
#
# Mechanical properties :
#
#
# Convention : Reuss Voigt Hill
#
# Bulk Modulus (GPa) = 23.12618 40.44883 31.78750
# Shear Modulus (GPa) = 12.49290 23.14258 17.81774
#
# Velocity S-wave (km/s) = 2.34883 3.19688 2.80509
# Velocity P-wave (km/s) = 4.19151 5.61154 4.95268
#
# Compressibility (1/GPa) = 0.04324104
#
# Stress axis : x y z
#
# Youngs Moduli (GPa) = 74.26829 19.65970 87.07338
#
# Poissons Ratio (x) = 0.09318 0.19517
# Poissons Ratio (y) = 0.35202 0.81027
# Poissons Ratio (z) = 0.16647 0.18295
#
# Static dielectric constant tensor:
#      x y z
#    x 1.941780 0.000000 0.019750 
#    y 0.000000 1.747220 0.000000 
#    z 0.019750 0.000000 1.920220 
# 
# From -- ./inp_files/57226.got.cif
#   From: 2010.05.17/outbox.cif.g08.bks.cpg/sg10_29_cif.got.tgz:57226.got - 2010.06.03 11:33:40.
