data_PCOD9154207
_publ_section_title
;
Structure prediction by ZEFSAII (Michael W. Deem and Ramdas Pophale) SiO2 
 PCOD9154207
Probable space group: P 2/M
;
_chemical_formula_sum "Si O2"
_cell_formula_units_Z 24
_cell_length_a 20.658834
_cell_length_b 10.134743
_cell_length_c 10.899645
_cell_angle_alpha 90.000000
_cell_angle_beta 141.359175
_cell_angle_gamma 90.000000
_cell_volume 1425.013695
_symmetry_space_group_name_H-M "P 2/M"
_symmetry_group_IT_number 10
_symmetry_cell_setting 'monoclinic'
loop_
_space_group_symop_operation_xyz
x,y,z
-x,y,-z
-x,-y,-z
x,-y,z
loop_
_atom_site_type_symbol
_atom_site_label
_atom_site_fract_x
_atom_site_fract_y
_atom_site_fract_z
Si Si1 0.472753 0.653428 0.813844
Si Si2 0.053889 0.757370 0.211124
Si Si3 0.305438 0.247293 0.904156
Si Si4 0.010973 0.000000 0.318987
Si Si5 0.003456 0.500000 0.294870
Si Si6 0.818450 0.000000 0.215395
Si Si7 0.166896 0.500000 0.758567
Si Si8 0.286995 0.839718 0.590910
O O1 0.451734 0.500000 0.747423
O O2 0.377957 0.755490 0.660786
O O3 0.500000 0.649519 0.000000
O O4 0.575146 0.712281 0.901279
O O5 0.176068 0.788846 0.379547
O O6 0.012360 0.874020 0.234974
O O7 0.028223 0.625362 0.247660
O O8 0.000000 0.755190 0.000000
O O9 0.236692 0.372674 0.837260
O O10 0.293602 0.203240 0.744014
O O11 0.255707 0.125671 0.902292
O O12 0.909394 0.000000 0.251345
O O13 0.114387 0.000000 0.557716
O O14 0.891339 0.500000 0.196208
O O15 0.081701 0.500000 0.525152
O O16 0.296813 0.000000 0.595298
#
# Coordination Sequence:
#
# PCOD9154207 Si02
#       8
#     4   4   4   2   2   2   2   4
#     4   9  20  31  50  75 111 144 178 219 273 332
#     4  12  23  38  56  78 113 149 184 224 266 320
#     4  11  18  33  52  82 111 144 172 220 285 326
#     4  11  21  38  53  81 111 150 186 219 277 321
#     4  11  23  36  53  85 109 146 186 223 269 321
#     4  11  20  32  58  82 115 142 179 230 269 332
#     4  11  20  34  58  78 115 146 175 224 275 332
#     4  11  21  34  51  79 110 144 184 224 265 324
#
# _framework density 16.841944000000002
#
# number of rings (size 3 to 8) (size 9 to 14) (size 15 to 20)
#    0.000    1.167    5.833    1.500    3.500    3.667 
#    0.000    0.000    0.000    0.000    0.000    7.000 
#    0.000    0.000    0.000    0.000    0.000    0.000 
#
# Total GULP energy -133855.283921 kJ/mol
# GULP energy per Si atom -5577.303497 kJ/mol
# Density = 1.680361 g / cm^3
# Si number density = 16.841944 Si / 1000 Ang^3
#
#
#
# Elastic Constant Matrix: (Units=GPa)
#
#
# Indices 1 2 3 4 5 6 
#
# 1 110.4396 87.5532 60.7654 0.0000 33.7851 0.0000
# 2 87.5532 206.2381 62.6259 0.0000 25.4322 0.0000
# 3 60.7654 62.6259 79.2329 0.0000 17.2820 0.0000
# 4 0.0000 0.0000 0.0000 -25.4060 0.0000 103.7678
# 5 33.7851 25.4322 17.2820 0.0000 34.8342 0.0000
# 6 0.0000 0.0000 0.0000 103.7678 0.0000 -153.9549
#
#
#
# Elastic Compliance Matrix: (Units=1/GPa)
#
#
# Indices 1 2 3 4 5 6 
#
# 1 0.022909 -0.004776 -0.010887 0.000000 -0.013331 0.000000
# 2 -0.004776 0.007562 -0.002378 0.000000 0.000290 0.000000
# 3 -0.010887 -0.002378 0.022616 0.000000 0.001075 0.000000
# 4 0.000000 0.000000 0.000000 0.022454 0.000000 0.015134
# 5 -0.013331 0.000290 0.001075 0.000000 0.040892 0.000000
# 6 0.000000 0.000000 0.000000 0.015134 0.000000 0.003705
#
#
# Mechanical properties :
#
#
# Convention : Reuss Voigt Hill
#
# Bulk Modulus (GPa) = 58.80442 90.86663 74.83553
# Shear Modulus (GPa) = 30.88535 -16.57426 7.15554
#
# Velocity S-wave (km/s) = 4.28698 -3.14045 2.06346
# Velocity P-wave (km/s) = 7.71333 6.39686 7.08573
#
# Compressibility (1/GPa) = 0.01700552
#
# Stress axis : x y z
#
# Youngs Moduli (GPa) = 43.65076 132.23151 44.21694
#
# Poissons Ratio (x) = 0.63149 0.48139
# Poissons Ratio (y) = 0.20846 0.10516
# Poissons Ratio (z) = 0.47523 0.31448
#
# Static dielectric constant tensor:
#      x y z
#    x 1.563580 0.000000 0.025160 
#    y 0.000000 1.542690 0.000000 
#    z 0.025160 0.000000 1.552030 
# 
# From -- ./inp_files/56754.got.cif
#   From: 2010.05.17/outbox.cif.g08.bks.cpg/sg10_29_cif.got.tgz:56754.got - 2010.06.03 11:33:40.
