data_PCOD9154622
_publ_section_title
;
Structure prediction by ZEFSAII (Michael W. Deem and Ramdas Pophale) SiO2 
 PCOD9154622
Probable space group: P 2/M
;
_chemical_formula_sum "Si O2"
_cell_formula_units_Z 32
_cell_length_a 5.037324
_cell_length_b 16.822631
_cell_length_c 19.027450
_cell_angle_alpha 90.000000
_cell_angle_beta 82.879968
_cell_angle_gamma 90.000000
_cell_volume 1599.972151
_symmetry_space_group_name_H-M "P 2/M"
_symmetry_group_IT_number 10
_symmetry_cell_setting 'monoclinic'
loop_
_space_group_symop_operation_xyz
x,y,z
-x,y,-z
-x,-y,-z
x,-y,z
loop_
_atom_site_type_symbol
_atom_site_label
_atom_site_fract_x
_atom_site_fract_y
_atom_site_fract_z
Si Si1 0.990617 0.316732 0.210867
Si Si2 0.217667 0.753529 0.546718
Si Si3 0.521904 0.592955 0.730936
Si Si4 0.902184 0.830574 0.310375
Si Si5 0.328125 0.412511 0.578281
Si Si6 0.421078 0.913534 0.271357
Si Si7 0.041344 0.202059 0.077022
Si Si8 0.518157 0.092928 0.105106
O O1 0.756138 0.382125 0.222226
O O2 0.877542 0.245335 0.261837
O O3 0.051080 0.272505 0.134747
O O4 0.248596 0.353325 0.241423
O O5 0.500000 0.748391 0.500000
O O6 0.228389 0.810233 0.612018
O O7 0.141853 0.664133 0.574749
O O8 0.000000 0.782572 0.500000
O O9 0.580733 0.500000 0.740546
O O10 0.485150 0.602187 0.646888
O O11 0.727701 0.898957 0.280888
O O12 0.213409 0.850325 0.308012
O O13 0.500000 0.416167 0.500000
O O14 0.197574 0.500000 0.589765
O O15 0.402937 0.908929 0.188045
O O16 0.336058 0.000000 0.298822
O O17 0.795152 0.141378 0.098897
O O18 0.303964 0.146144 0.070390
O O19 0.000000 0.234982 0.000000
O O20 0.548847 0.000000 0.082010
#
# Coordination Sequence:
#
# PCOD9154622 Si02
#       8
#     4   4   4   4   4   4   4   4
#     4  12  23  41  64  91 121 159 210 254 298 360
#     4  11  24  38  58  87 122 161 204 252 306 360
#     4  11  24  41  64  91 124 164 203 252 307 357
#     4  12  22  39  66  88 122 163 206 259 300 355
#     4   9  20  36  56  87 127 162 192 232 296 372
#     4  11  22  39  64  93 122 157 204 255 308 361
#     4  12  25  41  62  91 127 166 203 253 311 362
#     4  11  22  39  60  92 132 165 200 241 299 381
#
# _framework density 20.000347999999999
#
# number of rings (size 3 to 8) (size 9 to 14) (size 15 to 20)
#    0.000    0.875    3.750    3.750    3.500    3.750 
#    0.000    0.000    0.000    9.750    0.000    0.000 
#    0.000    0.000    0.000    0.000    0.000    0.000 
#
# Total GULP energy -178690.398421 kJ/mol
# GULP energy per Si atom -5584.074951 kJ/mol
# Density = 1.995483 g / cm^3
# Si number density = 20.000348 Si / 1000 Ang^3
#
#
#
# Elastic Constant Matrix: (Units=GPa)
#
#
# Indices 1 2 3 4 5 6 
#
# 1 73.2710 6.4875 15.9222 0.0000 2.7083 0.0000
# 2 6.4875 64.6844 41.0517 0.0000 3.5932 0.0000
# 3 15.9222 41.0517 120.2449 0.0000 10.8988 0.0000
# 4 0.0000 0.0000 0.0000 2.7563 0.0000 4.8488
# 5 2.7083 3.5932 10.8988 0.0000 27.1938 0.0000
# 6 0.0000 0.0000 0.0000 4.8488 0.0000 28.9494
#
#
#
# Elastic Compliance Matrix: (Units=1/GPa)
#
#
# Indices 1 2 3 4 5 6 
#
# 1 0.014069 -0.000294 -0.001701 0.000000 -0.000681 0.000000
# 2 -0.000294 0.019742 -0.006711 0.000000 0.000110 0.000000
# 3 -0.001701 -0.006711 0.011142 0.000000 -0.003409 0.000000
# 4 0.000000 0.000000 0.000000 0.514360 0.000000 -0.086152
# 5 -0.000681 0.000110 -0.003409 0.000000 0.038193 0.000000
# 6 0.000000 0.000000 0.000000 -0.086152 0.000000 0.048973
#
#
# Mechanical properties :
#
#
# Convention : Reuss Voigt Hill
#
# Bulk Modulus (GPa) = 36.30925 42.79146 39.55035
# Shear Modulus (GPa) = 7.42864 24.76249 16.09557
#
# Velocity S-wave (km/s) = 1.92933 3.52249 2.83991
# Velocity P-wave (km/s) = 4.81215 6.16325 5.52913
#
# Compressibility (1/GPa) = 0.02754119
#
# Stress axis : x y z
#
# Youngs Moduli (GPa) = 71.07949 50.65297 89.75222
#
# Poissons Ratio (x) = 0.01488 0.15266
# Poissons Ratio (y) = 0.02088 0.60234
# Poissons Ratio (z) = 0.12090 0.33994
#
# Static dielectric constant tensor:
#      x y z
#    x 1.701180 0.000000 0.005120 
#    y 0.000000 1.716430 0.000000 
#    z 0.005120 0.000000 1.708960 
# 
# From -- ./inp_files/73534.got.cif
#   From: 2010.05.17/outbox.cif.g08.bks.cpg/sg10_37_cif.got.tgz:73534.got - 2010.06.03 11:33:40.
