data_PCOD9154724
_publ_section_title
;
Structure prediction by ZEFSAII (Michael W. Deem and Ramdas Pophale) SiO2 
 PCOD9154724
Probable space group: P 2/M
;
_chemical_formula_sum "Si O2"
_cell_formula_units_Z 20
_cell_length_a 13.854511
_cell_length_b 13.655396
_cell_length_c 16.066710
_cell_angle_alpha 90.000000
_cell_angle_beta 163.879265
_cell_angle_gamma 90.000000
_cell_volume 843.994133
_symmetry_space_group_name_H-M "P 2/M"
_symmetry_group_IT_number 10
_symmetry_cell_setting 'monoclinic'
loop_
_space_group_symop_operation_xyz
x,y,z
-x,y,-z
-x,-y,-z
x,-y,z
loop_
_atom_site_type_symbol
_atom_site_label
_atom_site_fract_x
_atom_site_fract_y
_atom_site_fract_z
Si Si1 0.358693 0.267799 0.974925
Si Si2 0.256798 0.391080 0.579793
Si Si3 0.803466 0.888804 0.574657
Si Si4 0.032567 0.820812 0.928321
Si Si5 0.029983 0.396044 0.925363
O O1 0.659562 0.305777 0.284976
O O2 0.500000 0.250961 0.000000
O O3 0.096295 0.360411 0.757176
O O4 0.129967 0.175791 0.815011
O O5 0.227583 0.500000 0.592577
O O6 0.573272 0.393885 0.776825
O O7 0.442356 0.837329 0.251322
O O8 0.809975 0.000000 0.548621
O O9 0.829802 0.889279 0.696932
O O10 0.898541 0.711551 0.792765
O O11 0.000000 0.835851 0.000000
O O12 0.876750 0.500000 0.766834
O O13 0.000000 0.397596 0.000000
#
# Coordination Sequence:
#
# PCOD9154724 Si02
#       5
#     4   4   4   4   4
#     4  12  25  44  65  91 125 163 214 264 314 366
#     4  11  23  42  67  96 130 165 204 251 310 376
#     4  12  25  44  65  91 125 163 214 264 314 366
#     4  11  23  42  67  96 130 165 204 251 310 376
#     4   9  18  36  64  96 131 166 198 240 301 378
#
# _framework density 23.696847999999999
#
# number of rings (size 3 to 8) (size 9 to 14) (size 15 to 20)
#    0.000    1.000    4.000    2.400    0.000    5.200 
#    0.000    2.000    0.000   14.400    0.000    0.000 
#    0.000    0.000    0.000    0.000    0.000    0.000 
#
# Total GULP energy -111866.475497 kJ/mol
# GULP energy per Si atom -5593.323775 kJ/mol
# Density = 2.364291 g / cm^3
# Si number density = 23.696848 Si / 1000 Ang^3
#
#
#
# Elastic Constant Matrix: (Units=GPa)
#
#
# Indices 1 2 3 4 5 6 
#
# 1 113.4569 23.2239 12.0936 0.0000 12.7138 0.0000
# 2 23.2239 173.9815 10.2179 0.0000 6.8811 0.0000
# 3 12.0936 10.2179 71.0696 0.0000 -2.1266 0.0000
# 4 0.0000 0.0000 0.0000 5.4595 0.0000 -5.0121
# 5 12.7138 6.8811 -2.1266 0.0000 32.1061 0.0000
# 6 0.0000 0.0000 0.0000 -5.0121 0.0000 7.1017
#
#
#
# Elastic Compliance Matrix: (Units=1/GPa)
#
#
# Indices 1 2 3 4 5 6 
#
# 1 0.009611 -0.001043 -0.001596 0.000000 -0.003688 0.000000
# 2 -0.001043 0.005965 -0.000707 0.000000 -0.000912 0.000000
# 3 -0.001596 -0.000707 0.014496 0.000000 0.001744 0.000000
# 4 0.000000 0.000000 0.000000 0.520231 0.000000 0.367157
# 5 -0.003688 -0.000912 0.001744 0.000000 0.032918 0.000000
# 6 0.000000 0.000000 0.000000 0.367157 0.000000 0.399936
#
#
# Mechanical properties :
#
#
# Convention : Reuss Voigt Hill
#
# Bulk Modulus (GPa) = 42.77386 49.95320 46.36353
# Shear Modulus (GPa) = 5.01181 29.79830 17.40506
#
# Velocity S-wave (km/s) = 1.45587 3.54994 2.71308
# Velocity P-wave (km/s) = 4.57337 6.15862 5.42422
#
# Compressibility (1/GPa) = 0.02337876
#
# Stress axis : x y z
#
# Youngs Moduli (GPa) = 104.04924 167.65534 68.98390
#
# Poissons Ratio (x) = 0.17492 0.11008
# Poissons Ratio (y) = 0.10856 0.04879
# Poissons Ratio (z) = 0.16604 0.11858
#
# Static dielectric constant tensor:
#      x y z
#    x 1.894330 0.000000 0.019270 
#    y 0.000000 1.919890 0.000000 
#    z 0.019270 0.000000 1.844340 
# 
# From -- ./inp_files/78141.got.cif
#   From: 2010.05.17/outbox.cif.g08.bks.cpg/sg10_40_cif.got.tgz:78141.got - 2010.06.03 11:33:40.
