data_PCOD9154727
_publ_section_title
;
Structure prediction by ZEFSAII (Michael W. Deem and Ramdas Pophale) SiO2 
 PCOD9154727
Probable space group: P 2/M
;
_chemical_formula_sum "Si O2"
_cell_formula_units_Z 32
_cell_length_a 13.293026
_cell_length_b 17.465668
_cell_length_c 11.734468
_cell_angle_alpha 90.000000
_cell_angle_beta 146.442836
_cell_angle_gamma 90.000000
_cell_volume 1505.968494
_symmetry_space_group_name_H-M "P 2/M"
_symmetry_group_IT_number 10
_symmetry_cell_setting 'monoclinic'
loop_
_space_group_symop_operation_xyz
x,y,z
-x,y,-z
-x,-y,-z
x,-y,z
loop_
_atom_site_type_symbol
_atom_site_label
_atom_site_fract_x
_atom_site_fract_y
_atom_site_fract_z
Si Si1 0.633087 0.828756 0.392838
Si Si2 0.922862 0.087220 0.809886
Si Si3 0.762884 0.856003 0.038237
Si Si4 0.781334 0.910421 0.306412
Si Si5 0.568957 0.416185 0.937073
Si Si6 0.218887 0.587631 0.189400
Si Si7 0.141453 0.319790 0.894336
Si Si8 0.285069 0.651376 0.497183
O O1 0.757401 0.864627 0.607093
O O2 0.713961 0.860099 0.349119
O O3 0.645415 0.737612 0.416314
O O4 0.426275 0.856076 0.206776
O O5 0.084904 0.089228 0.870513
O O6 0.865918 0.000000 0.775977
O O7 0.000000 0.120295 0.000000
O O8 0.715434 0.877837 0.123137
O O9 0.847855 0.771376 0.104755
O O10 0.000000 0.906958 0.500000
O O11 0.729948 0.000000 0.273837
O O12 0.645869 0.500000 0.981479
O O13 0.401859 0.399116 0.694424
O O14 0.500000 0.416013 0.000000
O O15 0.727921 0.354515 0.077313
O O16 0.281428 0.500000 0.227281
O O17 0.304887 0.621293 0.386283
O O18 0.231800 0.645394 0.095082
O O19 0.000000 0.583422 0.000000
O O20 0.933041 0.346904 0.687758
#
# Coordination Sequence:
#
# PCOD9154727 Si02
#       8
#     4   4   4   4   4   4   4   4
#     4  12  25  42  69 102 136 176 224 282 337 403
#     4  11  26  47  69  95 137 183 225 275 338 406
#     4  12  25  42  69 102 136 176 224 282 337 403
#     4  11  23  43  71 100 135 174 222 280 345 408
#     4  11  26  45  65  95 137 177 223 275 332 402
#     4   9  20  39  67  99 130 166 219 275 332 394
#     4  11  23  42  69  98 133 176 220 276 335 399
#     4  11  23  42  69  98 133 176 220 276 335 399
#
# _framework density 21.248785000000002
#
# number of rings (size 3 to 8) (size 9 to 14) (size 15 to 20)
#    0.000    1.000    3.750    1.875    3.500    5.500 
#    0.000    3.750    0.000    0.000    0.000    0.000 
#    0.000    0.000    0.000    0.000    0.000    0.000 
#
# Total GULP energy -178984.443378 kJ/mol
# GULP energy per Si atom -5593.263856 kJ/mol
# Density = 2.120042 g / cm^3
# Si number density = 21.248785 Si / 1000 Ang^3
#
#
#
# Elastic Constant Matrix: (Units=GPa)
#
#
# Indices 1 2 3 4 5 6 
#
# 1 34.4562 6.5934 -1.2780 0.0000 -3.8429 0.0000
# 2 6.5934 99.0331 10.1773 0.0000 -12.9347 0.0000
# 3 -1.2780 10.1773 98.1386 0.0000 -1.7744 0.0000
# 4 0.0000 0.0000 0.0000 42.1643 0.0000 5.4089
# 5 -3.8429 -12.9347 -1.7744 0.0000 39.2809 0.0000
# 6 0.0000 0.0000 0.0000 5.4089 0.0000 38.5483
#
#
#
# Elastic Compliance Matrix: (Units=1/GPa)
#
#
# Indices 1 2 3 4 5 6 
#
# 1 0.029639 -0.001728 0.000608 0.000000 0.002358 0.000000
# 2 -0.001728 0.010758 -0.001078 0.000000 0.003325 0.000000
# 3 0.000608 -0.001078 0.010312 0.000000 0.000170 0.000000
# 4 0.000000 0.000000 0.000000 0.024151 0.000000 -0.003389
# 5 0.002358 0.003325 0.000170 0.000000 0.026791 0.000000
# 6 0.000000 0.000000 0.000000 -0.003389 0.000000 0.026417
#
#
# Mechanical properties :
#
#
# Convention : Reuss Voigt Hill
#
# Bulk Modulus (GPa) = 21.59229 29.17923 25.38576
# Shear Modulus (GPa) = 33.80630 38.40771 36.10701
#
# Velocity S-wave (km/s) = 3.99303 4.25611 4.12667
# Velocity P-wave (km/s) = 5.60739 6.15749 5.88886
#
# Compressibility (1/GPa) = 0.04631282
#
# Stress axis : x y z
#
# Youngs Moduli (GPa) = 33.73984 92.95691 96.97009
#
# Poissons Ratio (x) = 0.16060 -0.05894
# Poissons Ratio (y) = 0.05829 0.10453
# Poissons Ratio (z) = -0.02051 0.10021
#
# Static dielectric constant tensor:
#      x y z
#    x 1.773180 0.000000 -0.003390 
#    y 0.000000 1.768190 0.000000 
#    z -0.003390 0.000000 1.760710 
# 
# From -- ./inp_files/51982.got.cif
#   From: 2010.05.17/outbox.cif.g08.bks.cpg/sg10_26_cif.got.tgz:51982.got - 2010.06.03 11:33:40.
