data_PCOD9154649
_publ_section_title
;
Structure prediction by ZEFSAII (Michael W. Deem and Ramdas Pophale) SiO2 
 PCOD9154649
Probable space group: P 2/M
;
_chemical_formula_sum "Si O2"
_cell_formula_units_Z 20
_cell_length_a 16.017714
_cell_length_b 7.678101
_cell_length_c 23.088853
_cell_angle_alpha 90.000000
_cell_angle_beta 20.300720
_cell_angle_gamma 90.000000
_cell_volume 985.190915
_symmetry_space_group_name_H-M "P 2/M"
_symmetry_group_IT_number 10
_symmetry_cell_setting 'monoclinic'
loop_
_space_group_symop_operation_xyz
x,y,z
-x,y,-z
-x,-y,-z
x,-y,z
loop_
_atom_site_type_symbol
_atom_site_label
_atom_site_fract_x
_atom_site_fract_y
_atom_site_fract_z
Si Si1 0.261252 0.298669 0.833078
Si Si2 0.600866 0.000000 0.776415
Si Si3 0.939464 0.000000 0.442405
Si Si4 0.228940 0.790949 0.663142
Si Si5 0.230862 0.294033 0.532188
Si Si6 0.263833 0.306822 0.966840
O O1 0.233666 0.500000 0.831085
O O2 0.490170 0.228475 0.650388
O O3 0.327420 0.298563 0.857605
O O4 0.000000 0.212869 0.000000
O O5 0.425146 0.834853 0.893359
O O6 0.803507 0.000000 0.693479
O O7 0.741617 0.000000 0.622933
O O8 0.904056 0.169986 0.425159
O O9 0.500000 0.727377 0.500000
O O10 0.149827 0.729632 0.650788
O O11 0.232173 0.000000 0.662305
O O12 0.021043 0.727910 0.841559
O O13 0.224979 0.500000 0.520424
O O14 0.315172 0.500000 0.955023
#
# Coordination Sequence:
#
# PCOD9154649 Si02
#       6
#     4   2   2   4   4   4
#     4   9  18  33  57  88 121 157 200 248 296 360
#     4  11  24  43  66  93 123 157 207 269 326 367
#     4  11  24  43  66  93 123 157 207 269 326 367
#     4  11  23  39  63  95 133 172 205 244 304 374
#     4  11  22  40  63  91 125 163 209 253 306 371
#     4  11  22  40  63  91 125 163 209 253 306 371
#
# _framework density 20.300632
#
# number of rings (size 3 to 8) (size 9 to 14) (size 15 to 20)
#    0.000    1.400    4.000    1.800    0.000    4.000 
#    0.000    5.000    0.000    2.400    0.000    0.000 
#    0.000    0.000    0.000    0.000    0.000    0.000 
#
# Total GULP energy -111720.875287 kJ/mol
# GULP energy per Si atom -5586.043764 kJ/mol
# Density = 2.025443 g / cm^3
# Si number density = 20.300632 Si / 1000 Ang^3
#
#
#
# Elastic Constant Matrix: (Units=GPa)
#
#
# Indices 1 2 3 4 5 6 
#
# 1 59.1561 27.4159 -2.3329 0.0000 -8.2507 0.0000
# 2 27.4159 129.3962 13.9165 0.0000 -22.5851 0.0000
# 3 -2.3329 13.9165 60.2294 0.0000 -5.5883 0.0000
# 4 0.0000 0.0000 0.0000 6.3657 0.0000 10.1307
# 5 -8.2507 -22.5851 -5.5883 0.0000 39.4223 0.0000
# 6 0.0000 0.0000 0.0000 10.1307 0.0000 4.4880
#
#
#
# Elastic Compliance Matrix: (Units=1/GPa)
#
#
# Indices 1 2 3 4 5 6 
#
# 1 0.019057 -0.003881 0.001823 0.000000 0.002024 0.000000
# 2 -0.003881 0.009522 -0.001945 0.000000 0.004367 0.000000
# 3 0.001823 -0.001945 0.017283 0.000000 0.001717 0.000000
# 4 0.000000 0.000000 0.000000 -0.060598 0.000000 0.136787
# 5 0.002024 0.004367 0.001717 0.000000 0.028535 0.000000
# 6 0.000000 0.000000 0.000000 0.136787 0.000000 -0.085951
#
#
# Mechanical properties :
#
#
# Convention : Reuss Voigt Hill
#
# Bulk Modulus (GPa) = 26.41658 36.30895 31.36277
# Shear Modulus (GPa) = -97.03469 24.04068 -36.49701
#
# Velocity S-wave (km/s) = -6.92117 3.44500 -4.24468
# Velocity P-wave (km/s) = 7.12946 5.80935 2.92239
#
# Compressibility (1/GPa) = 0.03785501
#
# Stress axis : x y z
#
# Youngs Moduli (GPa) = 52.47421 105.02166 57.86189
#
# Poissons Ratio (x) = 0.40754 -0.10546
# Poissons Ratio (y) = 0.20363 0.11255
# Poissons Ratio (z) = -0.09564 0.20429
#
# Static dielectric constant tensor:
#      x y z
#    x 1.687250 0.000000 -0.005370 
#    y 0.000000 1.720890 0.000000 
#    z -0.005370 0.000000 1.721160 
# 
# From -- ./inp_files/32627.got.cif
#   From: 2010.05.17/outbox.cif.g08.bks.cpg/sg10_17_cif.got.tgz:32627.got - 2010.06.03 11:33:40.
