data_PCOD9154779
_publ_section_title
;
Structure prediction by ZEFSAII (Michael W. Deem and Ramdas Pophale) SiO2 
 PCOD9154779
Probable space group: P 2/M
;
_chemical_formula_sum "Si O2"
_cell_formula_units_Z 28
_cell_length_a 8.281687
_cell_length_b 18.917494
_cell_length_c 14.730614
_cell_angle_alpha 90.000000
_cell_angle_beta 42.577841
_cell_angle_gamma 90.000000
_cell_volume 1561.455582
_symmetry_space_group_name_H-M "P 2/M"
_symmetry_group_IT_number 10
_symmetry_cell_setting 'monoclinic'
loop_
_space_group_symop_operation_xyz
x,y,z
-x,y,-z
-x,-y,-z
x,-y,z
loop_
_atom_site_type_symbol
_atom_site_label
_atom_site_fract_x
_atom_site_fract_y
_atom_site_fract_z
Si Si1 0.112453 0.500000 0.211027
Si Si2 0.620952 0.769913 0.710087
Si Si3 0.260375 0.355080 0.856497
Si Si4 0.247713 0.626666 0.645964
Si Si5 0.378933 0.924218 0.289890
Si Si6 0.625861 0.500000 0.089139
Si Si7 0.857045 0.075843 0.413986
Si Si8 0.859668 0.769908 0.413698
O O1 0.352906 0.500000 0.169562
O O2 0.954419 0.569447 0.293662
O O3 0.200994 0.500000 0.069965
O O4 0.448752 0.705604 0.803109
O O5 0.507249 0.847674 0.773416
O O6 0.702091 0.765267 0.570869
O O7 0.866222 0.766481 0.665747
O O8 0.260942 0.365862 0.748435
O O9 0.324754 0.429595 0.875044
O O10 0.000000 0.334329 0.000000
O O11 0.500000 0.602762 0.500000
O O12 0.193956 0.703590 0.626621
O O13 0.294274 0.924227 0.429977
O O14 0.132101 0.924269 0.334326
O O15 0.501079 0.000000 0.221318
O O16 0.815180 0.152611 0.387748
O O17 0.811466 0.000000 0.385559
#
# Coordination Sequence:
#
# PCOD9154779 Si02
#       8
#     2   4   4   4   4   2   4   4
#     4  11  24  43  64  85 106 135 178 226 267 315
#     4   9  17  31  52  79 111 144 183 227 268 316
#     4  12  23  40  59  79 111 147 181 213 264 330
#     4  12  23  39  58  84 115 143 174 219 273 326
#     4   7  10  19  40  71 103 137 178 222 265 307
#     4  11  24  44  64  82 106 137 182 224 261 317
#     4   7  10  19  40  70 105 140 174 218 268 312
#     4   9  17  31  51  81 113 141 180 229 274 310
#
# _framework density 17.931985999999998
#
# number of rings (size 3 to 8) (size 9 to 14) (size 15 to 20)
#    0.000    2.429    2.857    4.286    0.000    0.000 
#    0.000    0.714    0.000    1.714    0.000    0.000 
#    0.000    4.571    0.000    0.000    0.000    0.000 
#
# Total GULP energy -156045.343613 kJ/mol
# GULP energy per Si atom -5573.047986 kJ/mol
# Density = 1.789117 g / cm^3
# Si number density = 17.931986 Si / 1000 Ang^3
#
#
#
# Elastic Constant Matrix: (Units=GPa)
#
#
# Indices 1 2 3 4 5 6 
#
# 1 42.5948 42.0022 30.5651 0.0000 -0.5113 0.0000
# 2 42.0022 176.1586 40.4698 0.0000 -23.4398 0.0000
# 3 30.5651 40.4698 75.4613 0.0000 -12.2103 0.0000
# 4 0.0000 0.0000 0.0000 -3.1059 0.0000 17.5294
# 5 -0.5113 -23.4398 -12.2103 0.0000 18.3272 0.0000
# 6 0.0000 0.0000 0.0000 17.5294 0.0000 -28.6511
#
#
#
# Elastic Compliance Matrix: (Units=1/GPa)
#
#
# Indices 1 2 3 4 5 6 
#
# 1 0.044725 -0.009856 -0.016440 0.000000 -0.022310 0.000000
# 2 -0.009856 0.009471 0.000928 0.000000 0.012456 0.000000
# 3 -0.016440 0.000928 0.021891 0.000000 0.015313 0.000000
# 4 0.000000 0.000000 0.000000 0.131250 0.000000 0.080302
# 5 -0.022310 0.012456 0.015313 0.000000 0.080075 0.000000
# 6 0.000000 0.000000 0.000000 0.080302 0.000000 0.014228
#
#
# Mechanical properties :
#
#
# Convention : Reuss Voigt Hill
#
# Bulk Modulus (GPa) = 39.44501 57.80986 48.62743
# Shear Modulus (GPa) = 13.85722 9.39257 11.62489
#
# Velocity S-wave (km/s) = 2.78288 2.29113 2.54889
# Velocity P-wave (km/s) = 5.68952 6.26956 5.98657
#
# Compressibility (1/GPa) = 0.02535175
#
# Stress axis : x y z
#
# Youngs Moduli (GPa) = 22.35905 105.58760 45.68183
#
# Poissons Ratio (x) = 1.04064 0.75100
# Poissons Ratio (y) = 0.22036 -0.04241
# Poissons Ratio (z) = 0.36758 -0.09802
#
# Static dielectric constant tensor:
#      x y z
#    x 1.615350 0.000000 -0.010000 
#    y 0.000000 1.659120 0.000000 
#    z -0.010000 0.000000 1.571310 
# 
# From -- ./inp_files/62346.got.cif
#   From: 2010.05.17/outbox.cif.g08.bks.cpg/sg10_32_cif.got.tgz:62346.got - 2010.06.03 11:33:40.
