data_PCOD9154690
_publ_section_title
;
Structure prediction by ZEFSAII (Michael W. Deem and Ramdas Pophale) SiO2 
 PCOD9154690
Probable space group: P 2/M
;
_chemical_formula_sum "Si O2"
_cell_formula_units_Z 26
_cell_length_a 9.424758
_cell_length_b 20.909144
_cell_length_c 8.924717
_cell_angle_alpha 90.000000
_cell_angle_beta 52.990312
_cell_angle_gamma 90.000000
_cell_volume 1404.410880
_symmetry_space_group_name_H-M "P 2/M"
_symmetry_group_IT_number 10
_symmetry_cell_setting 'monoclinic'
loop_
_space_group_symop_operation_xyz
x,y,z
-x,y,-z
-x,-y,-z
x,-y,z
loop_
_atom_site_type_symbol
_atom_site_label
_atom_site_fract_x
_atom_site_fract_y
_atom_site_fract_z
Si Si1 0.688365 0.069916 0.303020
Si Si2 0.794627 0.688355 0.076605
Si Si3 0.500000 0.339496 0.500000
Si Si4 0.975926 0.927397 0.691281
Si Si5 0.750897 0.574223 0.536787
Si Si6 0.841794 0.574879 0.823701
Si Si7 0.824764 0.828613 0.003575
O O1 0.500000 0.068265 0.500000
O O2 0.839732 0.076327 0.333441
O O3 0.722248 0.000000 0.208058
O O4 0.693489 0.128650 0.186303
O O5 0.654439 0.693760 0.302766
O O6 0.769019 0.625613 0.989616
O O7 0.776171 0.755714 0.002072
O O8 0.000000 0.683638 0.000000
O O9 0.391328 0.381964 0.451616
O O10 0.000000 0.918598 0.500000
O O11 0.861263 0.870976 0.835009
O O12 0.906553 0.000000 0.758182
O O13 0.706518 0.500000 0.542110
O O14 0.762693 0.584954 0.707723
O O15 0.945894 0.584216 0.338384
O O16 0.813543 0.500000 0.884193
O O17 0.000000 0.826572 0.000000
#
# Coordination Sequence:
#
# PCOD9154690 Si02
#       7
#     4   4   2   4   4   4   4
#     4   9  17  31  55  82 107 140 180 224 270 318
#     4  11  23  39  56  85 115 155 189 236 285 333
#     4  12  23  36  60  86 113 144 192 238 276 340
#     4   9  17  33  57  84 108 139 183 226 270 326
#     4   9  19  37  62  88 110 142 187 237 291 342
#     4   9  19  39  61  82 115 151 185 233 290 343
#     4   9  19  35  54  77 111 148 185 218 272 330
#
# _framework density 18.513100000000001
#
# number of rings (size 3 to 8) (size 9 to 14) (size 15 to 20)
#    0.000    2.462    1.538    1.615    1.077    4.000 
#    2.769    2.308    3.385    3.692    0.000    0.000 
#    0.000    0.000    0.000    0.000    0.000    0.000 
#
# Total GULP energy -144865.410451 kJ/mol
# GULP energy per Si atom -5571.746556 kJ/mol
# Density = 1.847096 g / cm^3
# Si number density = 18.513100 Si / 1000 Ang^3
#
#
#
# Elastic Constant Matrix: (Units=GPa)
#
#
# Indices 1 2 3 4 5 6 
#
# 1 31.0012 33.3285 14.9319 0.0000 -0.6703 0.0000
# 2 33.3285 134.4006 67.0461 0.0000 14.1921 0.0000
# 3 14.9319 67.0461 109.2550 0.0000 8.1001 0.0000
# 4 0.0000 0.0000 0.0000 15.0857 0.0000 14.5807
# 5 -0.6703 14.1921 8.1001 0.0000 18.6656 0.0000
# 6 0.0000 0.0000 0.0000 14.5807 0.0000 12.8399
#
#
#
# Elastic Compliance Matrix: (Units=1/GPa)
#
#
# Indices 1 2 3 4 5 6 
#
# 1 0.046112 -0.013056 0.000880 0.000000 0.011201 0.000000
# 2 -0.013056 0.014990 -0.006752 0.000000 -0.008936 0.000000
# 3 0.000880 -0.006752 0.013218 0.000000 -0.000571 0.000000
# 4 0.000000 0.000000 0.000000 -0.679402 0.000000 0.771514
# 5 0.011201 -0.008936 -0.000571 0.000000 0.061019 0.000000
# 6 0.000000 0.000000 0.000000 0.771514 0.000000 -0.798232
#
#
# Mechanical properties :
#
#
# Convention : Reuss Voigt Hill
#
# Bulk Modulus (GPa) = 27.42504 56.14109 41.78306
# Shear Modulus (GPa) = -3.86912 19.94160 8.03624
#
# Velocity S-wave (km/s) = -1.44723 3.28557 2.08573
# Velocity P-wave (km/s) = 3.47180 6.69210 5.33093
#
# Compressibility (1/GPa) = 0.03646303
#
# Stress axis : x y z
#
# Youngs Moduli (GPa) = 21.68639 66.71116 75.65203
#
# Poissons Ratio (x) = 0.87101 -0.06655
# Poissons Ratio (y) = 0.28315 0.51080
# Poissons Ratio (z) = -0.01908 0.45043
#
# Static dielectric constant tensor:
#      x y z
#    x 1.624070 0.000000 -0.020630 
#    y 0.000000 1.648780 0.000000 
#    z -0.020630 0.000000 1.652760 
# 
# From -- ./inp_files/20432.got.cif
#   From: 2010.05.17/outbox.cif.g08.bks.cpg/sg10_11_cif.got.tgz:20432.got - 2010.06.03 11:33:40.
