data_PCOD9154552
_publ_section_title
;
Structure prediction by ZEFSAII (Michael W. Deem and Ramdas Pophale) SiO2 
 PCOD9154552
Probable space group: P 2/M
;
_chemical_formula_sum "Si O2"
_cell_formula_units_Z 32
_cell_length_a 27.446465
_cell_length_b 18.141277
_cell_length_c 27.960586
_cell_angle_alpha 90.000000
_cell_angle_beta 11.004430
_cell_angle_gamma 90.000000
_cell_volume 2657.492809
_symmetry_space_group_name_H-M "P 2/M"
_symmetry_group_IT_number 10
_symmetry_cell_setting 'monoclinic'
loop_
_space_group_symop_operation_xyz
x,y,z
-x,y,-z
-x,-y,-z
x,-y,z
loop_
_atom_site_type_symbol
_atom_site_label
_atom_site_fract_x
_atom_site_fract_y
_atom_site_fract_z
Si Si1 0.225873 0.410092 0.000010
Si Si2 0.559206 0.170321 0.000001
Si Si3 0.782091 0.589573 0.500011
Si Si4 0.558623 0.342282 0.000012
Si Si5 0.113167 0.410187 0.999996
Si Si6 0.895738 0.411302 0.499988
Si Si7 0.443651 0.410153 0.500004
Si Si8 0.059402 0.914679 0.500001
O O1 0.225934 0.500000 0.000010
O O2 0.169480 0.386949 0.000004
O O3 0.004351 0.386168 0.249775
O O4 0.503876 0.386168 0.750252
O O5 0.325020 0.128047 0.250258
O O6 0.500000 0.168648 0.000000
O O7 0.572878 0.256037 0.000007
O O8 0.825537 0.128049 0.749741
O O9 0.781012 0.500000 0.500012
O O10 0.838745 0.610337 0.500000
O O11 0.829138 0.380283 0.749986
O O12 0.500000 0.347135 0.000000
O O13 0.329068 0.380279 0.250053
O O14 0.113166 0.500000 0.999996
O O15 0.834769 0.386870 0.249957
O O16 0.334698 0.386870 0.750030
O O17 0.898956 0.500000 0.499993
O O18 0.500000 0.386792 0.500000
O O19 0.443803 0.500000 0.500005
O O20 0.000000 0.914358 0.500000
O O21 0.074582 0.000000 0.500006
#
# Coordination Sequence:
#
# PCOD9154552 Si02
#       8
#     4   4   4   4   4   4   4   4
#     4   9  15  24  37  50  62  74  91 120 160 201
#     4   9  17  28  40  56  77  97 115 133 157 188
#     4   9  17  28  40  52  64  76  93 127 172 209
#     4  11  22  34  46  58  74  95 115 139 170 205
#     4   9  15  21  30  43  56  73  96 117 141 178
#     4  11  22  34  46  58  70  87 115 147 180 217
#     4   9  15  21  27  37  56  79  99 117 135 160
#     4   9  15  24  40  60  79  97 115 133 151 176
#
# _framework density 12.041423999999999
#
# number of rings (size 3 to 8) (size 9 to 14) (size 15 to 20)
#    0.000    2.500    0.000    3.750    0.000   11.500 
#    0.000    0.000    0.000    0.000    0.000    0.000 
#    0.000    0.000    0.000    0.000    0.000    0.000 
#
# Total GULP energy -178317.325261 kJ/mol
# GULP energy per Si atom -5572.416414 kJ/mol
# Density = 1.201402 g / cm^3
# Si number density = 12.041424 Si / 1000 Ang^3
#
#
#
# Elastic Constant Matrix: (Units=GPa)
#
#
# Indices 1 2 3 4 5 6 
#
# 1 95.2359 21.9982 66.5896 0.0000 -0.4826 0.0000
# 2 21.9982 55.2447 42.4646 0.0000 -0.8444 0.0000
# 3 66.5896 42.4646 153.5644 0.0000 -1.9246 0.0000
# 4 0.0000 0.0000 0.0000 13.2501 0.0000 -0.5720
# 5 -0.4826 -0.8444 -1.9246 0.0000 20.2387 0.0000
# 6 0.0000 0.0000 0.0000 -0.5720 0.0000 -0.5802
#
#
#
# Elastic Compliance Matrix: (Units=1/GPa)
#
#
# Indices 1 2 3 4 5 6 
#
# 1 0.015138 -0.001249 -0.006222 0.000000 -0.000283 0.000000
# 2 -0.001249 0.023093 -0.005839 0.000000 0.000378 0.000000
# 3 -0.006222 -0.005839 0.010833 0.000000 0.000638 0.000000
# 4 0.000000 0.000000 0.000000 0.072391 0.000000 -0.071363
# 5 -0.000283 0.000378 0.000638 0.000000 0.049480 0.000000
# 6 0.000000 0.000000 0.000000 -0.071363 0.000000 -1.653145
#
#
# Mechanical properties :
#
#
# Convention : Reuss Voigt Hill
#
# Bulk Modulus (GPa) = 44.55952 62.90554 53.73253
# Shear Modulus (GPa) = -3.45278 18.11455 7.33088
#
# Velocity S-wave (km/s) = -1.69518 3.88281 2.47007
# Velocity P-wave (km/s) = 5.76663 8.51211 7.27014
#
# Compressibility (1/GPa) = 0.02244189
#
# Stress axis : x y z
#
# Youngs Moduli (GPa) = 66.05852 43.30306 92.31202
#
# Poissons Ratio (x) = 0.05410 0.57440
# Poissons Ratio (y) = 0.08253 0.53904
# Poissons Ratio (z) = 0.41104 0.25286
#
# Static dielectric constant tensor:
#      x y z
#    x 1.380670 0.000000 -0.000850 
#    y 0.000000 1.356110 0.000000 
#    z -0.000850 0.000000 1.401150 
# 
# From -- ./inp_files/12905.got.cif
#   From: 2010.05.17/outbox.cif.g08.bks.cpg/sg10_7_cif.got.tgz:12905.got - 2010.06.03 11:33:40.
