data_PCOD9154005
_publ_section_title
;
Structure prediction by ZEFSAII (Michael W. Deem and Ramdas Pophale) SiO2 
 PCOD9154005
Probable space group: P 2/M
;
_chemical_formula_sum "Si O2"
_cell_formula_units_Z 28
_cell_length_a 19.030709
_cell_length_b 16.124923
_cell_length_c 7.502547
_cell_angle_alpha 90.000000
_cell_angle_beta 35.437976
_cell_angle_gamma 90.000000
_cell_volume 1334.920863
_symmetry_space_group_name_H-M "P 2/M"
_symmetry_group_IT_number 10
_symmetry_cell_setting 'monoclinic'
loop_
_space_group_symop_operation_xyz
x,y,z
-x,y,-z
-x,-y,-z
x,-y,z
loop_
_atom_site_type_symbol
_atom_site_label
_atom_site_fract_x
_atom_site_fract_y
_atom_site_fract_z
Si Si1 0.309160 0.826954 0.556535
Si Si2 0.035752 0.675982 0.615732
Si Si3 0.439652 0.237437 0.818246
Si Si4 0.182446 0.326728 0.660167
Si Si5 0.804467 0.832733 0.816440
Si Si6 0.075064 0.000000 0.567235
Si Si7 0.384147 0.411751 0.117482
Si Si8 0.809436 0.000000 0.278789
O O1 0.450649 0.803797 0.294287
O O2 0.250648 0.761239 0.540553
O O3 0.274426 0.919427 0.571106
O O4 0.239977 0.819188 0.889537
O O5 0.130274 0.648207 0.573433
O O6 0.097312 0.763051 0.435714
O O7 0.000000 0.634883 0.500000
O O8 0.916946 0.678607 0.982372
O O9 0.500000 0.248658 0.500000
O O10 0.320318 0.180495 0.037272
O O11 0.398726 0.328329 0.970870
O O12 0.280292 0.397295 0.479464
O O13 0.870809 0.919208 0.641512
O O14 0.132328 0.000000 0.646165
O O15 0.928793 0.000000 0.901174
O O16 0.367729 0.500000 0.055235
O O17 0.500000 0.415144 0.000000
#
# Coordination Sequence:
#
# PCOD9154005 Si02
#       8
#     4   4   4   4   4   2   4   2
#     4  11  22  40  65  95 130 173 225 273 329 390
#     4  11  22  38  64  96 127 179 223 268 325 390
#     4  10  23  42  69  98 129 173 219 273 338 400
#     4  11  22  39  67  96 131 172 223 272 326 402
#     4  11  22  40  64  93 132 174 225 277 325 385
#     4  11  25  40  57  90 135 178 224 273 328 373
#     4  11  23  42  70 100 131 166 213 276 338 400
#     4  11  25  40  57  92 134 176 223 277 320 386
#
# _framework density 20.975024999999999
#
# number of rings (size 3 to 8) (size 9 to 14) (size 15 to 20)
#    0.000    1.143    4.286    2.143    0.000    3.714 
#    0.000    4.286    0.000    0.857    0.000    0.000 
#    0.000    0.000    0.000    0.000    0.000    0.000 
#
# Total GULP energy -156057.429513 kJ/mol
# GULP energy per Si atom -5573.479625 kJ/mol
# Density = 2.092729 g / cm^3
# Si number density = 20.975025 Si / 1000 Ang^3
#
#
#
# Elastic Constant Matrix: (Units=GPa)
#
#
# Indices 1 2 3 4 5 6 
#
# 1 94.4478 17.8875 53.2685 0.0000 -2.6472 0.0000
# 2 17.8875 90.3878 43.9880 0.0000 -9.5210 0.0000
# 3 53.2685 43.9880 113.5668 0.0000 -7.2994 0.0000
# 4 0.0000 0.0000 0.0000 0.3874 0.0000 -0.6093
# 5 -2.6472 -9.5210 -7.2994 0.0000 42.3997 0.0000
# 6 0.0000 0.0000 0.0000 -0.6093 0.0000 22.0009
#
#
#
# Elastic Compliance Matrix: (Units=1/GPa)
#
#
# Indices 1 2 3 4 5 6 
#
# 1 0.014419 0.000523 -0.006978 0.000000 -0.000184 0.000000
# 2 0.000523 0.013854 -0.005470 0.000000 0.002202 0.000000
# 3 -0.006978 -0.005470 0.014248 0.000000 0.000789 0.000000
# 4 0.000000 0.000000 0.000000 2.698655 0.000000 0.074737
# 5 -0.000184 0.002202 0.000789 0.000000 0.024204 0.000000
# 6 0.000000 0.000000 0.000000 0.074737 0.000000 0.047522
#
#
# Mechanical properties :
#
#
# Convention : Reuss Voigt Hill
#
# Bulk Modulus (GPa) = 53.55760 58.74338 56.15049
# Shear Modulus (GPa) = 1.75872 25.17483 13.46678
#
# Velocity S-wave (km/s) = 0.91668 3.46819 2.53660
# Velocity P-wave (km/s) = 5.16815 6.64116 5.95041
#
# Compressibility (1/GPa) = 0.01867149
#
# Stress axis : x y z
#
# Youngs Moduli (GPa) = 69.35276 72.18232 70.18755
#
# Poissons Ratio (x) = -0.03774 0.48974
# Poissons Ratio (y) = -0.03626 0.38391
# Poissons Ratio (z) = 0.48391 0.39482
#
# Static dielectric constant tensor:
#      x y z
#    x 1.790280 0.000000 0.016170 
#    y 0.000000 1.758670 0.000000 
#    z 0.016170 0.000000 1.770800 
# 
# From -- ./inp_files/35278.got.cif
#   From: 2010.05.17/outbox.cif.g08.bks.cpg/sg10_18_cif.got.tgz:35278.got - 2010.06.03 11:33:40.
