data_PCOD9154305
_publ_section_title
;
Structure prediction by ZEFSAII (Michael W. Deem and Ramdas Pophale) SiO2 
 PCOD9154305
Probable space group: P 2/M
;
_chemical_formula_sum "Si O2"
_cell_formula_units_Z 26
_cell_length_a 16.826766
_cell_length_b 21.160533
_cell_length_c 17.587650
_cell_angle_alpha 90.000000
_cell_angle_beta 17.338266
_cell_angle_gamma 90.000000
_cell_volume 1866.248610
_symmetry_space_group_name_H-M "P 2/M"
_symmetry_group_IT_number 10
_symmetry_cell_setting 'monoclinic'
loop_
_space_group_symop_operation_xyz
x,y,z
-x,y,-z
-x,-y,-z
x,-y,z
loop_
_atom_site_type_symbol
_atom_site_label
_atom_site_fract_x
_atom_site_fract_y
_atom_site_fract_z
Si Si1 0.930866 0.076850 0.801391
Si Si2 0.529397 0.115456 0.296665
Si Si3 0.294032 0.771793 0.759433
Si Si4 0.697785 0.000000 0.248554
Si Si5 0.870563 0.633471 0.037057
Si Si6 0.368881 0.572492 0.535162
Si Si7 0.796133 0.076767 0.750647
O O1 0.220135 0.101388 0.562753
O O2 0.880806 0.092651 0.758841
O O3 0.922358 0.000000 0.817690
O O4 0.702589 0.107386 0.062150
O O5 0.580788 0.180414 0.294221
O O6 0.637629 0.061084 0.253485
O O7 0.500000 0.764330 0.500000
O O8 0.229353 0.704594 0.857925
O O9 0.000000 0.795131 0.000000
O O10 0.500000 0.000000 0.500000
O O11 0.000000 0.000000 0.000000
O O12 0.118875 0.619562 0.755714
O O13 0.612655 0.590999 0.258106
O O14 0.000000 0.614232 0.000000
O O15 0.500000 0.578882 0.500000
O O16 0.283350 0.500000 0.605033
O O17 0.000000 0.098904 0.500000
O O18 0.794821 0.000000 0.749125
O O19 0.500000 0.098299 0.000000
#
# Coordination Sequence:
#
# PCOD9154305 Si02
#       7
#     4   4   4   2   4   4   4
#     4  11  20  34  48  65  86 103 124 162 212 254
#     4  12  22  34  47  62  79 105 135 176 219 251
#     4  11  21  34  45  56  75 105 144 179 212 252
#     4  12  22  34  46  58  74  98 136 180 222 256
#     4   9  16  26  39  53  73  98 125 161 203 244
#     4   9  15  23  37  57  76  93 116 151 202 255
#     4   9  17  29  47  68  86 104 121 141 183 252
#
# _framework density 13.931692
#
# number of rings (size 3 to 8) (size 9 to 14) (size 15 to 20)
#    0.000    1.692    1.538    6.462    0.000    4.308 
#    0.000    0.000    0.000    0.000    0.000    0.000 
#    0.000    0.000    0.000    0.000    0.000    0.000 
#
# Total GULP energy -144924.771804 kJ/mol
# GULP energy per Si atom -5574.029685 kJ/mol
# Density = 1.389998 g / cm^3
# Si number density = 13.931692 Si / 1000 Ang^3
#
#
#
# Elastic Constant Matrix: (Units=GPa)
#
#
# Indices 1 2 3 4 5 6 
#
# 1 44.1787 19.6509 15.5067 0.0000 3.8779 0.0000
# 2 19.6509 45.2957 42.8590 0.0000 1.6976 0.0000
# 3 15.5067 42.8590 81.4508 0.0000 2.5429 0.0000
# 4 0.0000 0.0000 0.0000 15.4551 0.0000 1.3433
# 5 3.8779 1.6976 2.5429 0.0000 22.3622 0.0000
# 6 0.0000 0.0000 0.0000 1.3433 0.0000 -11.6650
#
#
#
# Elastic Compliance Matrix: (Units=1/GPa)
#
#
# Indices 1 2 3 4 5 6 
#
# 1 0.028606 -0.014388 0.002254 0.000000 -0.004125 0.000000
# 2 -0.014388 0.051217 -0.024253 0.000000 0.001365 0.000000
# 3 0.002254 -0.024253 0.024653 0.000000 -0.001353 0.000000
# 4 0.000000 0.000000 0.000000 0.064063 0.000000 0.007377
# 5 -0.004125 0.001365 -0.001353 0.000000 0.045484 0.000000
# 6 0.000000 0.000000 0.000000 0.007377 0.000000 -0.084877
#
#
# Mechanical properties :
#
#
# Convention : Reuss Voigt Hill
#
# Bulk Modulus (GPa) = 31.54602 36.32871 33.93736
# Shear Modulus (GPa) = 23.53080 11.42437 17.47758
#
# Velocity S-wave (km/s) = 4.11422 2.86672 3.54576
# Velocity P-wave (km/s) = 6.72767 6.09018 6.41685
#
# Compressibility (1/GPa) = 0.03169972
#
# Stress axis : x y z
#
# Youngs Moduli (GPa) = 34.95726 19.52481 40.56379
#
# Poissons Ratio (x) = 0.28093 -0.09142
# Poissons Ratio (y) = 0.50298 0.98381
# Poissons Ratio (z) = -0.07878 0.47354
#
# Static dielectric constant tensor:
#      x y z
#    x 1.428600 0.000000 0.017050 
#    y 0.000000 1.457040 0.000000 
#    z 0.017050 0.000000 1.652910 
# 
# From -- ./inp_files/67790.got.cif
#   From: 2010.05.17/outbox.cif.g08.bks.cpg/sg10_34_cif.got.tgz:67790.got - 2010.06.03 11:33:40.
