data_PCOD9154934
_publ_section_title
;
Structure prediction by ZEFSAII (Michael W. Deem and Ramdas Pophale) SiO2 
 PCOD9154934
Probable space group: P 2/M
;
_chemical_formula_sum "Si O2"
_cell_formula_units_Z 32
_cell_length_a 14.855108
_cell_length_b 7.395778
_cell_length_c 29.516104
_cell_angle_alpha 90.000000
_cell_angle_beta 28.447637
_cell_angle_gamma 90.000000
_cell_volume 1544.720139
_symmetry_space_group_name_H-M "P 2/M"
_symmetry_group_IT_number 10
_symmetry_cell_setting 'monoclinic'
loop_
_space_group_symop_operation_xyz
x,y,z
-x,y,-z
-x,-y,-z
x,-y,z
loop_
_atom_site_type_symbol
_atom_site_label
_atom_site_fract_x
_atom_site_fract_y
_atom_site_fract_z
Si Si1 0.561199 0.216476 0.663933
Si Si2 0.309989 0.220366 0.608537
Si Si3 0.370594 0.792322 0.264789
Si Si4 0.454235 0.222021 0.131005
Si Si5 0.813046 0.779903 0.913922
Si Si6 0.030987 0.286360 0.537552
Si Si7 0.231013 0.220339 0.746450
Si Si8 0.107948 0.220052 0.223845
O O1 0.590735 0.287356 0.702281
O O2 0.375364 0.283756 0.720830
O O3 0.749444 0.252022 0.550874
O O4 0.548367 0.000000 0.672740
O O5 0.500000 0.282614 0.500000
O O6 0.300252 0.273184 0.665624
O O7 0.110271 0.277307 0.674803
O O8 0.311643 0.000000 0.606835
O O9 0.464007 0.714142 0.178531
O O10 0.143433 0.791042 0.357411
O O11 0.432811 0.000000 0.239988
O O12 0.258229 0.279276 0.194503
O O13 0.454000 0.000000 0.131758
O O14 0.630560 0.279519 0.022327
O O15 0.820475 0.725493 0.857948
O O16 0.012910 0.724230 0.847271
O O17 0.809427 0.000000 0.915333
O O18 0.002116 0.500000 0.550231
O O19 0.000000 0.215012 0.500000
O O20 0.232637 0.000000 0.746533
O O21 0.106940 0.000000 0.224662
#
# Coordination Sequence:
#
# PCOD9154934 Si02
#       8
#     4   4   4   4   4   4   4   4
#     4   9  16  27  42  59  82 111 137 161 195 241
#     4   8  13  20  29  45  71 100 131 166 200 236
#     4   9  17  27  39  60  87 109 132 164 201 241
#     4   9  15  22  34  53  79 109 136 166 206 245
#     4   8  13  22  34  50  76 108 139 169 202 241
#     4   9  17  29  44  60  79 106 138 169 200 235
#     4   8  14  23  35  51  74 106 137 163 196 238
#     4   8  13  20  31  48  73 107 139 164 199 245
#
# _framework density 20.715727000000001
#
# number of rings (size 3 to 8) (size 9 to 14) (size 15 to 20)
#    0.000    3.500    0.000    2.250    0.000    4.000 
#    0.000    4.375    0.000    3.750    0.000    0.875 
#    0.000   18.500    0.000    0.000    0.000    0.250 
#
# Total GULP energy -178371.495685 kJ/mol
# GULP energy per Si atom -5574.109240 kJ/mol
# Density = 2.066858 g / cm^3
# Si number density = 20.715727 Si / 1000 Ang^3
#
#
#
# Elastic Constant Matrix: (Units=GPa)
#
#
# Indices 1 2 3 4 5 6 
#
# 1 118.3154 2.8632 60.7388 0.0000 -20.7743 0.0000
# 2 2.8632 72.0647 0.0017 0.0000 0.4218 0.0000
# 3 60.7388 0.0017 142.1435 0.0000 -7.3143 0.0000
# 4 0.0000 0.0000 0.0000 -34.8024 0.0000 8.9105
# 5 -20.7743 0.4218 -7.3143 0.0000 18.6716 0.0000
# 6 0.0000 0.0000 0.0000 8.9105 0.0000 -15.8592
#
#
#
# Elastic Compliance Matrix: (Units=1/GPa)
#
#
# Indices 1 2 3 4 5 6 
#
# 1 0.013300 -0.000603 -0.005022 0.000000 0.012844 0.000000
# 2 -0.000603 0.013906 0.000211 0.000000 -0.000903 0.000000
# 3 -0.005022 0.000211 0.009076 0.000000 -0.002037 0.000000
# 4 0.000000 0.000000 0.000000 -0.033561 0.000000 -0.018857
# 5 0.012844 -0.000903 -0.002037 0.000000 0.067070 0.000000
# 6 0.000000 0.000000 0.000000 -0.018857 0.000000 -0.073650
#
#
# Mechanical properties :
#
#
# Convention : Reuss Voigt Hill
#
# Bulk Modulus (GPa) = 39.28795 51.08121 45.18458
# Shear Modulus (GPa) = 323.52876 11.53000 167.52938
#
# Velocity S-wave (km/s) = 12.51057 2.36176 9.00257
# Velocity P-wave (km/s) = 15.08948 5.67000 11.39827
#
# Compressibility (1/GPa) = 0.02545310
#
# Stress axis : x y z
#
# Youngs Moduli (GPa) = 75.18768 71.91308 110.17626
#
# Poissons Ratio (x) = 0.04340 0.55333
# Poissons Ratio (y) = 0.04537 -0.02327
# Poissons Ratio (z) = 0.37761 -0.01519
#
# Static dielectric constant tensor:
#      x y z
#    x 1.735820 0.000000 -0.003860 
#    y 0.000000 1.770120 0.000000 
#    z -0.003860 0.000000 1.726880 
# 
# From -- ./inp_files/93125.got.cif
#   From: 2010.05.17/outbox.cif.g08.bks.cpg/sg10_47_cif.got.tgz:93125.got - 2010.06.03 11:33:40.
