data_PCOD9154321
_publ_section_title
;
Structure prediction by ZEFSAII (Michael W. Deem and Ramdas Pophale) SiO2 
 PCOD9154321
Probable space group: P 2/M
;
_chemical_formula_sum "Si O2"
_cell_formula_units_Z 25
_cell_length_a 12.001655
_cell_length_b 11.515371
_cell_length_c 18.497702
_cell_angle_alpha 90.000000
_cell_angle_beta 27.086432
_cell_angle_gamma 90.000000
_cell_volume 1164.037615
_symmetry_space_group_name_H-M "P 2/M"
_symmetry_group_IT_number 10
_symmetry_cell_setting 'monoclinic'
loop_
_space_group_symop_operation_xyz
x,y,z
-x,y,-z
-x,-y,-z
x,-y,z
loop_
_atom_site_type_symbol
_atom_site_label
_atom_site_fract_x
_atom_site_fract_y
_atom_site_fract_z
Si Si1 0.040890 0.268024 0.288948
Si Si2 0.844765 0.500000 0.699316
Si Si3 0.643678 0.731548 0.157922
Si Si4 0.620070 0.500000 0.679714
Si Si5 0.531992 0.217255 0.372641
Si Si6 0.963116 0.640308 0.178307
Si Si7 0.225259 0.137244 0.315474
Si Si8 0.500000 0.000000 0.500000
O O1 0.159461 0.384538 0.252214
O O2 0.751427 0.254337 0.471118
O O3 0.058002 0.286947 0.193201
O O4 0.161223 0.168465 0.269358
O O5 0.110162 0.500000 0.508096
O O6 0.644236 0.500000 0.752744
O O7 0.520241 0.614604 0.259958
O O8 0.652622 0.808128 0.224671
O O9 0.458598 0.792100 0.208791
O O10 0.880458 0.686520 0.979761
O O11 0.687807 0.318116 0.321689
O O12 0.538369 0.102350 0.416796
O O13 0.982447 0.500000 0.176318
O O14 0.000000 0.171042 0.500000
O O15 0.262079 0.000000 0.301700
#
# Coordination Sequence:
#
# PCOD9154321 Si02
#       8
#     4   2   4   2   4   4   4   1
#     4  12  23  42  69 103 137 181 240 292 351 416
#     4  11  20  35  66 102 137 178 231 293 351 419
#     4  12  25  45  69 109 141 184 230 287 362 429
#     4  11  20  37  66 104 145 174 229 288 360 431
#     4  12  27  46  75 100 138 188 241 294 345 411
#     4  12  28  46  68 106 152 191 229 288 359 428
#     4  11  24  44  74 104 133 182 241 305 352 412
#     4  12  28  52  76 102 130 194 248 302 326 406
#
# _framework density 21.476969
#
# number of rings (size 3 to 8) (size 9 to 14) (size 15 to 20)
#    0.000    0.320    8.000    0.480    4.480    1.920 
#    1.440    3.200    0.000    0.000    0.000    0.000 
#    0.000    0.000    0.000    0.000    0.000    0.000 
#
# Total GULP energy -139422.162879 kJ/mol
# GULP energy per Si atom -5576.886515 kJ/mol
# Density = 2.142809 g / cm^3
# Si number density = 21.476969 Si / 1000 Ang^3
#
#
#
# Elastic Constant Matrix: (Units=GPa)
#
#
# Indices 1 2 3 4 5 6 
#
# 1 110.0862 28.4840 18.7969 0.0000 23.9267 0.0000
# 2 28.4840 96.1541 26.5006 0.0000 -1.7699 0.0000
# 3 18.7969 26.5006 50.8326 0.0000 15.2960 0.0000
# 4 0.0000 0.0000 0.0000 23.1543 0.0000 48.6627
# 5 23.9267 -1.7699 15.2960 0.0000 37.7324 0.0000
# 6 0.0000 0.0000 0.0000 48.6627 0.0000 -1.0535
#
#
#
# Elastic Compliance Matrix: (Units=1/GPa)
#
#
# Indices 1 2 3 4 5 6 
#
# 1 0.011658 -0.003529 -0.000224 0.000000 -0.007467 0.000000
# 2 -0.003529 0.013651 -0.007606 0.000000 0.005961 0.000000
# 3 -0.000224 -0.007606 0.027089 0.000000 -0.011196 0.000000
# 4 0.000000 0.000000 0.000000 0.000440 0.000000 0.020340
# 5 -0.007467 0.005961 -0.011196 0.000000 0.036056 0.000000
# 6 0.000000 0.000000 0.000000 0.020340 0.000000 -0.009678
#
#
# Mechanical properties :
#
#
# Convention : Reuss Voigt Hill
#
# Bulk Modulus (GPa) = 33.69163 44.95954 39.32559
# Shear Modulus (GPa) = 44.71112 24.18605 34.44858
#
# Velocity S-wave (km/s) = 4.56764 3.35944 4.00931
# Velocity P-wave (km/s) = 6.59842 6.00226 6.30739
#
# Compressibility (1/GPa) = 0.02968096
#
# Stress axis : x y z
#
# Youngs Moduli (GPa) = 85.77644 73.25274 36.91479
#
# Poissons Ratio (x) = 0.25853 0.00827
# Poissons Ratio (y) = 0.30273 0.28076
# Poissons Ratio (z) = 0.01922 0.55714
#
# Static dielectric constant tensor:
#      x y z
#    x 1.826220 0.000000 0.027860 
#    y 0.000000 1.721600 0.000000 
#    z 0.027860 0.000000 1.808250 
# 
# From -- ./inp_files/76652.got.cif
#   From: 2010.05.17/outbox.cif.g08.bks.cpg/sg10_39_cif.got.tgz:76652.got - 2010.06.03 11:33:40.
