data_PCOD9154387
_publ_section_title
;
Structure prediction by ZEFSAII (Michael W. Deem and Ramdas Pophale) SiO2 
 PCOD9154387
Probable space group: P 2/M
;
_chemical_formula_sum "Si O2"
_cell_formula_units_Z 20
_cell_length_a 5.104025
_cell_length_b 14.211717
_cell_length_c 20.370314
_cell_angle_alpha 90.000000
_cell_angle_beta 59.058203
_cell_angle_gamma 90.000000
_cell_volume 1267.323359
_symmetry_space_group_name_H-M "P 2/M"
_symmetry_group_IT_number 10
_symmetry_cell_setting 'monoclinic'
loop_
_space_group_symop_operation_xyz
x,y,z
-x,y,-z
-x,-y,-z
x,-y,z
loop_
_atom_site_type_symbol
_atom_site_label
_atom_site_fract_x
_atom_site_fract_y
_atom_site_fract_z
Si Si1 0.281679 0.302575 0.412490
Si Si2 0.919787 0.388442 0.339777
Si Si3 0.049100 0.385764 0.173728
Si Si4 0.363871 0.103466 0.445077
Si Si5 0.265401 0.614616 0.916347
O O1 0.564080 0.366686 0.398888
O O2 0.411554 0.195853 0.395434
O O3 0.000000 0.306492 0.500000
O O4 0.141374 0.336018 0.361819
O O5 0.979270 0.500000 0.337293
O O6 0.975680 0.357485 0.257347
O O7 0.041933 0.500000 0.174986
O O8 0.392111 0.356574 0.110306
O O9 0.816474 0.355806 0.147184
O O10 0.500000 0.121018 0.500000
O O11 0.000000 0.097064 0.500000
O O12 0.474851 0.000000 0.408267
O O13 0.263310 0.500000 0.918156
O O14 0.000000 0.645734 0.000000
#
# Coordination Sequence:
#
# PCOD9154387 Si02
#       5
#     4   4   4   4   4
#     4  11  21  33  47  64  83 109 152 193 222 255
#     4  11  22  33  44  59  86 123 155 183 214 249
#     4   9  17  28  39  54  78 108 141 172 207 251
#     4   9  17  31  50  68  84 101 128 177 235 280
#     4   9  15  24  40  59  76  97 133 179 214 243
#
# _framework density 15.781293
#
# number of rings (size 3 to 8) (size 9 to 14) (size 15 to 20)
#    0.000    2.200    0.000    5.400    0.000    8.000 
#    0.000    0.000    0.000    0.000    0.000    0.000 
#    0.000    0.000    0.000    0.000    0.000   70.000 
#
# Total GULP energy -111443.610724 kJ/mol
# GULP energy per Si atom -5572.180536 kJ/mol
# Density = 1.574537 g / cm^3
# Si number density = 15.781293 Si / 1000 Ang^3
#
#
#
# Elastic Constant Matrix: (Units=GPa)
#
#
# Indices 1 2 3 4 5 6 
#
# 1 75.7475 6.9003 -3.9453 0.0000 13.1469 0.0000
# 2 6.9003 48.5448 16.2860 0.0000 12.0159 0.0000
# 3 -3.9453 16.2860 35.4989 0.0000 5.5830 0.0000
# 4 0.0000 0.0000 0.0000 0.0356 0.0000 4.9364
# 5 13.1469 12.0159 5.5830 0.0000 27.0110 0.0000
# 6 0.0000 0.0000 0.0000 4.9364 0.0000 18.6140
#
#
#
# Elastic Compliance Matrix: (Units=1/GPa)
#
#
# Indices 1 2 3 4 5 6 
#
# 1 0.014774 -0.001463 0.003454 0.000000 -0.007254 0.000000
# 2 -0.001463 0.026704 -0.011015 0.000000 -0.008890 0.000000
# 3 0.003454 -0.011015 0.034213 0.000000 -0.003853 0.000000
# 4 0.000000 0.000000 0.000000 -0.785228 0.000000 0.208242
# 5 -0.007254 -0.008890 -0.003853 0.000000 0.045304 0.000000
# 6 0.000000 0.000000 0.000000 0.208242 0.000000 -0.001502
#
#
# Mechanical properties :
#
#
# Convention : Reuss Voigt Hill
#
# Bulk Modulus (GPa) = 17.34858 22.03033 19.68946
# Shear Modulus (GPa) = -7.95579 18.50214 5.27318
#
# Velocity S-wave (km/s) = -2.24771 3.42776 1.82994
# Velocity P-wave (km/s) = 2.06899 5.44575 4.11927
#
# Compressibility (1/GPa) = 0.05764159
#
# Stress axis : x y z
#
# Youngs Moduli (GPa) = 67.68673 37.44823 29.22841
#
# Poissons Ratio (x) = 0.05480 -0.10096
# Poissons Ratio (y) = 0.09905 0.32196
# Poissons Ratio (z) = -0.23380 0.41251
#
# Static dielectric constant tensor:
#      x y z
#    x 1.535900 0.000000 -0.008100 
#    y 0.000000 1.545240 0.000000 
#    z -0.008100 0.000000 1.543230 
# 
# From -- ./inp_files/12536.got.cif
#   From: 2010.05.17/outbox.cif.g08.bks.cpg/sg10_7_cif.got.tgz:12536.got - 2010.06.03 11:33:40.
