data_PCOD9154683
_publ_section_title
;
Structure prediction by ZEFSAII (Michael W. Deem and Ramdas Pophale) SiO2 
 PCOD9154683
Probable space group: P 2/M
;
_chemical_formula_sum "Si O2"
_cell_formula_units_Z 28
_cell_length_a 12.669085
_cell_length_b 8.808948
_cell_length_c 15.368084
_cell_angle_alpha 90.000000
_cell_angle_beta 74.168301
_cell_angle_gamma 90.000000
_cell_volume 1650.039851
_symmetry_space_group_name_H-M "P 2/M"
_symmetry_group_IT_number 10
_symmetry_cell_setting 'monoclinic'
loop_
_space_group_symop_operation_xyz
x,y,z
-x,y,-z
-x,-y,-z
x,-y,z
loop_
_atom_site_type_symbol
_atom_site_label
_atom_site_fract_x
_atom_site_fract_y
_atom_site_fract_z
Si Si1 0.908460 0.681761 0.397373
Si Si2 0.865816 0.318620 0.889659
Si Si3 0.841039 0.682107 0.604219
Si Si4 0.700271 0.180757 0.784075
Si Si5 0.242457 0.818613 0.917466
Si Si6 0.479530 0.318441 0.902316
Si Si7 0.098088 0.819880 0.783481
O O1 0.900151 0.500000 0.387489
O O2 0.846652 0.721268 0.500841
O O3 0.869956 0.766093 0.319982
O O4 0.037614 0.715562 0.384551
O O5 0.858750 0.500000 0.891356
O O6 0.778561 0.253119 0.840319
O O7 0.986410 0.265487 0.834791
O O8 0.834090 0.253171 0.990802
O O9 0.825511 0.500000 0.615307
O O10 0.751439 0.767978 0.680853
O O11 0.579025 0.245006 0.826805
O O12 0.701241 0.000000 0.792284
O O13 0.362808 0.748917 0.901291
O O14 0.189530 0.787363 0.835467
O O15 0.246858 0.000000 0.929123
O O16 0.479775 0.500000 0.891646
O O17 0.500000 0.285552 0.000000
O O18 0.076596 0.000000 0.788611
#
# Coordination Sequence:
#
# PCOD9154683 Si02
#       7
#     4   4   4   4   4   4   4
#     4   9  18  33  56  82 113 149 184 225 275 329
#     4  12  23  36  55  81 113 151 191 228 271 329
#     4   9  18  34  55  83 114 146 184 228 275 329
#     4  12  23  35  57  85 115 148 182 229 285 330
#     4  11  24  40  57  80 113 150 188 231 278 330
#     4  11  23  39  60  83 108 145 190 233 275 326
#     4  11  23  37  55  83 117 150 185 228 279 332
#
# _framework density 16.969287999999999
#
# number of rings (size 3 to 8) (size 9 to 14) (size 15 to 20)
#    0.000    1.286    2.857    5.143    0.000    5.143 
#    0.000    1.429    0.000    0.857    0.000    6.000 
#    0.000    0.000    0.000    0.000    0.000    0.000 
#
# Total GULP energy -156501.838051 kJ/mol
# GULP energy per Si atom -5589.351359 kJ/mol
# Density = 1.693067 g / cm^3
# Si number density = 16.969288 Si / 1000 Ang^3
#
#
#
# Elastic Constant Matrix: (Units=GPa)
#
#
# Indices 1 2 3 4 5 6 
#
# 1 60.8850 43.2266 47.5289 0.0000 15.4891 0.0000
# 2 43.2266 86.6411 66.5151 0.0000 8.3717 0.0000
# 3 47.5289 66.5151 138.2462 0.0000 9.2645 0.0000
# 4 0.0000 0.0000 0.0000 32.8670 0.0000 11.8015
# 5 15.4891 8.3717 9.2645 0.0000 23.1142 0.0000
# 6 0.0000 0.0000 0.0000 11.8015 0.0000 -7.2437
#
#
#
# Elastic Compliance Matrix: (Units=1/GPa)
#
#
# Indices 1 2 3 4 5 6 
#
# 1 0.031582 -0.010663 -0.004694 0.000000 -0.015420 0.000000
# 2 -0.010663 0.022133 -0.007116 0.000000 0.001981 0.000000
# 3 -0.004694 -0.007116 0.012216 0.000000 0.000827 0.000000
# 4 0.000000 0.000000 0.000000 0.019196 0.000000 0.031274
# 5 -0.015420 0.001981 0.000827 0.000000 0.052548 0.000000
# 6 0.000000 0.000000 0.000000 0.031274 0.000000 -0.087098
#
#
# Mechanical properties :
#
#
# Convention : Reuss Voigt Hill
#
# Bulk Modulus (GPa) = 47.65363 66.70151 57.17757
# Shear Modulus (GPa) = 48.77180 18.31426 33.54303
#
# Velocity S-wave (km/s) = 5.36690 3.28877 4.45082
# Velocity P-wave (km/s) = 8.15770 7.33580 7.75764
#
# Compressibility (1/GPa) = 0.02098476
#
# Stress axis : x y z
#
# Youngs Moduli (GPa) = 31.66339 45.18051 81.86222
#
# Poissons Ratio (x) = 0.48177 0.38427
# Poissons Ratio (y) = 0.33763 0.58253
# Poissons Ratio (z) = 0.14863 0.32150
#
# Static dielectric constant tensor:
#      x y z
#    x 1.541870 0.000000 0.006200 
#    y 0.000000 1.564240 0.000000 
#    z 0.006200 0.000000 1.573440 
# 
# From -- ./inp_files/49194.got.cif
#   From: 2010.05.17/outbox.cif.g08.bks.cpg/sg10_25_cif.got.tgz:49194.got - 2010.06.03 11:33:40.
