data_PCOD9154296
_publ_section_title
;
Structure prediction by ZEFSAII (Michael W. Deem and Ramdas Pophale) SiO2 
 PCOD9154296
Probable space group: P 2/M
;
_chemical_formula_sum "Si O2"
_cell_formula_units_Z 28
_cell_length_a 9.870917
_cell_length_b 14.099677
_cell_length_c 17.784161
_cell_angle_alpha 90.000000
_cell_angle_beta 38.320673
_cell_angle_gamma 90.000000
_cell_volume 1534.741603
_symmetry_space_group_name_H-M "P 2/M"
_symmetry_group_IT_number 10
_symmetry_cell_setting 'monoclinic'
loop_
_space_group_symop_operation_xyz
x,y,z
-x,y,-z
-x,-y,-z
x,-y,z
loop_
_atom_site_type_symbol
_atom_site_label
_atom_site_fract_x
_atom_site_fract_y
_atom_site_fract_z
Si Si1 0.732751 0.605565 0.432413
Si Si2 0.358066 0.193225 0.369975
Si Si3 0.262128 0.397284 0.392325
Si Si4 0.619138 0.890074 0.797376
Si Si5 0.255263 0.111880 0.699677
Si Si6 0.873236 0.886053 0.980852
Si Si7 0.062405 0.202396 0.641724
O O1 0.500000 0.634176 0.500000
O O2 0.792332 0.500000 0.378823
O O3 0.692772 0.598722 0.538658
O O4 0.906924 0.688617 0.346534
O O5 0.363351 0.296264 0.326438
O O6 0.350901 0.118339 0.305950
O O7 0.563604 0.171205 0.334038
O O8 0.155015 0.193065 0.516290
O O9 0.328516 0.500000 0.329764
O O10 0.000000 0.391056 0.500000
O O11 0.816093 0.833629 0.749632
O O12 0.634629 0.000000 0.813801
O O13 0.374972 0.852285 0.919409
O O14 0.214558 0.142109 0.631766
O O15 0.027338 0.129257 0.842542
O O16 0.308291 0.000000 0.681769
O O17 0.852456 0.000000 0.000302
O O18 0.000000 0.849891 0.000000
#
# Coordination Sequence:
#
# PCOD9154296 Si02
#       7
#     4   4   4   4   4   4   4
#     4   9  17  32  52  71 100 140 174 205 243 300
#     4  11  20  33  52  76 107 141 170 202 253 324
#     4   9  17  30  48  71 100 132 168 211 251 290
#     4  11  22  35  53  74 103 143 179 212 250 301
#     4  11  22  35  53  74 103 141 175 213 253 295
#     4   9  18  37  57  71  90 131 192 228 239 280
#     4  11  22  33  48  82 115 131 162 211 267 316
#
# _framework density 18.244112999999999
#
# number of rings (size 3 to 8) (size 9 to 14) (size 15 to 20)
#    0.000    1.857    1.429    5.143    0.000    4.000 
#    0.000    2.143    0.000    0.000    0.000    6.000 
#    0.000    0.000    0.000    0.000    0.000    0.000 
#
# Total GULP energy -156091.268247 kJ/mol
# GULP energy per Si atom -5574.688152 kJ/mol
# Density = 1.820259 g / cm^3
# Si number density = 18.244113 Si / 1000 Ang^3
#
#
#
# Elastic Constant Matrix: (Units=GPa)
#
#
# Indices 1 2 3 4 5 6 
#
# 1 63.6401 3.6872 5.5554 0.0000 -22.8927 0.0000
# 2 3.6872 87.3772 26.2022 0.0000 -20.9416 0.0000
# 3 5.5554 26.2022 44.1632 0.0000 -23.0728 0.0000
# 4 0.0000 0.0000 0.0000 -2.7244 0.0000 -9.8666
# 5 -22.8927 -20.9416 -23.0728 0.0000 35.2997 0.0000
# 6 0.0000 0.0000 0.0000 -9.8666 0.0000 30.7289
#
#
#
# Elastic Compliance Matrix: (Units=1/GPa)
#
#
# Indices 1 2 3 4 5 6 
#
# 1 0.022095 0.001857 0.006349 0.000000 0.019580 0.000000
# 2 0.001857 0.014530 -0.005652 0.000000 0.006130 0.000000
# 3 0.006349 -0.005652 0.038871 0.000000 0.026171 0.000000
# 4 0.000000 0.000000 0.000000 -0.169709 0.000000 -0.054491
# 5 0.019580 0.006130 0.026171 0.000000 0.061770 0.000000
# 6 0.000000 0.000000 0.000000 -0.054491 0.000000 0.015046
#
#
# Mechanical properties :
#
#
# Convention : Reuss Voigt Hill
#
# Bulk Modulus (GPa) = 12.40648 29.56334 20.98491
# Shear Modulus (GPa) = 1145.51314 23.30988 584.41151
#
# Velocity S-wave (km/s) = 25.08474 3.57832 17.91715
# Velocity P-wave (km/s) = 29.08276 5.77166 20.96568
#
# Compressibility (1/GPa) = 0.08060304
#
# Stress axis : x y z
#
# Youngs Moduli (GPa) = 45.25909 68.82167 25.72611
#
# Poissons Ratio (x) = -0.12777 -0.16333
# Poissons Ratio (y) = -0.08403 0.14540
# Poissons Ratio (z) = -0.28733 0.38897
#
# Static dielectric constant tensor:
#      x y z
#    x 1.607930 0.000000 0.005790 
#    y 0.000000 1.703430 0.000000 
#    z 0.005790 0.000000 1.625960 
# 
# From -- ./inp_files/25439.got.cif
#   From: 2010.05.17/outbox.cif.g08.bks.cpg/sg10_13_cif.got.tgz:25439.got - 2010.06.03 11:33:40.
