data_PCOD9154489
_publ_section_title
;
Structure prediction by ZEFSAII (Michael W. Deem and Ramdas Pophale) SiO2 
 PCOD9154489
Probable space group: P 2/M
;
_chemical_formula_sum "Si O2"
_cell_formula_units_Z 32
_cell_length_a 17.969530
_cell_length_b 23.302421
_cell_length_c 12.277971
_cell_angle_alpha 90.000000
_cell_angle_beta 20.318401
_cell_angle_gamma 90.000000
_cell_volume 1785.213516
_symmetry_space_group_name_H-M "P 2/M"
_symmetry_group_IT_number 10
_symmetry_cell_setting 'monoclinic'
loop_
_space_group_symop_operation_xyz
x,y,z
-x,y,-z
-x,-y,-z
x,-y,z
loop_
_atom_site_type_symbol
_atom_site_label
_atom_site_fract_x
_atom_site_fract_y
_atom_site_fract_z
Si Si1 0.817494 0.434813 0.657740
Si Si2 0.527615 0.360739 0.758842
Si Si3 0.148820 0.065050 0.515598
Si Si4 0.164405 0.281733 0.171178
Si Si5 0.455539 0.065106 0.880219
Si Si6 0.975026 0.365600 0.248575
Si Si7 0.324444 0.433894 0.644630
Si Si8 0.153197 0.851397 0.182305
O O1 0.741285 0.500000 0.766725
O O2 0.920259 0.419542 0.401568
O O3 0.000000 0.427450 0.500000
O O4 0.627533 0.390865 0.941215
O O5 0.754736 0.344149 0.497858
O O6 0.569317 0.408675 0.609526
O O7 0.389916 0.309072 0.897870
O O8 0.307167 0.075597 0.399239
O O9 0.971600 0.112915 0.738473
O O10 0.061846 0.000000 0.642490
O O11 0.300703 0.065622 0.199391
O O12 0.187817 0.215052 0.109515
O O13 0.000000 0.286586 0.500000
O O14 0.075276 0.318591 0.192259
O O15 0.442861 0.000000 0.853293
O O16 0.363945 0.113053 0.926214
O O17 0.137312 0.390506 0.936982
O O18 0.500000 0.433121 0.500000
O O19 0.253763 0.500000 0.727080
O O20 0.000000 0.852241 0.500000
#
# Coordination Sequence:
#
# PCOD9154489 Si02
#       8
#     4   4   4   4   4   4   4   4
#     4  11  21  37  59  80 107 137 168 211 264 320
#     4  12  23  38  58  79 106 138 173 216 266 319
#     4   8  13  22  37  60  89 122 166 216 261 302
#     4  11  22  38  50  73 106 143 188 223 257 309
#     4   8  13  22  37  60  89 122 166 216 261 302
#     4  12  23  38  58  79 106 138 173 216 266 319
#     4  11  23  41  63  84 107 131 164 219 278 330
#     4   9  17  26  42  60  90 131 176 217 253 299
#
# _framework density 17.925027
#
# number of rings (size 3 to 8) (size 9 to 14) (size 15 to 20)
#    0.000    1.750    3.750    2.625    0.000    7.500 
#    0.000    2.500    0.000    0.000    0.000    0.000 
#    0.000    0.000    0.000    9.000    0.000   38.000 
#
# Total GULP energy -178576.672955 kJ/mol
# GULP energy per Si atom -5580.521030 kJ/mol
# Density = 1.788423 g / cm^3
# Si number density = 17.925027 Si / 1000 Ang^3
#
#
#
# Elastic Constant Matrix: (Units=GPa)
#
#
# Indices 1 2 3 4 5 6 
#
# 1 66.0627 47.1081 18.6471 0.0000 -28.8019 0.0000
# 2 47.1081 148.8992 31.5262 0.0000 -34.7608 0.0000
# 3 18.6471 31.5262 40.5263 0.0000 -18.4636 0.0000
# 4 0.0000 0.0000 0.0000 92.8893 0.0000 15.8111
# 5 -28.8019 -34.7608 -18.4636 0.0000 36.2477 0.0000
# 6 0.0000 0.0000 0.0000 15.8111 0.0000 1.9822
#
#
#
# Elastic Compliance Matrix: (Units=1/GPa)
#
#
# Indices 1 2 3 4 5 6 
#
# 1 0.025126 -0.004069 -0.001403 0.000000 0.015348 0.000000
# 2 -0.004069 0.009798 -0.003831 0.000000 0.004211 0.000000
# 3 -0.001403 -0.003831 0.034013 0.000000 0.012536 0.000000
# 4 0.000000 0.000000 0.000000 -0.030097 0.000000 0.240067
# 5 0.015348 0.004211 0.012536 0.000000 0.050207 0.000000
# 6 0.000000 0.000000 0.000000 0.240067 0.000000 -1.410378
#
#
# Mechanical properties :
#
#
# Convention : Reuss Voigt Hill
#
# Bulk Modulus (GPa) = 19.86896 50.00566 34.93731
# Shear Modulus (GPa) = -3.88818 36.77096 16.44139
#
# Velocity S-wave (km/s) = -1.47440 4.53412 3.03187
# Velocity P-wave (km/s) = 2.86532 7.44102 5.63821
#
# Compressibility (1/GPa) = 0.05032977
#
# Stress axis : x y z
#
# Youngs Moduli (GPa) = 39.79906 102.06668 29.40082
#
# Poissons Ratio (x) = 0.41534 0.04126
# Poissons Ratio (y) = 0.16195 0.11263
# Poissons Ratio (z) = 0.05585 0.39100
#
# Static dielectric constant tensor:
#      x y z
#    x 1.621280 0.000000 -0.023470 
#    y 0.000000 1.590160 0.000000 
#    z -0.023470 0.000000 1.609000 
# 
# From -- ./inp_files/54268.got.cif
#   From: 2010.05.17/outbox.cif.g08.bks.cpg/sg10_28_cif.got.tgz:54268.got - 2010.06.03 11:33:40.
