data_PCOD9154946
_publ_section_title
;
Structure prediction by ZEFSAII (Michael W. Deem and Ramdas Pophale) SiO2 
 PCOD9154946
Probable space group: P 2/M
;
_chemical_formula_sum "Si O2"
_cell_formula_units_Z 28
_cell_length_a 16.007990
_cell_length_b 20.024216
_cell_length_c 9.730867
_cell_angle_alpha 90.000000
_cell_angle_beta 155.044551
_cell_angle_gamma 90.000000
_cell_volume 1316.034292
_symmetry_space_group_name_H-M "P 2/M"
_symmetry_group_IT_number 10
_symmetry_cell_setting 'monoclinic'
loop_
_space_group_symop_operation_xyz
x,y,z
-x,y,-z
-x,-y,-z
x,-y,z
loop_
_atom_site_type_symbol
_atom_site_label
_atom_site_fract_x
_atom_site_fract_y
_atom_site_fract_z
Si Si1 0.211303 0.373306 0.293439
Si Si2 0.960220 0.922150 0.165817
Si Si3 0.149659 0.578696 0.896209
Si Si4 0.679150 0.922230 0.474373
Si Si5 0.357565 0.842640 0.150197
Si Si6 0.580683 0.305033 0.776355
Si Si7 0.284400 0.574718 0.684094
O O1 0.382765 0.319386 0.564896
O O2 0.227400 0.426296 0.438584
O O3 0.218571 0.408866 0.156862
O O4 0.000000 0.339166 0.000000
O O5 0.177441 0.899998 0.436745
O O6 0.972590 0.000000 0.225856
O O7 0.819462 0.920248 0.819830
O O8 0.843834 0.879265 0.105085
O O9 0.168099 0.500000 0.891120
O O10 0.918159 0.599263 0.548389
O O11 0.282995 0.629639 0.009491
O O12 0.485416 0.880482 0.224885
O O13 0.627338 0.000000 0.374517
O O14 0.500000 0.842606 0.500000
O O15 0.322256 0.766149 0.053896
O O16 0.500000 0.302512 0.500000
O O17 0.313990 0.500000 0.784054
O O18 0.500000 0.608270 0.000000
#
# Coordination Sequence:
#
# PCOD9154946 Si02
#       7
#     4   4   4   4   4   4   4
#     4   9  17  30  45  64  86 117 147 186 225 277
#     4   8  13  21  33  49  70 103 143 181 221 264
#     4   9  17  30  47  64  87 118 147 186 230 272
#     4   8  13  21  32  49  70 101 145 182 217 265
#     4   9  15  24  33  51  77 107 141 193 228 252
#     4   9  18  29  39  60  84 111 155 188 226 273
#     4   9  17  30  48  69  88 108 144 190 232 273
#
# _framework density 21.276040999999999
#
# number of rings (size 3 to 8) (size 9 to 14) (size 15 to 20)
#    0.000    3.286    0.000    1.714    0.000    6.571 
#   12.857    0.714    0.000    2.571    0.000    0.000 
#    0.000    0.000    0.000    0.000    0.000   17.143 
#
# Total GULP energy -155938.127839 kJ/mol
# GULP energy per Si atom -5569.218851 kJ/mol
# Density = 2.122762 g / cm^3
# Si number density = 21.276041 Si / 1000 Ang^3
#
#
#
# Elastic Constant Matrix: (Units=GPa)
#
#
# Indices 1 2 3 4 5 6 
#
# 1 69.3429 56.1199 49.1861 0.0000 36.6301 0.0000
# 2 56.1199 115.4118 50.8464 0.0000 46.1452 0.0000
# 3 49.1861 50.8464 82.1897 0.0000 43.8292 0.0000
# 4 0.0000 0.0000 0.0000 -2.9061 0.0000 7.0141
# 5 36.6301 46.1452 43.8292 0.0000 56.2134 0.0000
# 6 0.0000 0.0000 0.0000 7.0141 0.0000 4.8043
#
#
#
# Elastic Compliance Matrix: (Units=1/GPa)
#
#
# Indices 1 2 3 4 5 6 
#
# 1 0.031937 -0.008611 -0.011053 0.000000 -0.005124 0.000000
# 2 -0.008611 0.016034 -0.001266 0.000000 -0.006564 0.000000
# 3 -0.011053 -0.001266 0.025966 0.000000 -0.012004 0.000000
# 4 0.000000 0.000000 0.000000 -0.076067 0.000000 0.111054
# 5 -0.005124 -0.006564 -0.012004 0.000000 0.035877 0.000000
# 6 0.000000 0.000000 0.000000 0.111054 0.000000 0.046012
#
#
# Mechanical properties :
#
#
# Convention : Reuss Voigt Hill
#
# Bulk Modulus (GPa) = 31.17399 64.36101 47.76750
# Shear Modulus (GPa) = 37.79004 19.00847 28.39925
#
# Velocity S-wave (km/s) = 4.21904 2.99226 3.65745
# Velocity P-wave (km/s) = 6.19821 6.50033 6.35106
#
# Compressibility (1/GPa) = 0.03207802
#
# Stress axis : x y z
#
# Youngs Moduli (GPa) = 31.31163 62.36721 38.51221
#
# Poissons Ratio (x) = 0.53707 0.42566
# Poissons Ratio (y) = 0.26964 0.04874
# Poissons Ratio (z) = 0.34607 0.07893
#
# Static dielectric constant tensor:
#      x y z
#    x 1.809710 0.000000 0.005480 
#    y 0.000000 1.737050 0.000000 
#    z 0.005480 0.000000 1.822010 
# 
# From -- ./inp_files/54246.got.cif
#   From: 2010.05.17/outbox.cif.g08.bks.cpg/sg10_28_cif.got.tgz:54246.got - 2010.06.03 11:33:40.
