data_PCOD9154763
_publ_section_title
;
Structure prediction by ZEFSAII (Michael W. Deem and Ramdas Pophale) SiO2 
 PCOD9154763
Probable space group: P 2/M
;
_chemical_formula_sum "Si O2"
_cell_formula_units_Z 17
_cell_length_a 7.944028
_cell_length_b 10.745776
_cell_length_c 8.942100
_cell_angle_alpha 90.000000
_cell_angle_beta 110.593996
_cell_angle_gamma 90.000000
_cell_volume 714.559910
_symmetry_space_group_name_H-M "P 2/M"
_symmetry_group_IT_number 10
_symmetry_cell_setting 'monoclinic'
loop_
_space_group_symop_operation_xyz
x,y,z
-x,y,-z
-x,-y,-z
x,-y,z
loop_
_atom_site_type_symbol
_atom_site_label
_atom_site_fract_x
_atom_site_fract_y
_atom_site_fract_z
Si Si1 0.068864 0.767415 0.217993
Si Si2 0.060121 0.500000 0.253710
Si Si3 0.340775 0.768775 0.564933
Si Si4 0.000000 0.000000 0.000000
Si Si5 0.728939 0.500000 0.363029
Si Si6 0.690295 0.136096 0.134555
O O1 0.113591 0.626233 0.185474
O O2 0.853176 0.771412 0.162334
O O3 0.159642 0.778653 0.409767
O O4 0.110075 0.885895 0.129039
O O5 0.856813 0.500000 0.257151
O O6 0.163554 0.500000 0.445248
O O7 0.500000 0.789171 0.500000
O O8 0.368857 0.632735 0.651305
O O9 0.340073 0.864616 0.698916
O O10 0.763973 0.000000 0.102660
O O11 0.500000 0.160077 0.000000
#
# Coordination Sequence:
#
# PCOD9154763 Si02
#       6
#     4   2   4   1   2   4
#     4  11  24  44  70  96 138 179 227 279 344 404
#     4   9  18  39  70  98 126 185 223 275 338 417
#     4  11  24  40  69 101 134 177 228 279 338 407
#     4  12  28  42  70 100 140 180 230 292 332 394
#     4   9  17  38  66  98 134 167 228 276 335 404
#     4  11  25  43  66  96 136 182 230 280 342 408
#
# _framework density 23.790863999999999
#
# number of rings (size 3 to 8) (size 9 to 14) (size 15 to 20)
#    0.000    1.412    3.529    1.059    4.941    1.882 
#    0.000    2.353    0.000    0.000    0.000    0.000 
#    0.000    0.000    0.000    0.000    0.000    0.000 
#
# Total GULP energy -94686.689262 kJ/mol
# GULP energy per Si atom -5569.805251 kJ/mol
# Density = 2.373671 g / cm^3
# Si number density = 23.790864 Si / 1000 Ang^3
#
#
#
# Elastic Constant Matrix: (Units=GPa)
#
#
# Indices 1 2 3 4 5 6 
#
# 1 22.6282 19.9983 -0.8821 0.0000 8.4672 0.0000
# 2 19.9983 214.6712 57.3258 0.0000 -12.1848 0.0000
# 3 -0.8821 57.3258 119.3513 0.0000 12.7223 0.0000
# 4 0.0000 0.0000 0.0000 33.7300 0.0000 -10.1040
# 5 8.4672 -12.1848 12.7223 0.0000 48.0503 0.0000
# 6 0.0000 0.0000 0.0000 -10.1040 0.0000 15.7020
#
#
#
# Elastic Compliance Matrix: (Units=1/GPa)
#
#
# Indices 1 2 3 4 5 6 
#
# 1 0.055832 -0.007376 0.005355 0.000000 -0.013127 0.000000
# 2 -0.007376 0.006531 -0.003608 0.000000 0.003911 0.000000
# 3 0.005355 -0.003608 0.010650 0.000000 -0.004678 0.000000
# 4 0.000000 0.000000 0.000000 0.036727 0.000000 0.023633
# 5 -0.013127 0.003911 -0.004678 0.000000 0.025355 0.000000
# 6 0.000000 0.000000 0.000000 0.023633 0.000000 0.078894
#
#
# Mechanical properties :
#
#
# Convention : Reuss Voigt Hill
#
# Bulk Modulus (GPa) = 16.19331 56.61495 36.40413
# Shear Modulus (GPa) = 20.33897 38.17703 29.25800
#
# Velocity S-wave (km/s) = 2.92705 4.01021 3.51065
# Velocity P-wave (km/s) = 4.27139 6.72985 5.63630
#
# Compressibility (1/GPa) = 0.06175389
#
# Stress axis : x y z
#
# Youngs Moduli (GPa) = 17.91074 153.11490 93.89617
#
# Poissons Ratio (x) = 1.12942 -0.50280
# Poissons Ratio (y) = 0.13211 0.33881
# Poissons Ratio (z) = -0.09591 0.55250
#
# Static dielectric constant tensor:
#      x y z
#    x 1.693720 0.000000 0.086490 
#    y 0.000000 1.913730 0.000000 
#    z 0.086490 0.000000 1.832190 
# 
# From -- ./inp_files/18049.got.cif
#   From: 2010.05.17/outbox.cif.g08.bks.cpg/sg10_10_cif.got.tgz:18049.got - 2010.06.03 11:33:40.
