data_PCOD9154844
_publ_section_title
;
Structure prediction by ZEFSAII (Michael W. Deem and Ramdas Pophale) SiO2 
 PCOD9154844
Probable space group: P 2/M
;
_chemical_formula_sum "Si O2"
_cell_formula_units_Z 24
_cell_length_a 8.055001
_cell_length_b 18.229566
_cell_length_c 11.930763
_cell_angle_alpha 90.000000
_cell_angle_beta 144.923159
_cell_angle_gamma 90.000000
_cell_volume 1006.774205
_symmetry_space_group_name_H-M "P 2/M"
_symmetry_group_IT_number 10
_symmetry_cell_setting 'monoclinic'
loop_
_space_group_symop_operation_xyz
x,y,z
-x,y,-z
-x,-y,-z
x,-y,z
loop_
_atom_site_type_symbol
_atom_site_label
_atom_site_fract_x
_atom_site_fract_y
_atom_site_fract_z
Si Si1 0.790289 0.084271 0.238583
Si Si2 0.900789 0.815517 0.760885
Si Si3 0.476750 0.348496 0.225605
Si Si4 0.673443 0.500000 0.219418
Si Si5 0.117793 0.345655 0.235508
Si Si6 0.516973 0.185574 0.764353
Si Si7 0.177677 0.500000 0.367850
O O1 0.692446 0.125627 0.297553
O O2 0.031253 0.128050 0.300559
O O3 0.871238 0.000000 0.301409
O O4 0.500000 0.084641 0.000000
O O5 0.867339 0.732515 0.696172
O O6 0.638273 0.826030 0.704744
O O7 0.190621 0.817857 0.998099
O O8 0.590629 0.423360 0.234661
O O9 0.400345 0.357769 0.314348
O O10 0.615036 0.267720 0.291710
O O11 0.165820 0.337475 0.996985
O O12 0.020003 0.500000 0.398096
O O13 0.500000 0.500000 0.000000
O O14 0.062521 0.421975 0.262951
O O15 0.500000 0.500000 0.500000
#
# Coordination Sequence:
#
# PCOD9154844 Si02
#       7
#     4   4   4   2   4   4   2
#     4   9  16  23  35  58  93 129 154 186 237 296
#     4   8  15  26  41  60  83 124 162 194 239 285
#     4   9  17  30  51  73  88 119 174 217 239 276
#     4  12  21  29  49  79  92 120 171 210 242 283
#     4   9  17  33  50  66  95 129 161 208 252 282
#     4   8  15  25  39  61  90 115 156 208 241 273
#     4  12  25  35  45  71 108 133 153 198 259 306
#
# _framework density 23.838512000000001
#
# number of rings (size 3 to 8) (size 9 to 14) (size 15 to 20)
#    0.000    2.833    1.667    2.500    2.333    2.667 
#    0.000    5.000    0.000    0.000    0.000    0.000 
#    0.000    0.667    0.000    4.333    0.000    5.000 
#
# Total GULP energy -133856.482882 kJ/mol
# GULP energy per Si atom -5577.353453 kJ/mol
# Density = 2.378425 g / cm^3
# Si number density = 23.838512 Si / 1000 Ang^3
#
#
#
# Elastic Constant Matrix: (Units=GPa)
#
#
# Indices 1 2 3 4 5 6 
#
# 1 168.2947 151.0560 22.3728 0.0000 5.0613 0.0000
# 2 151.0560 273.0290 22.7925 0.0000 -2.1494 0.0000
# 3 22.3728 22.7925 73.7588 0.0000 10.0537 0.0000
# 4 0.0000 0.0000 0.0000 15.6882 0.0000 9.1056
# 5 5.0613 -2.1494 10.0537 0.0000 32.2491 0.0000
# 6 0.0000 0.0000 0.0000 9.1056 0.0000 52.9884
#
#
#
# Elastic Compliance Matrix: (Units=1/GPa)
#
#
# Indices 1 2 3 4 5 6 
#
# 1 0.012102 -0.006596 -0.001372 0.000000 -0.001911 0.000000
# 2 -0.006596 0.007368 -0.000505 0.000000 0.001684 0.000000
# 3 -0.001372 -0.000505 0.014731 0.000000 -0.004411 0.000000
# 4 0.000000 0.000000 0.000000 0.070804 0.000000 -0.012167
# 5 -0.001911 0.001684 -0.004411 0.000000 0.032796 0.000000
# 6 0.000000 0.000000 0.000000 -0.012167 0.000000 0.020963
#
#
# Mechanical properties :
#
#
# Convention : Reuss Voigt Hill
#
# Bulk Modulus (GPa) = 57.95843 100.83612 79.39728
# Shear Modulus (GPa) = 27.55384 41.44255 34.49820
#
# Velocity S-wave (km/s) = 3.40347 4.17402 3.80829
# Velocity P-wave (km/s) = 6.30956 8.10071 7.26058
#
# Compressibility (1/GPa) = 0.01725375
#
# Stress axis : x y z
#
# Youngs Moduli (GPa) = 82.62757 135.73043 67.88271
#
# Poissons Ratio (x) = 0.89532 0.09314
# Poissons Ratio (y) = 0.54504 0.03431
# Poissons Ratio (z) = 0.11337 0.06859
#
# Static dielectric constant tensor:
#      x y z
#    x 1.690280 0.000000 0.128460 
#    y 0.000000 1.922870 0.000000 
#    z 0.128460 0.000000 1.869480 
# 
# From -- ./inp_files/61998.got.cif
#   From: 2010.05.17/outbox.cif.g08.bks.cpg/sg10_31_cif.got.tgz:61998.got - 2010.06.03 11:33:40.
