data_PCOD9154493
_publ_section_title
;
Structure prediction by ZEFSAII (Michael W. Deem and Ramdas Pophale) SiO2 
 PCOD9154493
Probable space group: P 2/M
;
_chemical_formula_sum "Si O2"
_cell_formula_units_Z 32
_cell_length_a 14.876606
_cell_length_b 17.759656
_cell_length_c 12.315895
_cell_angle_alpha 90.000000
_cell_angle_beta 30.239299
_cell_angle_gamma 90.000000
_cell_volume 1638.705845
_symmetry_space_group_name_H-M "P 2/M"
_symmetry_group_IT_number 10
_symmetry_cell_setting 'monoclinic'
loop_
_space_group_symop_operation_xyz
x,y,z
-x,y,-z
-x,-y,-z
x,-y,z
loop_
_atom_site_type_symbol
_atom_site_label
_atom_site_fract_x
_atom_site_fract_y
_atom_site_fract_z
Si Si1 0.293034 0.812589 0.492044
Si Si2 0.785884 0.085837 0.234435
Si Si3 0.188015 0.084229 0.162183
Si Si4 0.675387 0.803573 0.162491
Si Si5 0.240849 0.914926 0.356271
Si Si6 0.011798 0.590346 0.314782
Si Si7 0.011491 0.695121 0.117051
Si Si8 0.295804 0.591781 0.195460
O O1 0.259963 0.887894 0.597272
O O2 0.476977 0.779079 0.342241
O O3 0.310882 0.844883 0.352420
O O4 0.135124 0.755588 0.687021
O O5 0.692284 0.141106 0.247728
O O6 0.737360 0.000000 0.264413
O O7 0.000000 0.093872 0.000000
O O8 0.266974 0.093793 0.200268
O O9 0.973382 0.086192 0.398842
O O10 0.234604 0.000000 0.073516
O O11 0.250786 0.147484 0.014784
O O12 0.799931 0.733872 0.057247
O O13 0.304069 0.000000 0.319889
O O14 0.013899 0.500000 0.310086
O O15 0.998620 0.623913 0.209108
O O16 0.838352 0.613668 0.566899
O O17 0.189440 0.614984 0.196798
O O18 0.000000 0.681987 0.000000
O O19 0.300800 0.500000 0.188690
O O20 0.500000 0.617806 0.000000
#
# Coordination Sequence:
#
# PCOD9154493 Si02
#       8
#     4   4   4   4   4   4   4   4
#     4  12  23  38  58  81 113 154 197 245 301 358
#     4  11  21  37  61  84 109 146 198 256 304 345
#     4   9  18  35  58  81 111 151 192 242 302 360
#     4  12  23  38  58  81 113 154 197 245 301 358
#     4   9  18  35  58  81 111 151 192 242 302 360
#     4   9  20  39  67  99 126 158 200 240 287 358
#     4  12  25  44  60  81 122 164 200 253 304 346
#     4   8  15  35  68 103 133 154 181 233 293 347
#
# _framework density 19.527605000000001
#
# number of rings (size 3 to 8) (size 9 to 14) (size 15 to 20)
#    0.000    1.750    3.750    2.625    0.000    6.250 
#    4.500    1.250    0.000    0.000    0.000    5.250 
#    0.000    0.000    0.000    0.000    0.000    0.000 
#
# Total GULP energy -178716.027064 kJ/mol
# GULP energy per Si atom -5584.875846 kJ/mol
# Density = 1.948316 g / cm^3
# Si number density = 19.527605 Si / 1000 Ang^3
#
#
#
# Elastic Constant Matrix: (Units=GPa)
#
#
# Indices 1 2 3 4 5 6 
#
# 1 106.5531 33.4909 40.7518 0.0000 -2.5887 0.0000
# 2 33.4909 30.7326 17.0341 0.0000 4.6261 0.0000
# 3 40.7518 17.0341 60.6317 0.0000 -9.9138 0.0000
# 4 0.0000 0.0000 0.0000 4.8484 0.0000 14.7558
# 5 -2.5887 4.6261 -9.9138 0.0000 42.1857 0.0000
# 6 0.0000 0.0000 0.0000 14.7558 0.0000 20.4570
#
#
#
# Elastic Compliance Matrix: (Units=1/GPa)
#
#
# Indices 1 2 3 4 5 6 
#
# 1 0.016581 -0.014359 -0.006954 0.000000 0.000958 0.000000
# 2 -0.014359 0.053097 -0.006617 0.000000 -0.008259 0.000000
# 3 -0.006954 -0.006617 0.023997 0.000000 0.005938 0.000000
# 4 0.000000 0.000000 0.000000 -0.172560 0.000000 0.124469
# 5 0.000958 -0.008259 0.005938 0.000000 0.026065 0.000000
# 6 0.000000 0.000000 0.000000 0.124469 0.000000 -0.040897
#
#
# Mechanical properties :
#
#
# Convention : Reuss Voigt Hill
#
# Bulk Modulus (GPa) = 26.44395 42.27456 34.35925
# Shear Modulus (GPa) = -197.98680 20.60759 -88.68961
#
# Velocity S-wave (km/s) = -10.08009 3.25207 -6.74657
# Velocity P-wave (km/s) = 11.04113 5.98305 6.56161
#
# Compressibility (1/GPa) = 0.03781583
#
# Stress axis : x y z
#
# Youngs Moduli (GPa) = 60.31008 18.83343 41.67268
#
# Poissons Ratio (x) = 0.27043 0.28978
# Poissons Ratio (y) = 0.86600 0.27573
# Poissons Ratio (z) = 0.41938 0.12461
#
# Static dielectric constant tensor:
#      x y z
#    x 1.710150 0.000000 -0.017930 
#    y 0.000000 1.654240 0.000000 
#    z -0.017930 0.000000 1.706230 
# 
# From -- ./inp_files/51967.got.cif
#   From: 2010.05.17/outbox.cif.g08.bks.cpg/sg10_26_cif.got.tgz:51967.got - 2010.06.03 11:33:40.
