data_PCOD9154107
_publ_section_title
;
Structure prediction by ZEFSAII (Michael W. Deem and Ramdas Pophale) SiO2 
 PCOD9154107
Probable space group: P 2/M
;
_chemical_formula_sum "Si O2"
_cell_formula_units_Z 24
_cell_length_a 12.794249
_cell_length_b 7.672271
_cell_length_c 24.783762
_cell_angle_alpha 90.000000
_cell_angle_beta 154.570018
_cell_angle_gamma 90.000000
_cell_volume 1044.662170
_symmetry_space_group_name_H-M "P 2/M"
_symmetry_group_IT_number 10
_symmetry_cell_setting 'monoclinic'
loop_
_space_group_symop_operation_xyz
x,y,z
-x,y,-z
-x,-y,-z
x,-y,z
loop_
_atom_site_type_symbol
_atom_site_label
_atom_site_fract_x
_atom_site_fract_y
_atom_site_fract_z
Si Si1 0.011888 0.200947 0.945757
Si Si2 0.535003 0.711148 0.146863
Si Si3 0.873753 0.292785 0.213006
Si Si4 0.994693 0.288359 0.436701
Si Si5 0.679080 0.710125 0.506382
Si Si6 0.140673 0.204954 0.236008
O O1 0.864247 0.282169 0.826746
O O2 0.928527 0.000000 0.913231
O O3 0.286813 0.207076 0.051783
O O4 0.000000 0.281198 0.000000
O O5 0.501634 0.500000 0.130829
O O6 0.750356 0.753340 0.289719
O O7 0.639735 0.770565 0.137328
O O8 0.868118 0.500000 0.218813
O O9 0.116906 0.224787 0.356691
O O10 0.922848 0.266267 0.173061
O O11 0.003341 0.500000 0.442659
O O12 0.000000 0.222325 0.500000
O O13 0.222180 0.232609 0.506127
O O14 0.684338 0.500000 0.511636
O O15 0.401498 0.761037 0.384365
O O16 0.108800 0.000000 0.215849
#
# Coordination Sequence:
#
# PCOD9154107 Si02
#       6
#     4   4   4   4   4   4
#     4  10  24  43  56  72 109 153 185 224 276 321
#     4   9  19  36  59  85 108 136 181 229 269 321
#     4   9  19  37  58  84 116 142 171 221 283 330
#     4   8  15  29  52  82 111 137 170 219 273 319
#     4   9  18  33  55  83 114 145 173 215 278 331
#     4  11  23  36  54  80 109 147 191 226 263 319
#
# _framework density 22.973935000000001
#
# number of rings (size 3 to 8) (size 9 to 14) (size 15 to 20)
#    0.000    2.667    0.000    3.000    2.333    5.667 
#    0.000    5.833    0.000    1.000    0.000    0.000 
#    0.000    0.000    0.000    0.000    0.000    0.000 
#
# Total GULP energy -133950.843079 kJ/mol
# GULP energy per Si atom -5581.285128 kJ/mol
# Density = 2.292165 g / cm^3
# Si number density = 22.973935 Si / 1000 Ang^3
#
#
#
# Elastic Constant Matrix: (Units=GPa)
#
#
# Indices 1 2 3 4 5 6 
#
# 1 138.2661 -0.9468 24.4291 0.0000 -7.5833 0.0000
# 2 -0.9468 37.9979 -5.5724 0.0000 -5.3061 0.0000
# 3 24.4291 -5.5724 56.9705 0.0000 12.1628 0.0000
# 4 0.0000 0.0000 0.0000 14.2343 0.0000 1.4608
# 5 -7.5833 -5.3061 12.1628 0.0000 31.6966 0.0000
# 6 0.0000 0.0000 0.0000 1.4608 0.0000 12.2900
#
#
#
# Elastic Compliance Matrix: (Units=1/GPa)
#
#
# Indices 1 2 3 4 5 6 
#
# 1 0.008186 0.000082 -0.004273 0.000000 0.003612 0.000000
# 2 0.000082 0.027123 0.001791 0.000000 0.003873 0.000000
# 3 -0.004273 0.001791 0.021474 0.000000 -0.008963 0.000000
# 4 0.000000 0.000000 0.000000 0.071120 0.000000 -0.008453
# 5 0.003612 0.003873 -0.008963 0.000000 0.036501 0.000000
# 6 0.000000 0.000000 0.000000 -0.008453 0.000000 0.082372
#
#
# Mechanical properties :
#
#
# Convention : Reuss Voigt Hill
#
# Bulk Modulus (GPa) = 19.23754 29.89491 24.56623
# Shear Modulus (GPa) = 18.59399 25.99917 22.29658
#
# Velocity S-wave (km/s) = 2.84800 3.36770 3.11869
# Velocity P-wave (km/s) = 4.38253 5.30685 4.86668
#
# Compressibility (1/GPa) = 0.05198170
#
# Stress axis : x y z
#
# Youngs Moduli (GPa) = 122.15808 36.86949 46.56788
#
# Poissons Ratio (x) = -0.00301 0.19900
# Poissons Ratio (y) = -0.00998 -0.08341
# Poissons Ratio (z) = 0.52203 -0.06604
#
# Static dielectric constant tensor:
#      x y z
#    x 1.888850 0.000000 -0.053270 
#    y 0.000000 1.859480 0.000000 
#    z -0.053270 0.000000 1.879550 
# 
# From -- ./inp_files/56692.got.cif
#   From: 2010.05.17/outbox.cif.g08.bks.cpg/sg10_29_cif.got.tgz:56692.got - 2010.06.03 11:33:40.
