data_PCOD9154958
_publ_section_title
;
Structure prediction by ZEFSAII (Michael W. Deem and Ramdas Pophale) SiO2 
 PCOD9154958
Probable space group: P 2/M
;
_chemical_formula_sum "Si O2"
_cell_formula_units_Z 28
_cell_length_a 16.034055
_cell_length_b 7.367203
_cell_length_c 11.612105
_cell_angle_alpha 90.000000
_cell_angle_beta 82.616863
_cell_angle_gamma 90.000000
_cell_volume 1360.320447
_symmetry_space_group_name_H-M "P 2/M"
_symmetry_group_IT_number 10
_symmetry_cell_setting 'monoclinic'
loop_
_space_group_symop_operation_xyz
x,y,z
-x,y,-z
-x,-y,-z
x,-y,z
loop_
_atom_site_type_symbol
_atom_site_label
_atom_site_fract_x
_atom_site_fract_y
_atom_site_fract_z
Si Si1 0.583217 0.777883 0.055653
Si Si2 0.755792 0.782394 0.910638
Si Si3 0.371146 0.221116 0.469628
Si Si4 0.953965 0.286328 0.891997
Si Si5 0.539794 0.778963 0.317664
Si Si6 0.779788 0.780580 0.649211
Si Si7 0.028383 0.705625 0.371571
O O1 0.568731 0.719448 0.188641
O O2 0.584461 0.000000 0.051082
O O3 0.500000 0.722581 0.000000
O O4 0.674557 0.716421 0.994765
O O5 0.852233 0.728908 0.922053
O O6 0.740586 0.735671 0.779912
O O7 0.756256 0.000000 0.920128
O O8 0.398485 0.278959 0.591200
O O9 0.445894 0.276171 0.370222
O O10 0.281509 0.280776 0.440343
O O11 0.370358 0.000000 0.469170
O O12 0.973477 0.500000 0.883399
O O13 0.981212 0.215726 0.758279
O O14 0.000000 0.214544 0.000000
O O15 0.539357 0.000000 0.317325
O O16 0.871573 0.699898 0.632034
O O17 0.788625 0.000000 0.642533
O O18 0.992998 0.500000 0.375329
O O19 0.000000 0.789583 0.500000
#
# Coordination Sequence:
#
# PCOD9154958 Si02
#       7
#     4   4   4   4   4   4   4
#     4   9  15  23  37  59  88 120 150 179 215 259
#     4   9  17  28  44  68  94 117 146 186 225 263
#     4   8  13  22  36  56  83 115 145 176 213 252
#     4   9  18  34  53  68  86 119 155 184 223 276
#     4   8  13  21  34  54  84 117 148 177 207 250
#     4   9  16  27  44  65  89 114 143 178 221 264
#     4   9  18  33  50  67  87 111 146 186 220 263
#
# _framework density 20.583383999999999
#
# number of rings (size 3 to 8) (size 9 to 14) (size 15 to 20)
#    0.000    3.286    0.000    1.714    0.000    4.000 
#    2.571    0.000    0.000    0.429    0.000    3.000 
#    0.000    0.000    0.000    0.000    0.000    0.000 
#
# Total GULP energy -155952.929317 kJ/mol
# GULP energy per Si atom -5569.747476 kJ/mol
# Density = 2.053654 g / cm^3
# Si number density = 20.583384 Si / 1000 Ang^3
#
#
#
# Elastic Constant Matrix: (Units=GPa)
#
#
# Indices 1 2 3 4 5 6 
#
# 1 82.5071 1.6636 69.6035 0.0000 17.3893 0.0000
# 2 1.6636 69.2511 11.7631 0.0000 0.6406 0.0000
# 3 69.6035 11.7631 174.2094 0.0000 -10.2207 0.0000
# 4 0.0000 0.0000 0.0000 -27.1820 0.0000 -21.6928
# 5 17.3893 0.6406 -10.2207 0.0000 27.1890 0.0000
# 6 0.0000 0.0000 0.0000 -21.6928 0.0000 5.9108
#
#
#
# Elastic Compliance Matrix: (Units=1/GPa)
#
#
# Indices 1 2 3 4 5 6 
#
# 1 0.026947 0.001620 -0.012157 0.000000 -0.021843 0.000000
# 2 0.001620 0.014719 -0.001761 0.000000 -0.002045 0.000000
# 3 -0.012157 -0.001761 0.011427 0.000000 0.012113 0.000000
# 4 0.000000 0.000000 0.000000 -0.009364 0.000000 -0.034365
# 5 -0.021843 -0.002045 0.012113 0.000000 0.055351 0.000000
# 6 0.000000 0.000000 0.000000 -0.034365 0.000000 0.043061
#
#
# Mechanical properties :
#
#
# Convention : Reuss Voigt Hill
#
# Bulk Modulus (GPa) = 35.09210 54.66979 44.88094
# Shear Modulus (GPa) = 28.37079 17.37940 22.87510
#
# Velocity S-wave (km/s) = 3.71662 2.90891 3.33729
# Velocity P-wave (km/s) = 5.95848 6.15631 6.05820
#
# Compressibility (1/GPa) = 0.02849644
#
# Stress axis : x y z
#
# Youngs Moduli (GPa) = 37.10977 67.93785 87.51151
#
# Poissons Ratio (x) = -0.11005 1.06390
# Poissons Ratio (y) = -0.06011 0.15411
# Poissons Ratio (z) = 0.45115 0.11964
#
# Static dielectric constant tensor:
#      x y z
#    x 1.687640 0.000000 0.005940 
#    y 0.000000 1.819470 0.000000 
#    z 0.005940 0.000000 1.754420 
# 
# From -- ./inp_files/46029.got.cif
#   From: 2010.05.17/outbox.cif.g08.bks.cpg/sg10_24_cif.got.tgz:46029.got - 2010.06.03 11:33:40.
