data_PCOD9154909
_publ_section_title
;
Structure prediction by ZEFSAII (Michael W. Deem and Ramdas Pophale) SiO2 
 PCOD9154909
Probable space group: P 2/M
;
_chemical_formula_sum "Si O2"
_cell_formula_units_Z 24
_cell_length_a 18.128938
_cell_length_b 11.461912
_cell_length_c 6.743073
_cell_angle_alpha 90.000000
_cell_angle_beta 38.195973
_cell_angle_gamma 90.000000
_cell_volume 866.410845
_symmetry_space_group_name_H-M "P 2/M"
_symmetry_group_IT_number 10
_symmetry_cell_setting 'monoclinic'
loop_
_space_group_symop_operation_xyz
x,y,z
-x,y,-z
-x,-y,-z
x,-y,z
loop_
_atom_site_type_symbol
_atom_site_label
_atom_site_fract_x
_atom_site_fract_y
_atom_site_fract_z
Si Si1 0.612499 0.125477 0.914143
Si Si2 0.403843 0.625226 0.023006
Si Si3 0.041142 0.875551 0.685725
Si Si4 0.767005 0.127233 0.203035
Si Si5 0.951651 0.627351 0.377135
Si Si6 0.779829 0.373864 0.248210
O O1 0.596444 0.245466 0.069427
O O2 0.726174 0.127200 0.522801
O O3 0.612126 0.000000 0.019621
O O4 0.500000 0.124510 0.000000
O O5 0.416893 0.500000 0.888323
O O6 0.285171 0.623226 0.405459
O O7 0.500000 0.625545 0.000000
O O8 0.107962 0.754060 0.511392
O O9 0.100328 0.000000 0.516974
O O10 0.909496 0.873763 0.862639
O O11 0.000000 0.878150 0.000000
O O12 0.734364 0.261558 0.221987
O O13 0.721087 0.000000 0.229384
O O14 0.897542 0.500000 0.453726
O O15 0.000000 0.622767 0.500000
O O16 0.080229 0.636522 0.996890
O O17 0.760340 0.500000 0.189898
#
# Coordination Sequence:
#
# PCOD9154909 Si02
#       6
#     4   4   4   4   4   4
#     4   8  12  17  26  41  61  86 113 138 170 216
#     4   8  12  17  26  41  61  86 113 138 170 216
#     4   9  17  28  41  57  77 103 135 167 198 234
#     4   8  13  21  32  46  66  92 119 147 180 218
#     4   9  17  28  41  57  77 103 135 167 198 234
#     4   8  13  21  32  46  66  92 119 147 180 218
#
# _framework density 27.700483999999999
#
# number of rings (size 3 to 8) (size 9 to 14) (size 15 to 20)
#    0.000    3.667    0.000    0.000    0.000    0.667 
#    0.000    0.000    0.000    0.000    0.000    0.000 
#    0.000    0.000    0.000   54.000    0.000 1052.000 
#
# Total GULP energy -133749.575951 kJ/mol
# GULP energy per Si atom -5572.898998 kJ/mol
# Density = 2.763744 g / cm^3
# Si number density = 27.700484 Si / 1000 Ang^3
#
#
#
# Elastic Constant Matrix: (Units=GPa)
#
#
# Indices 1 2 3 4 5 6 
#
# 1 70.2161 26.8801 24.4263 0.0000 -8.3369 0.0000
# 2 26.8801 449.7002 4.8665 0.0000 13.9453 0.0000
# 3 24.4263 4.8665 52.4379 0.0000 -11.3927 0.0000
# 4 0.0000 0.0000 0.0000 15.0718 0.0000 -5.8104
# 5 -8.3369 13.9453 -11.3927 0.0000 23.8443 0.0000
# 6 0.0000 0.0000 0.0000 -5.8104 0.0000 2.8861
#
#
#
# Elastic Compliance Matrix: (Units=1/GPa)
#
#
# Indices 1 2 3 4 5 6 
#
# 1 0.017612 -0.001074 -0.007398 0.000000 0.003251 0.000000
# 2 -0.001074 0.002345 -0.000108 0.000000 -0.001798 0.000000
# 3 -0.007398 -0.000108 0.024524 0.000000 0.009194 0.000000
# 4 0.000000 0.000000 0.000000 0.296371 0.000000 0.596667
# 5 0.003251 -0.001798 0.009194 0.000000 0.048520 0.000000
# 6 0.000000 0.000000 0.000000 0.596667 0.000000 1.547727
#
#
# Mechanical properties :
#
#
# Convention : Reuss Voigt Hill
#
# Bulk Modulus (GPa) = 36.60162 76.07779 56.33970
# Shear Modulus (GPa) = 2.54665 42.77253 22.65959
#
# Velocity S-wave (km/s) = 0.95987 3.93378 2.86321
# Velocity P-wave (km/s) = 3.80401 6.93951 5.59586
#
# Compressibility (1/GPa) = 0.02732120
#
# Stress axis : x y z
#
# Youngs Moduli (GPa) = 56.77853 426.47335 40.77666
#
# Poissons Ratio (x) = 0.45782 0.30167
# Poissons Ratio (y) = 0.06095 0.00442
# Poissons Ratio (z) = 0.42005 0.04618
#
# Static dielectric constant tensor:
#      x y z
#    x 2.251030 0.000000 -0.002070 
#    y 0.000000 2.259620 0.000000 
#    z -0.002070 0.000000 2.353290 
# 
# From -- ./inp_files/32068.got.cif
#   From: 2010.05.17/outbox.cif.g08.bks.cpg/sg10_17_cif.got.tgz:32068.got - 2010.06.03 11:33:40.
