data_PCOD9154348
_publ_section_title
;
Structure prediction by ZEFSAII (Michael W. Deem and Ramdas Pophale) SiO2 
 PCOD9154348
Probable space group: P 2/M
;
_chemical_formula_sum "Si O2"
_cell_formula_units_Z 28
_cell_length_a 8.881686
_cell_length_b 15.867453
_cell_length_c 11.699475
_cell_angle_alpha 90.000000
_cell_angle_beta 56.299430
_cell_angle_gamma 90.000000
_cell_volume 1371.720111
_symmetry_space_group_name_H-M "P 2/M"
_symmetry_group_IT_number 10
_symmetry_cell_setting 'monoclinic'
loop_
_space_group_symop_operation_xyz
x,y,z
-x,y,-z
-x,-y,-z
x,-y,z
loop_
_atom_site_type_symbol
_atom_site_label
_atom_site_fract_x
_atom_site_fract_y
_atom_site_fract_z
Si Si1 0.471588 0.500000 0.376843
Si Si2 0.787431 0.500000 0.061465
Si Si3 0.202720 0.628843 0.377659
Si Si4 0.067538 0.803008 0.092147
Si Si5 0.420212 0.096226 0.905694
Si Si6 0.738898 0.828903 0.641436
Si Si7 0.710700 0.646626 0.914241
Si Si8 0.072257 0.100062 0.650112
O O1 0.500000 0.500000 0.500000
O O2 0.659104 0.500000 0.226862
O O3 0.351613 0.580038 0.388477
O O4 0.740435 0.580695 0.003199
O O5 0.000000 0.500000 0.000000
O O6 0.222804 0.729722 0.381605
O O7 0.237082 0.608341 0.230240
O O8 0.000000 0.605542 0.500000
O O9 0.167476 0.728451 0.116806
O O10 0.922281 0.847210 0.235379
O O11 0.215566 0.873615 0.999474
O O12 0.000000 0.768705 0.000000
O O13 0.541316 0.154230 0.773886
O O14 0.435379 0.000000 0.860230
O O15 0.500000 0.101218 0.000000
O O16 0.775794 0.871573 0.503798
O O17 0.883458 0.872640 0.667146
O O18 0.500000 0.671207 0.000000
O O19 0.072946 0.000000 0.667775
#
# Coordination Sequence:
#
# PCOD9154348 Si02
#       8
#     2   2   4   4   4   4   4   4
#     4  12  30  50  70 108 147 182 219 277 354 418
#     4  12  28  47  72 106 141 185 220 278 353 417
#     4  12  23  44  74 102 138 180 234 287 334 405
#     4  12  25  41  63  97 139 180 224 291 357 409
#     4  11  21  36  62  94 129 177 234 285 337 403
#     4  11  20  40  65 100 128 171 233 284 334 393
#     4  12  23  47  73  99 133 177 242 283 332 414
#     4  11  21  38  64  96 137 178 228 287 339 402
#
# _framework density 20.412327000000001
#
# number of rings (size 3 to 8) (size 9 to 14) (size 15 to 20)
#    0.000    0.429    5.714    4.714    2.000    1.143 
#    2.571    0.714    0.000    1.714    0.000    0.000 
#    0.000    0.000    0.000    0.000    0.000    0.000 
#
# Total GULP energy -156700.972849 kJ/mol
# GULP energy per Si atom -5596.463316 kJ/mol
# Density = 2.036587 g / cm^3
# Si number density = 20.412327 Si / 1000 Ang^3
#
#
#
# Elastic Constant Matrix: (Units=GPa)
#
#
# Indices 1 2 3 4 5 6 
#
# 1 71.3444 21.9054 40.6700 0.0000 12.1237 0.0000
# 2 21.9054 117.2423 30.3138 0.0000 10.2718 0.0000
# 3 40.6700 30.3138 163.7557 0.0000 9.1979 0.0000
# 4 0.0000 0.0000 0.0000 16.7074 0.0000 2.0141
# 5 12.1237 10.2718 9.1979 0.0000 34.3450 0.0000
# 6 0.0000 0.0000 0.0000 2.0141 0.0000 -16.0355
#
#
#
# Elastic Compliance Matrix: (Units=1/GPa)
#
#
# Indices 1 2 3 4 5 6 
#
# 1 0.017516 -0.001902 -0.003739 0.000000 -0.004613 0.000000
# 2 -0.001902 0.009342 -0.001155 0.000000 -0.001813 0.000000
# 3 -0.003739 -0.001155 0.007265 0.000000 -0.000280 0.000000
# 4 0.000000 0.000000 0.000000 0.058961 0.000000 0.007406
# 5 -0.004613 -0.001813 -0.000280 0.000000 0.031362 0.000000
# 6 0.000000 0.000000 0.000000 0.007406 0.000000 -0.061432
#
#
# Mechanical properties :
#
#
# Convention : Reuss Voigt Hill
#
# Bulk Modulus (GPa) = 48.70717 59.79119 54.24918
# Shear Modulus (GPa) = 59.91625 24.30027 42.10826
#
# Velocity S-wave (km/s) = 5.42372 3.45406 4.54683
# Velocity P-wave (km/s) = 7.94580 6.72776 7.36201
#
# Compressibility (1/GPa) = 0.02053086
#
# Stress axis : x y z
#
# Youngs Moduli (GPa) = 57.09155 107.04085 137.64873
#
# Poissons Ratio (x) = 0.20356 0.51467
# Poissons Ratio (y) = 0.10857 0.15902
# Poissons Ratio (z) = 0.21347 0.12366
#
# Static dielectric constant tensor:
#      x y z
#    x 1.719670 0.000000 0.020960 
#    y 0.000000 1.708800 0.000000 
#    z 0.020960 0.000000 1.722280 
# 
# From -- ./inp_files/42917.got.cif
#   From: 2010.05.17/outbox.cif.g08.bks.cpg/sg10_22_cif.got.tgz:42917.got - 2010.06.03 11:33:40.
