data_PCOD9154287
_publ_section_title
;
Structure prediction by ZEFSAII (Michael W. Deem and Ramdas Pophale) SiO2 
 PCOD9154287
Probable space group: P 2/M
;
_chemical_formula_sum "Si O2"
_cell_formula_units_Z 28
_cell_length_a 10.015720
_cell_length_b 8.101472
_cell_length_c 32.882301
_cell_angle_alpha 90.000000
_cell_angle_beta 34.518828
_cell_angle_gamma 90.000000
_cell_volume 1511.972577
_symmetry_space_group_name_H-M "P 2/M"
_symmetry_group_IT_number 10
_symmetry_cell_setting 'monoclinic'
loop_
_space_group_symop_operation_xyz
x,y,z
-x,y,-z
-x,-y,-z
x,-y,z
loop_
_atom_site_type_symbol
_atom_site_label
_atom_site_fract_x
_atom_site_fract_y
_atom_site_fract_z
Si Si1 0.743012 0.698360 0.298202
Si Si2 0.624405 0.201752 0.100331
Si Si3 0.946285 0.198147 0.948875
Si Si4 0.702660 0.301171 0.693932
Si Si5 0.210978 0.701837 0.418383
Si Si6 0.831006 0.301577 0.186393
Si Si7 0.863515 0.803887 0.740317
O O1 0.735841 0.500000 0.298204
O O2 0.471249 0.754620 0.367662
O O3 0.854106 0.756581 0.227206
O O4 0.902318 0.747000 0.295915
O O5 0.368570 0.262453 0.177828
O O6 0.821598 0.252590 0.083957
O O7 0.620823 0.000000 0.101464
O O8 0.722532 0.254574 0.031640
O O9 0.977064 0.250054 0.894749
O O10 0.945425 0.000000 0.950082
O O11 0.697893 0.500000 0.695195
O O12 0.809417 0.248362 0.623782
O O13 0.429153 0.244019 0.763117
O O14 0.838114 0.244675 0.699767
O O15 0.208530 0.500000 0.419659
O O16 0.000000 0.759615 0.500000
O O17 0.826050 0.500000 0.188270
O O18 0.854628 0.000000 0.744974
#
# Coordination Sequence:
#
# PCOD9154287 Si02
#       7
#     4   4   4   4   4   4   4
#     4   9  19  34  51  72 101 130 156 197 246 286
#     4   8  16  28  44  67  94 125 162 206 243 274
#     4   9  15  28  48  67  90 123 165 210 246 274
#     4   9  17  30  51  76  99 124 157 200 244 282
#     4   8  15  32  58  81  97 121 162 202 233 278
#     4   9  17  30  47  70  97 124 159 202 247 292
#     4  11  20  32  49  72 100 131 166 198 235 290
#
# _framework density 18.518853
#
# number of rings (size 3 to 8) (size 9 to 14) (size 15 to 20)
#    0.000    3.000    1.429    3.000    0.000    0.571 
#    0.000    6.429    0.000   10.286    0.000    0.000 
#    0.000    0.000    0.000    0.000    0.000    0.000 
#
# Total GULP energy -156022.150744 kJ/mol
# GULP energy per Si atom -5572.219669 kJ/mol
# Density = 1.847670 g / cm^3
# Si number density = 18.518853 Si / 1000 Ang^3
#
#
#
# Elastic Constant Matrix: (Units=GPa)
#
#
# Indices 1 2 3 4 5 6 
#
# 1 127.9449 8.7587 66.0896 0.0000 8.2680 0.0000
# 2 8.7587 8.4706 10.9943 0.0000 -0.4286 0.0000
# 3 66.0896 10.9943 144.0936 0.0000 15.9604 0.0000
# 4 0.0000 0.0000 0.0000 18.8578 0.0000 14.3122
# 5 8.2680 -0.4286 15.9604 0.0000 17.5548 0.0000
# 6 0.0000 0.0000 0.0000 14.3122 0.0000 35.7602
#
#
#
# Elastic Compliance Matrix: (Units=1/GPa)
#
#
# Indices 1 2 3 4 5 6 
#
# 1 0.010458 -0.005348 -0.004257 0.000000 -0.001185 0.000000
# 2 -0.005348 0.136782 -0.009599 0.000000 0.014586 0.000000
# 3 -0.004257 -0.009599 0.010485 0.000000 -0.007762 0.000000
# 4 0.000000 0.000000 0.000000 0.076163 0.000000 -0.030483
# 5 -0.001185 0.014586 -0.007762 0.000000 0.064936 0.000000
# 6 0.000000 0.000000 0.000000 -0.030483 0.000000 0.040164
#
#
# Mechanical properties :
#
#
# Convention : Reuss Voigt Hill
#
# Bulk Modulus (GPa) = 8.38109 50.24382 29.31245
# Shear Modulus (GPa) = 11.98559 27.41232 19.69895
#
# Velocity S-wave (km/s) = 2.54679 3.85156 3.26502
# Velocity P-wave (km/s) = 3.63094 6.85343 5.48421
#
# Compressibility (1/GPa) = 0.11931628
#
# Stress axis : x y z
#
# Youngs Moduli (GPa) = 95.62463 7.31089 95.37779
#
# Poissons Ratio (x) = 0.03910 0.40603
# Poissons Ratio (y) = 0.51138 0.91555
# Poissons Ratio (z) = 0.40708 0.07018
#
# Static dielectric constant tensor:
#      x y z
#    x 1.634600 0.000000 0.010700 
#    y 0.000000 1.659620 0.000000 
#    z 0.010700 0.000000 1.654600 
# 
# From -- ./inp_files/37910.got.cif
#   From: 2010.05.17/outbox.cif.g08.bks.cpg/sg10_19_cif.got.tgz:37910.got - 2010.06.03 11:33:40.
