data_PCOD9154762
_publ_section_title
;
Structure prediction by ZEFSAII (Michael W. Deem and Ramdas Pophale) SiO2 
 PCOD9154762
Probable space group: P 2/M
;
_chemical_formula_sum "Si O2"
_cell_formula_units_Z 21
_cell_length_a 5.731098
_cell_length_b 16.652901
_cell_length_c 9.772030
_cell_angle_alpha 90.000000
_cell_angle_beta 104.160739
_cell_angle_gamma 90.000000
_cell_volume 904.296922
_symmetry_space_group_name_H-M "P 2/M"
_symmetry_group_IT_number 10
_symmetry_cell_setting 'monoclinic'
loop_
_space_group_symop_operation_xyz
x,y,z
-x,y,-z
-x,-y,-z
x,-y,z
loop_
_atom_site_type_symbol
_atom_site_label
_atom_site_fract_x
_atom_site_fract_y
_atom_site_fract_z
Si Si1 0.806618 0.201852 0.372329
Si Si2 0.719715 0.378876 0.432215
Si Si3 0.000000 0.500000 0.000000
Si Si4 0.557482 0.904663 0.848128
Si Si5 0.113028 0.769511 0.159089
Si Si6 0.411972 0.625935 0.141221
O O1 0.724499 0.281235 0.441588
O O2 0.625623 0.137276 0.283545
O O3 0.000000 0.160865 0.500000
O O4 0.936429 0.239004 0.258296
O O5 0.500000 0.405961 0.500000
O O6 0.629326 0.404748 0.267915
O O7 0.000000 0.403513 0.500000
O O8 0.818566 0.568957 0.906871
O O9 0.805487 0.861406 0.844297
O O10 0.561106 0.000000 0.836712
O O11 0.500000 0.884109 0.000000
O O12 0.334936 0.709187 0.200713
O O13 0.000000 0.745807 0.000000
O O14 0.500000 0.639514 0.000000
#
# Coordination Sequence:
#
# PCOD9154762 Si02
#       6
#     4   4   1   4   4   4
#     4  11  24  40  67 102 138 181 237 299 358 424
#     4  11  25  45  77 110 146 193 245 297 364 446
#     4  12  30  44  76 112 150 180 240 316 372 430
#     4  11  24  41  63  99 139 184 242 300 361 426
#     4  12  22  41  73  99 133 189 241 293 360 432
#     4  12  25  46  75 108 143 186 248 300 365 433
#
# _framework density 23.222460999999999
#
# number of rings (size 3 to 8) (size 9 to 14) (size 15 to 20)
#    0.000    0.571    4.762    4.286    2.667    1.524 
#    0.000    1.905    0.000    0.000    0.000    0.000 
#    0.000    0.000    0.000    0.000    0.000    0.000 
#
# Total GULP energy -117107.322071 kJ/mol
# GULP energy per Si atom -5576.539146 kJ/mol
# Density = 2.316961 g / cm^3
# Si number density = 23.222461 Si / 1000 Ang^3
#
#
#
# Elastic Constant Matrix: (Units=GPa)
#
#
# Indices 1 2 3 4 5 6 
#
# 1 118.4137 17.1031 47.0368 0.0000 13.7109 0.0000
# 2 17.1031 119.2455 3.2668 0.0000 9.1321 0.0000
# 3 47.0368 3.2668 63.5642 0.0000 19.9783 0.0000
# 4 0.0000 0.0000 0.0000 40.6823 0.0000 -64.4132
# 5 13.7109 9.1321 19.9783 0.0000 69.2324 0.0000
# 6 0.0000 0.0000 0.0000 -64.4132 0.0000 140.0814
#
#
#
# Elastic Compliance Matrix: (Units=1/GPa)
#
#
# Indices 1 2 3 4 5 6 
#
# 1 0.012236 -0.001537 -0.009103 0.000000 0.000406 0.000000
# 2 -0.001537 0.008665 0.001051 0.000000 -0.001142 0.000000
# 3 -0.009103 0.001051 0.024075 0.000000 -0.005283 0.000000
# 4 0.000000 0.000000 0.000000 0.090389 0.000000 0.041563
# 5 0.000406 -0.001142 -0.005283 0.000000 0.016039 0.000000
# 6 0.000000 0.000000 0.000000 0.041563 0.000000 0.026251
#
#
# Mechanical properties :
#
#
# Convention : Reuss Voigt Hill
#
# Bulk Modulus (GPa) = 38.76348 48.44855 43.60602
# Shear Modulus (GPa) = 24.33899 65.58698 44.96298
#
# Velocity S-wave (km/s) = 3.24092 5.32017 4.40498
# Velocity P-wave (km/s) = 5.54375 7.65814 6.68507
#
# Compressibility (1/GPa) = 0.02579747
#
# Stress axis : x y z
#
# Youngs Moduli (GPa) = 81.72690 115.40517 41.53715
#
# Poissons Ratio (x) = 0.17734 0.37812
# Poissons Ratio (y) = 0.12559 -0.04364
# Poissons Ratio (z) = 0.74397 -0.12125
#
# Static dielectric constant tensor:
#      x y z
#    x -3.844840 0.000000 -4.856180 
#    y 0.000000 1.843980 0.000000 
#    z -4.856180 0.000000 -2.258510 
# 
# From -- ./inp_files/15280.got.cif
#   From: 2010.05.17/outbox.cif.g08.bks.cpg/sg10_8_cif.got.tgz:15280.got - 2010.06.03 11:33:40.
