data_PCOD9154663
_publ_section_title
;
Structure prediction by ZEFSAII (Michael W. Deem and Ramdas Pophale) SiO2 
 PCOD9154663
Probable space group: P 2/M
;
_chemical_formula_sum "Si O2"
_cell_formula_units_Z 24
_cell_length_a 9.378679
_cell_length_b 19.151265
_cell_length_c 10.044663
_cell_angle_alpha 90.000000
_cell_angle_beta 135.095891
_cell_angle_gamma 90.000000
_cell_volume 1273.595311
_symmetry_space_group_name_H-M "P 2/M"
_symmetry_group_IT_number 10
_symmetry_cell_setting 'monoclinic'
loop_
_space_group_symop_operation_xyz
x,y,z
-x,y,-z
-x,-y,-z
x,-y,z
loop_
_atom_site_type_symbol
_atom_site_label
_atom_site_fract_x
_atom_site_fract_y
_atom_site_fract_z
Si Si1 0.839957 0.336073 0.515969
Si Si2 0.945850 0.582837 0.118400
Si Si3 0.577804 0.314357 0.903277
Si Si4 0.528957 0.920911 0.360953
Si Si5 0.183998 0.824477 0.018713
Si Si6 0.082630 0.176202 0.406249
O O1 0.615190 0.338565 0.308953
O O2 0.868180 0.257389 0.589474
O O3 0.000000 0.346195 0.500000
O O4 0.889040 0.388672 0.667840
O O5 0.921575 0.500000 0.116817
O O6 0.742630 0.624648 0.018994
O O7 0.000000 0.597803 0.000000
O O8 0.687042 0.246340 0.914800
O O9 0.500000 0.296506 0.000000
O O10 0.500000 0.923935 0.500000
O O11 0.334244 0.884023 0.169164
O O12 0.722213 0.872167 0.467682
O O13 0.557392 0.000000 0.329823
O O14 0.000000 0.813745 0.000000
O O15 0.082704 0.844869 0.811678
O O16 0.000000 0.174312 0.500000
#
# Coordination Sequence:
#
# PCOD9154663 Si02
#       6
#     4   4   4   4   4   4
#     4  11  22  42  68  97 127 171 217 265 323 385
#     4  11  26  45  64  98 138 170 214 272 324 380
#     4  12  23  42  71 100 130 167 221 273 321 381
#     4  11  25  43  64  97 133 170 219 270 321 388
#     4  12  24  41  69  98 126 174 220 261 323 386
#     4  11  23  42  68  97 133 166 214 275 326 378
#
# _framework density 18.844290999999998
#
# number of rings (size 3 to 8) (size 9 to 14) (size 15 to 20)
#    0.000    0.667    6.667    1.500    0.000    3.333 
#    0.000    2.500    0.000    0.000    0.000    0.000 
#    0.000    0.000    0.000    0.000    0.000    0.000 
#
# Total GULP energy -134177.190537 kJ/mol
# GULP energy per Si atom -5590.716272 kJ/mol
# Density = 1.880140 g / cm^3
# Si number density = 18.844291 Si / 1000 Ang^3
#
#
#
# Elastic Constant Matrix: (Units=GPa)
#
#
# Indices 1 2 3 4 5 6 
#
# 1 48.6696 33.1208 19.4587 0.0000 4.3229 0.0000
# 2 33.1208 92.7364 25.3584 0.0000 -8.1286 0.0000
# 3 19.4587 25.3584 153.1975 0.0000 5.7431 0.0000
# 4 0.0000 0.0000 0.0000 26.7541 0.0000 6.6568
# 5 4.3229 -8.1286 5.7431 0.0000 30.0907 0.0000
# 6 0.0000 0.0000 0.0000 6.6568 0.0000 -8.9331
#
#
#
# Elastic Compliance Matrix: (Units=1/GPa)
#
#
# Indices 1 2 3 4 5 6 
#
# 1 0.028928 -0.010452 -0.001695 0.000000 -0.006656 0.000000
# 2 -0.010452 0.015434 -0.001450 0.000000 0.005948 0.000000
# 3 -0.001695 -0.001450 0.007039 0.000000 -0.001492 0.000000
# 4 0.000000 0.000000 0.000000 0.031531 0.000000 0.023496
# 5 -0.006656 0.005948 -0.001492 0.000000 0.036080 0.000000
# 6 0.000000 0.000000 0.000000 0.023496 0.000000 -0.094434
#
#
# Mechanical properties :
#
#
# Convention : Reuss Voigt Hill
#
# Bulk Modulus (GPa) = 41.30947 50.05327 45.68137
# Shear Modulus (GPa) = 83.55503 24.02670 53.79087
#
# Velocity S-wave (km/s) = 6.66603 3.57461 5.34854
# Velocity P-wave (km/s) = 9.01205 6.60729 7.90168
#
# Compressibility (1/GPa) = 0.02420752
#
# Stress axis : x y z
#
# Youngs Moduli (GPa) = 34.56849 64.79235 142.07058
#
# Poissons Ratio (x) = 0.67719 0.24078
# Poissons Ratio (y) = 0.36130 0.20603
# Poissons Ratio (z) = 0.05859 0.09396
#
# Static dielectric constant tensor:
#      x y z
#    x 1.639400 0.000000 -0.007500 
#    y 0.000000 1.635140 0.000000 
#    z -0.007500 0.000000 1.654090 
# 
# From -- ./inp_files/20259.got.cif
#   From: 2010.05.17/outbox.cif.g08.bks.cpg/sg10_11_cif.got.tgz:20259.got - 2010.06.03 11:33:40.
