data_PCOD9154285
_publ_section_title
;
Structure prediction by ZEFSAII (Michael W. Deem and Ramdas Pophale) SiO2 
 PCOD9154285
Probable space group: P 2/M
;
_chemical_formula_sum "Si O2"
_cell_formula_units_Z 28
_cell_length_a 11.722824
_cell_length_b 13.896630
_cell_length_c 9.727992
_cell_angle_alpha 90.000000
_cell_angle_beta 110.708229
_cell_angle_gamma 90.000000
_cell_volume 1482.378739
_symmetry_space_group_name_H-M "P 2/M"
_symmetry_group_IT_number 10
_symmetry_cell_setting 'monoclinic'
loop_
_space_group_symop_operation_xyz
x,y,z
-x,y,-z
-x,-y,-z
x,-y,z
loop_
_atom_site_type_symbol
_atom_site_label
_atom_site_fract_x
_atom_site_fract_y
_atom_site_fract_z
Si Si1 0.317163 0.888712 0.526915
Si Si2 0.530127 0.614357 0.356909
Si Si3 0.306784 0.701973 0.100845
Si Si4 0.590042 0.889266 0.746808
Si Si5 0.849291 0.386625 0.193142
Si Si6 0.880136 0.388225 0.774085
Si Si7 0.204815 0.303983 0.550317
O O1 0.445170 0.873321 0.662588
O O2 0.351164 0.876385 0.380186
O O3 0.218872 0.809381 0.527711
O O4 0.280863 0.000000 0.531885
O O5 0.500000 0.648262 0.500000
O O6 0.541967 0.500000 0.365985
O O7 0.421242 0.644014 0.210859
O O8 0.657295 0.659315 0.367426
O O9 0.348593 0.812372 0.127073
O O10 0.195891 0.679634 0.158025
O O11 0.260140 0.663027 0.936098
O O12 0.607887 0.000000 0.795765
O O13 0.825415 0.500000 0.205543
O O14 0.867884 0.333544 0.345518
O O15 0.974092 0.379700 0.159155
O O16 0.846977 0.500000 0.788141
O O17 0.841854 0.359940 0.603435
#
# Coordination Sequence:
#
# PCOD9154285 Si02
#       7
#     4   4   4   4   4   4   4
#     4   9  17  33  59  89 114 142 187 238 288 343
#     4  11  20  31  54  86 113 142 185 238 289 339
#     4  12  21  37  60  85 117 149 189 242 289 340
#     4   9  17  33  59  89 114 142 187 238 288 343
#     4  11  26  41  54  81 120 161 199 230 280 344
#     4  11  22  39  62  81 108 157 207 240 272 336
#     4  12  21  37  60  85 117 149 189 242 289 340
#
# _framework density 18.888559000000001
#
# number of rings (size 3 to 8) (size 9 to 14) (size 15 to 20)
#    0.000    1.286    4.286    4.286    0.000    2.857 
#    0.000    2.143    0.000    6.857    0.000    0.000 
#    0.000    0.000    0.000    0.000    0.000    0.000 
#
# Total GULP energy -156467.003571 kJ/mol
# GULP energy per Si atom -5588.107270 kJ/mol
# Density = 1.884557 g / cm^3
# Si number density = 18.888559 Si / 1000 Ang^3
#
#
#
# Elastic Constant Matrix: (Units=GPa)
#
#
# Indices 1 2 3 4 5 6 
#
# 1 28.1856 5.0429 -12.5160 0.0000 4.1759 0.0000
# 2 5.0429 105.2493 -1.0996 0.0000 10.9908 0.0000
# 3 -12.5160 -1.0996 49.6620 0.0000 12.9459 0.0000
# 4 0.0000 0.0000 0.0000 14.3262 0.0000 -2.6688
# 5 4.1759 10.9908 12.9459 0.0000 25.1864 0.0000
# 6 0.0000 0.0000 0.0000 -2.6688 0.0000 24.3641
#
#
#
# Elastic Compliance Matrix: (Units=1/GPa)
#
#
# Indices 1 2 3 4 5 6 
#
# 1 0.044472 -0.000412 0.015097 0.000000 -0.014954 0.000000
# 2 -0.000412 0.010065 0.001439 0.000000 -0.005064 0.000000
# 3 0.015097 0.001439 0.028624 0.000000 -0.017844 0.000000
# 4 0.000000 0.000000 0.000000 0.071256 0.000000 0.007805
# 5 -0.014954 -0.005064 -0.017844 0.000000 0.053565 0.000000
# 6 0.000000 0.000000 0.000000 0.007805 0.000000 0.041899
#
#
# Mechanical properties :
#
#
# Convention : Reuss Voigt Hill
#
# Bulk Modulus (GPa) = 8.66469 18.43904 13.55187
# Shear Modulus (GPa) = 19.52341 25.55330 22.53836
#
# Velocity S-wave (km/s) = 3.21847 3.68210 3.45806
# Velocity P-wave (km/s) = 4.29053 5.27829 4.80983
#
# Compressibility (1/GPa) = 0.11541094
#
# Stress axis : x y z
#
# Youngs Moduli (GPa) = 22.48593 99.35655 34.93517
#
# Poissons Ratio (x) = 0.04089 -0.52742
# Poissons Ratio (y) = 0.00925 -0.05028
# Poissons Ratio (z) = -0.33947 -0.14298
#
# Static dielectric constant tensor:
#      x y z
#    x 1.667810 0.000000 -0.018050 
#    y 0.000000 1.653520 0.000000 
#    z -0.018050 0.000000 1.679380 
# 
# From -- ./inp_files/25033.got.cif
#   From: 2010.05.17/outbox.cif.g08.bks.cpg/sg10_13_cif.got.tgz:25033.got - 2010.06.03 11:33:40.
