data_PCOD9154136
_publ_section_title
;
Structure prediction by ZEFSAII (Michael W. Deem and Ramdas Pophale) SiO2 
 PCOD9154136
Probable space group: P 2/M
;
_chemical_formula_sum "Si O2"
_cell_formula_units_Z 20
_cell_length_a 9.684473
_cell_length_b 8.808124
_cell_length_c 11.984560
_cell_angle_alpha 90.000000
_cell_angle_beta 75.649684
_cell_angle_gamma 90.000000
_cell_volume 990.409828
_symmetry_space_group_name_H-M "P 2/M"
_symmetry_group_IT_number 10
_symmetry_cell_setting 'monoclinic'
loop_
_space_group_symop_operation_xyz
x,y,z
-x,y,-z
-x,-y,-z
x,-y,z
loop_
_atom_site_type_symbol
_atom_site_label
_atom_site_fract_x
_atom_site_fract_y
_atom_site_fract_z
Si Si1 0.081830 0.320970 0.662245
Si Si2 0.219376 0.180322 0.274102
Si Si3 0.348118 0.182164 0.479375
Si Si4 0.330782 0.322512 0.023741
Si Si5 0.866625 0.176127 0.110956
O O1 0.063211 0.500000 0.651908
O O2 0.218032 0.262714 0.567403
O O3 0.108138 0.277794 0.786121
O O4 0.936543 0.236155 0.657288
O O5 0.330415 0.212946 0.351189
O O6 0.260498 0.262894 0.151757
O O7 0.215129 0.000000 0.255017
O O8 0.500000 0.228322 0.500000
O O9 0.333614 0.000000 0.497350
O O10 0.295957 0.500000 0.015580
O O11 0.500000 0.305495 0.000000
O O12 0.269107 0.228990 0.932477
O O13 0.854595 0.000000 0.147861
O O14 0.000000 0.189461 0.000000
#
# Coordination Sequence:
#
# PCOD9154136 Si02
#       5
#     4   4   4   4   4
#     4  12  25  41  66  96 129 168 209 263 324 376
#     4  11  23  42  67  94 125 169 219 262 309 375
#     4  10  24  45  67  94 126 165 213 265 316 375
#     4  11  25  42  63  96 135 169 206 259 321 378
#     4  11  23  41  67  96 126 167 216 259 308 376
#
# _framework density 20.193660999999999
#
# number of rings (size 3 to 8) (size 9 to 14) (size 15 to 20)
#    0.000    1.000    2.000    4.200    2.800    6.800 
#    0.000    0.000    0.000    0.000    0.000    0.000 
#    0.000    0.000    0.000    0.000    0.000    0.000 
#
# Total GULP energy -111938.033381 kJ/mol
# GULP energy per Si atom -5596.901669 kJ/mol
# Density = 2.014770 g / cm^3
# Si number density = 20.193661 Si / 1000 Ang^3
#
#
#
# Elastic Constant Matrix: (Units=GPa)
#
#
# Indices 1 2 3 4 5 6 
#
# 1 83.9858 10.9442 8.8755 0.0000 11.7255 0.0000
# 2 10.9442 27.7761 -3.9158 0.0000 -2.6639 0.0000
# 3 8.8755 -3.9158 39.1338 0.0000 5.7784 0.0000
# 4 0.0000 0.0000 0.0000 30.3992 0.0000 -6.7888
# 5 11.7255 -2.6639 5.7784 0.0000 34.3223 0.0000
# 6 0.0000 0.0000 0.0000 -6.7888 0.0000 29.0435
#
#
#
# Elastic Compliance Matrix: (Units=1/GPa)
#
#
# Indices 1 2 3 4 5 6 
#
# 1 0.013696 -0.006272 -0.003047 0.000000 -0.004653 0.000000
# 2 -0.006272 0.039564 0.004729 0.000000 0.004417 0.000000
# 3 -0.003047 0.004729 0.027185 0.000000 -0.003169 0.000000
# 4 0.000000 0.000000 0.000000 0.034707 0.000000 0.008113
# 5 -0.004653 0.004417 -0.003169 0.000000 0.031601 0.000000
# 6 0.000000 0.000000 0.000000 0.008113 0.000000 0.036327
#
#
# Mechanical properties :
#
#
# Convention : Reuss Voigt Hill
#
# Bulk Modulus (GPa) = 14.03207 20.30041 17.16624
# Shear Modulus (GPa) = 23.14647 27.75245 25.44946
#
# Velocity S-wave (km/s) = 3.38927 3.71120 3.55388
# Velocity P-wave (km/s) = 4.72017 5.33279 5.03581
#
# Compressibility (1/GPa) = 0.07126534
#
# Stress axis : x y z
#
# Youngs Moduli (GPa) = 73.01595 25.27565 36.78440
#
# Poissons Ratio (x) = 0.15853 0.11207
# Poissons Ratio (y) = 0.45796 -0.17395
# Poissons Ratio (z) = 0.22246 -0.11953
#
# Static dielectric constant tensor:
#      x y z
#    x 1.704850 0.000000 0.013770 
#    y 0.000000 1.675340 0.000000 
#    z 0.013770 0.000000 1.697610 
# 
# From -- ./inp_files/22100.got.cif
#   From: 2010.05.17/outbox.cif.g08.bks.cpg/sg10_12_cif.got.tgz:22100.got - 2010.06.03 11:33:40.
