data_PCOD9154099
_publ_section_title
;
Structure prediction by ZEFSAII (Michael W. Deem and Ramdas Pophale) SiO2 
 PCOD9154099
Probable space group: P 2/M
;
_chemical_formula_sum "Si O2"
_cell_formula_units_Z 15
_cell_length_a 5.577537
_cell_length_b 24.709315
_cell_length_c 5.170134
_cell_angle_alpha 90.000000
_cell_angle_beta 101.422305
_cell_angle_gamma 90.000000
_cell_volume 698.420652
_symmetry_space_group_name_H-M "P 2/M"
_symmetry_group_IT_number 10
_symmetry_cell_setting 'monoclinic'
loop_
_space_group_symop_operation_xyz
x,y,z
-x,y,-z
-x,-y,-z
x,-y,z
loop_
_atom_site_type_symbol
_atom_site_label
_atom_site_fract_x
_atom_site_fract_y
_atom_site_fract_z
Si Si1 0.000000 0.689908 0.500000
Si Si2 0.659581 0.592414 0.289680
Si Si3 0.000000 0.235788 0.000000
Si Si4 0.500000 0.097676 0.500000
Si Si5 0.000000 0.500000 0.500000
Si Si6 0.161963 0.000000 0.284008
Si Si7 0.500000 0.168974 0.000000
O O1 0.224676 0.649721 0.607632
O O2 0.039064 0.726920 0.259258
O O3 0.500000 0.572140 0.500000
O O4 0.868516 0.547897 0.298482
O O5 0.500000 0.597538 0.000000
O O6 0.252002 0.202034 0.015566
O O7 0.427358 0.134483 0.728600
O O8 0.311617 0.055374 0.333109
O O9 0.000000 0.000000 0.500000
O O10 0.000000 0.000000 0.000000
#
# Coordination Sequence:
#
# PCOD9154099 Si02
#       7
#     2   4   2   2   1   2   2
#     4  11  26  45  70 100 136 181 246 283 362 420
#     4  11  24  42  70  97 138 180 224 294 346 435
#     4  12  28  48  74 104 142 194 240 304 354 422
#     4  11  26  46  70 112 140 190 238 291 360 424
#     4  10  24  42  64 108 132 178 228 278 366 422
#     4  11  24  43  76 101 147 186 234 291 350 437
#     4  12  28  47  76 104 148 187 242 300 358 418
#
# _framework density 21.477027
#
# number of rings (size 3 to 8) (size 9 to 14) (size 15 to 20)
#    0.000    0.800    0.000    5.600   11.200    6.400 
#    0.000    0.000    0.000    0.000    0.000    0.000 
#    0.000    0.000    0.000    0.000    0.000    0.000 
#
# Total GULP energy -83625.299415 kJ/mol
# GULP energy per Si atom -5575.019961 kJ/mol
# Density = 2.142814 g / cm^3
# Si number density = 21.477027 Si / 1000 Ang^3
#
#
#
# Elastic Constant Matrix: (Units=GPa)
#
#
# Indices 1 2 3 4 5 6 
#
# 1 91.3026 63.5207 53.5596 0.0000 17.5966 0.0000
# 2 63.5207 160.8704 84.8864 0.0000 4.6424 0.0000
# 3 53.5596 84.8864 218.0240 0.0000 22.9253 0.0000
# 4 0.0000 0.0000 0.0000 -11.2855 0.0000 -33.4825
# 5 17.5966 4.6424 22.9253 0.0000 48.0703 0.0000
# 6 0.0000 0.0000 0.0000 -33.4825 0.0000 -52.2966
#
#
#
# Elastic Compliance Matrix: (Units=1/GPa)
#
#
# Indices 1 2 3 4 5 6 
#
# 1 0.016678 -0.005732 -0.001349 0.000000 -0.004908 0.000000
# 2 -0.005732 0.009818 -0.002669 0.000000 0.002423 0.000000
# 3 -0.001349 -0.002669 0.006189 0.000000 -0.002200 0.000000
# 4 0.000000 0.000000 0.000000 0.098508 0.000000 -0.063069
# 5 -0.004908 0.002423 -0.002200 0.000000 0.023415 0.000000
# 6 0.000000 0.000000 0.000000 -0.063069 0.000000 0.021258
#
#
# Mechanical properties :
#
#
# Convention : Reuss Voigt Hill
#
# Bulk Modulus (GPa) = 75.85124 97.12562 86.48843
# Shear Modulus (GPa) = 25.03003 14.77965 19.90484
#
# Velocity S-wave (km/s) = 3.41755 2.62613 3.04764
# Velocity P-wave (km/s) = 7.13911 7.38354 7.26235
#
# Compressibility (1/GPa) = 0.01318370
#
# Stress axis : x y z
#
# Youngs Moduli (GPa) = 59.96052 101.85429 161.58434
#
# Poissons Ratio (x) = 0.58379 0.21804
# Poissons Ratio (y) = 0.34367 0.43132
# Poissons Ratio (z) = 0.08091 0.27188
#
# Static dielectric constant tensor:
#      x y z
#    x 1.885200 0.000000 -0.053570 
#    y 0.000000 1.378150 0.000000 
#    z -0.053570 0.000000 1.824510 
# 
# From -- ./inp_files/1448.got.cif
#   From: 2010.05.17/outbox.cif.g08.bks.cpg/sg10_1_cif.got.tgz:1448.got - 2010.06.03 11:33:40.
