data_PCOD9154178
_publ_section_title
;
Structure prediction by ZEFSAII (Michael W. Deem and Ramdas Pophale) SiO2 
 PCOD9154178
Probable space group: P 2/M
;
_chemical_formula_sum "Si O2"
_cell_formula_units_Z 18
_cell_length_a 8.878815
_cell_length_b 9.315412
_cell_length_c 12.074739
_cell_angle_alpha 90.000000
_cell_angle_beta 120.824569
_cell_angle_gamma 90.000000
_cell_volume 857.623446
_symmetry_space_group_name_H-M "P 2/M"
_symmetry_group_IT_number 10
_symmetry_cell_setting 'monoclinic'
loop_
_space_group_symop_operation_xyz
x,y,z
-x,y,-z
-x,-y,-z
x,-y,z
loop_
_atom_site_type_symbol
_atom_site_label
_atom_site_fract_x
_atom_site_fract_y
_atom_site_fract_z
Si Si1 0.364253 0.000000 0.849752
Si Si2 0.136452 0.500000 0.648195
Si Si3 0.882283 0.744938 0.180707
Si Si4 0.477094 0.000000 0.641372
Si Si5 0.099640 0.000000 0.160160
Si Si6 0.469866 0.500000 0.314812
Si Si7 0.500000 0.745953 0.500000
Si Si8 0.810307 0.500000 0.983740
O O1 0.256297 0.142532 0.828466
O O2 0.420628 0.000000 0.745460
O O3 0.500000 0.000000 0.000000
O O4 0.089976 0.635952 0.708191
O O5 0.333074 0.500000 0.666202
O O6 0.000000 0.500000 0.500000
O O7 0.804795 0.643139 0.055618
O O8 0.033460 0.850419 0.190993
O O9 0.690428 0.000000 0.739012
O O10 0.407554 0.137511 0.546101
O O11 0.000000 0.000000 0.000000
O O12 0.430768 0.635725 0.380498
O O13 0.337993 0.500000 0.163546
O O14 0.000000 0.500000 0.000000
#
# Coordination Sequence:
#
# PCOD9154178 Si02
#       8
#     2   2   4   2   2   2   2   2
#     4  11  24  42  71 100 135 177 224 287 346 409
#     4  11  26  45  72  95 140 184 231 284 338 416
#     4  10  25  44  66 103 134 178 228 281 360 401
#     4  11  24  44  70  98 140 175 237 282 341 410
#     4  11  24  42  69 100 133 179 224 290 343 414
#     4  11  26  45  70 102 134 181 235 282 343 415
#     4  10  26  42  68 100 134 184 224 288 340 408
#     4  11  26  43  74 103 139 174 228 294 349 410
#
# _framework density 20.988233999999999
#
# number of rings (size 3 to 8) (size 9 to 14) (size 15 to 20)
#    0.000    1.333    0.000    3.333   15.556    2.667 
#    0.000    1.111    0.000    0.000    0.000    0.000 
#    0.000    0.000    0.000    0.000    0.000    0.000 
#
# Total GULP energy -100300.417933 kJ/mol
# GULP energy per Si atom -5572.245441 kJ/mol
# Density = 2.094046 g / cm^3
# Si number density = 20.988234 Si / 1000 Ang^3
#
#
#
# Elastic Constant Matrix: (Units=GPa)
#
#
# Indices 1 2 3 4 5 6 
#
# 1 115.7113 55.2277 74.2436 0.0000 -15.1905 0.0000
# 2 55.2277 210.1179 79.7724 0.0000 -20.2862 0.0000
# 3 74.2436 79.7724 177.1329 0.0000 -22.4481 0.0000
# 4 0.0000 0.0000 0.0000 7.0540 0.0000 -15.2475
# 5 -15.1905 -20.2862 -22.4481 0.0000 37.2948 0.0000
# 6 0.0000 0.0000 0.0000 -15.2475 0.0000 -2.9264
#
#
#
# Elastic Compliance Matrix: (Units=1/GPa)
#
#
# Indices 1 2 3 4 5 6 
#
# 1 0.012305 -0.001444 -0.004300 0.000000 0.001639 0.000000
# 2 -0.001444 0.006011 -0.001908 0.000000 0.001533 0.000000
# 3 -0.004300 -0.001908 0.008610 0.000000 0.002394 0.000000
# 4 0.000000 0.000000 0.000000 0.011561 0.000000 -0.060236
# 5 0.001639 0.001533 0.002394 0.000000 0.029756 0.000000
# 6 0.000000 0.000000 0.000000 -0.060236 0.000000 -0.027867
#
#
# Mechanical properties :
#
#
# Convention : Reuss Voigt Hill
#
# Bulk Modulus (GPa) = 86.02785 102.38326 94.20556
# Shear Modulus (GPa) = 83.95950 27.86572 55.91261
#
# Velocity S-wave (km/s) = 6.33166 3.64769 5.16699
# Velocity P-wave (km/s) = 9.72270 8.16260 8.97661
#
# Compressibility (1/GPa) = 0.01162414
#
# Stress axis : x y z
#
# Youngs Moduli (GPa) = 81.26626 166.36234 116.14217
#
# Poissons Ratio (x) = 0.24017 0.49939
# Poissons Ratio (y) = 0.11732 0.22156
# Poissons Ratio (z) = 0.34943 0.31736
#
# Static dielectric constant tensor:
#      x y z
#    x 1.737090 0.000000 0.042600 
#    y 0.000000 1.710830 0.000000 
#    z 0.042600 0.000000 1.698840 
# 
# From -- ./inp_files/40967.got.cif
#   From: 2010.05.17/outbox.cif.g08.bks.cpg/sg10_21_cif.got.tgz:40967.got - 2010.06.03 11:33:40.
