data_PCOD9154716
_publ_section_title
;
Structure prediction by ZEFSAII (Michael W. Deem and Ramdas Pophale) SiO2 
 PCOD9154716
Probable space group: P 2/M
;
_chemical_formula_sum "Si O2"
_cell_formula_units_Z 20
_cell_length_a 24.778616
_cell_length_b 7.870668
_cell_length_c 7.680050
_cell_angle_alpha 90.000000
_cell_angle_beta 36.655481
_cell_angle_gamma 90.000000
_cell_volume 894.187225
_symmetry_space_group_name_H-M "P 2/M"
_symmetry_group_IT_number 10
_symmetry_cell_setting 'monoclinic'
loop_
_space_group_symop_operation_xyz
x,y,z
-x,y,-z
-x,-y,-z
x,-y,z
loop_
_atom_site_type_symbol
_atom_site_label
_atom_site_fract_x
_atom_site_fract_y
_atom_site_fract_z
Si Si1 0.145644 0.203938 0.975262
Si Si2 0.295071 0.311279 0.317883
Si Si3 0.422995 0.000000 0.954003
Si Si4 0.619538 0.000000 0.348941
Si Si5 0.960339 0.702741 0.293436
Si Si6 0.226888 0.744887 0.108731
O O1 0.206326 0.252222 0.651700
O O2 0.153562 0.000000 0.988473
O O3 0.183848 0.313611 0.037182
O O4 0.042194 0.249984 0.207365
O O5 0.322257 0.500000 0.304663
O O6 0.270639 0.322383 0.175100
O O7 0.371356 0.168609 0.150245
O O8 0.530917 0.000000 0.696554
O O9 0.408117 0.000000 0.782860
O O10 0.687741 0.844739 0.190948
O O11 0.937341 0.500000 0.364059
O O12 0.869230 0.807478 0.562986
O O13 0.000000 0.734011 0.000000
#
# Coordination Sequence:
#
# PCOD9154716 Si02
#       6
#     4   4   2   2   4   4
#     4  12  25  40  66 101 136 181 230 277 333 404
#     4  11  23  43  71 101 137 179 226 280 340 402
#     4   9  20  43  70 101 133 176 222 283 344 402
#     4   9  20  41  68  98 132 172 227 277 341 409
#     4  11  24  41  62  93 136 181 225 277 335 397
#     4  11  23  41  67  96 131 181 227 273 333 402
#
# _framework density 22.366679999999999
#
# number of rings (size 3 to 8) (size 9 to 14) (size 15 to 20)
#    0.000    1.200    4.000    1.800    1.400    5.200 
#    0.000   11.000    0.000    1.200    0.000    0.000 
#    0.000    0.000    0.000    0.000    0.000    0.000 
#
# Total GULP energy -111353.833884 kJ/mol
# GULP energy per Si atom -5567.691694 kJ/mol
# Density = 2.231577 g / cm^3
# Si number density = 22.366680 Si / 1000 Ang^3
#
#
#
# Elastic Constant Matrix: (Units=GPa)
#
#
# Indices 1 2 3 4 5 6 
#
# 1 81.7111 17.2492 30.9162 0.0000 0.2856 0.0000
# 2 17.2492 133.6468 61.1781 0.0000 -15.4422 0.0000
# 3 30.9162 61.1781 172.6038 0.0000 -36.1847 0.0000
# 4 0.0000 0.0000 0.0000 -4.8747 0.0000 13.3144
# 5 0.2856 -15.4422 -36.1847 0.0000 45.3374 0.0000
# 6 0.0000 0.0000 0.0000 13.3144 0.0000 5.5444
#
#
#
# Elastic Compliance Matrix: (Units=1/GPa)
#
#
# Indices 1 2 3 4 5 6 
#
# 1 0.013414 -0.000811 -0.002631 0.000000 -0.002461 0.000000
# 2 -0.000811 0.008995 -0.002882 0.000000 0.000769 0.000000
# 3 -0.002631 -0.002882 0.008507 0.000000 0.005825 0.000000
# 4 0.000000 0.000000 0.000000 -0.027138 0.000000 0.065171
# 5 -0.002461 0.000769 0.005825 0.000000 0.026983 0.000000
# 6 0.000000 0.000000 0.000000 0.065171 0.000000 0.023860
#
#
# Mechanical properties :
#
#
# Convention : Reuss Voigt Hill
#
# Bulk Modulus (GPa) = 54.73954 67.40539 61.07247
# Shear Modulus (GPa) = 68.15864 27.77598 47.96731
#
# Velocity S-wave (km/s) = 5.52625 3.52781 4.63599
# Velocity P-wave (km/s) = 8.07751 6.84075 7.48472
#
# Compressibility (1/GPa) = 0.01826833
#
# Stress axis : x y z
#
# Youngs Moduli (GPa) = 74.55170 111.17169 117.54460
#
# Poissons Ratio (x) = 0.09018 0.30925
# Poissons Ratio (y) = 0.06048 0.33873
# Poissons Ratio (z) = 0.19614 0.32037
#
# Static dielectric constant tensor:
#      x y z
#    x 1.841630 0.000000 0.032360 
#    y 0.000000 1.886750 0.000000 
#    z 0.032360 0.000000 1.799810 
# 
# From -- ./inp_files/36621.got.cif
#   From: 2010.05.17/outbox.cif.g08.bks.cpg/sg10_19_cif.got.tgz:36621.got - 2010.06.03 11:33:40.
