data_PCOD9154772
_publ_section_title
;
Structure prediction by ZEFSAII (Michael W. Deem and Ramdas Pophale) SiO2 
 PCOD9154772
Probable space group: P 2/M
;
_chemical_formula_sum "Si O2"
_cell_formula_units_Z 28
_cell_length_a 11.517874
_cell_length_b 14.539588
_cell_length_c 9.323115
_cell_angle_alpha 90.000000
_cell_angle_beta 55.679833
_cell_angle_gamma 90.000000
_cell_volume 1289.474846
_symmetry_space_group_name_H-M "P 2/M"
_symmetry_group_IT_number 10
_symmetry_cell_setting 'monoclinic'
loop_
_space_group_symop_operation_xyz
x,y,z
-x,y,-z
-x,-y,-z
x,-y,z
loop_
_atom_site_type_symbol
_atom_site_label
_atom_site_fract_x
_atom_site_fract_y
_atom_site_fract_z
Si Si1 0.164215 0.204627 0.357344
Si Si2 0.627559 0.602382 0.112232
Si Si3 0.607852 0.242409 0.315725
Si Si4 0.700270 0.604111 0.726582
Si Si5 0.449602 0.108711 0.200886
Si Si6 0.121559 0.898863 0.121911
Si Si7 0.803090 0.901106 0.267062
O O1 0.203541 0.308323 0.375211
O O2 0.285821 0.137261 0.331883
O O3 0.178647 0.183397 0.176980
O O4 0.000000 0.184587 0.500000
O O5 0.653623 0.500000 0.149210
O O6 0.687745 0.680901 0.170426
O O7 0.458127 0.617508 0.222722
O O8 0.680927 0.606284 0.912416
O O9 0.500000 0.289262 0.500000
O O10 0.536860 0.171579 0.251615
O O11 0.703948 0.183896 0.355136
O O12 0.747182 0.500000 0.654516
O O13 0.471581 0.000000 0.210915
O O14 0.500000 0.127634 0.000000
O O15 0.952755 0.895147 0.238108
O O16 0.165126 0.000000 0.150447
O O17 0.165454 0.898085 0.926094
O O18 0.737300 0.000000 0.346100
#
# Coordination Sequence:
#
# PCOD9154772 Si02
#       7
#     4   4   4   4   4   4   4
#     4  12  24  35  57  88 123 152 191 243 308 352
#     4   9  18  36  63  88 111 147 197 248 296 355
#     4  12  24  35  57  88 123 152 191 243 308 352
#     4   9  18  36  63  88 111 147 197 248 296 355
#     4  11  24  42  63  87 118 161 209 253 293 344
#     4   9  19  36  56  77 107 153 201 236 275 343
#     4   9  19  36  56  77 107 153 201 236 275 343
#
# _framework density 21.714267
#
# number of rings (size 3 to 8) (size 9 to 14) (size 15 to 20)
#    0.000    1.857    1.429    5.143    2.000    5.143 
#    0.000    0.000    0.000    0.857    0.000    4.000 
#    0.000    0.000    0.000    0.000    0.000    0.000 
#
# Total GULP energy -156355.212108 kJ/mol
# GULP energy per Si atom -5584.114718 kJ/mol
# Density = 2.166484 g / cm^3
# Si number density = 21.714267 Si / 1000 Ang^3
#
#
#
# Elastic Constant Matrix: (Units=GPa)
#
#
# Indices 1 2 3 4 5 6 
#
# 1 48.0126 24.8976 8.0521 0.0000 -7.3566 0.0000
# 2 24.8976 102.4101 10.2398 0.0000 9.1464 0.0000
# 3 8.0521 10.2398 56.8617 0.0000 1.5744 0.0000
# 4 0.0000 0.0000 0.0000 8.9361 0.0000 -11.7900
# 5 -7.3566 9.1464 1.5744 0.0000 32.1770 0.0000
# 6 0.0000 0.0000 0.0000 -11.7900 0.0000 15.8622
#
#
#
# Elastic Compliance Matrix: (Units=1/GPa)
#
#
# Indices 1 2 3 4 5 6 
#
# 1 0.026016 -0.006771 -0.002686 0.000000 0.008004 0.000000
# 2 -0.006771 0.011954 -0.001058 0.000000 -0.004894 0.000000
# 3 -0.002686 -0.001058 0.018191 0.000000 -0.001203 0.000000
# 4 0.000000 0.000000 0.000000 5.785796 0.000000 4.300460
# 5 0.008004 -0.004894 -0.001203 0.000000 0.034358 0.000000
# 6 0.000000 0.000000 0.000000 4.300460 0.000000 3.259484
#
#
# Mechanical properties :
#
#
# Convention : Reuss Voigt Hill
#
# Bulk Modulus (GPa) = 28.46649 32.62926 30.54788
# Shear Modulus (GPa) = 0.54534 22.33470 11.44002
#
# Velocity S-wave (km/s) = 0.50169 3.21062 2.29780
# Velocity P-wave (km/s) = 3.67064 5.36687 4.59766
#
# Compressibility (1/GPa) = 0.03512902
#
# Stress axis : x y z
#
# Youngs Moduli (GPa) = 38.43769 83.65552 54.97269
#
# Poissons Ratio (x) = 0.56645 0.14768
# Poissons Ratio (y) = 0.26027 0.05818
# Poissons Ratio (z) = 0.10326 0.08853
#
# Static dielectric constant tensor:
#      x y z
#    x 1.799540 0.000000 -0.011420 
#    y 0.000000 1.798800 0.000000 
#    z -0.011420 0.000000 1.833070 
# 
# From -- ./inp_files/25177.got.cif
#   From: 2010.05.17/outbox.cif.g08.bks.cpg/sg10_13_cif.got.tgz:25177.got - 2010.06.03 11:33:40.
