data_PCOD9154452
_publ_section_title
;
Structure prediction by ZEFSAII (Michael W. Deem and Ramdas Pophale) SiO2 
 PCOD9154452
Probable space group: P 2/M
;
_chemical_formula_sum "Si O2"
_cell_formula_units_Z 28
_cell_length_a 11.829269
_cell_length_b 13.474756
_cell_length_c 9.600543
_cell_angle_alpha 90.000000
_cell_angle_beta 63.446981
_cell_angle_gamma 90.000000
_cell_volume 1368.879430
_symmetry_space_group_name_H-M "P 2/M"
_symmetry_group_IT_number 10
_symmetry_cell_setting 'monoclinic'
loop_
_space_group_symop_operation_xyz
x,y,z
-x,y,-z
-x,-y,-z
x,-y,z
loop_
_atom_site_type_symbol
_atom_site_label
_atom_site_fract_x
_atom_site_fract_y
_atom_site_fract_z
Si Si1 0.010778 0.392785 0.827619
Si Si2 0.308651 0.614147 0.627114
Si Si3 0.357490 0.741688 0.857032
Si Si4 0.643753 0.743547 0.654244
Si Si5 0.866505 0.114910 0.642659
Si Si6 0.351508 0.393663 0.107925
Si Si7 0.895800 0.182518 0.937498
O O1 0.969596 0.500000 0.790696
O O2 0.939323 0.289528 0.847380
O O3 0.156822 0.382020 0.706891
O O4 0.000000 0.401946 0.000000
O O5 0.347569 0.500000 0.575756
O O6 0.350233 0.647175 0.758335
O O7 0.355956 0.702848 0.502552
O O8 0.501281 0.779471 0.770716
O O9 0.323292 0.698589 0.026502
O O10 0.236735 0.811825 0.903420
O O11 0.751863 0.819793 0.642054
O O12 0.670791 0.641844 0.724489
O O13 0.878117 0.120661 0.805147
O O14 0.000000 0.147215 0.500000
O O15 0.845912 0.000000 0.615413
O O16 0.294596 0.500000 0.105242
O O17 0.500000 0.403418 0.000000
O O18 0.000000 0.156637 0.000000
#
# Coordination Sequence:
#
# PCOD9154452 Si02
#       7
#     4   4   4   4   4   4   4
#     4   9  17  31  53  85 124 166 208 246 294 360
#     4  11  21  35  59  94 136 179 216 256 304 368
#     4  11  21  36  61  93 130 173 207 253 308 371
#     4  11  23  40  61  91 130 164 218 261 317 378
#     4  11  26  48  72  92 119 162 211 271 340 394
#     4   9  18  33  55  85 126 171 209 244 294 369
#     4  11  21  40  67  96 125 164 210 259 316 380
#
# _framework density 20.454687
#
# number of rings (size 3 to 8) (size 9 to 14) (size 15 to 20)
#    0.000    1.571    4.286    2.143    0.000    3.143 
#    0.000    1.429    0.000    4.714    0.000    0.000 
#    0.000    0.000    0.000    0.000    0.000    0.000 
#
# Total GULP energy -155870.276108 kJ/mol
# GULP energy per Si atom -5566.795575 kJ/mol
# Density = 2.040813 g / cm^3
# Si number density = 20.454687 Si / 1000 Ang^3
#
#
#
# Elastic Constant Matrix: (Units=GPa)
#
#
# Indices 1 2 3 4 5 6 
#
# 1 135.4180 25.2701 26.0493 0.0000 -37.2468 0.0000
# 2 25.2701 54.9477 8.8237 0.0000 -15.0918 0.0000
# 3 26.0493 8.8237 48.3189 0.0000 -11.4595 0.0000
# 4 0.0000 0.0000 0.0000 22.7304 0.0000 2.1225
# 5 -37.2468 -15.0918 -11.4595 0.0000 36.7322 0.0000
# 6 0.0000 0.0000 0.0000 2.1225 0.0000 14.1200
#
#
#
# Elastic Compliance Matrix: (Units=1/GPa)
#
#
# Indices 1 2 3 4 5 6 
#
# 1 0.010935 -0.001953 -0.003347 0.000000 0.009241 0.000000
# 2 -0.001953 0.021023 -0.001304 0.000000 0.006250 0.000000
# 3 -0.003347 -0.001304 0.023549 0.000000 0.003417 0.000000
# 4 0.000000 0.000000 0.000000 0.044620 0.000000 -0.006707
# 5 0.009241 0.006250 0.003417 0.000000 0.040229 0.000000
# 6 0.000000 0.000000 0.000000 -0.006707 0.000000 0.071830
#
#
# Mechanical properties :
#
#
# Convention : Reuss Voigt Hill
#
# Bulk Modulus (GPa) = 23.64098 39.88564 31.76331
# Shear Modulus (GPa) = 20.87745 26.61929 23.74837
#
# Velocity S-wave (km/s) = 3.19826 3.61138 3.41108
# Velocity P-wave (km/s) = 5.02208 6.07711 5.57461
#
# Compressibility (1/GPa) = 0.04229942
#
# Stress axis : x y z
#
# Youngs Moduli (GPa) = 91.45296 47.56592 42.46535
#
# Poissons Ratio (x) = 0.09290 0.14211
# Poissons Ratio (y) = 0.17862 0.05537
# Poissons Ratio (z) = 0.30606 0.06202
#
# Static dielectric constant tensor:
#      x y z
#    x 1.870270 0.000000 -0.000130 
#    y 0.000000 1.782030 0.000000 
#    z -0.000130 0.000000 1.710000 
# 
# From -- ./inp_files/25158.got.cif
#   From: 2010.05.17/outbox.cif.g08.bks.cpg/sg10_13_cif.got.tgz:25158.got - 2010.06.03 11:33:40.
