data_PCOD9154505
_publ_section_title
;
Structure prediction by ZEFSAII (Michael W. Deem and Ramdas Pophale) SiO2 
 PCOD9154505
Probable space group: P 2/M
;
_chemical_formula_sum "Si O2"
_cell_formula_units_Z 28
_cell_length_a 11.211527
_cell_length_b 16.348335
_cell_length_c 9.222649
_cell_angle_alpha 90.000000
_cell_angle_beta 118.182122
_cell_angle_gamma 90.000000
_cell_volume 1490.019943
_symmetry_space_group_name_H-M "P 2/M"
_symmetry_group_IT_number 10
_symmetry_cell_setting 'monoclinic'
loop_
_space_group_symop_operation_xyz
x,y,z
-x,y,-z
-x,-y,-z
x,-y,z
loop_
_atom_site_type_symbol
_atom_site_label
_atom_site_fract_x
_atom_site_fract_y
_atom_site_fract_z
Si Si1 0.338552 0.643863 0.414623
Si Si2 0.368143 0.829314 0.521589
Si Si3 0.131988 0.094121 0.223971
Si Si4 0.153154 0.350391 0.023476
Si Si5 0.632977 0.905529 0.174903
Si Si6 0.882204 0.500000 0.213083
Si Si7 0.156186 0.166581 0.927370
Si Si8 0.807031 0.500000 0.503103
O O1 0.500000 0.628478 0.500000
O O2 0.322800 0.736526 0.463093
O O3 0.260614 0.636716 0.215605
O O4 0.270190 0.579443 0.482562
O O5 0.500000 0.844078 0.500000
O O6 0.249956 0.889238 0.403403
O O7 0.394502 0.848610 0.703167
O O8 0.002908 0.149701 0.186545
O O9 0.089633 0.000000 0.197960
O O10 0.185232 0.120323 0.095918
O O11 0.156422 0.421453 0.905612
O O12 0.180249 0.262182 0.967698
O O13 0.000000 0.349356 0.000000
O O14 0.756014 0.870621 0.150546
O O15 0.659310 0.000000 0.232742
O O16 0.500000 0.904974 0.000000
O O17 0.816786 0.500000 0.334939
O O18 0.043195 0.500000 0.339431
#
# Coordination Sequence:
#
# PCOD9154505 Si02
#       8
#     4   4   4   4   4   2   4   2
#     4  11  24  43  68  97 131 168 217 268 323 386
#     4  11  24  42  64  94 126 172 219 263 325 395
#     4  11  21  38  63  92 127 166 216 272 317 379
#     4  12  21  44  69  98 129 177 218 260 322 397
#     4  11  25  42  63  91 130 176 219 270 326 382
#     4  11  26  40  72 102 132 168 213 264 325 387
#     4  11  22  39  63  95 127 166 218 262 324 379
#     4  11  24  45  66 103 134 167 210 270 323 387
#
# _framework density 18.791695000000001
#
# number of rings (size 3 to 8) (size 9 to 14) (size 15 to 20)
#    0.000    0.857    4.286    3.857    4.000    2.857 
#    0.000    2.857    0.000    0.000    0.000    0.000 
#    0.000    0.000    0.000    0.000    0.000    0.000 
#
# Total GULP energy -156517.127264 kJ/mol
# GULP energy per Si atom -5589.897402 kJ/mol
# Density = 1.874892 g / cm^3
# Si number density = 18.791695 Si / 1000 Ang^3
#
#
#
# Elastic Constant Matrix: (Units=GPa)
#
#
# Indices 1 2 3 4 5 6 
#
# 1 92.1375 49.7406 54.9377 0.0000 -17.3936 0.0000
# 2 49.7406 105.8749 57.6391 0.0000 -10.0457 0.0000
# 3 54.9377 57.6391 125.9538 0.0000 -0.6113 0.0000
# 4 0.0000 0.0000 0.0000 33.9451 0.0000 19.2352
# 5 -17.3936 -10.0457 -0.6113 0.0000 30.0198 0.0000
# 6 0.0000 0.0000 0.0000 19.2352 0.0000 67.2920
#
#
#
# Elastic Compliance Matrix: (Units=1/GPa)
#
#
# Indices 1 2 3 4 5 6 
#
# 1 0.018636 -0.004646 -0.005958 0.000000 0.009122 0.000000
# 2 -0.004646 0.014261 -0.004490 0.000000 0.001989 0.000000
# 3 -0.005958 -0.004490 0.012570 0.000000 -0.004699 0.000000
# 4 0.000000 0.000000 0.000000 0.035153 0.000000 -0.010048
# 5 0.009122 0.001989 -0.004699 0.000000 0.039166 0.000000
# 6 0.000000 0.000000 0.000000 -0.010048 0.000000 0.017733
#
#
# Mechanical properties :
#
#
# Convention : Reuss Voigt Hill
#
# Bulk Modulus (GPa) = 65.45058 72.06677 68.75867
# Shear Modulus (GPa) = 28.93498 37.02797 32.98147
#
# Velocity S-wave (km/s) = 3.92825 4.44378 4.19395
# Velocity P-wave (km/s) = 7.44849 8.04756 7.75381
#
# Compressibility (1/GPa) = 0.01527870
#
# Stress axis : x y z
#
# Youngs Moduli (GPa) = 53.65906 70.12149 79.55415
#
# Poissons Ratio (x) = 0.32580 0.47399
# Poissons Ratio (y) = 0.24931 0.35719
# Poissons Ratio (z) = 0.31971 0.31484
#
# Static dielectric constant tensor:
#      x y z
#    x 1.628220 0.000000 0.015600 
#    y 0.000000 1.634280 0.000000 
#    z 0.015600 0.000000 1.648000 
# 
# From -- ./inp_files/25461.got.cif
#   From: 2010.05.17/outbox.cif.g08.bks.cpg/sg10_13_cif.got.tgz:25461.got - 2010.06.03 11:33:40.
