data_PCOD9154311
_publ_section_title
;
Structure prediction by ZEFSAII (Michael W. Deem and Ramdas Pophale) SiO2 
 PCOD9154311
Probable space group: P 2/M
;
_chemical_formula_sum "Si O2"
_cell_formula_units_Z 24
_cell_length_a 15.752223
_cell_length_b 10.458940
_cell_length_c 15.766953
_cell_angle_alpha 90.000000
_cell_angle_beta 27.040418
_cell_angle_gamma 90.000000
_cell_volume 1180.931776
_symmetry_space_group_name_H-M "P 2/M"
_symmetry_group_IT_number 10
_symmetry_cell_setting 'monoclinic'
loop_
_space_group_symop_operation_xyz
x,y,z
-x,y,-z
-x,-y,-z
x,-y,z
loop_
_atom_site_type_symbol
_atom_site_label
_atom_site_fract_x
_atom_site_fract_y
_atom_site_fract_z
Si Si1 0.699341 0.142164 0.274705
Si Si2 0.900948 0.645544 0.201398
Si Si3 0.717988 0.349103 0.905054
Si Si4 0.733887 0.649296 0.706055
Si Si5 0.705933 0.276105 0.098867
Si Si6 0.278419 0.350123 0.465016
O O1 0.500000 0.153514 0.500000
O O2 0.824877 0.254002 0.201814
O O3 0.685203 0.162283 0.185630
O O4 0.772300 0.000000 0.227680
O O5 0.835459 0.500000 0.243050
O O6 0.819524 0.696090 0.363267
O O7 0.123060 0.643859 0.015153
O O8 0.771141 0.500000 0.872132
O O9 0.792620 0.303033 0.746880
O O10 0.492625 0.349532 0.095969
O O11 0.758173 0.265226 0.952498
O O12 0.788621 0.500000 0.657938
O O13 0.785156 0.707054 0.568861
O O14 0.501057 0.338413 0.278509
O O15 0.233300 0.500000 0.500546
#
# Coordination Sequence:
#
# PCOD9154311 Si02
#       6
#     4   4   4   4   4   4
#     4  11  25  45  62  79 106 145 189 232 282 338
#     4  11  23  36  57  88 115 144 184 227 276 331
#     4   8  13  23  44  75 108 144 181 215 258 318
#     4   7  11  22  42  69 107 151 182 208 257 314
#     4  11  20  34  56  79 108 146 181 228 272 325
#     4   9  17  31  50  78 116 152 182 221 267 318
#
# _framework density 20.322935000000001
#
# number of rings (size 3 to 8) (size 9 to 14) (size 15 to 20)
#    0.000    2.500    1.667    4.000    0.000    4.333 
#    0.000    0.833    0.000    4.000    0.000   10.500 
#    0.000    2.667    0.000    0.000    0.000    0.000 
#
# Total GULP energy -133603.667369 kJ/mol
# GULP energy per Si atom -5566.819474 kJ/mol
# Density = 2.027668 g / cm^3
# Si number density = 20.322935 Si / 1000 Ang^3
#
#
#
# Elastic Constant Matrix: (Units=GPa)
#
#
# Indices 1 2 3 4 5 6 
#
# 1 155.6756 50.1300 65.4339 0.0000 33.3239 0.0000
# 2 50.1300 57.3543 16.0098 0.0000 10.7514 0.0000
# 3 65.4339 16.0098 73.7422 0.0000 20.0411 0.0000
# 4 0.0000 0.0000 0.0000 7.4210 0.0000 -4.5963
# 5 33.3239 10.7514 20.0411 0.0000 52.7549 0.0000
# 6 0.0000 0.0000 0.0000 -4.5963 0.0000 16.0011
#
#
#
# Elastic Compliance Matrix: (Units=1/GPa)
#
#
# Indices 1 2 3 4 5 6 
#
# 1 0.014098 -0.008995 -0.009629 0.000000 -0.003414 0.000000
# 2 -0.008995 0.024602 0.002742 0.000000 -0.000374 0.000000
# 3 -0.009629 0.002742 0.022312 0.000000 -0.002952 0.000000
# 4 0.000000 0.000000 0.000000 0.163915 0.000000 0.047084
# 5 -0.003414 -0.000374 -0.002952 0.000000 0.022310 0.000000
# 6 0.000000 0.000000 0.000000 0.047084 0.000000 0.076020
#
#
# Mechanical properties :
#
#
# Convention : Reuss Voigt Hill
#
# Bulk Modulus (GPa) = 34.19034 61.10218 47.64626
# Shear Modulus (GPa) = 13.70720 25.58196 19.64458
#
# Velocity S-wave (km/s) = 2.59987 3.55177 3.11243
# Velocity P-wave (km/s) = 5.08650 6.85208 6.03421
#
# Compressibility (1/GPa) = 0.02924803
#
# Stress axis : x y z
#
# Youngs Moduli (GPa) = 70.93102 40.64733 44.81850
#
# Poissons Ratio (x) = 0.36560 0.43156
# Poissons Ratio (y) = 0.63799 -0.12287
# Poissons Ratio (z) = 0.68300 -0.11144
#
# Static dielectric constant tensor:
#      x y z
#    x 1.804780 0.000000 0.046100 
#    y 0.000000 1.652140 0.000000 
#    z 0.046100 0.000000 1.819050 
# 
# From -- ./inp_files/67237.got.cif
#   From: 2010.05.17/outbox.cif.g08.bks.cpg/sg10_34_cif.got.tgz:67237.got - 2010.06.03 11:33:40.
