data_PCOD9154058
_publ_section_title
;
Structure prediction by ZEFSAII (Michael W. Deem and Ramdas Pophale) SiO2 
 PCOD9154058
Probable space group: P 2/M
;
_chemical_formula_sum "Si O2"
_cell_formula_units_Z 24
_cell_length_a 8.451311
_cell_length_b 12.201762
_cell_length_c 21.858187
_cell_angle_alpha 90.000000
_cell_angle_beta 148.633716
_cell_angle_gamma 90.000000
_cell_volume 1173.241904
_symmetry_space_group_name_H-M "P 2/M"
_symmetry_group_IT_number 10
_symmetry_cell_setting 'monoclinic'
loop_
_space_group_symop_operation_xyz
x,y,z
-x,y,-z
-x,-y,-z
x,-y,z
loop_
_atom_site_type_symbol
_atom_site_label
_atom_site_fract_x
_atom_site_fract_y
_atom_site_fract_z
Si Si1 0.160841 0.880911 0.912069
Si Si2 0.659340 0.236374 0.698159
Si Si3 0.949202 0.371814 0.257486
Si Si4 0.717413 0.276616 0.941965
Si Si5 0.223521 0.800107 0.444785
Si Si6 0.567292 0.873240 0.254454
O O1 0.910271 0.861762 0.777013
O O2 0.123554 0.000000 0.928643
O O3 0.500000 0.876666 0.000000
O O4 0.140954 0.781194 0.952175
O O5 0.380990 0.236417 0.559505
O O6 0.513755 0.208222 0.716014
O O7 0.876001 0.336643 0.747493
O O8 0.986306 0.500000 0.280294
O O9 0.588409 0.342170 0.140828
O O10 0.110111 0.299996 0.364008
O O11 0.600650 0.177842 0.859709
O O12 0.000000 0.333886 0.000000
O O13 0.500000 0.856803 0.500000
O O14 0.925366 0.868129 0.360072
O O15 0.489917 0.000000 0.241096
#
# Coordination Sequence:
#
# PCOD9154058 Si02
#       6
#     4   4   4   4   4   4
#     4  11  22  37  61  91 130 171 203 245 302 370
#     4  11  21  38  61  91 123 159 208 254 303 367
#     4  10  23  45  68  88 117 162 212 269 323 361
#     4  11  22  40  63  92 129 162 210 254 305 374
#     4   9  22  41  62  89 123 160 208 259 307 366
#     4  11  23  38  62  93 131 170 203 249 306 371
#
# _framework density 20.456137999999999
#
# number of rings (size 3 to 8) (size 9 to 14) (size 15 to 20)
#    0.000    1.500    3.333    1.500    0.000    6.333 
#    0.000    7.500    0.000    8.000    0.000    0.000 
#    0.000    0.000    0.000    0.000    0.000    0.000 
#
# Total GULP energy -133649.866098 kJ/mol
# GULP energy per Si atom -5568.744421 kJ/mol
# Density = 2.040958 g / cm^3
# Si number density = 20.456138 Si / 1000 Ang^3
#
#
#
# Elastic Constant Matrix: (Units=GPa)
#
#
# Indices 1 2 3 4 5 6 
#
# 1 105.3561 41.0178 39.1359 0.0000 27.7082 0.0000
# 2 41.0178 71.6045 17.3859 0.0000 -4.1997 0.0000
# 3 39.1359 17.3859 108.2177 0.0000 23.7402 0.0000
# 4 0.0000 0.0000 0.0000 7.3006 0.0000 5.3024
# 5 27.7082 -4.1997 23.7402 0.0000 49.6641 0.0000
# 6 0.0000 0.0000 0.0000 5.3024 0.0000 42.1407
#
#
#
# Elastic Compliance Matrix: (Units=1/GPa)
#
#
# Indices 1 2 3 4 5 6 
#
# 1 0.016302 -0.009239 -0.002508 0.000000 -0.008678 0.000000
# 2 -0.009239 0.020080 -0.001551 0.000000 0.007594 0.000000
# 3 -0.002508 -0.001551 0.011304 0.000000 -0.004136 0.000000
# 4 0.000000 0.000000 0.000000 0.150751 0.000000 -0.018968
# 5 -0.008678 0.007594 -0.004136 0.000000 0.027596 0.000000
# 6 0.000000 0.000000 0.000000 -0.018968 0.000000 0.026117
#
#
# Mechanical properties :
#
#
# Convention : Reuss Voigt Hill
#
# Bulk Modulus (GPa) = 47.41167 53.36194 50.38681
# Shear Modulus (GPa) = 17.49634 32.33033 24.91334
#
# Velocity S-wave (km/s) = 2.92774 3.97983 3.49361
# Velocity P-wave (km/s) = 5.88697 6.87469 6.39991
#
# Compressibility (1/GPa) = 0.02109186
#
# Stress axis : x y z
#
# Youngs Moduli (GPa) = 61.34168 49.80143 88.46544
#
# Poissons Ratio (x) = 0.46010 0.22184
# Poissons Ratio (y) = 0.56671 0.13719
# Poissons Ratio (z) = 0.15382 0.07723
#
# Static dielectric constant tensor:
#      x y z
#    x 1.807240 0.000000 0.013620 
#    y 0.000000 1.678460 0.000000 
#    z 0.013620 0.000000 1.747030 
# 
# From -- ./inp_files/88038.got.cif
#   From: 2010.05.17/outbox.cif.g08.bks.cpg/sg10_45_cif.got.tgz:88038.got - 2010.06.03 11:33:40.
