data_PCOD9154392
_publ_section_title
;
Structure prediction by ZEFSAII (Michael W. Deem and Ramdas Pophale) SiO2 
 PCOD9154392
Probable space group: P 2/M
;
_chemical_formula_sum "Si O2"
_cell_formula_units_Z 32
_cell_length_a 19.116920
_cell_length_b 13.641588
_cell_length_c 22.031493
_cell_angle_alpha 90.000000
_cell_angle_beta 159.867124
_cell_angle_gamma 90.000000
_cell_volume 1977.587621
_symmetry_space_group_name_H-M "P 2/M"
_symmetry_group_IT_number 10
_symmetry_cell_setting 'monoclinic'
loop_
_space_group_symop_operation_xyz
x,y,z
-x,y,-z
-x,-y,-z
x,-y,z
loop_
_atom_site_type_symbol
_atom_site_label
_atom_site_fract_x
_atom_site_fract_y
_atom_site_fract_z
Si Si1 0.291059 0.114321 0.791058
Si Si2 0.069453 0.111618 0.993150
Si Si3 0.628811 0.384170 0.042938
Si Si4 0.340545 0.111618 0.416848
Si Si5 0.196866 0.111995 0.429026
Si Si6 0.593530 0.242989 0.229494
Si Si7 0.001424 0.242990 0.365460
Si Si8 0.393344 0.888005 0.161184
O O1 0.324414 0.168077 0.754607
O O2 0.114993 0.168078 0.684799
O O3 0.245773 0.000000 0.745774
O O4 0.500000 0.122693 0.000000
O O5 0.869435 0.105991 0.789812
O O6 0.140257 0.000000 0.066052
O O7 0.243674 0.152145 0.091478
O O8 0.000000 0.158654 0.000000
O O9 0.648610 0.500000 0.049536
O O10 0.846605 0.332022 0.228683
O O11 0.500000 0.368156 0.000000
O O12 0.507163 0.332022 0.889241
O O13 0.500000 0.158654 0.500000
O O14 0.287084 0.152145 0.439281
O O15 0.417645 0.000000 0.491849
O O16 0.385537 0.104178 0.628513
O O17 0.042774 0.184328 0.336676
O O18 0.118808 0.000000 0.355256
O O19 0.424477 0.184328 0.130576
O O20 0.784170 0.270726 0.428056
O O21 0.328151 0.000000 0.091703
#
# Coordination Sequence:
#
# PCOD9154392 Si02
#       8
#     4   4   4   4   4   4   4   4
#     4  11  21  33  51  75 107 142 173 204 242 296
#     4   9  16  25  39  60  91 135 176 205 235 275
#     4  11  24  42  58  76 100 126 168 222 274 320
#     4   9  16  25  39  60  91 135 176 205 235 275
#     4   9  18  30  45  69 101 136 170 205 242 290
#     4  11  21  36  55  76 102 134 170 211 258 305
#     4  11  21  36  55  76 102 134 170 211 258 305
#     4   9  18  30  45  69 101 136 170 205 242 290
#
# _framework density 16.181331
#
# number of rings (size 3 to 8) (size 9 to 14) (size 15 to 20)
#    0.000    2.000    2.500    1.875    1.750    5.500 
#    0.000    1.250    0.000    0.000    0.000    0.000 
#    0.000    1.000    0.500    0.000    0.000    0.000 
#
# Total GULP energy -178376.549463 kJ/mol
# GULP energy per Si atom -5574.267171 kJ/mol
# Density = 1.614450 g / cm^3
# Si number density = 16.181331 Si / 1000 Ang^3
#
#
#
# Elastic Constant Matrix: (Units=GPa)
#
#
# Indices 1 2 3 4 5 6 
#
# 1 144.2036 52.2532 22.7348 0.0000 17.3140 0.0000
# 2 52.2532 88.9306 36.3693 0.0000 3.7749 0.0000
# 3 22.7348 36.3693 71.1478 0.0000 0.0488 0.0000
# 4 0.0000 0.0000 0.0000 5.2929 0.0000 -0.4984
# 5 17.3140 3.7749 0.0488 0.0000 28.4144 0.0000
# 6 0.0000 0.0000 0.0000 -0.4984 0.0000 3.1958
#
#
#
# Elastic Compliance Matrix: (Units=1/GPa)
#
#
# Indices 1 2 3 4 5 6 
#
# 1 0.009492 -0.005212 -0.000366 0.000000 -0.005091 0.000000
# 2 -0.005212 0.017179 -0.007117 0.000000 0.000906 0.000000
# 3 -0.000366 -0.007117 0.017809 0.000000 0.001138 0.000000
# 4 0.000000 0.000000 0.000000 0.191749 0.000000 0.029905
# 5 -0.005091 0.000906 0.001138 0.000000 0.038173 0.000000
# 6 0.000000 0.000000 0.000000 0.029905 0.000000 0.317570
#
#
# Mechanical properties :
#
#
# Convention : Reuss Voigt Hill
#
# Bulk Modulus (GPa) = 52.37730 58.55518 55.46624
# Shear Modulus (GPa) = 8.01635 20.24227 14.12931
#
# Velocity S-wave (km/s) = 2.22819 3.54073 2.95818
# Velocity P-wave (km/s) = 6.24972 7.27882 6.78381
#
# Compressibility (1/GPa) = 0.01909224
#
# Stress axis : x y z
#
# Youngs Moduli (GPa) = 105.35198 58.21051 56.15063
#
# Poissons Ratio (x) = 0.30337 0.02052
# Poissons Ratio (y) = 0.54906 0.39961
# Poissons Ratio (z) = 0.03851 0.41427
#
# Static dielectric constant tensor:
#      x y z
#    x 1.577190 0.000000 0.001330 
#    y 0.000000 1.512980 0.000000 
#    z 0.001330 0.000000 1.571610 
# 
# From -- ./inp_files/85957.got.cif
#   From: 2010.05.17/outbox.cif.g08.bks.cpg/sg10_43_cif.got.tgz:85957.got - 2010.06.03 11:33:40.
