data_PCOD9154626
_publ_section_title
;
Structure prediction by ZEFSAII (Michael W. Deem and Ramdas Pophale) SiO2 
 PCOD9154626
Probable space group: P 2/M
;
_chemical_formula_sum "Si O2"
_cell_formula_units_Z 28
_cell_length_a 9.218311
_cell_length_b 19.068837
_cell_length_c 15.688925
_cell_angle_alpha 90.000000
_cell_angle_beta 149.786734
_cell_angle_gamma 90.000000
_cell_volume 1387.799351
_symmetry_space_group_name_H-M "P 2/M"
_symmetry_group_IT_number 10
_symmetry_cell_setting 'monoclinic'
loop_
_space_group_symop_operation_xyz
x,y,z
-x,y,-z
-x,-y,-z
x,-y,z
loop_
_atom_site_type_symbol
_atom_site_label
_atom_site_fract_x
_atom_site_fract_y
_atom_site_fract_z
Si Si1 0.832161 0.847712 0.331142
Si Si2 0.863336 0.000000 0.092666
Si Si3 0.170197 0.000000 0.729550
Si Si4 0.175497 0.211939 0.345369
Si Si5 0.808326 0.582177 0.144895
Si Si6 0.817284 0.415870 0.823699
Si Si7 0.134626 0.845015 0.976103
Si Si8 0.307998 0.632127 0.479022
O O1 0.897790 0.930255 0.355817
O O2 0.000000 0.819988 0.500000
O O3 0.971601 0.819027 0.315046
O O4 0.484543 0.837481 0.156451
O O5 0.941638 0.073533 0.087370
O O6 0.959776 0.000000 0.240696
O O7 0.515793 0.000000 0.916894
O O8 0.500000 0.180315 0.500000
O O9 0.235888 0.290419 0.410352
O O10 0.010058 0.201948 0.171828
O O11 0.771234 0.500000 0.108609
O O12 0.982038 0.609553 0.152096
O O13 0.007842 0.592161 0.328354
O O14 0.500000 0.616212 0.000000
O O15 0.762485 0.500000 0.788703
O O16 0.514896 0.375515 0.664110
O O17 0.000000 0.403695 0.000000
O O18 0.000000 0.829188 0.000000
O O19 0.500000 0.597686 0.500000
#
# Coordination Sequence:
#
# PCOD9154626 Si02
#       8
#     4   2   2   4   4   4   4   4
#     4  11  22  39  61  86 117 154 196 243 298 353
#     4   9  17  34  60  91 114 146 186 241 310 361
#     4   9  17  34  60  87 116 148 188 241 300 359
#     4  11  23  40  57  81 116 155 204 243 288 350
#     4   9  17  31  53  82 113 144 183 229 278 333
#     4   9  17  33  59  88 115 146 186 234 290 342
#     4  11  22  39  63  87 117 151 192 248 304 361
#     4   9  19  36  56  79 110 153 193 233 276 340
#
# _framework density 20.175827000000002
#
# number of rings (size 3 to 8) (size 9 to 14) (size 15 to 20)
#    0.000    2.143    1.429    2.143    0.000    2.857 
#    0.000   15.714    0.000    3.429    0.000    0.000 
#    0.000    0.000    0.000    0.000    0.000    0.000 
#
# Total GULP energy -155997.888942 kJ/mol
# GULP energy per Si atom -5571.353176 kJ/mol
# Density = 2.012991 g / cm^3
# Si number density = 20.175827 Si / 1000 Ang^3
#
#
#
# Elastic Constant Matrix: (Units=GPa)
#
#
# Indices 1 2 3 4 5 6 
#
# 1 120.4489 21.3446 75.0457 0.0000 -1.7987 0.0000
# 2 21.3446 34.9206 33.2750 0.0000 -8.8423 0.0000
# 3 75.0457 33.2750 166.9406 0.0000 -8.0418 0.0000
# 4 0.0000 0.0000 0.0000 73.3272 0.0000 44.4733
# 5 -1.7987 -8.8423 -8.0418 0.0000 35.5332 0.0000
# 6 0.0000 0.0000 0.0000 44.4733 0.0000 47.3103
#
#
#
# Elastic Compliance Matrix: (Units=1/GPa)
#
#
# Indices 1 2 3 4 5 6 
#
# 1 0.011777 -0.002971 -0.004761 0.000000 -0.001221 0.000000
# 2 -0.002971 0.038067 -0.005867 0.000000 0.007995 0.000000
# 3 -0.004761 -0.005867 0.009319 0.000000 0.000408 0.000000
# 4 0.000000 0.000000 0.000000 0.031725 0.000000 -0.029823
# 5 -0.001221 0.007995 0.000408 0.000000 0.030163 0.000000
# 6 0.000000 0.000000 0.000000 -0.029823 0.000000 0.049171
#
#
# Mechanical properties :
#
#
# Convention : Reuss Voigt Hill
#
# Bulk Modulus (GPa) = 31.28331 64.62675 47.95503
# Shear Modulus (GPa) = 24.02983 44.07713 34.05348
#
# Velocity S-wave (km/s) = 3.45486 4.67910 4.11278
# Velocity P-wave (km/s) = 5.60836 7.82900 6.80981
#
# Compressibility (1/GPa) = 0.03196593
#
# Stress axis : x y z
#
# Youngs Moduli (GPa) = 84.91383 26.26933 107.30426
#
# Poissons Ratio (x) = 0.07805 0.51083
# Poissons Ratio (y) = 0.25228 0.62955
# Poissons Ratio (z) = 0.40424 0.15412
#
# Static dielectric constant tensor:
#      x y z
#    x 1.733610 0.000000 -0.008770 
#    y 0.000000 1.760420 0.000000 
#    z -0.008770 0.000000 1.777750 
# 
# From -- ./inp_files/30455.got.cif
#   From: 2010.05.17/outbox.cif.g08.bks.cpg/sg10_16_cif.got.tgz:30455.got - 2010.06.03 11:33:40.
