data_PCOD9154894
_publ_section_title
;
Structure prediction by ZEFSAII (Michael W. Deem and Ramdas Pophale) SiO2 
 PCOD9154894
Probable space group: P 2/M
;
_chemical_formula_sum "Si O2"
_cell_formula_units_Z 28
_cell_length_a 12.707842
_cell_length_b 15.060265
_cell_length_c 14.760846
_cell_angle_alpha 90.000000
_cell_angle_beta 149.419568
_cell_angle_gamma 90.000000
_cell_volume 1437.202254
_symmetry_space_group_name_H-M "P 2/M"
_symmetry_group_IT_number 10
_symmetry_cell_setting 'monoclinic'
loop_
_space_group_symop_operation_xyz
x,y,z
-x,y,-z
-x,-y,-z
x,-y,z
loop_
_atom_site_type_symbol
_atom_site_label
_atom_site_fract_x
_atom_site_fract_y
_atom_site_fract_z
Si Si1 0.717674 0.102830 0.217674
Si Si2 0.170954 0.000000 0.298530
Si Si3 0.126246 0.747505 0.787676
Si Si4 0.595438 0.808664 0.713380
Si Si5 0.426107 0.000000 0.298531
Si Si6 0.168676 0.191336 0.286619
Si Si7 0.550895 0.747505 0.212325
Si Si8 0.282039 0.398883 0.782039
O O1 0.875665 0.163001 0.275109
O O2 0.674555 0.163001 0.275110
O O3 0.777612 0.000000 0.277612
O O4 0.500000 0.099801 0.000000
O O5 0.310720 0.000000 0.310720
O O6 0.328639 0.000000 0.500000
O O7 0.060882 0.905689 0.212681
O O8 0.125191 0.660544 0.724671
O O9 0.963106 0.745632 0.747651
O O10 0.350150 0.749266 0.000000
O O11 0.635519 0.905689 0.787318
O O12 0.777012 0.785662 0.777012
O O13 0.390092 0.819128 0.500000
O O14 0.532195 0.745632 0.747650
O O15 0.675849 0.660544 0.275329
O O16 0.220196 0.500000 0.720197
O O17 0.500000 0.401529 0.000000
#
# Coordination Sequence:
#
# PCOD9154894 Si02
#       8
#     4   2   4   4   2   4   4   4
#     4   8  15  27  40  58  90 122 140 169 223 272
#     4   7  12  24  39  54  77 118 162 181 196 241
#     4   9  17  28  46  70  88 112 151 186 221 266
#     4   9  17  29  44  62  90 126 155 182 219 260
#     4   7  12  24  39  54  77 118 162 181 196 241
#     4   9  17  29  44  62  90 126 155 182 219 260
#     4   9  17  28  46  70  88 112 151 186 221 266
#     4   8  15  31  52  70  89 113 144 185 231 274
#
# _framework density 19.482295000000001
#
# number of rings (size 3 to 8) (size 9 to 14) (size 15 to 20)
#    0.000    3.571    0.000    3.429    2.000    0.571 
#    0.000    2.857    0.000    6.000    0.000    6.000 
#    0.000    0.000    0.000    0.000    0.000    0.000 
#
# Total GULP energy -155873.530407 kJ/mol
# GULP energy per Si atom -5566.911800 kJ/mol
# Density = 1.943795 g / cm^3
# Si number density = 19.482295 Si / 1000 Ang^3
#
#
#
# Elastic Constant Matrix: (Units=GPa)
#
#
# Indices 1 2 3 4 5 6 
#
# 1 160.7123 85.3738 -0.1594 0.0000 -3.8285 0.0000
# 2 85.3738 149.3004 9.0189 0.0000 -2.3263 0.0000
# 3 -0.1594 9.0189 49.6792 0.0000 0.4456 0.0000
# 4 0.0000 0.0000 0.0000 1.7428 0.0000 -0.3788
# 5 -3.8285 -2.3263 0.4456 0.0000 17.7360 0.0000
# 6 0.0000 0.0000 0.0000 -0.3788 0.0000 14.1761
#
#
#
# Elastic Compliance Matrix: (Units=1/GPa)
#
#
# Indices 1 2 3 4 5 6 
#
# 1 0.009010 -0.005191 0.000960 0.000000 0.001240 0.000000
# 2 -0.005191 0.009778 -0.001794 0.000000 0.000207 0.000000
# 3 0.000960 -0.001794 0.020463 0.000000 -0.000542 0.000000
# 4 0.000000 0.000000 0.000000 0.577148 0.000000 0.015422
# 5 0.001240 0.000207 -0.000542 0.000000 0.056691 0.000000
# 6 0.000000 0.000000 0.000000 0.015422 0.000000 0.070953
#
#
# Mechanical properties :
#
#
# Convention : Reuss Voigt Hill
#
# Bulk Modulus (GPa) = 36.76203 60.90651 48.83427
# Shear Modulus (GPa) = 6.53458 24.42822 15.48140
#
# Velocity S-wave (km/s) = 1.83341 3.54484 2.82199
# Velocity P-wave (km/s) = 4.83656 6.93433 5.97818
#
# Compressibility (1/GPa) = 0.02720198
#
# Stress axis : x y z
#
# Youngs Moduli (GPa) = 110.98305 102.27188 48.86940
#
# Poissons Ratio (x) = 0.53090 -0.04692
# Poissons Ratio (y) = 0.57612 0.08765
# Poissons Ratio (z) = -0.10656 0.18344
#
# Static dielectric constant tensor:
#      x y z
#    x 1.711310 0.000000 0.001250 
#    y 0.000000 1.691260 0.000000 
#    z 0.001250 0.000000 1.752330 
# 
# From -- ./inp_files/29632.got.cif
#   From: 2010.05.17/outbox.cif.g08.bks.cpg/sg10_15_cif.got.tgz:29632.got - 2010.06.03 11:33:40.
