data_PCOD9154183
_publ_section_title
;
Structure prediction by ZEFSAII (Michael W. Deem and Ramdas Pophale) SiO2 
 PCOD9154183
Probable space group: P 2/M
;
_chemical_formula_sum "Si O2"
_cell_formula_units_Z 26
_cell_length_a 7.356329
_cell_length_b 13.701816
_cell_length_c 12.484028
_cell_angle_alpha 90.000000
_cell_angle_beta 55.550805
_cell_angle_gamma 90.000000
_cell_volume 1037.652990
_symmetry_space_group_name_H-M "P 2/M"
_symmetry_group_IT_number 10
_symmetry_cell_setting 'monoclinic'
loop_
_space_group_symop_operation_xyz
x,y,z
-x,y,-z
-x,-y,-z
x,-y,z
loop_
_atom_site_type_symbol
_atom_site_label
_atom_site_fract_x
_atom_site_fract_y
_atom_site_fract_z
Si Si1 0.186259 0.500000 0.845269
Si Si2 0.611537 0.845701 0.138004
Si Si3 0.218803 0.106528 0.137249
Si Si4 0.837160 0.340870 0.636576
Si Si5 0.836720 0.829255 0.398747
Si Si6 0.350614 0.692393 0.713315
Si Si7 0.622046 0.500000 0.844438
Si Si8 0.407974 0.000000 0.375112
O O1 0.204674 0.595363 0.765185
O O2 0.418116 0.500000 0.830507
O O3 0.000000 0.500000 0.000000
O O4 0.389880 0.823108 0.141610
O O5 0.715351 0.752494 0.158873
O O6 0.530084 0.915774 0.259987
O O7 0.770559 0.884543 0.992830
O O8 0.977347 0.112500 0.263463
O O9 0.308389 0.000000 0.138688
O O10 0.611184 0.322048 0.646386
O O11 0.766221 0.405209 0.762956
O O12 0.000000 0.394770 0.500000
O O13 0.975408 0.242171 0.615112
O O14 0.308744 0.756506 0.623325
O O15 0.720242 0.911383 0.511516
O O16 0.500000 0.500000 0.000000
#
# Coordination Sequence:
#
# PCOD9154183 Si02
#       8
#     2   4   4   4   4   4   2   2
#     4  10  26  49  79 110 160 198 245 324 409 450
#     4  11  23  43  76 100 159 199 257 313 380 457
#     4  11  22  45  68 112 146 212 252 315 393 454
#     4  11  25  49  76 110 156 203 246 318 397 457
#     4  12  28  43  78 111 157 201 264 309 397 456
#     4  11  27  49  73 119 149 201 257 327 378 472
#     4  10  25  47  83 121 146 190 267 320 379 470
#     4  12  26  47  72 115 152 209 258 326 375 464
#
# _framework density 25.056543999999999
#
# number of rings (size 3 to 8) (size 9 to 14) (size 15 to 20)
#    0.000    0.923    3.846    1.615    4.308    5.538 
#    0.000    1.538    0.000    7.385    0.000    0.000 
#    0.000    0.000    0.000    0.000    0.000    0.000 
#
# Total GULP energy -144761.093740 kJ/mol
# GULP energy per Si atom -5567.734375 kJ/mol
# Density = 2.499951 g / cm^3
# Si number density = 25.056544 Si / 1000 Ang^3
#
#
#
# Elastic Constant Matrix: (Units=GPa)
#
#
# Indices 1 2 3 4 5 6 
#
# 1 96.0219 43.6914 35.5474 0.0000 -6.0693 0.0000
# 2 43.6914 179.8024 78.6138 0.0000 9.3585 0.0000
# 3 35.5474 78.6138 216.2162 0.0000 26.3131 0.0000
# 4 0.0000 0.0000 0.0000 22.6785 0.0000 11.2689
# 5 -6.0693 9.3585 26.3131 0.0000 23.3511 0.0000
# 6 0.0000 0.0000 0.0000 11.2689 0.0000 14.0790
#
#
#
# Elastic Compliance Matrix: (Units=1/GPa)
#
#
# Indices 1 2 3 4 5 6 
#
# 1 0.012723 -0.002580 -0.001949 0.000000 0.006537 0.000000
# 2 -0.002580 0.007136 -0.002018 0.000000 -0.001257 0.000000
# 3 -0.001949 -0.002018 0.006539 0.000000 -0.007067 0.000000
# 4 0.000000 0.000000 0.000000 0.073213 0.000000 -0.058600
# 5 0.006537 -0.001257 -0.007067 0.000000 0.052990 0.000000
# 6 0.000000 0.000000 0.000000 -0.058600 0.000000 0.117932
#
#
# Mechanical properties :
#
#
# Convention : Reuss Voigt Hill
#
# Bulk Modulus (GPa) = 75.15981 89.74954 82.45467
# Shear Modulus (GPa) = 17.35744 34.30093 25.82919
#
# Velocity S-wave (km/s) = 2.63483 3.70393 3.21415
# Velocity P-wave (km/s) = 6.27038 7.36130 6.83763
#
# Compressibility (1/GPa) = 0.01330498
#
# Stress axis : x y z
#
# Youngs Moduli (GPa) = 78.59836 140.13439 152.92792
#
# Poissons Ratio (x) = 0.36148 0.29812
# Poissons Ratio (y) = 0.20275 0.30853
# Poissons Ratio (z) = 0.15322 0.28272
#
# Static dielectric constant tensor:
#      x y z
#    x 2.074340 0.000000 -0.034090 
#    y 0.000000 2.034330 0.000000 
#    z -0.034090 0.000000 2.063880 
# 
# From -- ./inp_files/76839.got.cif
#   From: 2010.05.17/outbox.cif.g08.bks.cpg/sg10_39_cif.got.tgz:76839.got - 2010.06.03 11:33:40.
