data_PCOD9154491
_publ_section_title
;
Structure prediction by ZEFSAII (Michael W. Deem and Ramdas Pophale) SiO2 
 PCOD9154491
Probable space group: P 2/M
;
_chemical_formula_sum "Si O2"
_cell_formula_units_Z 25
_cell_length_a 8.795333
_cell_length_b 15.078638
_cell_length_c 14.075437
_cell_angle_alpha 90.000000
_cell_angle_beta 139.780242
_cell_angle_gamma 90.000000
_cell_volume 1205.372352
_symmetry_space_group_name_H-M "P 2/M"
_symmetry_group_IT_number 10
_symmetry_cell_setting 'monoclinic'
loop_
_space_group_symop_operation_xyz
x,y,z
-x,y,-z
-x,-y,-z
x,-y,z
loop_
_atom_site_type_symbol
_atom_site_label
_atom_site_fract_x
_atom_site_fract_y
_atom_site_fract_z
Si Si1 0.696750 0.102827 0.417529
Si Si2 0.238478 0.599685 0.828427
Si Si3 0.000000 0.000000 0.000000
Si Si4 0.405065 0.239436 0.800856
Si Si5 0.936415 0.686944 0.069958
Si Si6 0.790263 0.136970 0.772191
Si Si7 0.133016 0.097160 0.766231
O O1 0.657412 0.180682 0.321510
O O2 0.476985 0.119144 0.382973
O O3 0.938382 0.110767 0.590767
O O4 0.692543 0.000000 0.380924
O O5 0.181118 0.500000 0.770203
O O6 0.256947 0.671031 0.752327
O O7 0.077352 0.630725 0.839966
O O8 0.500000 0.598772 0.000000
O O9 0.182474 0.078118 0.120618
O O10 0.319924 0.174022 0.843693
O O11 0.679108 0.266519 0.935802
O O12 0.133682 0.762509 0.176478
O O13 0.000000 0.640243 0.000000
O O14 0.984756 0.100241 0.792304
O O15 0.241480 0.000000 0.809388
#
# Coordination Sequence:
#
# PCOD9154491 Si02
#       7
#     4   4   1   4   4   4   4
#     4  11  22  38  57  82 119 164 208 240 273 339
#     4   9  20  38  62  90 119 148 183 241 308 364
#     4  12  20  32  54  82 122 152 202 234 290 336
#     4  11  21  37  59  85 118 151 193 243 296 347
#     4  11  21  37  59  85 119 148 191 240 295 359
#     4  12  21  36  55  85 115 159 195 241 289 334
#     4  11  23  38  56  81 118 162 208 242 280 338
#
# _framework density 20.740479000000001
#
# number of rings (size 3 to 8) (size 9 to 14) (size 15 to 20)
#    0.000    1.120    5.600    1.440    0.000    2.880 
#    1.440    0.800    0.000    1.920    0.000    1.120 
#    0.000    0.000    0.000    0.000    0.000    0.000 
#
# Total GULP energy -139244.357997 kJ/mol
# GULP energy per Si atom -5569.774320 kJ/mol
# Density = 2.069327 g / cm^3
# Si number density = 20.740479 Si / 1000 Ang^3
#
#
#
# Elastic Constant Matrix: (Units=GPa)
#
#
# Indices 1 2 3 4 5 6 
#
# 1 88.7427 35.6133 6.8911 0.0000 12.8339 0.0000
# 2 35.6133 138.0928 21.4297 0.0000 -8.7454 0.0000
# 3 6.8911 21.4297 55.2740 0.0000 0.4440 0.0000
# 4 0.0000 0.0000 0.0000 13.6989 0.0000 0.6553
# 5 12.8339 -8.7454 0.4440 0.0000 26.2862 0.0000
# 6 0.0000 0.0000 0.0000 0.6553 0.0000 19.5357
#
#
#
# Elastic Compliance Matrix: (Units=1/GPa)
#
#
# Indices 1 2 3 4 5 6 
#
# 1 0.014143 -0.004159 -0.000084 0.000000 -0.008287 0.000000
# 2 -0.004159 0.009112 -0.003055 0.000000 0.005114 0.000000
# 3 -0.000084 -0.003055 0.019297 0.000000 -0.001301 0.000000
# 4 0.000000 0.000000 0.000000 0.073116 0.000000 -0.002453
# 5 -0.008287 0.005114 -0.001301 0.000000 0.043812 0.000000
# 6 0.000000 0.000000 0.000000 -0.002453 0.000000 0.051271
#
#
# Mechanical properties :
#
#
# Convention : Reuss Voigt Hill
#
# Bulk Modulus (GPa) = 35.77198 45.55309 40.66254
# Shear Modulus (GPa) = 21.30684 26.44915 23.87800
#
# Velocity S-wave (km/s) = 3.20864 3.57493 3.39673
# Velocity P-wave (km/s) = 5.56884 6.24910 5.91875
#
# Compressibility (1/GPa) = 0.02795484
#
# Stress axis : x y z
#
# Youngs Moduli (GPa) = 70.70807 109.74409 51.82101
#
# Poissons Ratio (x) = 0.45643 0.00436
# Poissons Ratio (y) = 0.29408 0.15833
# Poissons Ratio (z) = 0.00595 0.33530
#
# Static dielectric constant tensor:
#      x y z
#    x 1.881520 0.000000 -0.018980 
#    y 0.000000 1.718730 0.000000 
#    z -0.018980 0.000000 1.810350 
# 
# From -- ./inp_files/62075.got.cif
#   From: 2010.05.17/outbox.cif.g08.bks.cpg/sg10_32_cif.got.tgz:62075.got - 2010.06.03 11:33:40.
