data_PCOD9154561
_publ_section_title
;
Structure prediction by ZEFSAII (Michael W. Deem and Ramdas Pophale) SiO2 
 PCOD9154561
Probable space group: P 2/M
;
_chemical_formula_sum "Si O2"
_cell_formula_units_Z 19
_cell_length_a 15.839224
_cell_length_b 9.766188
_cell_length_c 11.007146
_cell_angle_alpha 90.000000
_cell_angle_beta 34.337696
_cell_angle_gamma 90.000000
_cell_volume 960.431231
_symmetry_space_group_name_H-M "P 2/M"
_symmetry_group_IT_number 10
_symmetry_cell_setting 'monoclinic'
loop_
_space_group_symop_operation_xyz
x,y,z
-x,y,-z
-x,-y,-z
x,-y,z
loop_
_atom_site_type_symbol
_atom_site_label
_atom_site_fract_x
_atom_site_fract_y
_atom_site_fract_z
Si Si1 0.726853 0.500000 0.516419
Si Si2 0.081707 0.746517 0.780376
Si Si3 0.203416 0.736371 0.025356
Si Si4 0.719191 0.000000 0.364564
Si Si5 0.172795 0.500000 0.254621
Si Si6 0.324601 0.500000 0.708752
Si Si7 0.375731 0.000000 0.807623
Si Si8 0.500000 0.500000 0.000000
O O1 0.827603 0.636604 0.408465
O O2 0.710117 0.500000 0.390920
O O3 0.570412 0.500000 0.775174
O O4 0.948688 0.796336 0.850982
O O5 0.187545 0.867486 0.703798
O O6 0.000000 0.688101 0.000000
O O7 0.183007 0.635710 0.161141
O O8 0.268961 0.635848 0.843315
O O9 0.310143 0.859617 0.935251
O O10 0.552767 0.000000 0.615635
O O11 0.680920 0.000000 0.266291
O O12 0.320204 0.500000 0.166061
O O13 0.000000 0.500000 0.500000
O O14 0.500000 0.500000 0.500000
#
# Coordination Sequence:
#
# PCOD9154561 Si02
#       8
#     2   4   4   2   2   2   2   1
#     4  12  23  39  66  97 127 172 229 273 338 409
#     4  12  21  38  63 100 137 176 214 271 344 410
#     4  11  23  40  68  97 138 169 219 280 342 407
#     4  11  24  35  60  95 150 179 210 261 348 423
#     4  11  26  51  72 103 132 181 240 293 337 406
#     4  11  22  34  60  99 131 164 211 272 339 405
#     4  11  23  38  56 100 142 182 215 268 336 422
#     4  12  28  46  72  92 142 180 232 280 354 392
#
# _framework density 19.782781
#
# number of rings (size 3 to 8) (size 9 to 14) (size 15 to 20)
#    0.000    0.632    4.211    5.053    8.842    0.000 
#    0.000    0.526    0.000    2.526    0.000    0.000 
#    0.000    0.000    0.000    0.000    0.000    0.000 
#
# Total GULP energy -105768.322512 kJ/mol
# GULP energy per Si atom -5566.753816 kJ/mol
# Density = 1.973775 g / cm^3
# Si number density = 19.782781 Si / 1000 Ang^3
#
#
#
# Elastic Constant Matrix: (Units=GPa)
#
#
# Indices 1 2 3 4 5 6 
#
# 1 90.9669 16.2727 32.6591 0.0000 -28.3376 0.0000
# 2 16.2727 117.0866 69.6026 0.0000 -9.7413 0.0000
# 3 32.6591 69.6026 140.2458 0.0000 -22.4580 0.0000
# 4 0.0000 0.0000 0.0000 3.5362 0.0000 -18.3089
# 5 -28.3376 -9.7413 -22.4580 0.0000 39.2066 0.0000
# 6 0.0000 0.0000 0.0000 -18.3089 0.0000 14.4155
#
#
#
# Elastic Compliance Matrix: (Units=1/GPa)
#
#
# Indices 1 2 3 4 5 6 
#
# 1 0.014629 -0.000173 -0.001800 0.000000 0.009500 0.000000
# 2 -0.000173 0.012125 -0.006072 0.000000 -0.000590 0.000000
# 3 -0.001800 -0.006072 0.011134 0.000000 0.003568 0.000000
# 4 0.000000 0.000000 0.000000 -0.050716 0.000000 -0.064414
# 5 0.009500 -0.000590 0.003568 0.000000 0.034270 0.000000
# 6 0.000000 0.000000 0.000000 -0.064414 0.000000 -0.012441
#
#
# Mechanical properties :
#
#
# Convention : Reuss Voigt Hill
#
# Bulk Modulus (GPa) = 45.87200 65.04090 55.45645
# Shear Modulus (GPa) = 154.52564 26.74930 90.63747
#
# Velocity S-wave (km/s) = 8.84764 3.68115 6.77612
# Velocity P-wave (km/s) = 11.29657 7.14260 9.45064
#
# Compressibility (1/GPa) = 0.02179979
#
# Stress axis : x y z
#
# Youngs Moduli (GPa) = 68.35521 82.47419 89.81320
#
# Poissons Ratio (x) = 0.01427 0.16163
# Poissons Ratio (y) = 0.01183 0.54533
# Poissons Ratio (z) = 0.12302 0.50077
#
# Static dielectric constant tensor:
#      x y z
#    x 1.658070 0.000000 0.033020 
#    y 0.000000 1.638210 0.000000 
#    z 0.033020 0.000000 1.716120 
# 
# From -- ./inp_files/53035.got.cif
#   From: 2010.05.17/outbox.cif.g08.bks.cpg/sg10_27_cif.got.tgz:53035.got - 2010.06.03 11:33:40.
