data_PCOD9154409
_publ_section_title
;
Structure prediction by ZEFSAII (Michael W. Deem and Ramdas Pophale) SiO2 
 PCOD9154409
Probable space group: P 2/M
;
_chemical_formula_sum "Si O2"
_cell_formula_units_Z 32
_cell_length_a 11.767892
_cell_length_b 7.773431
_cell_length_c 20.660545
_cell_angle_alpha 90.000000
_cell_angle_beta 62.559116
_cell_angle_gamma 90.000000
_cell_volume 1677.316763
_symmetry_space_group_name_H-M "P 2/M"
_symmetry_group_IT_number 10
_symmetry_cell_setting 'monoclinic'
loop_
_space_group_symop_operation_xyz
x,y,z
-x,y,-z
-x,-y,-z
x,-y,z
loop_
_atom_site_type_symbol
_atom_site_label
_atom_site_fract_x
_atom_site_fract_y
_atom_site_fract_z
Si Si1 0.073355 0.709723 0.415580
Si Si2 0.411477 0.197025 0.466496
Si Si3 0.821761 0.209370 0.252901
Si Si4 0.162694 0.701788 0.602710
Si Si5 0.983467 0.204811 0.900318
Si Si6 0.207864 0.204619 0.949404
Si Si7 0.361658 0.300485 0.336160
Si Si8 0.613891 0.796163 0.203349
O O1 0.081387 0.500000 0.417032
O O2 0.218245 0.775393 0.372284
O O3 0.000000 0.765396 0.500000
O O4 0.979694 0.755155 0.381195
O O5 0.500000 0.274035 0.500000
O O6 0.268607 0.203144 0.532278
O O7 0.412236 0.282437 0.396399
O O8 0.454436 0.000000 0.445149
O O9 0.813078 0.270784 0.328229
O O10 0.703104 0.268486 0.239155
O O11 0.952074 0.269373 0.182548
O O12 0.821071 0.000000 0.254172
O O13 0.176520 0.500000 0.582967
O O14 0.096934 0.220680 0.923812
O O15 0.963658 0.000000 0.896623
O O16 0.855960 0.277060 0.968207
O O17 0.332629 0.273805 0.879231
O O18 0.226132 0.000000 0.956548
O O19 0.351119 0.500000 0.323007
O O20 0.467137 0.227416 0.260052
O O21 0.638832 0.000000 0.194213
#
# Coordination Sequence:
#
# PCOD9154409 Si02
#       8
#     4   4   4   4   4   4   4   4
#     4   9  18  36  54  66  83 112 153 201 240 266
#     4  11  23  36  49  68  96 123 146 179 226 275
#     4   9  17  29  45  69 102 129 149 184 230 271
#     4  11  21  34  52  69  88 118 156 193 230 275
#     4   7  10  19  38  63  90 123 158 183 210 259
#     4   7  10  19  38  63  90 123 158 183 210 259
#     4  11  21  34  52  69  88 118 156 193 230 275
#     4   9  17  29  45  69 102 129 149 184 230 271
#
# _framework density 19.078091000000001
#
# number of rings (size 3 to 8) (size 9 to 14) (size 15 to 20)
#    0.000    2.750    1.250    4.125    0.000    4.500 
#    0.000    3.125    0.000    0.750    0.000    4.375 
#    0.000    7.000    0.000    0.000    0.000    0.000 
#
# Total GULP energy -178262.417384 kJ/mol
# GULP energy per Si atom -5570.700543 kJ/mol
# Density = 1.903467 g / cm^3
# Si number density = 19.078091 Si / 1000 Ang^3
#
#
#
# Elastic Constant Matrix: (Units=GPa)
#
#
# Indices 1 2 3 4 5 6 
#
# 1 59.3193 1.2021 10.5515 0.0000 -26.6876 0.0000
# 2 1.2021 24.8912 -2.5640 0.0000 -0.6305 0.0000
# 3 10.5515 -2.5640 98.4215 0.0000 -39.3142 0.0000
# 4 0.0000 0.0000 0.0000 -150.2586 0.0000 -33.1705
# 5 -26.6876 -0.6305 -39.3142 0.0000 27.2438 0.0000
# 6 0.0000 0.0000 0.0000 -33.1705 0.0000 8.6554
#
#
#
# Elastic Compliance Matrix: (Units=1/GPa)
#
#
# Indices 1 2 3 4 5 6 
#
# 1 0.069929 0.004964 0.047314 0.000000 0.136893 0.000000
# 2 0.004964 0.041024 0.006748 0.000000 0.015550 0.000000
# 3 0.047314 0.006748 0.056282 0.000000 0.127722 0.000000
# 4 0.000000 0.000000 0.000000 -0.003605 0.000000 -0.013816
# 5 0.136893 0.015550 0.127722 0.000000 0.355475 0.000000
# 6 0.000000 0.000000 0.000000 -0.013816 0.000000 0.062586
#
#
# Mechanical properties :
#
#
# Convention : Reuss Voigt Hill
#
# Bulk Modulus (GPa) = 3.50523 22.33458 12.91991
# Shear Modulus (GPa) = 8.94880 -11.30906 -1.18013
#
# Velocity S-wave (km/s) = 2.16813 -2.43734 -0.78735
# Velocity P-wave (km/s) = 2.84764 1.95230 2.44136
#
# Compressibility (1/GPa) = 0.28528785
#
# Stress axis : x y z
#
# Youngs Moduli (GPa) = 14.30019 24.37594 17.76762
#
# Poissons Ratio (x) = -0.12101 -0.84066
# Poissons Ratio (y) = -0.07099 -0.11990
# Poissons Ratio (z) = -0.67660 -0.16449
#
# Static dielectric constant tensor:
#      x y z
#    x 1.666710 0.000000 -0.039930 
#    y 0.000000 1.706730 0.000000 
#    z -0.039930 0.000000 1.697600 
# 
# From -- ./inp_files/52782.got.cif
#   From: 2010.05.17/outbox.cif.g08.bks.cpg/sg10_27_cif.got.tgz:52782.got - 2010.06.03 11:33:40.
