data_PCOD9154406
_publ_section_title
;
Structure prediction by ZEFSAII (Michael W. Deem and Ramdas Pophale) SiO2 
 PCOD9154406
Probable space group: P 2/M
;
_chemical_formula_sum "Si O2"
_cell_formula_units_Z 28
_cell_length_a 18.507876
_cell_length_b 11.678564
_cell_length_c 24.603503
_cell_angle_alpha 90.000000
_cell_angle_beta 163.864352
_cell_angle_gamma 90.000000
_cell_volume 1477.919751
_symmetry_space_group_name_H-M "P 2/M"
_symmetry_group_IT_number 10
_symmetry_cell_setting 'monoclinic'
loop_
_space_group_symop_operation_xyz
x,y,z
-x,y,-z
-x,-y,-z
x,-y,z
loop_
_atom_site_type_symbol
_atom_site_label
_atom_site_fract_x
_atom_site_fract_y
_atom_site_fract_z
Si Si1 0.021254 0.361374 0.805920
Si Si2 0.695533 0.000000 0.222414
Si Si3 0.675025 0.000000 0.331625
Si Si4 0.680462 0.242830 0.385674
Si Si5 0.399243 0.364014 0.785898
Si Si6 0.494956 0.361117 0.635418
Si Si7 0.272020 0.244386 0.799565
Si Si8 0.227551 0.367365 0.268918
O O1 0.020818 0.500000 0.810295
O O2 0.780659 0.334968 0.593204
O O3 0.970965 0.315428 0.830874
O O4 0.301095 0.328998 0.986251
O O5 0.585481 0.000000 0.204182
O O6 0.629039 0.882124 0.145096
O O7 0.011215 0.000000 0.449071
O O8 0.603718 0.885269 0.312230
O O9 0.656004 0.319247 0.314056
O O10 0.514389 0.297213 0.314223
O O11 0.989625 0.240671 0.623341
O O12 0.371812 0.500000 0.768000
O O13 0.236552 0.307721 0.716366
O O14 0.512847 0.500000 0.655290
O O15 0.709450 0.323013 0.745726
O O16 0.500000 0.300435 0.000000
O O17 0.500000 0.368348 0.500000
O O18 0.152931 0.500000 0.206248
#
# Coordination Sequence:
#
# PCOD9154406 Si02
#       8
#     4   2   2   4   4   4   4   4
#     4   8  15  29  47  70 101 131 162 197 231 276
#     4   9  17  36  56  72  87 114 163 209 239 274
#     4   9  18  34  54  68  89 125 160 198 243 279
#     4  11  21  34  50  70  97 128 162 196 239 287
#     4  11  22  33  47  70 101 135 162 189 235 291
#     4   9  16  28  49  76 102 127 157 195 239 285
#     4  11  22  35  53  73  94 123 161 204 241 278
#     4   7  11  23  45  70  96 127 159 193 234 275
#
# _framework density 18.945547999999999
#
# number of rings (size 3 to 8) (size 9 to 14) (size 15 to 20)
#    0.000    2.571    1.429    3.643    0.000    2.000 
#    0.000    0.714    0.000    3.429    0.000    7.500 
#    0.000    0.000    0.000    0.000    0.000    0.000 
#
# Total GULP energy -156025.350637 kJ/mol
# GULP energy per Si atom -5572.333951 kJ/mol
# Density = 1.890243 g / cm^3
# Si number density = 18.945548 Si / 1000 Ang^3
#
#
#
# Elastic Constant Matrix: (Units=GPa)
#
#
# Indices 1 2 3 4 5 6 
#
# 1 128.4252 37.8036 -8.9361 0.0000 -7.1967 0.0000
# 2 37.8036 67.0349 -7.1305 0.0000 -3.3187 0.0000
# 3 -8.9361 -7.1305 11.4867 0.0000 -8.5435 0.0000
# 4 0.0000 0.0000 0.0000 7.3128 0.0000 -10.3429
# 5 -7.1967 -3.3187 -8.5435 0.0000 25.3197 0.0000
# 6 0.0000 0.0000 0.0000 -10.3429 0.0000 7.9235
#
#
#
# Elastic Compliance Matrix: (Units=1/GPa)
#
#
# Indices 1 2 3 4 5 6 
#
# 1 0.010012 -0.004429 0.008977 0.000000 0.005294 0.000000
# 2 -0.004429 0.018998 0.012368 0.000000 0.005404 0.000000
# 3 0.008977 0.012368 0.139943 0.000000 0.051393 0.000000
# 4 0.000000 0.000000 0.000000 -0.161595 0.000000 -0.210937
# 5 0.005294 0.005404 0.051393 0.000000 0.059049 0.000000
# 6 0.000000 0.000000 0.000000 -0.210937 0.000000 -0.149139
#
#
# Mechanical properties :
#
#
# Convention : Reuss Voigt Hill
#
# Bulk Modulus (GPa) = 4.93135 27.82453 16.37794
# Shear Modulus (GPa) = -102.10820 20.45850 -40.82485
#
# Velocity S-wave (km/s) = -7.34933 3.28968 -4.64707
# Velocity P-wave (km/s) = 8.33116 5.39887 4.48667
#
# Compressibility (1/GPa) = 0.20278418
#
# Stress axis : x y z
#
# Youngs Moduli (GPa) = 99.88346 52.63608 7.14576
#
# Poissons Ratio (x) = 0.23312 -0.06415
# Poissons Ratio (y) = 0.44238 -0.08838
# Poissons Ratio (z) = -0.89665 -0.65098
#
# Static dielectric constant tensor:
#      x y z
#    x 1.682350 0.000000 -0.010120 
#    y 0.000000 1.629040 0.000000 
#    z -0.010120 0.000000 1.705820 
# 
# From -- ./inp_files/34569.got.cif
#   From: 2010.05.17/outbox.cif.g08.bks.cpg/sg10_18_cif.got.tgz:34569.got - 2010.06.03 11:33:40.
