data_PCOD9154815
_publ_section_title
;
Structure prediction by ZEFSAII (Michael W. Deem and Ramdas Pophale) SiO2 
 PCOD9154815
Probable space group: P 2/M
;
_chemical_formula_sum "Si O2"
_cell_formula_units_Z 11
_cell_length_a 4.973850
_cell_length_b 15.724158
_cell_length_c 5.271063
_cell_angle_alpha 90.000000
_cell_angle_beta 87.052959
_cell_angle_gamma 90.000000
_cell_volume 411.702541
_symmetry_space_group_name_H-M "P 2/M"
_symmetry_group_IT_number 10
_symmetry_cell_setting 'monoclinic'
loop_
_space_group_symop_operation_xyz
x,y,z
-x,y,-z
-x,-y,-z
x,-y,z
loop_
_atom_site_type_symbol
_atom_site_label
_atom_site_fract_x
_atom_site_fract_y
_atom_site_fract_z
Si Si1 0.187451 0.500000 0.741886
Si Si2 0.813782 0.317890 0.258867
Si Si3 0.000000 0.000000 0.500000
Si Si4 0.275717 0.133111 0.823401
O O1 0.000000 0.500000 0.500000
O O2 0.336249 0.409079 0.736990
O O3 0.000000 0.500000 0.000000
O O4 0.652973 0.230145 0.250261
O O5 0.000000 0.313560 0.500000
O O6 0.000000 0.318608 0.000000
O O7 0.206104 0.925607 0.592528
O O8 0.500000 0.098055 0.000000
O O9 0.000000 0.132848 0.000000
#
# Coordination Sequence:
#
# PCOD9154815 Si02
#       4
#     2   4   1   4
#     4   8  14  26  55  84 124 165 211 259 320 384
#     4   9  17  35  57  92 127 170 214 268 324 390
#     4  12  24  46  68  94 128 170 224 270 342 384
#     4  11  25  43  65  96 130 170 219 273 332 396
#
# _framework density 26.718315
#
# number of rings (size 3 to 8) (size 9 to 14) (size 15 to 20)
#    0.000    2.182    1.818    1.091    0.000    2.909 
#    0.000    0.909    0.000    0.000    0.000   22.909 
#    0.000    0.000    0.000    0.000    0.000    0.000 
#
# Total GULP energy -61347.277526 kJ/mol
# GULP energy per Si atom -5577.025230 kJ/mol
# Density = 2.665750 g / cm^3
# Si number density = 26.718315 Si / 1000 Ang^3
#
#
#
# Elastic Constant Matrix: (Units=GPa)
#
#
# Indices 1 2 3 4 5 6 
#
# 1 99.1437 14.6359 55.0144 0.0000 3.0587 0.0000
# 2 14.6359 292.5954 27.7386 0.0000 39.9533 0.0000
# 3 55.0144 27.7386 197.1143 0.0000 20.3832 0.0000
# 4 0.0000 0.0000 0.0000 55.4044 0.0000 14.2848
# 5 3.0587 39.9533 20.3832 0.0000 80.2318 0.0000
# 6 0.0000 0.0000 0.0000 14.2848 0.0000 17.0178
#
#
#
# Elastic Compliance Matrix: (Units=1/GPa)
#
#
# Indices 1 2 3 4 5 6 
#
# 1 0.011982 -0.000360 -0.003353 0.000000 0.000574 0.000000
# 2 -0.000360 0.003700 -0.000237 0.000000 -0.001768 0.000000
# 3 -0.003353 -0.000237 0.006179 0.000000 -0.001324 0.000000
# 4 0.000000 0.000000 0.000000 0.023034 0.000000 -0.019335
# 5 0.000574 -0.001768 -0.001324 0.000000 0.013659 0.000000
# 6 0.000000 0.000000 0.000000 -0.019335 0.000000 0.074992
#
#
# Mechanical properties :
#
#
# Convention : Reuss Voigt Hill
#
# Bulk Modulus (GPa) = 71.62886 87.07015 79.34951
# Shear Modulus (GPa) = 34.22309 63.29510 48.75910
#
# Velocity S-wave (km/s) = 3.58283 4.87250 4.27656
# Velocity P-wave (km/s) = 6.63194 8.01959 7.35855
#
# Compressibility (1/GPa) = 0.01396085
#
# Stress axis : x y z
#
# Youngs Moduli (GPa) = 83.45610 270.29587 161.83028
#
# Poissons Ratio (x) = 0.09728 0.54262
# Poissons Ratio (y) = 0.03004 0.03841
# Poissons Ratio (z) = 0.27983 0.06415
#
# Static dielectric constant tensor:
#      x y z
#    x 1.974010 0.000000 -0.094780 
#    y 0.000000 2.115410 0.000000 
#    z -0.094780 0.000000 2.077060 
# 
# From -- ./inp_files/429.got.cif
#   From: 2010.05.17/outbox.cif.g08.bks.cpg/sg10_1_cif.got.tgz:429.got - 2010.06.03 11:33:40.
