data_PCOD9154646
_publ_section_title
;
Structure prediction by ZEFSAII (Michael W. Deem and Ramdas Pophale) SiO2 
 PCOD9154646
Probable space group: P 2/M
;
_chemical_formula_sum "Si O2"
_cell_formula_units_Z 32
_cell_length_a 14.684511
_cell_length_b 18.426683
_cell_length_c 11.485058
_cell_angle_alpha 90.000000
_cell_angle_beta 30.098289
_cell_angle_gamma 90.000000
_cell_volume 1558.467350
_symmetry_space_group_name_H-M "P 2/M"
_symmetry_group_IT_number 10
_symmetry_cell_setting 'monoclinic'
loop_
_space_group_symop_operation_xyz
x,y,z
-x,y,-z
-x,-y,-z
x,-y,z
loop_
_atom_site_type_symbol
_atom_site_label
_atom_site_fract_x
_atom_site_fract_y
_atom_site_fract_z
Si Si1 0.154075 0.294279 0.143378
Si Si2 0.543072 0.210404 0.086712
Si Si3 0.448217 0.082535 0.740560
Si Si4 0.783294 0.580903 0.766040
Si Si5 0.801499 0.417566 0.281664
Si Si6 0.704554 0.270608 0.271639
Si Si7 0.252226 0.666130 0.422777
Si Si8 0.796849 0.881680 0.206343
O O1 0.226196 0.372938 0.105779
O O2 0.937971 0.293125 0.388841
O O3 0.253494 0.239888 0.120386
O O4 0.217221 0.278222 0.943643
O O5 0.529547 0.139562 0.180456
O O6 0.407615 0.275258 0.279387
O O7 0.500000 0.197659 0.000000
O O8 0.286048 0.107041 0.831804
O O9 0.639680 0.084713 0.459858
O O10 0.412340 0.000000 0.817182
O O11 0.710905 0.500000 0.857865
O O12 0.701398 0.623240 0.746710
O O13 0.000000 0.577148 0.500000
O O14 0.730822 0.500000 0.348513
O O15 0.705207 0.349862 0.326866
O O16 0.793887 0.392042 0.424712
O O17 0.000000 0.417406 0.000000
O O18 0.500000 0.243510 0.500000
O O19 0.805328 0.204951 0.224113
O O20 0.000000 0.910586 0.000000
#
# Coordination Sequence:
#
# PCOD9154646 Si02
#       8
#     4   4   4   4   4   4   4   4
#     4  11  22  40  62  92 122 167 219 270 315 377
#     4  12  25  43  67  95 126 166 219 268 316 382
#     4  11  25  44  66 102 136 164 206 255 315 392
#     4   9  19  36  61  89 117 163 221 279 328 364
#     4  11  23  37  57  90 128 171 219 266 327 391
#     4  12  22  39  63  91 132 169 215 264 317 383
#     4  11  22  41  66  87 125 171 218 269 320 382
#     4  11  22  41  72 101 132 168 208 260 315 381
#
# _framework density 20.532993000000001
#
# number of rings (size 3 to 8) (size 9 to 14) (size 15 to 20)
#    0.000    1.000    5.000    3.000    1.750    2.500 
#    0.000    3.125    0.000    0.000    0.000    3.500 
#    0.000    0.000    0.000    0.000    0.000    0.000 
#
# Total GULP energy -178754.362592 kJ/mol
# GULP energy per Si atom -5586.073831 kJ/mol
# Density = 2.048626 g / cm^3
# Si number density = 20.532993 Si / 1000 Ang^3
#
#
#
# Elastic Constant Matrix: (Units=GPa)
#
#
# Indices 1 2 3 4 5 6 
#
# 1 59.2525 23.3722 21.2757 0.0000 -9.0277 0.0000
# 2 23.3722 137.3086 15.7903 0.0000 -4.9206 0.0000
# 3 21.2757 15.7903 74.5156 0.0000 -16.3805 0.0000
# 4 0.0000 0.0000 0.0000 5.9030 0.0000 -1.8796
# 5 -9.0277 -4.9206 -16.3805 0.0000 35.4743 0.0000
# 6 0.0000 0.0000 0.0000 -1.8796 0.0000 12.8984
#
#
#
# Elastic Compliance Matrix: (Units=1/GPa)
#
#
# Indices 1 2 3 4 5 6 
#
# 1 0.020007 -0.002789 -0.004549 0.000000 0.002604 0.000000
# 2 -0.002789 0.007857 -0.000874 0.000000 -0.000023 0.000000
# 3 -0.004549 -0.000874 0.016275 0.000000 0.006236 0.000000
# 4 0.000000 0.000000 0.000000 0.177648 0.000000 0.025887
# 5 0.002604 -0.000023 0.006236 0.000000 0.031729 0.000000
# 6 0.000000 0.000000 0.000000 0.025887 0.000000 0.081301
#
#
# Mechanical properties :
#
#
# Convention : Reuss Voigt Hill
#
# Bulk Modulus (GPa) = 36.08074 43.55033 39.81554
# Shear Modulus (GPa) = 13.87040 24.89770 19.38405
#
# Velocity S-wave (km/s) = 2.60189 3.48598 3.07586
# Velocity P-wave (km/s) = 5.16107 6.12035 5.66107
#
# Compressibility (1/GPa) = 0.02771562
#
# Stress axis : x y z
#
# Youngs Moduli (GPa) = 49.98185 127.27072 61.44440
#
# Poissons Ratio (x) = 0.35497 0.27951
# Poissons Ratio (y) = 0.13941 0.05369
# Poissons Ratio (z) = 0.22737 0.11121
#
# Static dielectric constant tensor:
#      x y z
#    x 1.756130 0.000000 -0.014640 
#    y 0.000000 1.741380 0.000000 
#    z -0.014640 0.000000 1.728980 
# 
# From -- ./inp_files/51945.got.cif
#   From: 2010.05.17/outbox.cif.g08.bks.cpg/sg10_26_cif.got.tgz:51945.got - 2010.06.03 11:33:40.
