data_PCOD9154484
_publ_section_title
;
Structure prediction by ZEFSAII (Michael W. Deem and Ramdas Pophale) SiO2 
 PCOD9154484
Probable space group: P 2/M
;
_chemical_formula_sum "Si O2"
_cell_formula_units_Z 28
_cell_length_a 11.059842
_cell_length_b 14.704614
_cell_length_c 9.817496
_cell_angle_alpha 90.000000
_cell_angle_beta 62.968128
_cell_angle_gamma 90.000000
_cell_volume 1422.201033
_symmetry_space_group_name_H-M "P 2/M"
_symmetry_group_IT_number 10
_symmetry_cell_setting 'monoclinic'
loop_
_space_group_symop_operation_xyz
x,y,z
-x,y,-z
-x,-y,-z
x,-y,z
loop_
_atom_site_type_symbol
_atom_site_label
_atom_site_fract_x
_atom_site_fract_y
_atom_site_fract_z
Si Si1 0.228879 0.396632 0.831776
Si Si2 0.910589 0.260837 0.306882
Si Si3 0.801798 0.602220 0.567678
Si Si4 0.802025 0.320001 0.859390
Si Si5 0.514018 0.689283 0.647193
Si Si6 0.600494 0.181737 0.839577
Si Si7 0.155653 0.893860 0.473288
O O1 0.193018 0.500000 0.811020
O O2 0.155922 0.318591 0.780466
O O3 0.388319 0.377673 0.733790
O O4 0.197575 0.378336 0.005031
O O5 0.896384 0.327081 0.443216
O O6 0.836504 0.169984 0.396613
O O7 0.069694 0.252035 0.197863
O O8 0.832153 0.500000 0.512882
O O9 0.811410 0.615949 0.723316
O O10 0.652042 0.632433 0.595656
O O11 0.669464 0.260230 0.897020
O O12 0.500000 0.724687 0.500000
O O13 0.521021 0.769095 0.755850
O O14 0.728107 0.133212 0.696940
O O15 0.500000 0.132744 0.000000
O O16 0.000000 0.879351 0.500000
O O17 0.170698 0.000000 0.496834
#
# Coordination Sequence:
#
# PCOD9154484 Si02
#       7
#     4   4   4   4   4   4   4
#     4  12  25  38  59  90 132 180 216 254 311 375
#     4  12  22  40  62  88 125 165 211 265 316 375
#     4  11  22  34  58  86 118 162 211 264 307 367
#     4  11  23  39  57  89 127 163 215 259 310 377
#     4  11  21  37  58  85 123 167 217 261 306 372
#     4  11  21  40  67  94 125 168 206 264 326 373
#     4  11  22  42  73 101 124 157 211 270 330 391
#
# _framework density 19.687792999999999
#
# number of rings (size 3 to 8) (size 9 to 14) (size 15 to 20)
#    0.000    0.714    7.143    2.143    0.000    4.286 
#    0.000    2.143    0.000    6.429    0.000    0.000 
#    0.000    0.000    0.000    0.000    0.000    0.000 
#
# Total GULP energy -156273.602256 kJ/mol
# GULP energy per Si atom -5581.200081 kJ/mol
# Density = 1.964298 g / cm^3
# Si number density = 19.687793 Si / 1000 Ang^3
#
#
#
# Elastic Constant Matrix: (Units=GPa)
#
#
# Indices 1 2 3 4 5 6 
#
# 1 77.0876 31.7510 40.4321 0.0000 6.3258 0.0000
# 2 31.7510 82.5706 37.8394 0.0000 23.3227 0.0000
# 3 40.4321 37.8394 120.7277 0.0000 11.7072 0.0000
# 4 0.0000 0.0000 0.0000 36.3219 0.0000 5.1628
# 5 6.3258 23.3227 11.7072 0.0000 32.5021 0.0000
# 6 0.0000 0.0000 0.0000 5.1628 0.0000 18.7141
#
#
#
# Elastic Compliance Matrix: (Units=1/GPa)
#
#
# Indices 1 2 3 4 5 6 
#
# 1 0.017219 -0.005181 -0.004330 0.000000 0.001926 0.000000
# 2 -0.005181 0.018683 -0.003024 0.000000 -0.011309 0.000000
# 3 -0.004330 -0.003024 0.010765 0.000000 -0.000865 0.000000
# 4 0.000000 0.000000 0.000000 0.028655 0.000000 -0.007905
# 5 0.001926 -0.011309 -0.000865 0.000000 0.038819 0.000000
# 6 0.000000 0.000000 0.000000 -0.007905 0.000000 0.055617
#
#
# Mechanical properties :
#
#
# Convention : Reuss Voigt Hill
#
# Bulk Modulus (GPa) = 46.30144 55.60342 50.95243
# Shear Modulus (GPa) = 24.74918 28.86517 26.80717
#
# Velocity S-wave (km/s) = 3.54938 3.83318 3.69401
# Velocity P-wave (km/s) = 6.35345 6.92062 6.64309
#
# Compressibility (1/GPa) = 0.02159760
#
# Stress axis : x y z
#
# Youngs Moduli (GPa) = 58.07500 53.52361 92.89566
#
# Poissons Ratio (x) = 0.27732 0.40220
# Poissons Ratio (y) = 0.30090 0.28092
# Poissons Ratio (z) = 0.25144 0.16186
#
# Static dielectric constant tensor:
#      x y z
#    x 1.745230 0.000000 -0.051750 
#    y 0.000000 1.657360 0.000000 
#    z -0.051750 0.000000 1.757600 
# 
# From -- ./inp_files/25206.got.cif
#   From: 2010.05.17/outbox.cif.g08.bks.cpg/sg10_13_cif.got.tgz:25206.got - 2010.06.03 11:33:40.
