data_PCOD9154019
_publ_section_title
;
Structure prediction by ZEFSAII (Michael W. Deem and Ramdas Pophale) SiO2 
 PCOD9154019
Probable space group: P 2/M
;
_chemical_formula_sum "Si O2"
_cell_formula_units_Z 24
_cell_length_a 9.139285
_cell_length_b 16.192972
_cell_length_c 7.838615
_cell_angle_alpha 90.000000
_cell_angle_beta 74.409093
_cell_angle_gamma 90.000000
_cell_volume 1117.369862
_symmetry_space_group_name_H-M "P 2/M"
_symmetry_group_IT_number 10
_symmetry_cell_setting 'monoclinic'
loop_
_space_group_symop_operation_xyz
x,y,z
-x,y,-z
-x,-y,-z
x,-y,z
loop_
_atom_site_type_symbol
_atom_site_label
_atom_site_fract_x
_atom_site_fract_y
_atom_site_fract_z
Si Si1 0.829452 0.594503 0.477061
Si Si2 0.407249 0.000000 0.745668
Si Si3 0.587152 0.710175 0.648281
Si Si4 0.238304 0.000000 0.466266
Si Si5 0.916772 0.736428 0.204935
Si Si6 0.179702 0.169877 0.315179
Si Si7 0.344381 0.821827 0.899978
O O1 0.792912 0.500000 0.445727
O O2 0.698439 0.631821 0.642978
O O3 0.842338 0.655534 0.311662
O O4 0.000000 0.596307 0.500000
O O5 0.402274 0.086746 0.844363
O O6 0.258972 0.000000 0.665069
O O7 0.580501 0.000000 0.625648
O O8 0.500000 0.695048 0.500000
O O9 0.712688 0.781682 0.587586
O O10 0.465017 0.748672 0.818625
O O11 0.165525 0.920521 0.398081
O O12 0.793273 0.802101 0.183446
O O13 0.030072 0.780371 0.304141
O O14 0.000000 0.713529 0.000000
O O15 0.276558 0.173649 0.109902
#
# Coordination Sequence:
#
# PCOD9154019 Si02
#       7
#     4   2   4   2   4   4   4
#     4  11  24  43  68  92 123 161 202 255 314 377
#     4  11  23  36  57  90 133 161 215 257 300 356
#     4  12  22  38  65  93 125 159 208 253 308 366
#     4  11  23  36  57  92 125 169 210 262 298 352
#     4  10  23  43  66  90 125 165 206 254 309 372
#     4  11  23  40  63  89 128 168 213 252 305 360
#     4  11  23  40  63  92 124 172 207 256 305 360
#
# _framework density 21.479011
#
# number of rings (size 3 to 8) (size 9 to 14) (size 15 to 20)
#    0.000    1.000    5.000    2.000    0.000    2.000 
#    0.000    3.333    0.000    2.000    0.000    0.000 
#    0.000    0.000    0.000    0.000    0.000    0.000 
#
# Total GULP energy -133902.551976 kJ/mol
# GULP energy per Si atom -5579.272999 kJ/mol
# Density = 2.143012 g / cm^3
# Si number density = 21.479011 Si / 1000 Ang^3
#
#
#
# Elastic Constant Matrix: (Units=GPa)
#
#
# Indices 1 2 3 4 5 6 
#
# 1 102.7399 31.1819 28.2660 0.0000 -6.3170 0.0000
# 2 31.1819 151.2973 32.1208 0.0000 -14.1723 0.0000
# 3 28.2660 32.1208 87.5987 0.0000 -6.7406 0.0000
# 4 0.0000 0.0000 0.0000 13.5877 0.0000 1.7959
# 5 -6.3170 -14.1723 -6.7406 0.0000 31.7600 0.0000
# 6 0.0000 0.0000 0.0000 1.7959 0.0000 28.7401
#
#
#
# Elastic Compliance Matrix: (Units=1/GPa)
#
#
# Indices 1 2 3 4 5 6 
#
# 1 0.011071 -0.001578 -0.002926 0.000000 0.000877 0.000000
# 2 -0.001578 0.007625 -0.002083 0.000000 0.002646 0.000000
# 3 -0.002926 -0.002083 0.013223 0.000000 0.001295 0.000000
# 4 0.000000 0.000000 0.000000 0.074209 0.000000 -0.004637
# 5 0.000877 0.002646 0.001295 0.000000 0.033116 0.000000
# 6 0.000000 0.000000 0.000000 -0.004637 0.000000 0.035084
#
#
# Mechanical properties :
#
#
# Convention : Reuss Voigt Hill
#
# Bulk Modulus (GPa) = 53.34918 58.30813 55.82866
# Shear Modulus (GPa) = 25.80614 31.48871 28.64743
#
# Velocity S-wave (km/s) = 3.46997 3.83302 3.65600
# Velocity P-wave (km/s) = 6.39890 6.84068 6.62348
#
# Compressibility (1/GPa) = 0.01874443
#
# Stress axis : x y z
#
# Youngs Moduli (GPa) = 90.32330 131.14885 75.62385
#
# Poissons Ratio (x) = 0.20701 0.22129
# Poissons Ratio (y) = 0.14257 0.15752
# Poissons Ratio (z) = 0.26431 0.27318
#
# Static dielectric constant tensor:
#      x y z
#    x 1.849950 0.000000 -0.013850 
#    y 0.000000 1.741600 0.000000 
#    z -0.013850 0.000000 1.882230 
# 
# From -- ./inp_files/18797.got.cif
#   From: 2010.05.17/outbox.cif.g08.bks.cpg/sg10_10_cif.got.tgz:18797.got - 2010.06.03 11:33:40.
