data_PCOD9154255
_publ_section_title
;
Structure prediction by ZEFSAII (Michael W. Deem and Ramdas Pophale) SiO2 
 PCOD9154255
Probable space group: P 2/M
;
_chemical_formula_sum "Si O2"
_cell_formula_units_Z 32
_cell_length_a 8.265532
_cell_length_b 14.756968
_cell_length_c 16.229054
_cell_angle_alpha 90.000000
_cell_angle_beta 89.999940
_cell_angle_gamma 90.000000
_cell_volume 1979.525736
_symmetry_space_group_name_H-M "P 2/M"
_symmetry_group_IT_number 10
_symmetry_cell_setting 'monoclinic'
loop_
_space_group_symop_operation_xyz
x,y,z
-x,y,-z
-x,-y,-z
x,-y,z
loop_
_atom_site_type_symbol
_atom_site_label
_atom_site_fract_x
_atom_site_fract_y
_atom_site_fract_z
Si Si1 0.686869 0.110164 0.500000
Si Si2 0.304530 0.103991 0.320664
Si Si3 0.802297 0.104901 1.000000
Si Si4 0.695250 0.398019 0.904669
Si Si5 0.695466 0.896009 0.320663
Si Si6 0.304752 0.398019 0.904669
Si Si7 0.192728 0.212370 0.162629
Si Si8 0.807269 0.212370 0.162629
O O1 0.500000 0.141686 0.500000
O O2 0.758185 0.134995 0.589046
O O3 0.758183 0.134996 0.410953
O O4 0.683622 0.000000 0.500000
O O5 0.499998 0.101509 0.326111
O O6 0.256848 0.167593 0.245780
O O7 0.249897 0.000000 0.305558
O O8 0.746917 0.156768 0.917747
O O9 0.752089 0.000000 1.000000
O O10 0.746915 0.156768 0.082252
O O11 0.000000 0.106366 0.000000
O O12 0.746194 0.500000 0.880963
O O13 0.500001 0.396000 0.903601
O O14 0.759204 0.316583 0.849824
O O15 0.746760 0.383053 0.000000
O O16 0.743147 0.832407 0.245779
O O17 0.750100 0.000000 0.305557
O O18 0.253807 0.500000 0.880963
O O19 0.240799 0.316583 0.849824
O O20 0.999999 0.205262 0.163173
#
# Coordination Sequence:
#
# PCOD9154255 Si02
#       8
#     4   4   4   4   4   4   4   4
#     4   7  12  26  47  67  88 117 154 195 235 270
#     4   9  17  30  48  69  93 123 159 196 231 271
#     4   9  18  30  40  55  88 130 161 181 210 257
#     4   9  18  33  51  68  88 116 152 197 240 274
#     4   9  17  30  48  69  93 123 159 196 231 271
#     4   9  18  33  51  68  88 116 152 197 240 274
#     4  11  20  30  45  67  95 127 157 189 229 274
#     4  11  20  30  45  67  95 127 157 189 229 274
#
# _framework density 16.165489000000001
#
# number of rings (size 3 to 8) (size 9 to 14) (size 15 to 20)
#    0.000    2.750    1.250    3.750    0.000    2.000 
#    0.000    1.875    0.000    5.250    0.000    0.875 
#    0.000    7.000    0.000    0.000    0.000    0.000 
#
# Total GULP energy -178299.617650 kJ/mol
# GULP energy per Si atom -5571.863052 kJ/mol
# Density = 1.612870 g / cm^3
# Si number density = 16.165489 Si / 1000 Ang^3
#
#
#
# Elastic Constant Matrix: (Units=GPa)
#
#
# Indices 1 2 3 4 5 6 
#
# 1 11.2187 12.5377 17.9121 0.0000 0.0005 0.0000
# 2 12.5377 114.4413 83.7878 0.0000 0.0007 0.0000
# 3 17.9121 83.7878 159.5818 0.0000 0.0011 0.0000
# 4 0.0000 0.0000 0.0000 9.2754 0.0000 0.0000
# 5 0.0005 0.0007 0.0011 0.0000 10.3201 0.0000
# 6 0.0000 0.0000 0.0000 0.0000 0.0000 11.7722
#
#
#
# Elastic Compliance Matrix: (Units=1/GPa)
#
#
# Indices 1 2 3 4 5 6 
#
# 1 0.110268 -0.004904 -0.009802 0.000000 -0.000004 0.000000
# 2 -0.004904 0.014413 -0.007017 0.000000 0.000000 0.000000
# 3 -0.009802 -0.007017 0.011051 0.000000 0.000000 0.000000
# 4 0.000000 0.000000 0.000000 0.107812 0.000000 0.000000
# 5 -0.000004 0.000000 0.000000 0.000000 0.096898 0.000000
# 6 0.000000 0.000000 0.000000 0.000000 0.000000 0.084946
#
#
# Mechanical properties :
#
#
# Convention : Reuss Voigt Hill
#
# Bulk Modulus (GPa) = 10.83595 57.07967 33.95781
# Shear Modulus (GPa) = 10.00810 17.67382 13.84096
#
# Velocity S-wave (km/s) = 2.49088 3.31010 2.92927
# Velocity P-wave (km/s) = 3.87173 7.07074 5.70025
#
# Compressibility (1/GPa) = 0.09228541
#
# Stress axis : x y z
#
# Youngs Moduli (GPa) = 9.06884 69.38291 90.49085
#
# Poissons Ratio (x) = 0.34024 0.88701
# Poissons Ratio (y) = 0.04447 0.63497
# Poissons Ratio (z) = 0.08889 0.48686
#
# Static dielectric constant tensor:
#      x y z
#    x 1.566440 0.000000 0.000000 
#    y 0.000000 1.524090 0.000000 
#    z 0.000000 0.000000 1.558970 
# 
# From -- ./inp_files/38303.got.cif
#   From: 2010.05.17/outbox.cif.g08.bks.cpg/sg10_20_cif.got.tgz:38303.got - 2010.06.03 11:33:40.
