data_PCOD9154210
_publ_section_title
;
Structure prediction by ZEFSAII (Michael W. Deem and Ramdas Pophale) SiO2 
 PCOD9154210
Probable space group: P 2/M
;
_chemical_formula_sum "Si O2"
_cell_formula_units_Z 12
_cell_length_a 10.402810
_cell_length_b 7.789849
_cell_length_c 9.317867
_cell_angle_alpha 90.000000
_cell_angle_beta 109.887652
_cell_angle_gamma 90.000000
_cell_volume 710.053439
_symmetry_space_group_name_H-M "P 2/M"
_symmetry_group_IT_number 10
_symmetry_cell_setting 'monoclinic'
loop_
_space_group_symop_operation_xyz
x,y,z
-x,y,-z
-x,-y,-z
x,-y,z
loop_
_atom_site_type_symbol
_atom_site_label
_atom_site_fract_x
_atom_site_fract_y
_atom_site_fract_z
Si Si1 0.630689 0.500000 0.350342
Si Si2 0.852216 0.303145 0.981159
Si Si3 0.358472 0.804423 0.864457
Si Si4 0.691119 0.500000 0.698845
O O1 0.663955 0.667559 0.269247
O O2 0.701609 0.500000 0.532301
O O3 0.467556 0.500000 0.317767
O O4 0.875820 0.500000 0.045920
O O5 0.764256 0.338178 0.803711
O O6 0.761892 0.209161 0.064289
O O7 0.000000 0.228915 0.000000
O O8 0.370606 0.000000 0.816914
O O9 0.500000 0.758687 0.000000
#
# Coordination Sequence:
#
# PCOD9154210 Si02
#       4
#     2   4   4   2
#     4  11  18  34  54  78 110 128 169 218 257 305
#     4   9  17  34  55  78 100 135 177 205 251 306
#     4  11  20  33  55  78 102 136 176 212 248 302
#     4   9  18  31  56  79 102 139 164 212 267 293
#
# _framework density 16.900136
#
# number of rings (size 3 to 8) (size 9 to 14) (size 15 to 20)
#    1.000    1.000    5.000    0.500    0.000    0.667 
#    0.000    8.333    0.000    2.000    0.000    0.000 
#    0.000    0.000    0.000    0.000    0.000    0.000 
#
# Total GULP energy -66816.584060 kJ/mol
# GULP energy per Si atom -5568.048672 kJ/mol
# Density = 1.686167 g / cm^3
# Si number density = 16.900136 Si / 1000 Ang^3
#
#
#
# Elastic Constant Matrix: (Units=GPa)
#
#
# Indices 1 2 3 4 5 6 
#
# 1 92.9411 -2.3846 38.9658 0.0000 -15.0977 0.0000
# 2 -2.3846 61.9555 51.4139 0.0000 -4.5041 0.0000
# 3 38.9658 51.4139 139.7285 0.0000 -5.5939 0.0000
# 4 0.0000 0.0000 0.0000 0.1614 0.0000 -2.0785
# 5 -15.0977 -4.5041 -5.5939 0.0000 20.1083 0.0000
# 6 0.0000 0.0000 0.0000 -2.0785 0.0000 1.5168
#
#
#
# Elastic Compliance Matrix: (Units=1/GPa)
#
#
# Indices 1 2 3 4 5 6 
#
# 1 0.015397 0.006625 -0.006279 0.000000 0.011298 0.000000
# 2 0.006625 0.026249 -0.011196 0.000000 0.007739 0.000000
# 3 -0.006279 -0.011196 0.012882 0.000000 -0.003639 0.000000
# 4 0.000000 0.000000 0.000000 -0.372182 0.000000 -0.510016
# 5 0.011298 0.007739 -0.003639 0.000000 0.058934 0.000000
# 6 0.000000 0.000000 0.000000 -0.510016 0.000000 -0.039609
#
#
# Mechanical properties :
#
#
# Convention : Reuss Voigt Hill
#
# Bulk Modulus (GPa) = 30.46255 52.29058 41.37657
# Shear Modulus (GPa) = -18.81935 18.13264 -0.34336
#
# Velocity S-wave (km/s) = -3.34063 3.27911 -0.45123
# Velocity P-wave (km/s) = 1.78450 6.73386 4.92592
#
# Compressibility (1/GPa) = 0.03282719
#
# Stress axis : x y z
#
# Youngs Moduli (GPa) = 64.94675 38.09613 77.62891
#
# Poissons Ratio (x) = -0.25237 0.48744
# Poissons Ratio (y) = -0.43025 0.86915
# Poissons Ratio (z) = 0.40781 0.42653
#
# Static dielectric constant tensor:
#      x y z
#    x 1.586920 0.000000 0.003200 
#    y 0.000000 1.590750 0.000000 
#    z 0.003200 0.000000 1.542470 
# 
# From -- ./inp_files/16280.got.cif
#   From: 2010.05.17/outbox.cif.g08.bks.cpg/sg10_9_cif.got.tgz:16280.got - 2010.06.03 11:33:40.
