data_PCOD9154363
_publ_section_title
;
Structure prediction by ZEFSAII (Michael W. Deem and Ramdas Pophale) SiO2 
 PCOD9154363
Probable space group: P 2/M
;
_chemical_formula_sum "Si O2"
_cell_formula_units_Z 28
_cell_length_a 24.147512
_cell_length_b 7.623713
_cell_length_c 20.845884
_cell_angle_alpha 90.000000
_cell_angle_beta 17.015170
_cell_angle_gamma 90.000000
_cell_volume 1122.976097
_symmetry_space_group_name_H-M "P 2/M"
_symmetry_group_IT_number 10
_symmetry_cell_setting 'monoclinic'
loop_
_space_group_symop_operation_xyz
x,y,z
-x,y,-z
-x,-y,-z
x,-y,z
loop_
_atom_site_type_symbol
_atom_site_label
_atom_site_fract_x
_atom_site_fract_y
_atom_site_fract_z
Si Si1 0.378204 0.196403 0.981017
Si Si2 0.985901 0.694250 0.376800
Si Si3 0.712641 0.213576 0.356074
Si Si4 0.864530 0.213381 0.059660
Si Si5 0.564878 0.797790 0.647957
Si Si6 0.788438 0.210642 0.710295
Si Si7 0.009345 0.200854 0.771387
O O1 0.156810 0.181663 0.208027
O O2 0.362738 0.275706 0.069754
O O3 0.465022 0.000000 0.889815
O O4 0.464922 0.283784 0.821166
O O5 0.048352 0.500000 0.325122
O O6 0.797978 0.735119 0.625578
O O7 0.967823 0.705486 0.321029
O O8 0.571206 0.277079 0.568592
O O9 0.925951 0.252071 0.144500
O O10 0.693509 0.000000 0.376646
O O11 0.716192 0.272370 0.278045
O O12 0.869281 0.275134 0.980937
O O13 0.850631 0.000000 0.071702
O O14 0.784402 0.804283 0.424953
O O15 0.494049 0.000000 0.721687
O O16 0.000000 0.262509 0.500000
O O17 0.774099 0.000000 0.728042
O O18 0.953746 0.000000 0.819008
#
# Coordination Sequence:
#
# PCOD9154363 Si02
#       7
#     4   4   4   4   4   4   4
#     4   9  17  31  50  70  89 111 143 182 222 264
#     4  11  21  31  45  65  88 117 151 183 217 258
#     4   7   9  16  33  62  93 112 133 172 217 255
#     4   7  10  17  34  61  90 115 138 170 213 255
#     4   8  14  25  45  71  94 114 140 179 224 264
#     4   8  15  29  48  66  84 109 144 184 220 257
#     4   9  16  28  46  68  93 119 146 178 218 260
#
# _framework density 24.933747
#
# number of rings (size 3 to 8) (size 9 to 14) (size 15 to 20)
#    0.000    3.571    0.000    4.714    0.000    2.571 
#    0.000    1.429    0.000    5.143    0.000   15.000 
#    0.000    0.000    0.000    0.000    0.000    0.000 
#
# Total GULP energy -155923.503106 kJ/mol
# GULP energy per Si atom -5568.696540 kJ/mol
# Density = 2.487700 g / cm^3
# Si number density = 24.933747 Si / 1000 Ang^3
#
#
#
# Elastic Constant Matrix: (Units=GPa)
#
#
# Indices 1 2 3 4 5 6 
#
# 1 87.4012 11.7174 87.4445 0.0000 61.3504 0.0000
# 2 11.7174 68.7366 8.7175 0.0000 12.5265 0.0000
# 3 87.4445 8.7175 190.3555 0.0000 86.5001 0.0000
# 4 0.0000 0.0000 0.0000 -24.7842 0.0000 -8.7904
# 5 61.3504 12.5265 86.5001 0.0000 98.6591 0.0000
# 6 0.0000 0.0000 0.0000 -8.7904 0.0000 -0.3480
#
#
#
# Elastic Compliance Matrix: (Units=1/GPa)
#
#
# Indices 1 2 3 4 5 6 
#
# 1 0.025611 -0.001753 -0.007562 0.000000 -0.009074 0.000000
# 2 -0.001753 0.015023 0.000812 0.000000 -0.001529 0.000000
# 3 -0.007562 0.000812 0.010971 0.000000 -0.005020 0.000000
# 4 0.000000 0.000000 0.000000 0.005070 0.000000 -0.128055
# 5 -0.009074 -0.001529 -0.005020 0.000000 0.020374 0.000000
# 6 0.000000 0.000000 0.000000 -0.128055 0.000000 0.361045
#
#
# Mechanical properties :
#
#
# Convention : Reuss Voigt Hill
#
# Bulk Modulus (GPa) = 28.90175 62.47245 45.68710
# Shear Modulus (GPa) = 10.71508 30.61296 20.66402
#
# Velocity S-wave (km/s) = 2.07527 3.50776 2.88194
# Velocity P-wave (km/s) = 4.16640 6.44326 5.42561
#
# Compressibility (1/GPa) = 0.03459998
#
# Stress axis : x y z
#
# Youngs Moduli (GPa) = 39.04546 66.56516 91.15155
#
# Poissons Ratio (x) = 0.11671 0.68925
# Poissons Ratio (y) = 0.06846 -0.07406
# Poissons Ratio (z) = 0.29524 -0.05408
#
# Static dielectric constant tensor:
#      x y z
#    x 2.077310 0.000000 0.076010 
#    y 0.000000 1.957570 0.000000 
#    z 0.076010 0.000000 2.043500 
# 
# From -- ./inp_files/86675.got.cif
#   From: 2010.05.17/outbox.cif.g08.bks.cpg/sg10_44_cif.got.tgz:86675.got - 2010.06.03 11:33:40.
