data_PCOD9154087
_publ_section_title
;
Structure prediction by ZEFSAII (Michael W. Deem and Ramdas Pophale) SiO2 
 PCOD9154087
Probable space group: P 2/M
;
_chemical_formula_sum "Si O2"
_cell_formula_units_Z 18
_cell_length_a 9.176045
_cell_length_b 20.147174
_cell_length_c 4.997899
_cell_angle_alpha 90.000000
_cell_angle_beta 122.836255
_cell_angle_gamma 90.000000
_cell_volume 776.340162
_symmetry_space_group_name_H-M "P 2/M"
_symmetry_group_IT_number 10
_symmetry_cell_setting 'monoclinic'
loop_
_space_group_symop_operation_xyz
x,y,z
-x,y,-z
-x,-y,-z
x,-y,z
loop_
_atom_site_type_symbol
_atom_site_label
_atom_site_fract_x
_atom_site_fract_y
_atom_site_fract_z
Si Si1 0.500000 0.739942 0.500000
Si Si2 0.704266 0.077580 0.129874
Si Si3 0.647375 0.387484 0.829121
Si Si4 0.191751 0.839596 0.277671
Si Si5 0.153486 0.422723 0.471438
O O1 0.418624 0.687914 0.207781
O O2 0.340379 0.783639 0.443534
O O3 0.810484 0.120183 0.449579
O O4 0.749054 0.000000 0.182102
O O5 0.500000 0.083888 0.000000
O O6 0.740595 0.108890 0.878600
O O7 0.500000 0.422345 0.500000
O O8 0.803170 0.389518 0.767115
O O9 0.692665 0.417751 0.157377
O O10 0.000000 0.815930 0.000000
O O11 0.115040 0.500000 0.379529
O O12 0.000000 0.392854 0.500000
#
# Coordination Sequence:
#
# PCOD9154087 Si02
#       5
#     2   4   4   4   4
#     4  10  26  48  64  96 136 170 232 274 308 394
#     4  11  23  43  70 100 135 172 213 275 337 391
#     4  10  24  41  66  90 127 174 208 267 320 378
#     4  12  25  43  71  96 132 178 218 272 329 388
#     4  11  23  41  66  99 131 162 212 272 329 392
#
# _framework density 23.185714000000001
#
# number of rings (size 3 to 8) (size 9 to 14) (size 15 to 20)
#    0.667    0.444    2.222    3.333    0.000   14.222 
#    0.000    0.000    0.000    0.000    0.000    0.000 
#    0.000    0.000    0.000    0.000    0.000    0.000 
#
# Total GULP energy -100596.355679 kJ/mol
# GULP energy per Si atom -5588.686427 kJ/mol
# Density = 2.313294 g / cm^3
# Si number density = 23.185714 Si / 1000 Ang^3
#
#
#
# Elastic Constant Matrix: (Units=GPa)
#
#
# Indices 1 2 3 4 5 6 
#
# 1 115.3066 28.5662 25.2055 0.0000 6.8603 0.0000
# 2 28.5662 104.3150 21.6418 0.0000 0.2573 0.0000
# 3 25.2055 21.6418 104.1692 0.0000 -14.3168 0.0000
# 4 0.0000 0.0000 0.0000 43.1891 0.0000 -41.6730
# 5 6.8603 0.2573 -14.3168 0.0000 49.9923 0.0000
# 6 0.0000 0.0000 0.0000 -41.6730 0.0000 -155.4075
#
#
#
# Elastic Compliance Matrix: (Units=1/GPa)
#
#
# Indices 1 2 3 4 5 6 
#
# 1 0.009819 -0.002231 -0.002182 0.000000 -0.001961 0.000000
# 2 -0.002231 0.010547 -0.001683 0.000000 -0.000230 0.000000
# 3 -0.002182 -0.001683 0.010951 0.000000 0.003444 0.000000
# 4 0.000000 0.000000 0.000000 0.018395 0.000000 -0.004933
# 5 -0.001961 -0.000230 0.003444 0.000000 0.021260 0.000000
# 6 0.000000 0.000000 0.000000 -0.004933 0.000000 -0.005112
#
#
# Mechanical properties :
#
#
# Convention : Reuss Voigt Hill
#
# Bulk Modulus (GPa) = 52.28874 52.73532 52.51203
# Shear Modulus (GPa) = 59.22354 4.11328 31.66841
#
# Velocity S-wave (km/s) = 5.05950 1.33338 3.69976
# Velocity P-wave (km/s) = 7.53210 5.01644 6.39911
#
# Compressibility (1/GPa) = 0.01912458
#
# Stress axis : x y z
#
# Youngs Moduli (GPa) = 101.84425 94.81255 91.31867
#
# Poissons Ratio (x) = 0.21156 0.19923
# Poissons Ratio (y) = 0.22725 0.15368
# Poissons Ratio (z) = 0.22220 0.15956
#
# Static dielectric constant tensor:
#      x y z
#    x 1.997040 0.000000 0.126610 
#    y 0.000000 1.813610 0.000000 
#    z 0.126610 0.000000 1.887810 
# 
# From -- ./inp_files/4891.got.cif
#   From: 2010.05.17/outbox.cif.g08.bks.cpg/sg10_3_cif.got.tgz:4891.got - 2010.06.03 11:33:40.
