data_PCOD9154407
_publ_section_title
;
Structure prediction by ZEFSAII (Michael W. Deem and Ramdas Pophale) SiO2 
 PCOD9154407
Probable space group: P 2/M
;
_chemical_formula_sum "Si O2"
_cell_formula_units_Z 32
_cell_length_a 21.516488
_cell_length_b 8.523878
_cell_length_c 15.586049
_cell_angle_alpha 90.000000
_cell_angle_beta 138.001506
_cell_angle_gamma 90.000000
_cell_volume 1912.682415
_symmetry_space_group_name_H-M "P 2/M"
_symmetry_group_IT_number 10
_symmetry_cell_setting 'monoclinic'
loop_
_space_group_symop_operation_xyz
x,y,z
-x,y,-z
-x,-y,-z
x,-y,z
loop_
_atom_site_type_symbol
_atom_site_label
_atom_site_fract_x
_atom_site_fract_y
_atom_site_fract_z
Si Si1 0.280421 0.812064 0.128387
Si Si2 0.967515 0.180256 0.833266
Si Si3 0.116854 0.684639 0.862819
Si Si4 0.518097 0.312135 0.617600
Si Si5 0.809335 0.190750 0.786170
Si Si6 0.981917 0.190373 0.578868
Si Si7 0.666486 0.809400 0.490469
Si Si8 0.181488 0.819766 0.476155
O O1 0.384156 0.749306 0.246344
O O2 0.224706 0.758398 0.156375
O O3 0.282905 0.000000 0.130415
O O4 0.218519 0.753574 0.985799
O O5 0.910041 0.242532 0.855662
O O6 0.888407 0.174590 0.677459
O O7 0.051266 0.273314 0.877130
O O8 0.998649 0.000000 0.880774
O O9 0.122231 0.500000 0.858245
O O10 0.063430 0.757071 0.726557
O O11 0.500000 0.257021 0.500000
O O12 0.519387 0.500000 0.617257
O O13 0.434767 0.253931 0.592700
O O14 0.730963 0.237614 0.637334
O O15 0.813191 0.000000 0.788735
O O16 0.883231 0.250754 0.515905
O O17 0.000000 0.239096 0.500000
O O18 0.978624 0.000000 0.578663
O O19 0.722564 0.752857 0.463337
O O20 0.664253 0.000000 0.485588
O O21 0.201621 0.000000 0.521522
#
# Coordination Sequence:
#
# PCOD9154407 Si02
#       8
#     4   4   4   4   4   4   4   4
#     4  11  21  34  51  67  88 126 175 214 245 287
#     4   8  14  29  48  65  89 124 166 203 236 279
#     4  11  22  34  46  68 103 133 157 195 246 296
#     4  11  22  33  45  67  98 129 164 213 260 292
#     4   8  15  27  47  69  87 118 168 216 244 272
#     4   9  17  33  58  82 102 127 160 196 235 287
#     4   9  15  28  48  68  92 126 168 207 241 282
#     4   7  12  24  46  74  99 120 153 200 238 275
#
# _framework density 16.730430999999999
#
# number of rings (size 3 to 8) (size 9 to 14) (size 15 to 20)
#    0.000    2.750    1.250    4.125    0.000    1.250 
#    0.000    9.375    0.000    0.000    0.000    0.875 
#    0.000    7.000    0.000    0.000    0.000    0.000 
#
# Total GULP energy -178281.276316 kJ/mol
# GULP energy per Si atom -5571.289885 kJ/mol
# Density = 1.669235 g / cm^3
# Si number density = 16.730431 Si / 1000 Ang^3
#
#
#
# Elastic Constant Matrix: (Units=GPa)
#
#
# Indices 1 2 3 4 5 6 
#
# 1 137.1035 24.0498 72.0418 0.0000 8.4265 0.0000
# 2 24.0498 27.6065 18.6460 0.0000 3.8445 0.0000
# 3 72.0418 18.6460 89.8555 0.0000 16.9322 0.0000
# 4 0.0000 0.0000 0.0000 33.2903 0.0000 99.6758
# 5 8.4265 3.8445 16.9322 0.0000 18.2597 0.0000
# 6 0.0000 0.0000 0.0000 99.6758 0.0000 490.5256
#
#
#
# Elastic Compliance Matrix: (Units=1/GPa)
#
#
# Indices 1 2 3 4 5 6 
#
# 1 0.013512 -0.005246 -0.010636 0.000000 0.004732 0.000000
# 2 -0.005246 0.044178 -0.004441 0.000000 -0.002763 0.000000
# 3 -0.010636 -0.004441 0.023601 0.000000 -0.016042 0.000000
# 4 0.000000 0.000000 0.000000 0.076711 0.000000 -0.015588
# 5 0.004732 -0.002763 -0.016042 0.000000 0.068039 0.000000
# 6 0.000000 0.000000 0.000000 -0.015588 0.000000 0.005206
#
#
# Mechanical properties :
#
#
# Convention : Reuss Voigt Hill
#
# Bulk Modulus (GPa) = 24.60362 53.78229 39.19296
# Shear Modulus (GPa) = 17.51672 117.73698 67.62685
#
# Velocity S-wave (km/s) = 3.23924 8.39796 6.36468
# Velocity P-wave (km/s) = 5.35986 11.23612 8.80280
#
# Compressibility (1/GPa) = 0.04064442
#
# Stress axis : x y z
#
# Youngs Moduli (GPa) = 74.00731 22.63588 42.37079
#
# Poissons Ratio (x) = 0.11875 0.45068
# Poissons Ratio (y) = 0.38826 0.18815
# Poissons Ratio (z) = 0.78718 0.10052
#
# Static dielectric constant tensor:
#      x y z
#    x 1.601550 0.000000 0.003930 
#    y 0.000000 1.563050 0.000000 
#    z 0.003930 0.000000 1.561630 
# 
# From -- ./inp_files/70013.got.cif
#   From: 2010.05.17/outbox.cif.g08.bks.cpg/sg10_36_cif.got.tgz:70013.got - 2010.06.03 11:33:40.
