data_PCOD9154657
_publ_section_title
;
Structure prediction by ZEFSAII (Michael W. Deem and Ramdas Pophale) SiO2 
 PCOD9154657
Probable space group: P 2/M
;
_chemical_formula_sum "Si O2"
_cell_formula_units_Z 14
_cell_length_a 6.420667
_cell_length_b 10.046775
_cell_length_c 9.715422
_cell_angle_alpha 90.000000
_cell_angle_beta 74.749370
_cell_angle_gamma 90.000000
_cell_volume 604.642651
_symmetry_space_group_name_H-M "P 2/M"
_symmetry_group_IT_number 10
_symmetry_cell_setting 'monoclinic'
loop_
_space_group_symop_operation_xyz
x,y,z
-x,y,-z
-x,-y,-z
x,-y,z
loop_
_atom_site_type_symbol
_atom_site_label
_atom_site_fract_x
_atom_site_fract_y
_atom_site_fract_z
Si Si1 0.148769 0.704590 0.754867
Si Si2 0.402778 0.500000 0.866051
Si Si3 0.500000 0.777522 0.500000
Si Si4 0.991456 0.000000 0.165031
Si Si5 0.760948 0.000000 0.614377
Si Si6 0.140480 0.500000 0.334167
O O1 0.251336 0.627870 0.865394
O O2 0.322096 0.690214 0.603962
O O3 0.937730 0.629546 0.738434
O O4 0.122617 0.861473 0.777753
O O5 0.601684 0.500000 0.722593
O O6 0.500000 0.500000 0.000000
O O7 0.627531 0.872998 0.584426
O O8 0.200507 0.000000 0.228663
O O9 0.000000 0.000000 0.000000
O O10 0.000000 0.000000 0.500000
O O11 0.000000 0.500000 0.500000
#
# Coordination Sequence:
#
# PCOD9154657 Si02
#       6
#     4   2   2   2   2   2
#     4  11  26  45  70 109 141 184 249 300 359 442
#     4  11  28  47  74  98 148 203 237 298 370 447
#     4  11  22  41  74 108 138 184 254 300 364 426
#     4  12  28  44  72 108 150 194 238 303 372 438
#     4  11  22  41  66 102 146 193 231 298 367 428
#     4  11  26  47  74 104 142 189 242 303 365 426
#
# _framework density 23.154171999999999
#
# number of rings (size 3 to 8) (size 9 to 14) (size 15 to 20)
#    0.000    0.857    2.857    2.571   12.000    3.429 
#    0.000    2.143    0.000    0.000    0.000    0.000 
#    0.000    0.000    0.000    0.000    0.000    0.000 
#
# Total GULP energy -78323.540147 kJ/mol
# GULP energy per Si atom -5594.538582 kJ/mol
# Density = 2.310147 g / cm^3
# Si number density = 23.154172 Si / 1000 Ang^3
#
#
#
# Elastic Constant Matrix: (Units=GPa)
#
#
# Indices 1 2 3 4 5 6 
#
# 1 114.5918 49.7507 23.3936 0.0000 23.0439 0.0000
# 2 49.7507 152.8722 15.3709 0.0000 16.7188 0.0000
# 3 23.3936 15.3709 96.2486 0.0000 30.4433 0.0000
# 4 0.0000 0.0000 0.0000 14.0061 0.0000 -2.6919
# 5 23.0439 16.7188 30.4433 0.0000 49.6182 0.0000
# 6 0.0000 0.0000 0.0000 -2.6919 0.0000 34.3870
#
#
#
# Elastic Compliance Matrix: (Units=1/GPa)
#
#
# Indices 1 2 3 4 5 6 
#
# 1 0.010973 -0.003091 -0.001105 0.000000 -0.003377 0.000000
# 2 -0.003091 0.007678 -0.000137 0.000000 -0.001067 0.000000
# 3 -0.001105 -0.000137 0.013033 0.000000 -0.007436 0.000000
# 4 0.000000 0.000000 0.000000 0.072488 0.000000 0.005675
# 5 -0.003377 -0.001067 -0.007436 0.000000 0.026644 0.000000
# 6 0.000000 0.000000 0.000000 0.005675 0.000000 0.029525
#
#
# Mechanical properties :
#
#
# Convention : Reuss Voigt Hill
#
# Bulk Modulus (GPa) = 43.44721 60.08255 51.76488
# Shear Modulus (GPa) = 28.29979 37.94878 33.12428
#
# Velocity S-wave (km/s) = 3.49984 4.05280 3.78643
# Velocity P-wave (km/s) = 5.92764 6.92138 6.44369
#
# Compressibility (1/GPa) = 0.02301644
#
# Stress axis : x y z
#
# Youngs Moduli (GPa) = 91.13156 130.24596 76.73116
#
# Poissons Ratio (x) = 0.40255 0.08483
# Poissons Ratio (y) = 0.28166 0.01054
# Poissons Ratio (z) = 0.10075 0.01789
#
# Static dielectric constant tensor:
#      x y z
#    x 1.839510 0.000000 -0.005440 
#    y 0.000000 1.944250 0.000000 
#    z -0.005440 0.000000 1.932010 
# 
# From -- ./inp_files/14041.got.cif
#   From: 2010.05.17/outbox.cif.g08.bks.cpg/sg10_8_cif.got.tgz:14041.got - 2010.06.03 11:33:40.
