data_PCOD9154915
_publ_section_title
;
Structure prediction by ZEFSAII (Michael W. Deem and Ramdas Pophale) SiO2 
 PCOD9154915
Probable space group: P 2/M
;
_chemical_formula_sum "Si O2"
_cell_formula_units_Z 14
_cell_length_a 7.129903
_cell_length_b 20.068773
_cell_length_c 5.155628
_cell_angle_alpha 90.000000
_cell_angle_beta 132.761095
_cell_angle_gamma 90.000000
_cell_volume 541.620510
_symmetry_space_group_name_H-M "P 2/M"
_symmetry_group_IT_number 10
_symmetry_cell_setting 'monoclinic'
loop_
_space_group_symop_operation_xyz
x,y,z
-x,y,-z
-x,-y,-z
x,-y,z
loop_
_atom_site_type_symbol
_atom_site_label
_atom_site_fract_x
_atom_site_fract_y
_atom_site_fract_z
Si Si1 0.259822 0.500000 0.576402
Si Si2 0.264153 0.216640 0.587820
Si Si3 0.820858 0.929631 0.584648
Si Si4 0.740357 0.642165 0.424278
O O1 0.262336 0.571080 0.432282
O O2 0.000000 0.500000 0.500000
O O3 0.500000 0.500000 0.000000
O O4 0.301288 0.143182 0.507048
O O5 0.258284 0.286669 0.426250
O O6 0.000000 0.214232 0.500000
O O7 0.500000 0.223653 0.000000
O O8 0.000000 0.928437 0.500000
O O9 0.668820 0.000000 0.425402
O O10 0.000000 0.933617 0.000000
O O11 0.000000 0.642762 0.500000
O O12 0.500000 0.640867 0.000000
#
# Coordination Sequence:
#
# PCOD9154915 Si02
#       4
#     2   4   4   4
#     4   8  12  18  30  52  83 118 156 198 244 294
#     4   9  17  30  48  71 100 134 172 214 261 312
#     4   9  18  34  55  79 107 140 178 220 267 319
#     4   8  13  21  35  57  87 122 160 202 248 299
#
# _framework density 25.848357
#
# number of rings (size 3 to 8) (size 9 to 14) (size 15 to 20)
#    0.000    3.429    0.000    0.000    0.000    0.571 
#    0.000    5.714    0.000   15.429    0.000    1.000 
#    0.000    0.000    0.000  126.571    0.000    7.429 
#
# Total GULP energy -78042.379453 kJ/mol
# GULP energy per Si atom -5574.455675 kJ/mol
# Density = 2.578953 g / cm^3
# Si number density = 25.848357 Si / 1000 Ang^3
#
#
#
# Elastic Constant Matrix: (Units=GPa)
#
#
# Indices 1 2 3 4 5 6 
#
# 1 173.2460 -4.3726 27.1452 0.0000 25.0577 0.0000
# 2 -4.3726 423.4528 -0.2315 0.0000 -7.2951 0.0000
# 3 27.1452 -0.2315 109.6713 0.0000 23.0542 0.0000
# 4 0.0000 0.0000 0.0000 16.5257 0.0000 24.8816
# 5 25.0577 -7.2951 23.0542 0.0000 46.4595 0.0000
# 6 0.0000 0.0000 0.0000 24.8816 0.0000 -70.1957
#
#
#
# Elastic Compliance Matrix: (Units=1/GPa)
#
#
# Indices 1 2 3 4 5 6 
#
# 1 0.006348 0.000014 -0.000951 0.000000 -0.002950 0.000000
# 2 0.000014 0.002369 -0.000084 0.000000 0.000406 0.000000
# 3 -0.000951 -0.000084 0.010325 0.000000 -0.004624 0.000000
# 4 0.000000 0.000000 0.000000 0.039455 0.000000 0.013985
# 5 -0.002950 0.000406 -0.004624 0.000000 0.025473 0.000000
# 6 0.000000 0.000000 0.000000 0.013985 0.000000 -0.009289
#
#
# Mechanical properties :
#
#
# Convention : Reuss Voigt Hill
#
# Bulk Modulus (GPa) = 58.82153 83.49469 71.15811
# Shear Modulus (GPa) = 60.68678 44.14650 52.41664
#
# Velocity S-wave (km/s) = 4.85067 4.13716 4.50805
# Velocity P-wave (km/s) = 7.36055 7.42922 7.39497
#
# Compressibility (1/GPa) = 0.01700058
#
# Stress axis : x y z
#
# Youngs Moduli (GPa) = 157.52599 422.18476 96.84859
#
# Poissons Ratio (x) = -0.00600 0.09212
# Poissons Ratio (y) = -0.00224 0.00812
# Poissons Ratio (z) = 0.14984 0.03539
#
# Static dielectric constant tensor:
#      x y z
#    x 1.929710 0.000000 0.023780 
#    y 0.000000 2.326600 0.000000 
#    z 0.023780 0.000000 2.012180 
# 
# From -- ./inp_files/967.got.cif
#   From: 2010.05.17/outbox.cif.g08.bks.cpg/sg10_1_cif.got.tgz:967.got - 2010.06.03 11:33:40.
