data_PCOD9154818
_publ_section_title
;
Structure prediction by ZEFSAII (Michael W. Deem and Ramdas Pophale) SiO2 
 PCOD9154818
Probable space group: P 2/M
;
_chemical_formula_sum "Si O2"
_cell_formula_units_Z 14
_cell_length_a 4.896259
_cell_length_b 19.855028
_cell_length_c 5.149610
_cell_angle_alpha 90.000000
_cell_angle_beta 92.271770
_cell_angle_gamma 90.000000
_cell_volume 500.227723
_symmetry_space_group_name_H-M "P 2/M"
_symmetry_group_IT_number 10
_symmetry_cell_setting 'monoclinic'
loop_
_space_group_symop_operation_xyz
x,y,z
-x,y,-z
-x,-y,-z
x,-y,z
loop_
_atom_site_type_symbol
_atom_site_label
_atom_site_fract_x
_atom_site_fract_y
_atom_site_fract_z
Si Si1 0.203572 0.000000 0.260021
Si Si2 0.695800 0.500000 0.756346
Si Si3 0.218822 0.790736 0.318633
Si Si4 0.500000 0.114770 0.000000
Si Si5 0.694628 0.643905 0.756518
O O1 0.000000 0.000000 0.500000
O O2 0.409146 0.937017 0.223634
O O3 0.000000 0.000000 0.000000
O O4 0.500000 0.500000 0.500000
O O5 0.847349 0.571849 0.760489
O O6 0.500000 0.500000 0.000000
O O7 0.500000 0.791086 0.500000
O O8 0.269436 0.830037 0.054619
O O9 0.142810 0.713299 0.258452
O O10 0.000000 0.823863 0.500000
O O11 0.500000 0.642624 0.500000
O O12 0.500000 0.648192 0.000000
#
# Coordination Sequence:
#
# PCOD9154818 Si02
#       5
#     2   2   4   2   4
#     4  11  28  49  76 106 143 182 233 283 348 420
#     4   8  14  26  55  82 126 175 225 281 342 398
#     4  11  25  43  69 103 143 186 236 289 351 415
#     4  11  26  44  74 103 144 182 232 287 346 422
#     4   9  17  35  56  93 131 178 230 286 342 408
#
# _framework density 27.987252000000002
#
# number of rings (size 3 to 8) (size 9 to 14) (size 15 to 20)
#    0.000    2.000    1.429    0.857    8.000    1.143 
#    0.000    0.714    0.000    0.000    0.000   18.000 
#    0.000    0.000    0.000    0.000    0.000    0.000 
#
# Total GULP energy -78206.719985 kJ/mol
# GULP energy per Si atom -5586.194285 kJ/mol
# Density = 2.792355 g / cm^3
# Si number density = 27.987252 Si / 1000 Ang^3
#
#
#
# Elastic Constant Matrix: (Units=GPa)
#
#
# Indices 1 2 3 4 5 6 
#
# 1 119.3668 13.9202 73.5708 0.0000 -5.1144 0.0000
# 2 13.9202 247.5763 31.9596 0.0000 -40.0708 0.0000
# 3 73.5708 31.9596 270.1739 0.0000 -30.3990 0.0000
# 4 0.0000 0.0000 0.0000 -14.1670 0.0000 -36.4141
# 5 -5.1144 -40.0708 -30.3990 0.0000 86.9233 0.0000
# 6 0.0000 0.0000 0.0000 -36.4141 0.0000 -269.9567
#
#
#
# Elastic Compliance Matrix: (Units=1/GPa)
#
#
# Indices 1 2 3 4 5 6 
#
# 1 0.010099 -0.000292 -0.002773 0.000000 -0.000510 0.000000
# 2 -0.000292 0.004397 -0.000223 0.000000 0.001932 0.000000
# 3 -0.002773 -0.000223 0.004635 0.000000 0.001355 0.000000
# 4 0.000000 0.000000 0.000000 -0.108048 0.000000 0.014574
# 5 -0.000510 0.001932 0.001355 0.000000 0.012839 0.000000
# 6 0.000000 0.000000 0.000000 0.014574 0.000000 -0.005670
#
#
# Mechanical properties :
#
#
# Convention : Reuss Voigt Hill
#
# Bulk Modulus (GPa) = 79.65441 97.33538 88.49490
# Shear Modulus (GPa) = -70.43618 -4.92900 -37.68259
#
# Velocity S-wave (km/s) = -5.02214 -1.32853 -3.67334
# Velocity P-wave (km/s) = 2.25974 5.70093 3.70096
#
# Compressibility (1/GPa) = 0.01255423
#
# Stress axis : x y z
#
# Youngs Moduli (GPa) = 99.02176 227.42424 215.73841
#
# Poissons Ratio (x) = 0.06652 0.59820
# Poissons Ratio (y) = 0.02896 0.04814
# Poissons Ratio (z) = 0.27457 0.05075
#
# Static dielectric constant tensor:
#      x y z
#    x 2.268500 0.000000 0.232170 
#    y 0.000000 2.240550 0.000000 
#    z 0.232170 0.000000 2.222950 
# 
# From -- ./inp_files/1005.got.cif
#   From: 2010.05.17/outbox.cif.g08.bks.cpg/sg10_1_cif.got.tgz:1005.got - 2010.06.03 11:33:40.
