data_PCOD9154109
_publ_section_title
;
Structure prediction by ZEFSAII (Michael W. Deem and Ramdas Pophale) SiO2 
 PCOD9154109
Probable space group: P 2/M
;
_chemical_formula_sum "Si O2"
_cell_formula_units_Z 28
_cell_length_a 23.036567
_cell_length_b 15.117297
_cell_length_c 10.035987
_cell_angle_alpha 90.000000
_cell_angle_beta 154.938747
_cell_angle_gamma 90.000000
_cell_volume 1480.452710
_symmetry_space_group_name_H-M "P 2/M"
_symmetry_group_IT_number 10
_symmetry_cell_setting 'monoclinic'
loop_
_space_group_symop_operation_xyz
x,y,z
-x,y,-z
-x,-y,-z
x,-y,z
loop_
_atom_site_type_symbol
_atom_site_label
_atom_site_fract_x
_atom_site_fract_y
_atom_site_fract_z
Si Si1 0.863313 0.000000 0.809048
Si Si2 0.834572 0.814044 0.155857
Si Si3 0.131622 0.000000 0.870171
Si Si4 0.246813 0.738308 0.738899
Si Si5 0.733495 0.313358 0.715701
Si Si6 0.662957 0.832731 0.345047
Si Si7 0.992212 0.600761 0.824075
Si Si8 0.473682 0.402219 0.287457
O O1 0.764984 0.915089 0.582523
O O2 0.000000 0.000000 0.000000
O O3 0.907861 0.000000 0.056853
O O4 0.785372 0.801980 0.204231
O O5 0.000000 0.807405 0.500000
O O6 0.793135 0.908967 0.009091
O O7 0.774698 0.738671 0.935802
O O8 0.000000 0.000000 0.500000
O O9 0.288912 0.790320 0.694333
O O10 0.117993 0.673921 0.447373
O O11 0.369146 0.673884 0.033356
O O12 0.686878 0.240818 0.509663
O O13 0.612529 0.380293 0.498766
O O14 0.863170 0.367034 0.932012
O O15 0.500000 0.855330 0.000000
O O16 0.960236 0.500000 0.713577
O O17 0.000000 0.600699 0.000000
O O18 0.500000 0.400306 0.500000
O O19 0.422116 0.500000 0.144281
#
# Coordination Sequence:
#
# PCOD9154109 Si02
#       8
#     2   4   2   4   4   4   4   4
#     4  12  29  45  75 106 132 174 222 276 331 395
#     4  11  23  40  68  95 135 169 215 281 333 392
#     4  10  24  43  65 104 137 161 213 274 329 390
#     4  12  24  42  68  98 131 176 225 269 333 398
#     4  12  22  43  67  96 130 180 218 270 337 394
#     4  12  27  46  69  97 141 176 215 272 334 398
#     4  11  24  40  62  96 134 170 219 281 331 384
#     4  11  24  42  65  97 135 176 225 277 330 397
#
# _framework density 18.913132999999998
#
# number of rings (size 3 to 8) (size 9 to 14) (size 15 to 20)
#    0.000    0.571    7.143    1.071    6.000    0.000 
#    0.000    1.429    0.000    1.714    0.000    0.000 
#    0.000    0.000    0.000    0.000    0.000    0.000 
#
# Total GULP energy -156482.127323 kJ/mol
# GULP energy per Si atom -5588.647404 kJ/mol
# Density = 1.887009 g / cm^3
# Si number density = 18.913133 Si / 1000 Ang^3
#
#
#
# Elastic Constant Matrix: (Units=GPa)
#
#
# Indices 1 2 3 4 5 6 
#
# 1 138.5928 46.8607 50.1843 0.0000 1.3293 0.0000
# 2 46.8607 89.1931 17.0274 0.0000 -3.4630 0.0000
# 3 50.1843 17.0274 71.3822 0.0000 8.1119 0.0000
# 4 0.0000 0.0000 0.0000 37.9570 0.0000 1.5444
# 5 1.3293 -3.4630 8.1119 0.0000 41.2747 0.0000
# 6 0.0000 0.0000 0.0000 1.5444 0.0000 23.1212
#
#
#
# Elastic Compliance Matrix: (Units=1/GPa)
#
#
# Indices 1 2 3 4 5 6 
#
# 1 0.011249 -0.004572 -0.006887 0.000000 0.000608 0.000000
# 2 -0.004572 0.013705 -0.000207 0.000000 0.001338 0.000000
# 3 -0.006887 -0.000207 0.019308 0.000000 -0.003590 0.000000
# 4 0.000000 0.000000 0.000000 0.026417 0.000000 -0.001765
# 5 0.000608 0.001338 -0.003590 0.000000 0.025026 0.000000
# 6 0.000000 0.000000 0.000000 -0.001765 0.000000 0.043368
#
#
# Mechanical properties :
#
#
# Convention : Reuss Voigt Hill
#
# Bulk Modulus (GPa) = 47.77673 58.59033 53.18353
# Shear Modulus (GPa) = 29.51887 32.81029 31.16458
#
# Velocity S-wave (km/s) = 3.95493 4.16960 4.06368
# Velocity P-wave (km/s) = 6.79495 7.36387 7.08512
#
# Compressibility (1/GPa) = 0.02093069
#
# Stress axis : x y z
#
# Youngs Moduli (GPa) = 88.89559 72.96586 51.79099
#
# Poissons Ratio (x) = 0.33358 0.35669
# Poissons Ratio (y) = 0.40641 0.01073
# Poissons Ratio (z) = 0.61223 0.01511
#
# Static dielectric constant tensor:
#      x y z
#    x 1.670590 0.000000 0.031540 
#    y 0.000000 1.656130 0.000000 
#    z 0.031540 0.000000 1.670580 
# 
# From -- ./inp_files/35322.got.cif
#   From: 2010.05.17/outbox.cif.g08.bks.cpg/sg10_18_cif.got.tgz:35322.got - 2010.06.03 11:33:40.
