data_PCOD9154820
_publ_section_title
;
Structure prediction by ZEFSAII (Michael W. Deem and Ramdas Pophale) SiO2 
 PCOD9154820
Probable space group: P 2/M
;
_chemical_formula_sum "Si O2"
_cell_formula_units_Z 16
_cell_length_a 9.037642
_cell_length_b 16.121977
_cell_length_c 9.151647
_cell_angle_alpha 90.000000
_cell_angle_beta 149.168064
_cell_angle_gamma 90.000000
_cell_volume 683.415509
_symmetry_space_group_name_H-M "P 2/M"
_symmetry_group_IT_number 10
_symmetry_cell_setting 'monoclinic'
loop_
_space_group_symop_operation_xyz
x,y,z
-x,y,-z
-x,-y,-z
x,-y,z
loop_
_atom_site_type_symbol
_atom_site_label
_atom_site_fract_x
_atom_site_fract_y
_atom_site_fract_z
Si Si1 0.115307 0.593966 0.932042
Si Si2 0.019301 0.094133 0.192593
Si Si3 0.251300 0.662594 0.606148
Si Si4 0.460624 0.154862 0.807543
O O1 0.059763 0.500000 0.830279
O O2 0.445153 0.615956 0.166580
O O3 0.000000 0.593361 0.000000
O O4 0.909147 0.660178 0.682716
O O5 0.295575 0.111149 0.531460
O O6 0.926281 0.000000 0.152216
O O7 0.000000 0.095305 0.000000
O O8 0.788958 0.162937 0.039029
O O9 0.319792 0.755810 0.712413
O O10 0.000000 0.627212 0.500000
O O11 0.500000 0.111935 0.000000
#
# Coordination Sequence:
#
# PCOD9154820 Si02
#       4
#     4   4   4   4
#     4  11  25  44  67  98 134 174 225 281 337 403
#     4  11  25  44  67  98 134 174 225 281 337 403
#     4  12  25  43  67  97 135 176 224 279 336 402
#     4  12  25  43  67  97 135 176 224 279 336 402
#
# _framework density 23.411819000000001
#
# number of rings (size 3 to 8) (size 9 to 14) (size 15 to 20)
#    0.000    0.500    0.000    9.000    0.000   16.000 
#    0.000    0.000    0.000    0.000    0.000    0.000 
#    0.000    0.000    0.000    0.000    0.000    0.000 
#
# Total GULP energy -89127.291831 kJ/mol
# GULP energy per Si atom -5570.455739 kJ/mol
# Density = 2.335853 g / cm^3
# Si number density = 23.411819 Si / 1000 Ang^3
#
#
#
# Elastic Constant Matrix: (Units=GPa)
#
#
# Indices 1 2 3 4 5 6 
#
# 1 57.8837 28.9455 24.8258 0.0000 -20.4534 0.0000
# 2 28.9455 65.2245 41.7397 0.0000 -9.3179 0.0000
# 3 24.8258 41.7397 157.8647 0.0000 -16.7002 0.0000
# 4 0.0000 0.0000 0.0000 18.2286 0.0000 9.2234
# 5 -20.4534 -9.3179 -16.7002 0.0000 50.3438 0.0000
# 6 0.0000 0.0000 0.0000 9.2234 0.0000 18.0100
#
#
#
# Elastic Compliance Matrix: (Units=1/GPa)
#
#
# Indices 1 2 3 4 5 6 
#
# 1 0.025286 -0.009693 -0.000535 0.000000 0.008301 0.000000
# 2 -0.009693 0.022340 -0.004520 0.000000 -0.001303 0.000000
# 3 -0.000535 -0.004520 0.007775 0.000000 0.001525 0.000000
# 4 0.000000 0.000000 0.000000 0.074046 0.000000 -0.037921
# 5 0.008301 -0.001303 0.001525 0.000000 0.023501 0.000000
# 6 0.000000 0.000000 0.000000 -0.037921 0.000000 0.074945
#
#
# Mechanical properties :
#
#
# Convention : Reuss Voigt Hill
#
# Bulk Modulus (GPa) = 38.60416 52.44388 45.52402
# Shear Modulus (GPa) = 18.79524 29.68060 24.23792
#
# Velocity S-wave (km/s) = 2.83646 3.56443 3.22108
# Velocity P-wave (km/s) = 5.22038 6.27610 5.77242
#
# Compressibility (1/GPa) = 0.02590394
#
# Stress axis : x y z
#
# Youngs Moduli (GPa) = 39.54731 44.76317 128.61363
#
# Poissons Ratio (x) = 0.43389 0.06887
# Poissons Ratio (y) = 0.38333 0.58136
# Poissons Ratio (z) = 0.02118 0.20234
#
# Static dielectric constant tensor:
#      x y z
#    x 2.083420 0.000000 -0.084550 
#    y 0.000000 1.853910 0.000000 
#    z -0.084550 0.000000 1.942600 
# 
# From -- ./inp_files/19444.got.cif
#   From: 2010.05.17/outbox.cif.g08.bks.cpg/sg10_10_cif.got.tgz:19444.got - 2010.06.03 11:33:40.
