data_PCOD9154163
_publ_section_title
;
Structure prediction by ZEFSAII (Michael W. Deem and Ramdas Pophale) SiO2 
 PCOD9154163
Probable space group: P 2/M
;
_chemical_formula_sum "Si O2"
_cell_formula_units_Z 15
_cell_length_a 5.049151
_cell_length_b 21.975654
_cell_length_c 5.310312
_cell_angle_alpha 90.000000
_cell_angle_beta 91.473710
_cell_angle_gamma 90.000000
_cell_volume 589.028801
_symmetry_space_group_name_H-M "P 2/M"
_symmetry_group_IT_number 10
_symmetry_cell_setting 'monoclinic'
loop_
_space_group_symop_operation_xyz
x,y,z
-x,y,-z
-x,-y,-z
x,-y,z
loop_
_atom_site_type_symbol
_atom_site_label
_atom_site_fract_x
_atom_site_fract_y
_atom_site_fract_z
Si Si1 0.000000 0.791418 0.000000
Si Si2 0.000000 0.000000 0.000000
Si Si3 0.679555 0.564749 0.252659
Si Si4 0.755865 0.700003 0.329453
Si Si5 0.234944 0.100671 0.323798
O O1 0.225173 0.746622 0.897651
O O2 0.859193 0.835186 0.793062
O O3 0.787064 0.053261 0.903830
O O4 0.500000 0.564578 0.500000
O O5 0.832337 0.500000 0.255479
O O6 0.816977 0.630091 0.252744
O O7 0.500000 0.564664 0.000000
O O8 0.500000 0.701014 0.500000
O O9 0.000000 0.720481 0.500000
O O10 0.500000 0.103715 0.500000
O O11 0.000000 0.077366 0.500000
#
# Coordination Sequence:
#
# PCOD9154163 Si02
#       5
#     2   1   4   4   4
#     4  11  28  47  73 106 155 206 254 312 383 460
#     4  10  24  46  84 112 150 194 248 302 378 440
#     4   9  20  42  70 103 143 190 253 329 403 472
#     4  11  27  46  71 105 143 197 256 316 385 466
#     4  11  26  48  74 113 152 197 247 310 370 449
#
# _framework density 25.465644000000001
#
# number of rings (size 3 to 8) (size 9 to 14) (size 15 to 20)
#    0.000    1.600    0.000    1.600    7.467   12.267 
#    0.000    0.667    0.000    1.600    0.000    0.000 
#    0.000    0.000    0.000    0.000    0.000    0.000 
#
# Total GULP energy -83661.309793 kJ/mol
# GULP energy per Si atom -5577.420653 kJ/mol
# Density = 2.540768 g / cm^3
# Si number density = 25.465644 Si / 1000 Ang^3
#
#
#
# Elastic Constant Matrix: (Units=GPa)
#
#
# Indices 1 2 3 4 5 6 
#
# 1 144.2886 38.1310 53.2612 0.0000 19.2136 0.0000
# 2 38.1310 246.5516 38.0955 0.0000 7.4965 0.0000
# 3 53.2612 38.0955 121.3920 0.0000 24.3711 0.0000
# 4 0.0000 0.0000 0.0000 706.2019 0.0000 -132.0956
# 5 19.2136 7.4965 24.3711 0.0000 56.1778 0.0000
# 6 0.0000 0.0000 0.0000 -132.0956 0.0000 45.0939
#
#
#
# Elastic Compliance Matrix: (Units=1/GPa)
#
#
# Indices 1 2 3 4 5 6 
#
# 1 0.008507 -0.000778 -0.003204 0.000000 -0.001416 0.000000
# 2 -0.000778 0.004334 -0.001047 0.000000 0.000142 0.000000
# 3 -0.003204 -0.001047 0.010652 0.000000 -0.003385 0.000000
# 4 0.000000 0.000000 0.000000 0.003132 0.000000 0.009176
# 5 -0.001416 0.000142 -0.003385 0.000000 0.019735 0.000000
# 6 0.000000 0.000000 0.000000 0.009176 0.000000 0.049055
#
#
# Mechanical properties :
#
#
# Convention : Reuss Voigt Hill
#
# Bulk Modulus (GPa) = 74.43512 85.68972 80.06242
# Shear Modulus (GPa) = 45.47443 187.01103 116.24273
#
# Velocity S-wave (km/s) = 4.23036 8.57881 6.76358
# Velocity P-wave (km/s) = 7.29070 11.48261 9.61781
#
# Compressibility (1/GPa) = 0.01343452
#
# Stress axis : x y z
#
# Youngs Moduli (GPa) = 117.54470 230.74888 93.87853
#
# Poissons Ratio (x) = 0.17942 0.30082
# Poissons Ratio (y) = 0.09140 0.09833
# Poissons Ratio (z) = 0.37666 0.24168
#
# Static dielectric constant tensor:
#      x y z
#    x 2.037660 0.000000 -0.029430 
#    y 0.000000 2.032250 0.000000 
#    z -0.029430 0.000000 1.823870 
# 
# From -- ./inp_files/1416.got.cif
#   From: 2010.05.17/outbox.cif.g08.bks.cpg/sg10_1_cif.got.tgz:1416.got - 2010.06.03 11:33:40.
