data_PCOD9154984
_publ_section_title
;
Structure prediction by ZEFSAII (Michael W. Deem and Ramdas Pophale) SiO2 
 PCOD9154984
Probable space group: P 2/M
;
_chemical_formula_sum "Si O2"
_cell_formula_units_Z 28
_cell_length_a 22.607427
_cell_length_b 9.085381
_cell_length_c 19.829194
_cell_angle_alpha 90.000000
_cell_angle_beta 18.404074
_cell_angle_gamma 90.000000
_cell_volume 1285.868717
_symmetry_space_group_name_H-M "P 2/M"
_symmetry_group_IT_number 10
_symmetry_cell_setting 'monoclinic'
loop_
_space_group_symop_operation_xyz
x,y,z
-x,y,-z
-x,-y,-z
x,-y,z
loop_
_atom_site_type_symbol
_atom_site_label
_atom_site_fract_x
_atom_site_fract_y
_atom_site_fract_z
Si Si1 0.983773 0.168017 0.591506
Si Si2 0.335131 0.676415 0.376800
Si Si3 0.419913 0.831812 0.156463
Si Si4 0.293165 0.330669 0.568486
Si Si5 0.072923 0.178022 0.203437
Si Si6 0.223790 0.168200 0.774835
Si Si7 0.845728 0.669603 0.017076
O O1 0.198133 0.160535 0.383814
O O2 0.878023 0.226111 0.772688
O O3 0.000000 0.240829 0.500000
O O4 0.914863 0.000000 0.654963
O O5 0.313536 0.500000 0.395629
O O6 0.455174 0.738022 0.184993
O O7 0.394588 0.711286 0.389002
O O8 0.134164 0.755314 0.585274
O O9 0.487397 0.000000 0.091994
O O10 0.500000 0.770586 0.000000
O O11 0.335995 0.500000 0.538756
O O12 0.322314 0.230459 0.601652
O O13 0.069736 0.325572 0.792239
O O14 0.185243 0.239396 0.017894
O O15 0.068149 0.000000 0.207580
O O16 0.273656 0.000000 0.733889
O O17 0.251175 0.264184 0.812008
O O18 0.000000 0.172588 0.000000
O O19 0.796374 0.500000 0.059645
#
# Coordination Sequence:
#
# PCOD9154984 Si02
#       7
#     4   4   4   4   4   4   4
#     4   8  14  25  41  59  78 102 131 162 198 238
#     4   9  16  25  37  52  71  97 127 157 192 236
#     4   9  17  28  42  60  80 102 131 167 201 232
#     4   8  14  22  30  42  62  89 120 152 186 225
#     4   9  15  23  36  52  70  93 125 162 194 229
#     4   9  15  20  28  43  62  87 121 157 190 224
#     4   9  15  22  31  43  64  93 123 155 191 231
#
# _framework density 21.775161000000001
#
# number of rings (size 3 to 8) (size 9 to 14) (size 15 to 20)
#    0.000    3.286    0.000    3.429    0.000    6.000 
#    0.000    0.000    0.000   10.714    0.000    0.000 
#    0.000    0.000    0.000    1.286    0.000   29.143 
#
# Total GULP energy -156051.551261 kJ/mol
# GULP energy per Si atom -5573.269688 kJ/mol
# Density = 2.172560 g / cm^3
# Si number density = 21.775161 Si / 1000 Ang^3
#
#
#
# Elastic Constant Matrix: (Units=GPa)
#
#
# Indices 1 2 3 4 5 6 
#
# 1 89.6560 51.5342 78.0637 0.0000 39.3011 0.0000
# 2 51.5342 87.4814 49.3071 0.0000 45.6642 0.0000
# 3 78.0637 49.3071 80.5547 0.0000 50.0729 0.0000
# 4 0.0000 0.0000 0.0000 18.2799 0.0000 27.9154
# 5 39.3011 45.6642 50.0729 0.0000 80.7572 0.0000
# 6 0.0000 0.0000 0.0000 27.9154 0.0000 24.4284
#
#
#
# Elastic Compliance Matrix: (Units=1/GPa)
#
#
# Indices 1 2 3 4 5 6 
#
# 1 0.087101 -0.010801 -0.089889 0.000000 0.019454 0.000000
# 2 -0.010801 0.020294 0.003109 0.000000 -0.008147 0.000000
# 3 -0.089889 0.003109 0.116373 0.000000 -0.030169 0.000000
# 4 0.000000 0.000000 0.000000 -0.073420 0.000000 0.083900
# 5 0.019454 -0.008147 -0.030169 0.000000 0.026228 0.000000
# 6 0.000000 0.000000 0.000000 0.083900 0.000000 -0.054940
#
#
# Mechanical properties :
#
#
# Convention : Reuss Voigt Hill
#
# Bulk Modulus (GPa) = 34.95689 68.38911 51.67300
# Shear Modulus (GPa) = 15.32182 29.94559 22.63370
#
# Velocity S-wave (km/s) = 2.65549 3.71242 3.22751
# Velocity P-wave (km/s) = 5.04882 7.06054 6.13766
#
# Compressibility (1/GPa) = 0.02860666
#
# Stress axis : x y z
#
# Youngs Moduli (GPa) = 11.48097 49.27655 8.59304
#
# Poissons Ratio (x) = 0.53222 0.77242
# Poissons Ratio (y) = 0.12400 -0.02672
# Poissons Ratio (z) = 1.03201 -0.15320
#
# Static dielectric constant tensor:
#      x y z
#    x 1.699600 0.000000 0.188310 
#    y 0.000000 1.729820 0.000000 
#    z 0.188310 0.000000 1.588310 
# 
# From -- ./inp_files/56307.got.cif
#   From: 2010.05.17/outbox.cif.g08.bks.cpg/sg10_29_cif.got.tgz:56307.got - 2010.06.03 11:33:40.
