data_PCOD9154227
_publ_section_title
;
Structure prediction by ZEFSAII (Michael W. Deem and Ramdas Pophale) SiO2 
 PCOD9154227
Probable space group: P 2/M
;
_chemical_formula_sum "Si O2"
_cell_formula_units_Z 24
_cell_length_a 19.634595
_cell_length_b 10.497634
_cell_length_c 10.183606
_cell_angle_alpha 90.000000
_cell_angle_beta 136.099649
_cell_angle_gamma 90.000000
_cell_volume 1455.468163
_symmetry_space_group_name_H-M "P 2/M"
_symmetry_group_IT_number 10
_symmetry_cell_setting 'monoclinic'
loop_
_space_group_symop_operation_xyz
x,y,z
-x,y,-z
-x,-y,-z
x,-y,z
loop_
_atom_site_type_symbol
_atom_site_label
_atom_site_fract_x
_atom_site_fract_y
_atom_site_fract_z
Si Si1 0.407586 0.851485 0.050022
Si Si2 0.828689 0.249810 0.555207
Si Si3 0.204097 0.252351 0.805034
Si Si4 0.088020 0.500000 0.729531
Si Si5 0.042727 0.000000 0.205318
Si Si6 0.375599 0.851894 0.689499
Si Si7 0.910285 0.000000 0.272088
Si Si8 0.049108 0.500000 0.209577
O O1 0.520593 0.812565 0.229658
O O2 0.395886 0.000000 0.074073
O O3 0.320940 0.765290 0.986849
O O4 0.392009 0.850511 0.870250
O O5 0.816242 0.256725 0.379991
O O6 0.720758 0.231202 0.467922
O O7 0.884448 0.375103 0.678856
O O8 0.891700 0.124830 0.676929
O O9 0.154474 0.375608 0.799193
O O10 0.152681 0.125673 0.788189
O O11 0.000000 0.500000 0.500000
O O12 0.034589 0.500000 0.795004
O O13 0.955749 0.000000 0.190856
O O14 0.000000 0.000000 0.000000
O O15 0.356817 0.000000 0.628294
O O16 0.000000 0.000000 0.500000
O O17 0.000000 0.500000 0.000000
#
# Coordination Sequence:
#
# PCOD9154227 Si02
#       8
#     4   4   4   2   2   4   2   2
#     4   8  14  26  46  81 112 133 162 212 264 315
#     4  11  19  35  54  77 105 142 178 216 265 315
#     4  11  19  32  55  81 105 138 176 215 269 312
#     4  12  22  38  53  75 105 145 176 218 268 312
#     4  12  24  34  49  77 107 137 182 226 256 303
#     4   8  14  26  49  77 110 137 164 208 269 312
#     4  12  20  32  53  77 101 139 180 220 258 316
#     4  12  26  40  53  73 107 147 182 216 262 319
#
# _framework density 16.489539000000001
#
# number of rings (size 3 to 8) (size 9 to 14) (size 15 to 20)
#    0.000    1.667    5.000    3.000    0.000    0.000 
#    0.000    0.833    0.000    4.000    0.000    7.000 
#    0.000    0.000    0.000    0.000    0.000    0.000 
#
# Total GULP energy -133862.099847 kJ/mol
# GULP energy per Si atom -5577.587494 kJ/mol
# Density = 1.645201 g / cm^3
# Si number density = 16.489539 Si / 1000 Ang^3
#
#
#
# Elastic Constant Matrix: (Units=GPa)
#
#
# Indices 1 2 3 4 5 6 
#
# 1 121.1296 67.2921 75.6008 0.0000 31.7178 0.0000
# 2 67.2921 144.9270 58.9680 0.0000 33.8573 0.0000
# 3 75.6008 58.9680 79.4486 0.0000 21.2099 0.0000
# 4 0.0000 0.0000 0.0000 -5.3394 0.0000 27.5114
# 5 31.7178 33.8573 21.2099 0.0000 38.8816 0.0000
# 6 0.0000 0.0000 0.0000 27.5114 0.0000 18.2445
#
#
#
# Elastic Compliance Matrix: (Units=1/GPa)
#
#
# Indices 1 2 3 4 5 6 
#
# 1 0.022260 -0.001192 -0.018407 0.000000 -0.007079 0.000000
# 2 -0.001192 0.011019 -0.005550 0.000000 -0.005595 0.000000
# 3 -0.018407 -0.005550 0.033853 0.000000 0.001382 0.000000
# 4 0.000000 0.000000 0.000000 -0.021356 0.000000 0.032204
# 5 -0.007079 -0.005595 0.001382 0.000000 0.035612 0.000000
# 6 0.000000 0.000000 0.000000 0.032204 0.000000 0.006250
#
#
# Mechanical properties :
#
#
# Convention : Reuss Voigt Hill
#
# Bulk Modulus (GPa) = 59.40847 83.24743 71.32795
# Shear Modulus (GPa) = 34.83142 19.93365 27.38254
#
# Velocity S-wave (km/s) = 4.60100 3.48065 4.07947
# Velocity P-wave (km/s) = 8.02071 8.16993 8.09567
#
# Compressibility (1/GPa) = 0.01683262
#
# Stress axis : x y z
#
# Youngs Moduli (GPa) = 44.92296 90.75266 29.53954
#
# Poissons Ratio (x) = 0.10822 0.54374
# Poissons Ratio (y) = 0.05357 0.16395
# Poissons Ratio (z) = 0.82691 0.50369
#
# Static dielectric constant tensor:
#      x y z
#    x 1.560800 0.000000 0.025800 
#    y 0.000000 1.534690 0.000000 
#    z 0.025800 0.000000 1.542580 
# 
# From -- ./inp_files/55090.got.cif
#   From: 2010.05.17/outbox.cif.g08.bks.cpg/sg10_28_cif.got.tgz:55090.got - 2010.06.03 11:33:40.
