data_PCOD9154797
_publ_section_title
;
Structure prediction by ZEFSAII (Michael W. Deem and Ramdas Pophale) SiO2 
 PCOD9154797
Probable space group: P 2/M
;
_chemical_formula_sum "Si O2"
_cell_formula_units_Z 26
_cell_length_a 14.611284
_cell_length_b 8.139317
_cell_length_c 14.938985
_cell_angle_alpha 90.000000
_cell_angle_beta 139.831965
_cell_angle_gamma 90.000000
_cell_volume 1145.983435
_symmetry_space_group_name_H-M "P 2/M"
_symmetry_group_IT_number 10
_symmetry_cell_setting 'monoclinic'
loop_
_space_group_symop_operation_xyz
x,y,z
-x,y,-z
-x,-y,-z
x,-y,z
loop_
_atom_site_type_symbol
_atom_site_label
_atom_site_fract_x
_atom_site_fract_y
_atom_site_fract_z
Si Si1 0.381632 0.196911 0.334730
Si Si2 0.453959 0.500000 0.880183
Si Si3 0.125506 0.500000 0.555165
Si Si4 0.459475 0.757890 0.203602
Si Si5 0.221247 0.822577 0.521335
Si Si6 0.204150 0.500000 0.789574
Si Si7 0.165223 0.816149 0.891138
Si Si8 0.122763 0.302074 0.255737
O O1 0.500000 0.228429 0.500000
O O2 0.415610 0.298454 0.270449
O O3 0.226807 0.243494 0.255383
O O4 0.387331 0.000000 0.318270
O O5 0.273002 0.500000 0.733694
O O6 0.491862 0.650985 0.844109
O O7 0.608872 0.500000 0.057739
O O8 0.162289 0.672371 0.534373
O O9 0.053051 0.500000 0.607139
O O10 0.610649 0.837420 0.339252
O O11 0.312566 0.826787 0.055022
O O12 0.190096 0.774612 0.396093
O O13 0.157157 0.000000 0.496030
O O14 0.173810 0.669263 0.823741
O O15 0.037393 0.765659 0.861918
O O16 0.138816 0.000000 0.833695
O O17 0.121112 0.500000 0.259659
#
# Coordination Sequence:
#
# PCOD9154797 Si02
#       8
#     4   2   2   4   4   2   4   4
#     4  11  24  44  73 109 152 194 241 305 371 442
#     4  12  24  48  73 102 154 196 239 318 375 424
#     4  12  26  44  69 102 144 187 249 310 366 441
#     4  12  25  45  78 111 144 194 250 305 366 445
#     4  12  24  45  74 105 143 190 244 304 369 438
#     4  12  24  48  69 103 147 191 244 305 377 435
#     4  12  26  47  75 106 147 196 246 305 369 442
#     4  12  26  47  71 107 150 195 244 299 368 446
#
# _framework density 22.687936000000001
#
# number of rings (size 3 to 8) (size 9 to 14) (size 15 to 20)
#    0.000    0.154    6.154    3.692    1.077    1.846 
#    0.000    3.077    0.000    0.000    0.000    0.000 
#    0.000    0.000    0.000    0.000    0.000    0.000 
#
# Total GULP energy -144992.299050 kJ/mol
# GULP energy per Si atom -5576.626887 kJ/mol
# Density = 2.263630 g / cm^3
# Si number density = 22.687936 Si / 1000 Ang^3
#
#
#
# Elastic Constant Matrix: (Units=GPa)
#
#
# Indices 1 2 3 4 5 6 
#
# 1 195.1221 79.3260 61.5296 0.0000 23.3371 0.0000
# 2 79.3260 158.8190 38.0162 0.0000 6.1112 0.0000
# 3 61.5296 38.0162 158.9729 0.0000 28.3676 0.0000
# 4 0.0000 0.0000 0.0000 5.0180 0.0000 -15.4536
# 5 23.3371 6.1112 28.3676 0.0000 59.3846 0.0000
# 6 0.0000 0.0000 0.0000 -15.4536 0.0000 -75.8382
#
#
#
# Elastic Compliance Matrix: (Units=1/GPa)
#
#
# Indices 1 2 3 4 5 6 
#
# 1 0.007118 -0.003079 -0.001723 0.000000 -0.001657 0.000000
# 2 -0.003079 0.008011 -0.000867 0.000000 0.000800 0.000000
# 3 -0.001723 -0.000867 0.007683 0.000000 -0.002904 0.000000
# 4 0.000000 0.000000 0.000000 0.122445 0.000000 -0.024951
# 5 -0.001657 0.000800 -0.002904 0.000000 0.018795 0.000000
# 6 0.000000 0.000000 0.000000 -0.024951 0.000000 -0.008102
#
#
# Mechanical properties :
#
#
# Convention : Reuss Voigt Hill
#
# Bulk Modulus (GPa) = 87.15064 96.73974 91.94519
# Shear Modulus (GPa) = 29.22042 19.98235 24.60139
#
# Velocity S-wave (km/s) = 3.59266 2.97096 3.29650
# Velocity P-wave (km/s) = 7.46363 7.38246 7.42316
#
# Compressibility (1/GPa) = 0.01147438
#
# Stress axis : x y z
#
# Youngs Moduli (GPa) = 140.48052 124.82584 130.16346
#
# Poissons Ratio (x) = 0.38437 0.22427
# Poissons Ratio (y) = 0.43258 0.11281
# Poissons Ratio (z) = 0.24205 0.10818
#
# Static dielectric constant tensor:
#      x y z
#    x 1.816180 0.000000 0.041540 
#    y 0.000000 1.847710 0.000000 
#    z 0.041540 0.000000 1.892140 
# 
# From -- ./inp_files/66928.got.cif
#   From: 2010.05.17/outbox.cif.g08.bks.cpg/sg10_34_cif.got.tgz:66928.got - 2010.06.03 11:33:40.
