data_PCOD9154310
_publ_section_title
;
Structure prediction by ZEFSAII (Michael W. Deem and Ramdas Pophale) SiO2 
 PCOD9154310
Probable space group: P 2/M
;
_chemical_formula_sum "Si O2"
_cell_formula_units_Z 32
_cell_length_a 16.713464
_cell_length_b 20.581870
_cell_length_c 17.029598
_cell_angle_alpha 90.000000
_cell_angle_beta 163.037863
_cell_angle_gamma 90.000000
_cell_volume 1709.035967
_symmetry_space_group_name_H-M "P 2/M"
_symmetry_group_IT_number 10
_symmetry_cell_setting 'monoclinic'
loop_
_space_group_symop_operation_xyz
x,y,z
-x,y,-z
-x,-y,-z
x,-y,z
loop_
_atom_site_type_symbol
_atom_site_label
_atom_site_fract_x
_atom_site_fract_y
_atom_site_fract_z
Si Si1 0.970301 0.269736 0.882157
Si Si2 0.630937 0.640341 0.965878
Si Si3 0.916701 0.576487 0.509240
Si Si4 0.473789 0.074580 0.652379
Si Si5 0.612963 0.214470 0.018442
Si Si6 0.057681 0.118159 0.143176
Si Si7 0.560279 0.295123 0.367778
Si Si8 0.201304 0.824002 0.508179
O O1 0.868703 0.194959 0.787527
O O2 0.276527 0.267521 0.135219
O O3 0.000000 0.292795 0.000000
O O4 0.764670 0.309920 0.632464
O O5 0.403171 0.591383 0.784080
O O6 0.602249 0.710828 0.979207
O O7 0.550475 0.651910 0.799087
O O8 0.921518 0.613300 0.269073
O O9 0.974425 0.500000 0.568505
O O10 0.000000 0.599940 0.500000
O O11 0.775217 0.106016 0.925947
O O12 0.273579 0.115306 0.521461
O O13 0.504039 0.000000 0.704550
O O14 0.311239 0.080268 0.417938
O O15 0.410911 0.173456 0.775691
O O16 0.500000 0.212233 0.000000
O O17 0.909561 0.187133 0.274246
O O18 0.000000 0.098557 0.000000
O O19 0.725643 0.240182 0.474558
#
# Coordination Sequence:
#
# PCOD9154310 Si02
#       8
#     4   4   4   4   4   4   4   4
#     4  11  20  34  55  80 114 150 182 224 290 355
#     4  11  22  35  57  86 116 151 192 236 267 326
#     4  11  22  37  56  82 124 166 194 220 262 326
#     4  12  24  38  56  77 108 147 191 233 274 346
#     4  11  22  36  59  83 107 138 179 237 284 334
#     4  11  22  37  56  79 110 147 186 228 273 340
#     4  11  20  35  56  81 114 148 185 236 286 331
#     4  11  21  37  55  77 108 139 181 227 292 343
#
# _framework density 18.724005999999999
#
# number of rings (size 3 to 8) (size 9 to 14) (size 15 to 20)
#    0.000    0.875    2.500    7.500    0.000    4.500 
#    0.000    0.000    0.000    2.250    0.000    0.000 
#    0.000   35.000    0.000    0.000    0.000    0.000 
#
# Total GULP energy -178625.762972 kJ/mol
# GULP energy per Si atom -5582.055093 kJ/mol
# Density = 1.868139 g / cm^3
# Si number density = 18.724006 Si / 1000 Ang^3
#
#
#
# Elastic Constant Matrix: (Units=GPa)
#
#
# Indices 1 2 3 4 5 6 
#
# 1 82.4044 16.8214 29.2910 0.0000 -10.9129 0.0000
# 2 16.8214 38.6760 5.1799 0.0000 -8.4439 0.0000
# 3 29.2910 5.1799 112.7512 0.0000 -9.5871 0.0000
# 4 0.0000 0.0000 0.0000 9.5707 0.0000 1.0625
# 5 -10.9129 -8.4439 -9.5871 0.0000 41.2765 0.0000
# 6 0.0000 0.0000 0.0000 1.0625 0.0000 12.1029
#
#
#
# Elastic Compliance Matrix: (Units=1/GPa)
#
#
# Indices 1 2 3 4 5 6 
#
# 1 0.014735 -0.005521 -0.003406 0.000000 0.001975 0.000000
# 2 -0.005521 0.029202 0.000486 0.000000 0.004627 0.000000
# 3 -0.003406 0.000486 0.009858 0.000000 0.001489 0.000000
# 4 0.000000 0.000000 0.000000 0.105514 0.000000 -0.009263
# 5 0.001975 0.004627 0.001489 0.000000 0.026041 0.000000
# 6 0.000000 0.000000 0.000000 -0.009263 0.000000 0.083438
#
#
# Mechanical properties :
#
#
# Convention : Reuss Voigt Hill
#
# Bulk Modulus (GPa) = 27.09101 37.37958 32.23529
# Shear Modulus (GPa) = 16.77993 24.75931 20.76962
#
# Velocity S-wave (km/s) = 2.99686 3.64033 3.33416
# Velocity P-wave (km/s) = 5.14538 6.13809 5.66353
#
# Compressibility (1/GPa) = 0.03691261
#
# Stress axis : x y z
#
# Youngs Moduli (GPa) = 67.86724 34.24392 101.43818
#
# Poissons Ratio (x) = 0.18907 0.34552
# Poissons Ratio (y) = 0.37471 -0.04932
# Poissons Ratio (z) = 0.23117 -0.01665
#
# Static dielectric constant tensor:
#      x y z
#    x 1.657770 0.000000 -0.031810 
#    y 0.000000 1.619300 0.000000 
#    z -0.031810 0.000000 1.658550 
# 
# From -- ./inp_files/67926.got.cif
#   From: 2010.05.17/outbox.cif.g08.bks.cpg/sg10_34_cif.got.tgz:67926.got - 2010.06.03 11:33:40.
