data_PCOD9154771
_publ_section_title
;
Structure prediction by ZEFSAII (Michael W. Deem and Ramdas Pophale) SiO2 
 PCOD9154771
Probable space group: P 2/M
;
_chemical_formula_sum "Si O2"
_cell_formula_units_Z 26
_cell_length_a 7.245463
_cell_length_b 21.596851
_cell_length_c 9.088969
_cell_angle_alpha 90.000000
_cell_angle_beta 123.859820
_cell_angle_gamma 90.000000
_cell_volume 1181.028065
_symmetry_space_group_name_H-M "P 2/M"
_symmetry_group_IT_number 10
_symmetry_cell_setting 'monoclinic'
loop_
_space_group_symop_operation_xyz
x,y,z
-x,y,-z
-x,-y,-z
x,-y,z
loop_
_atom_site_type_symbol
_atom_site_label
_atom_site_fract_x
_atom_site_fract_y
_atom_site_fract_z
Si Si1 0.984297 0.207425 0.240044
Si Si2 0.648417 0.801308 0.363783
Si Si3 0.317337 0.570504 0.052339
Si Si4 0.545950 0.065997 0.694241
Si Si5 0.381402 0.337001 0.650794
Si Si6 0.000000 0.109490 0.000000
Si Si7 0.007109 0.654964 0.743931
O O1 0.818576 0.205037 0.304105
O O2 0.982544 0.277137 0.179106
O O3 0.221994 0.194849 0.422841
O O4 0.925529 0.156007 0.096350
O O5 0.537046 0.867254 0.288522
O O6 0.531432 0.734025 0.313603
O O7 0.286608 0.500000 0.087440
O O8 0.427694 0.615049 0.222516
O O9 0.500000 0.569591 0.000000
O O10 0.094795 0.600924 0.887004
O O11 0.500000 0.065561 0.500000
O O12 0.452358 0.000000 0.711314
O O13 0.803987 0.068971 0.847578
O O14 0.194074 0.341624 0.696892
O O15 0.232977 0.350865 0.440505
#
# Coordination Sequence:
#
# PCOD9154771 Si02
#       7
#     4   4   4   4   4   2   4
#     4   9  19  35  60  87 114 143 194 239 284 334
#     4   9  18  39  60  82 112 155 190 234 284 342
#     4   9  16  24  38  68 106 142 178 218 273 329
#     4  11  24  42  60  84 120 154 184 232 291 339
#     4   8  15  27  47  68  98 136 186 223 267 319
#     4  12  23  38  60  90 113 144 188 240 283 338
#     4   8  15  28  43  68 102 139 172 228 274 318
#
# _framework density 22.014720000000001
#
# number of rings (size 3 to 8) (size 9 to 14) (size 15 to 20)
#    0.000    2.769    1.538    2.077    2.154    1.231 
#    0.000    6.923    0.000    0.000    0.000    0.538 
#    0.000    3.692    0.000    0.308    0.000    0.000 
#
# Total GULP energy -145133.957363 kJ/mol
# GULP energy per Si atom -5582.075283 kJ/mol
# Density = 2.196461 g / cm^3
# Si number density = 22.014720 Si / 1000 Ang^3
#
#
#
# Elastic Constant Matrix: (Units=GPa)
#
#
# Indices 1 2 3 4 5 6 
#
# 1 36.5252 32.8194 24.8057 0.0000 0.9861 0.0000
# 2 32.8194 232.6215 86.9309 0.0000 27.5525 0.0000
# 3 24.8057 86.9309 114.6198 0.0000 15.0431 0.0000
# 4 0.0000 0.0000 0.0000 39.6363 0.0000 17.7653
# 5 0.9861 27.5525 15.0431 0.0000 34.8374 0.0000
# 6 0.0000 0.0000 0.0000 17.7653 0.0000 8.4461
#
#
#
# Elastic Compliance Matrix: (Units=1/GPa)
#
#
# Indices 1 2 3 4 5 6 
#
# 1 0.033830 -0.003222 -0.005392 0.000000 0.003919 0.000000
# 2 -0.003222 0.006606 -0.003858 0.000000 -0.003467 0.000000
# 3 -0.005392 -0.003858 0.013141 0.000000 -0.002471 0.000000
# 4 0.000000 0.000000 0.000000 0.440646 0.000000 -0.926842
# 5 0.003919 -0.003467 -0.002471 0.000000 0.032403 0.000000
# 6 0.000000 0.000000 0.000000 -0.926842 0.000000 2.067891
#
#
# Mechanical properties :
#
#
# Convention : Reuss Voigt Hill
#
# Bulk Modulus (GPa) = 34.92410 74.76429 54.84420
# Shear Modulus (GPa) = 1.90186 32.53133 17.21660
#
# Velocity S-wave (km/s) = 0.93047 3.84827 2.79955
# Velocity P-wave (km/s) = 4.12950 7.33351 5.95118
#
# Compressibility (1/GPa) = 0.02863352
#
# Stress axis : x y z
#
# Youngs Moduli (GPa) = 29.55996 151.38492 76.09545
#
# Poissons Ratio (x) = 0.48777 0.41030
# Poissons Ratio (y) = 0.09524 0.29354
# Poissons Ratio (z) = 0.15939 0.58397
#
# Static dielectric constant tensor:
#      x y z
#    x 1.872520 0.000000 0.000860 
#    y 0.000000 1.793940 0.000000 
#    z 0.000860 0.000000 1.807820 
# 
# From -- ./inp_files/20476.got.cif
#   From: 2010.05.17/outbox.cif.g08.bks.cpg/sg10_11_cif.got.tgz:20476.got - 2010.06.03 11:33:40.
