data_PCOD9154354
_publ_section_title
;
Structure prediction by ZEFSAII (Michael W. Deem and Ramdas Pophale) SiO2 
 PCOD9154354
Probable space group: P 2/M
;
_chemical_formula_sum "Si O2"
_cell_formula_units_Z 14
_cell_length_a 5.287331
_cell_length_b 11.572742
_cell_length_c 11.951363
_cell_angle_alpha 90.000000
_cell_angle_beta 120.228039
_cell_angle_gamma 90.000000
_cell_volume 631.856261
_symmetry_space_group_name_H-M "P 2/M"
_symmetry_group_IT_number 10
_symmetry_cell_setting 'monoclinic'
loop_
_space_group_symop_operation_xyz
x,y,z
-x,y,-z
-x,-y,-z
x,-y,z
loop_
_atom_site_type_symbol
_atom_site_label
_atom_site_fract_x
_atom_site_fract_y
_atom_site_fract_z
Si Si1 0.404487 0.244689 0.731765
Si Si2 0.470658 0.000000 0.629645
Si Si3 0.793153 0.365555 0.641070
Si Si4 0.932761 0.000000 0.115197
Si Si5 0.500000 0.796714 0.000000
O O1 0.349193 0.116634 0.663788
O O2 0.670961 0.297370 0.719946
O O3 0.528766 0.261397 0.886485
O O4 0.089853 0.309287 0.658552
O O5 0.500000 0.000000 0.500000
O O6 0.800327 0.000000 0.744714
O O7 0.500000 0.360673 0.500000
O O8 0.855057 0.500000 0.677504
O O9 0.756418 0.884077 0.091057
O O10 0.000000 0.000000 0.000000
#
# Coordination Sequence:
#
# PCOD9154354 Si02
#       5
#     4   2   4   2   2
#     4  12  25  45  73 106 143 184 234 296 358 416
#     4  12  26  44  74 114 152 178 234 302 362 424
#     4  11  26  49  74  99 137 190 242 291 356 426
#     4  11  20  43  65  93 146 204 231 261 344 443
#     4  11  24  40  69 100 140 196 241 277 344 450
#
# _framework density 22.156936999999999
#
# number of rings (size 3 to 8) (size 9 to 14) (size 15 to 20)
#    0.000    0.571    2.857    5.143    0.000    5.714 
#    0.000   13.571    0.000    0.000    0.000    0.000 
#    0.000    0.000    0.000    0.000    0.000    0.000 
#
# Total GULP energy -78082.487240 kJ/mol
# GULP energy per Si atom -5577.320517 kJ/mol
# Density = 2.210651 g / cm^3
# Si number density = 22.156937 Si / 1000 Ang^3
#
#
#
# Elastic Constant Matrix: (Units=GPa)
#
#
# Indices 1 2 3 4 5 6 
#
# 1 110.9466 55.9915 17.3930 0.0000 11.1964 0.0000
# 2 55.9915 134.8149 28.5477 0.0000 0.9974 0.0000
# 3 17.3930 28.5477 112.9599 0.0000 -14.6900 0.0000
# 4 0.0000 0.0000 0.0000 -19.0095 0.0000 17.3748
# 5 11.1964 0.9974 -14.6900 0.0000 50.5716 0.0000
# 6 0.0000 0.0000 0.0000 17.3748 0.0000 37.0920
#
#
#
# Elastic Compliance Matrix: (Units=1/GPa)
#
#
# Indices 1 2 3 4 5 6 
#
# 1 0.011813 -0.004673 -0.001004 0.000000 -0.002815 0.000000
# 2 -0.004673 0.009713 -0.001690 0.000000 0.000352 0.000000
# 3 -0.001004 -0.001690 0.009839 0.000000 0.003114 0.000000
# 4 0.000000 0.000000 0.000000 -0.036835 0.000000 0.017254
# 5 -0.002815 0.000352 0.003114 0.000000 0.021295 0.000000
# 6 0.000000 0.000000 0.000000 0.017254 0.000000 0.018878
#
#
# Mechanical properties :
#
#
# Convention : Reuss Voigt Hill
#
# Bulk Modulus (GPa) = 60.12152 62.50952 61.31552
# Shear Modulus (GPa) = 90.94161 30.85010 60.89585
#
# Velocity S-wave (km/s) = 6.41353 3.73546 5.24819
# Velocity P-wave (km/s) = 9.05747 6.84677 8.02858
#
# Compressibility (1/GPa) = 0.01663298
#
# Stress axis : x y z
#
# Youngs Moduli (GPa) = 84.65229 102.95016 101.63428
#
# Poissons Ratio (x) = 0.48106 0.10205
# Poissons Ratio (y) = 0.39556 0.17171
# Poissons Ratio (z) = 0.08500 0.17394
#
# Static dielectric constant tensor:
#      x y z
#    x 2.283160 0.000000 -0.408030 
#    y 0.000000 1.761700 0.000000 
#    z -0.408030 0.000000 2.154190 
# 
# From -- ./inp_files/38825.got.cif
#   From: 2010.05.17/outbox.cif.g08.bks.cpg/sg10_20_cif.got.tgz:38825.got - 2010.06.03 11:33:40.
