data_PCOD9154951
_publ_section_title
;
Structure prediction by ZEFSAII (Michael W. Deem and Ramdas Pophale) SiO2 
 PCOD9154951
Probable space group: P 2/M
;
_chemical_formula_sum "Si O2"
_cell_formula_units_Z 28
_cell_length_a 16.772928
_cell_length_b 9.344934
_cell_length_c 18.214104
_cell_angle_alpha 90.000000
_cell_angle_beta 26.014232
_cell_angle_gamma 90.000000
_cell_volume 1252.148983
_symmetry_space_group_name_H-M "P 2/M"
_symmetry_group_IT_number 10
_symmetry_cell_setting 'monoclinic'
loop_
_space_group_symop_operation_xyz
x,y,z
-x,y,-z
-x,-y,-z
x,-y,z
loop_
_atom_site_type_symbol
_atom_site_label
_atom_site_fract_x
_atom_site_fract_y
_atom_site_fract_z
Si Si1 0.349524 0.832069 0.852352
Si Si2 0.248988 0.832349 0.225568
Si Si3 0.380756 0.827058 0.668241
Si Si4 0.188670 0.832917 0.435292
Si Si5 0.304462 0.335539 0.035999
Si Si6 0.862499 0.663271 0.380180
Si Si7 0.915157 0.834296 0.193131
O O1 0.379636 0.746843 0.902486
O O2 0.131877 0.826452 0.017030
O O3 0.395505 0.000000 0.824528
O O4 0.426389 0.772633 0.711653
O O5 0.273616 0.778346 0.288583
O O6 0.335260 0.746572 0.087066
O O7 0.030318 0.827414 0.394192
O O8 0.298429 0.000000 0.181542
O O9 0.500000 0.781353 0.500000
O O10 0.178051 0.795498 0.806581
O O11 0.396022 0.000000 0.662244
O O12 0.224265 0.747648 0.479931
O O13 0.235029 0.000000 0.404869
O O14 0.365037 0.500000 0.988648
O O15 0.083116 0.336186 0.209613
O O16 0.801741 0.500000 0.429318
O O17 0.837628 0.740786 0.323473
O O18 0.865379 0.000000 0.248905
#
# Coordination Sequence:
#
# PCOD9154951 Si02
#       7
#     4   4   4   4   4   4   4
#     4   9  16  27  44  63  83 109 140 172 208 251
#     4   8  13  21  33  50  75 108 142 173 207 247
#     4   9  17  29  46  67  86 104 134 177 216 248
#     4   8  13  21  33  50  75 108 142 173 207 247
#     4   9  16  24  35  54  80 109 141 175 208 243
#     4   9  16  24  35  54  80 109 141 175 208 243
#     4   9  16  27  44  63  83 109 140 172 208 251
#
# _framework density 22.361556
#
# number of rings (size 3 to 8) (size 9 to 14) (size 15 to 20)
#    0.000    3.286    0.000    2.143    0.000    5.714 
#    0.000    3.571    0.000    5.143    0.000    0.000 
#    0.000    1.143    0.000   13.143    0.000   16.857 
#
# Total GULP energy -156382.643985 kJ/mol
# GULP energy per Si atom -5585.094428 kJ/mol
# Density = 2.231066 g / cm^3
# Si number density = 22.361556 Si / 1000 Ang^3
#
#
#
# Elastic Constant Matrix: (Units=GPa)
#
#
# Indices 1 2 3 4 5 6 
#
# 1 128.7441 38.5562 63.3538 0.0000 38.8696 0.0000
# 2 38.5562 83.9787 51.1880 0.0000 52.0767 0.0000
# 3 63.3538 51.1880 140.7435 0.0000 45.5357 0.0000
# 4 0.0000 0.0000 0.0000 -28.7599 0.0000 -8.7990
# 5 38.8696 52.0767 45.5357 0.0000 64.3465 0.0000
# 6 0.0000 0.0000 0.0000 -8.7990 0.0000 -12.0315
#
#
#
# Elastic Compliance Matrix: (Units=1/GPa)
#
#
# Indices 1 2 3 4 5 6 
#
# 1 0.010720 -0.000634 -0.003457 0.000000 -0.003516 0.000000
# 2 -0.000634 0.025076 -0.003103 0.000000 -0.017715 0.000000
# 3 -0.003457 -0.003103 0.010767 0.000000 -0.003020 0.000000
# 4 0.000000 0.000000 0.000000 -0.044793 0.000000 0.032759
# 5 -0.003516 -0.017715 -0.003020 0.000000 0.034139 0.000000
# 6 0.000000 0.000000 0.000000 0.032759 0.000000 -0.107073
#
#
# Mechanical properties :
#
#
# Convention : Reuss Voigt Hill
#
# Bulk Modulus (GPa) = 31.08121 73.29579 52.18850
# Shear Modulus (GPa) = -108.57728 18.06890 -45.25419
#
# Velocity S-wave (km/s) = -6.97573 2.84568 -4.50349
# Velocity P-wave (km/s) = 7.13803 6.60651 1.91122
#
# Compressibility (1/GPa) = 0.03217378
#
# Stress axis : x y z
#
# Youngs Moduli (GPa) = 93.28306 39.87877 92.87727
#
# Poissons Ratio (x) = 0.02529 0.32111
# Poissons Ratio (y) = 0.05917 0.28819
# Poissons Ratio (z) = 0.32251 0.12374
#
# Static dielectric constant tensor:
#      x y z
#    x 1.844700 0.000000 -0.062250 
#    y 0.000000 1.741550 0.000000 
#    z -0.062250 0.000000 1.874470 
# 
# From -- ./inp_files/54463.got.cif
#   From: 2010.05.17/outbox.cif.g08.bks.cpg/sg10_28_cif.got.tgz:54463.got - 2010.06.03 11:33:40.
