data_PCOD9154138
_publ_section_title
;
Structure prediction by ZEFSAII (Michael W. Deem and Ramdas Pophale) SiO2 
 PCOD9154138
Probable space group: P 2/M
;
_chemical_formula_sum "Si O2"
_cell_formula_units_Z 15
_cell_length_a 5.097137
_cell_length_b 21.447030
_cell_length_c 7.389579
_cell_angle_alpha 90.000000
_cell_angle_beta 136.301720
_cell_angle_gamma 90.000000
_cell_volume 558.089248
_symmetry_space_group_name_H-M "P 2/M"
_symmetry_group_IT_number 10
_symmetry_cell_setting 'monoclinic'
loop_
_space_group_symop_operation_xyz
x,y,z
-x,y,-z
-x,-y,-z
x,-y,z
loop_
_atom_site_type_symbol
_atom_site_label
_atom_site_fract_x
_atom_site_fract_y
_atom_site_fract_z
Si Si1 0.951100 0.257055 0.186603
Si Si2 0.000000 0.162898 0.500000
Si Si3 0.000000 0.500000 0.000000
Si Si4 0.948045 0.599852 0.264061
Si Si5 0.049776 0.927194 0.231295
O O1 0.159997 0.212065 0.433159
O O2 0.053914 0.328503 0.280629
O O3 0.500000 0.249834 0.000000
O O4 0.000000 0.243786 0.000000
O O5 0.166772 0.113315 0.726773
O O6 0.870246 0.554304 0.790038
O O7 0.000000 0.584147 0.500000
O O8 0.500000 0.591996 0.000000
O O9 0.500000 0.921528 0.500000
O O10 0.947690 0.000000 0.194935
O O11 0.000000 0.906661 0.000000
#
# Coordination Sequence:
#
# PCOD9154138 Si02
#       5
#     4   2   1   4   4
#     4  11  26  47  70 106 149 192 240 303 367 434
#     4  12  25  40  74 101 144 190 240 300 358 447
#     4  12  24  46  76 100 140 190 246 294 358 438
#     4  11  25  47  69 104 141 187 239 299 362 429
#     4  10  24  45  69 101 142 186 240 299 359 429
#
# _framework density 26.877417999999999
#
# number of rings (size 3 to 8) (size 9 to 14) (size 15 to 20)
#    0.000    1.067    2.667    2.000    7.467    2.133 
#    0.000    4.000    0.000    0.000    0.000    0.000 
#    0.000    0.000    0.000    0.000    0.000    0.000 
#
# Total GULP energy -83774.258541 kJ/mol
# GULP energy per Si atom -5584.950569 kJ/mol
# Density = 2.681624 g / cm^3
# Si number density = 26.877418 Si / 1000 Ang^3
#
#
#
# Elastic Constant Matrix: (Units=GPa)
#
#
# Indices 1 2 3 4 5 6 
#
# 1 139.4217 27.2864 81.5491 0.0000 -26.3555 0.0000
# 2 27.2864 195.6178 81.0079 0.0000 -62.7920 0.0000
# 3 81.5491 81.0079 303.6596 0.0000 -68.9631 0.0000
# 4 0.0000 0.0000 0.0000 58.2144 0.0000 -36.7260
# 5 -26.3555 -62.7920 -68.9631 0.0000 75.0772 0.0000
# 6 0.0000 0.0000 0.0000 -36.7260 0.0000 7.3416
#
#
#
# Elastic Compliance Matrix: (Units=1/GPa)
#
#
# Indices 1 2 3 4 5 6 
#
# 1 0.008585 0.000020 -0.002050 0.000000 0.001147 0.000000
# 2 0.000020 0.007101 -0.000694 0.000000 0.005308 0.000000
# 3 -0.002050 -0.000694 0.004718 0.000000 0.003033 0.000000
# 4 0.000000 0.000000 0.000000 -0.007968 0.000000 -0.039858
# 5 0.001147 0.005308 0.003033 0.000000 0.020948 0.000000
# 6 0.000000 0.000000 0.000000 -0.039858 0.000000 -0.063179
#
#
# Mechanical properties :
#
#
# Convention : Reuss Voigt Hill
#
# Bulk Modulus (GPa) = 66.87265 113.15398 90.01332
# Shear Modulus (GPa) = -258.23720 58.05034 -100.09343
#
# Velocity S-wave (km/s) = -9.81265 4.65243 -6.10914
# Velocity P-wave (km/s) = 10.17102 8.42921 4.02481
#
# Compressibility (1/GPa) = 0.01495380
#
# Stress axis : x y z
#
# Youngs Moduli (GPa) = 116.48734 140.83511 211.96215
#
# Poissons Ratio (x) = -0.00277 0.43458
# Poissons Ratio (y) = -0.00229 0.14710
# Poissons Ratio (z) = 0.23883 0.09774
#
# Static dielectric constant tensor:
#      x y z
#    x 2.384440 0.000000 0.109090 
#    y 0.000000 2.051340 0.000000 
#    z 0.109090 0.000000 2.085910 
# 
# From -- ./inp_files/1333.got.cif
#   From: 2010.05.17/outbox.cif.g08.bks.cpg/sg10_1_cif.got.tgz:1333.got - 2010.06.03 11:33:40.
