data_PCOD9154092
_publ_section_title
;
Structure prediction by ZEFSAII (Michael W. Deem and Ramdas Pophale) SiO2 
 PCOD9154092
Probable space group: P 2/M
;
_chemical_formula_sum "Si O2"
_cell_formula_units_Z 32
_cell_length_a 18.173503
_cell_length_b 13.846005
_cell_length_c 11.856956
_cell_angle_alpha 90.000000
_cell_angle_beta 29.347153
_cell_angle_gamma 90.000000
_cell_volume 1462.247952
_symmetry_space_group_name_H-M "P 2/M"
_symmetry_group_IT_number 10
_symmetry_cell_setting 'monoclinic'
loop_
_space_group_symop_operation_xyz
x,y,z
-x,y,-z
-x,-y,-z
x,-y,z
loop_
_atom_site_type_symbol
_atom_site_label
_atom_site_fract_x
_atom_site_fract_y
_atom_site_fract_z
Si Si1 0.319600 0.110450 0.924185
Si Si2 0.323301 0.389933 0.203888
Si Si3 0.778024 0.115659 0.468680
Si Si4 0.080010 0.613150 0.722240
Si Si5 0.381588 0.791556 0.516644
Si Si6 0.888578 0.115134 0.984365
Si Si7 0.222030 0.387483 0.782131
Si Si8 0.341765 0.820564 0.143206
O O1 0.450482 0.173276 0.693863
O O2 0.161501 0.134967 0.077481
O O3 0.353521 0.000000 0.848803
O O4 0.328110 0.121174 0.046579
O O5 0.285777 0.500000 0.214026
O O6 0.208796 0.363987 0.459495
O O7 0.313805 0.291506 0.145347
O O8 0.500000 0.394796 0.000000
O O9 0.660531 0.181153 0.556821
O O10 0.767970 0.137357 0.614778
O O11 0.754080 0.000000 0.480810
O O12 0.944441 0.148516 0.209401
O O13 0.052197 0.500000 0.740106
O O14 0.150015 0.620355 0.753113
O O15 0.908896 0.652031 0.958979
O O16 0.248466 0.848152 0.757725
O O17 0.362347 0.682280 0.582528
O O18 0.897442 0.000000 0.987082
O O19 0.255507 0.500000 0.759044
O O20 0.500000 0.827117 0.000000
#
# Coordination Sequence:
#
# PCOD9154092 Si02
#       8
#     4   4   4   4   4   4   4   4
#     4  11  24  43  62  83 119 166 205 239 296 371
#     4   9  18  31  50  81 120 154 192 240 293 353
#     4  11  23  38  60  92 123 151 196 259 306 342
#     4   8  15  29  47  73 117 156 182 226 291 347
#     4  12  22  35  65  92 118 155 199 252 301 349
#     4  10  24  42  60  86 120 159 200 245 301 364
#     4   9  19  31  51  85 120 153 192 240 297 355
#     4  11  22  36  60  90 120 156 200 246 302 347
#
# _framework density 21.884114
#
# number of rings (size 3 to 8) (size 9 to 14) (size 15 to 20)
#    0.000    1.875    1.250    3.750    7.000    3.000 
#    0.000    1.875    0.000    2.250    0.000    0.875 
#    0.000    0.000    0.000    0.000    0.000    0.000 
#
# Total GULP energy -178433.878301 kJ/mol
# GULP energy per Si atom -5576.058697 kJ/mol
# Density = 2.183430 g / cm^3
# Si number density = 21.884114 Si / 1000 Ang^3
#
#
#
# Elastic Constant Matrix: (Units=GPa)
#
#
# Indices 1 2 3 4 5 6 
#
# 1 49.0979 8.4651 10.0740 0.0000 0.0910 0.0000
# 2 8.4651 97.1500 15.5194 0.0000 -15.4939 0.0000
# 3 10.0740 15.5194 81.2846 0.0000 0.2541 0.0000
# 4 0.0000 0.0000 0.0000 28.0468 0.0000 -1.7163
# 5 0.0910 -15.4939 0.2541 0.0000 24.1367 0.0000
# 6 0.0000 0.0000 0.0000 -1.7163 0.0000 6.6624
#
#
#
# Elastic Compliance Matrix: (Units=1/GPa)
#
#
# Indices 1 2 3 4 5 6 
#
# 1 0.021126 -0.001651 -0.002299 0.000000 -0.001116 0.000000
# 2 -0.001651 0.012009 -0.002112 0.000000 0.007737 0.000000
# 3 -0.002299 -0.002112 0.012995 0.000000 -0.001484 0.000000
# 4 0.000000 0.000000 0.000000 0.036226 0.000000 0.009332
# 5 -0.001116 0.007737 -0.001484 0.000000 0.046417 0.000000
# 6 0.000000 0.000000 0.000000 0.009332 0.000000 0.152500
#
#
# Mechanical properties :
#
#
# Convention : Reuss Voigt Hill
#
# Bulk Modulus (GPa) = 29.40852 32.84996 31.12924
# Shear Modulus (GPa) = 16.40775 24.66745 20.53760
#
# Velocity S-wave (km/s) = 2.74114 3.36100 3.06677
# Velocity P-wave (km/s) = 4.84623 5.48682 5.17644
#
# Compressibility (1/GPa) = 0.03400375
#
# Stress axis : x y z
#
# Youngs Moduli (GPa) = 47.33491 83.27357 76.95047
#
# Poissons Ratio (x) = 0.13752 0.17695
# Poissons Ratio (y) = 0.07817 0.16254
# Poissons Ratio (z) = 0.10885 0.17590
#
# Static dielectric constant tensor:
#      x y z
#    x 1.826270 0.000000 0.022780 
#    y 0.000000 1.848010 0.000000 
#    z 0.022780 0.000000 1.849760 
# 
# From -- ./inp_files/53989.got.cif
#   From: 2010.05.17/outbox.cif.g08.bks.cpg/sg10_27_cif.got.tgz:53989.got - 2010.06.03 11:33:40.
