data_PCOD9154847
_publ_section_title
;
Structure prediction by ZEFSAII (Michael W. Deem and Ramdas Pophale) SiO2 
 PCOD9154847
Probable space group: P 2/M
;
_chemical_formula_sum "Si O2"
_cell_formula_units_Z 20
_cell_length_a 14.684224
_cell_length_b 9.752473
_cell_length_c 10.659072
_cell_angle_alpha 90.000000
_cell_angle_beta 150.352128
_cell_angle_gamma 90.000000
_cell_volume 755.090709
_symmetry_space_group_name_H-M "P 2/M"
_symmetry_group_IT_number 10
_symmetry_cell_setting 'monoclinic'
loop_
_space_group_symop_operation_xyz
x,y,z
-x,y,-z
-x,-y,-z
x,-y,z
loop_
_atom_site_type_symbol
_atom_site_label
_atom_site_fract_x
_atom_site_fract_y
_atom_site_fract_z
Si Si1 0.271369 0.500000 0.644266
Si Si2 0.915900 0.000000 0.654261
Si Si3 0.547311 0.500000 0.386562
Si Si4 0.793620 0.276377 0.223033
Si Si5 0.325112 0.000000 0.876416
Si Si6 0.815077 0.755902 0.725438
Si Si7 0.850255 0.500000 0.081828
Si Si8 0.284005 0.000000 0.213294
O O1 0.445292 0.500000 0.760087
O O2 0.265847 0.368182 0.728711
O O3 0.073809 0.500000 0.329193
O O4 0.846842 0.859810 0.644291
O O5 0.836495 0.000000 0.420786
O O6 0.138463 0.000000 0.923932
O O7 0.657391 0.642782 0.533064
O O8 0.351525 0.500000 0.226976
O O9 0.671604 0.144748 0.050624
O O10 0.000000 0.230964 0.500000
O O11 0.817559 0.368764 0.130267
O O12 0.500000 0.000000 0.000000
O O13 0.776770 0.864321 0.787716
O O14 0.000000 0.684017 0.000000
O O15 0.500000 0.000000 0.500000
#
# Coordination Sequence:
#
# PCOD9154847 Si02
#       8
#     2   2   2   4   2   4   2   2
#     4   9  20  39  61  77 115 165 199 231 311 354
#     4   9  20  40  59  83 119 155 197 242 299 366
#     4  12  21  35  63  90 120 145 201 246 305 342
#     4   9  20  40  54  75 121 160 198 249 293 336
#     4  12  24  32  56  94 119 148 212 245 286 360
#     4   9  20  39  61  85 117 150 195 243 301 359
#     4   9  22  39  57  84 116 166 202 240 286 375
#     4   9  19  44  66  85 115 161 193 239 307 366
#
# _framework density 26.486884
#
# number of rings (size 3 to 8) (size 9 to 14) (size 15 to 20)
#    0.000    2.400    0.000    4.200    5.600    0.800 
#   14.400    0.500    0.000    0.000    0.000    0.000 
#    0.000    0.000    0.000    0.000    0.000    0.000 
#
# Total GULP energy -111679.465546 kJ/mol
# GULP energy per Si atom -5583.973277 kJ/mol
# Density = 2.642660 g / cm^3
# Si number density = 26.486884 Si / 1000 Ang^3
#
#
#
# Elastic Constant Matrix: (Units=GPa)
#
#
# Indices 1 2 3 4 5 6 
#
# 1 50.6515 17.8409 -4.6487 0.0000 7.9027 0.0000
# 2 17.8409 154.1412 12.2464 0.0000 0.6994 0.0000
# 3 -4.6487 12.2464 134.3170 0.0000 14.8042 0.0000
# 4 0.0000 0.0000 0.0000 5.1778 0.0000 47.1455
# 5 7.9027 0.6994 14.8042 0.0000 35.0446 0.0000
# 6 0.0000 0.0000 0.0000 47.1455 0.0000 45.0093
#
#
#
# Elastic Compliance Matrix: (Units=1/GPa)
#
#
# Indices 1 2 3 4 5 6 
#
# 1 0.021668 -0.002610 0.001595 0.000000 -0.005508 0.000000
# 2 -0.002610 0.006850 -0.000802 0.000000 0.000791 0.000000
# 3 0.001595 -0.000802 0.007983 0.000000 -0.003716 0.000000
# 4 0.000000 0.000000 0.000000 -0.022622 0.000000 0.023695
# 5 -0.005508 0.000791 -0.003716 0.000000 0.031331 0.000000
# 6 0.000000 0.000000 0.000000 0.023695 0.000000 -0.002602
#
#
# Mechanical properties :
#
#
# Convention : Reuss Voigt Hill
#
# Bulk Modulus (GPa) = 30.42572 43.33190 36.87881
# Shear Modulus (GPa) = 87.41799 37.95773 62.68786
#
# Velocity S-wave (km/s) = 5.75117 3.78971 4.87020
# Velocity P-wave (km/s) = 7.45743 5.96192 6.75121
#
# Compressibility (1/GPa) = 0.03286693
#
# Stress axis : x y z
#
# Youngs Moduli (GPa) = 46.15178 145.99106 125.26682
#
# Poissons Ratio (x) = 0.38098 -0.19979
# Poissons Ratio (y) = 0.12044 0.10046
# Poissons Ratio (z) = -0.07361 0.11708
#
# Static dielectric constant tensor:
#      x y z
#    x 2.123970 0.000000 0.093290 
#    y 0.000000 2.032990 0.000000 
#    z 0.093290 0.000000 2.406390 
# 
# From -- ./inp_files/31137.got.cif
#   From: 2010.05.17/outbox.cif.g08.bks.cpg/sg10_16_cif.got.tgz:31137.got - 2010.06.03 11:33:40.
