data_PCOD9154581
_publ_section_title
;
Structure prediction by ZEFSAII (Michael W. Deem and Ramdas Pophale) SiO2 
 PCOD9154581
Probable space group: P 2/M
;
_chemical_formula_sum "Si O2"
_cell_formula_units_Z 18
_cell_length_a 5.127140
_cell_length_b 17.195815
_cell_length_c 10.175187
_cell_angle_alpha 90.000000
_cell_angle_beta 78.265655
_cell_angle_gamma 90.000000
_cell_volume 878.350531
_symmetry_space_group_name_H-M "P 2/M"
_symmetry_group_IT_number 10
_symmetry_cell_setting 'monoclinic'
loop_
_space_group_symop_operation_xyz
x,y,z
-x,y,-z
-x,-y,-z
x,-y,z
loop_
_atom_site_type_symbol
_atom_site_label
_atom_site_fract_x
_atom_site_fract_y
_atom_site_fract_z
Si Si1 0.337927 0.500000 0.857117
Si Si2 0.272000 0.336049 0.414386
Si Si3 0.297166 0.746584 0.146391
Si Si4 0.789610 0.084582 0.903514
Si Si5 0.000000 0.636203 0.000000
Si Si6 0.109061 0.500000 0.307371
O O1 0.653793 0.500000 0.823183
O O2 0.234309 0.421771 0.935110
O O3 0.179877 0.500000 0.732056
O O4 0.500000 0.341301 0.500000
O O5 0.381753 0.290738 0.275224
O O6 0.177741 0.421723 0.377857
O O7 0.000000 0.298601 0.500000
O O8 0.205758 0.835413 0.176826
O O9 0.065315 0.691067 0.115555
O O10 0.500000 0.746459 0.000000
O O11 0.835819 0.000000 0.833489
O O12 0.500000 0.081559 0.000000
O O13 0.000000 0.092370 0.000000
#
# Coordination Sequence:
#
# PCOD9154581 Si02
#       6
#     2   4   4   4   2   2
#     4  11  24  35  60  85 123 150 204 254 306 343
#     4  12  27  43  61  87 124 161 206 252 304 356
#     4  11  23  39  67  90 123 157 206 249 300 360
#     4   9  18  33  57  92 124 150 188 245 301 351
#     4  11  22  36  57  92 120 156 197 258 304 349
#     4  12  22  44  58  79 114 168 204 247 295 364
#
# _framework density 20.492958000000002
#
# number of rings (size 3 to 8) (size 9 to 14) (size 15 to 20)
#    0.000    1.111    3.333    3.333    3.111    0.889 
#    0.000    0.000    0.000    1.333    0.000    0.000 
#    0.000    0.000    0.000    0.000    0.000    0.000 
#
# Total GULP energy -100551.981167 kJ/mol
# GULP energy per Si atom -5586.221176 kJ/mol
# Density = 2.044631 g / cm^3
# Si number density = 20.492958 Si / 1000 Ang^3
#
#
#
# Elastic Constant Matrix: (Units=GPa)
#
#
# Indices 1 2 3 4 5 6 
#
# 1 86.2125 5.6849 30.4395 0.0000 18.2371 0.0000
# 2 5.6849 170.9360 54.3837 0.0000 18.0789 0.0000
# 3 30.4395 54.3837 102.3648 0.0000 23.7114 0.0000
# 4 0.0000 0.0000 0.0000 53.9055 0.0000 10.4668
# 5 18.2371 18.0789 23.7114 0.0000 48.8143 0.0000
# 6 0.0000 0.0000 0.0000 10.4668 0.0000 16.4847
#
#
#
# Elastic Compliance Matrix: (Units=1/GPa)
#
#
# Indices 1 2 3 4 5 6 
#
# 1 0.013648 0.001149 -0.003819 0.000000 -0.003670 0.000000
# 2 0.001149 0.007171 -0.003873 0.000000 -0.001204 0.000000
# 3 -0.003819 -0.003873 0.013859 0.000000 -0.003871 0.000000
# 4 0.000000 0.000000 0.000000 0.021160 0.000000 -0.013435
# 5 -0.003670 -0.001204 -0.003871 0.000000 0.024183 0.000000
# 6 0.000000 0.000000 0.000000 -0.013435 0.000000 0.069193
#
#
# Mechanical properties :
#
#
# Convention : Reuss Voigt Hill
#
# Bulk Modulus (GPa) = 46.31106 60.05882 53.18494
# Shear Modulus (GPa) = 29.49913 41.77457 35.63685
#
# Velocity S-wave (km/s) = 3.79816 4.51986 4.17463
# Velocity P-wave (km/s) = 6.47165 7.52393 7.01754
#
# Compressibility (1/GPa) = 0.02159311
#
# Stress axis : x y z
#
# Youngs Moduli (GPa) = 73.27031 139.44239 72.15667
#
# Poissons Ratio (x) = -0.16025 0.27557
# Poissons Ratio (y) = -0.08420 0.27945
# Poissons Ratio (z) = 0.27982 0.54003
#
# Static dielectric constant tensor:
#      x y z
#    x 1.774500 0.000000 -0.054240 
#    y 0.000000 1.761590 0.000000 
#    z -0.054240 0.000000 1.792800 
# 
# From -- ./inp_files/7334.got.cif
#   From: 2010.05.17/outbox.cif.g08.bks.cpg/sg10_4_cif.got.tgz:7334.got - 2010.06.03 11:33:40.
