data_PCOD9154726
_publ_section_title
;
Structure prediction by ZEFSAII (Michael W. Deem and Ramdas Pophale) SiO2 
 PCOD9154726
Probable space group: P 2/M
;
_chemical_formula_sum "Si O2"
_cell_formula_units_Z 20
_cell_length_a 16.080722
_cell_length_b 10.120315
_cell_length_c 10.152736
_cell_angle_alpha 90.000000
_cell_angle_beta 149.588679
_cell_angle_gamma 90.000000
_cell_volume 836.389154
_symmetry_space_group_name_H-M "P 2/M"
_symmetry_group_IT_number 10
_symmetry_cell_setting 'monoclinic'
loop_
_space_group_symop_operation_xyz
x,y,z
-x,y,-z
-x,-y,-z
x,-y,z
loop_
_atom_site_type_symbol
_atom_site_label
_atom_site_fract_x
_atom_site_fract_y
_atom_site_fract_z
Si Si1 0.885414 0.218729 0.970957
Si Si2 0.895951 0.140791 0.490429
Si Si3 0.578794 0.150732 0.388233
Si Si4 0.680406 0.352814 0.304626
Si Si5 0.645324 0.640493 0.806012
O O1 0.716908 0.149097 0.692219
O O2 0.812847 0.341985 0.954104
O O3 0.000000 0.243634 0.000000
O O4 0.990432 0.143287 0.223959
O O5 0.792901 0.274579 0.356462
O O6 0.000000 0.142289 0.500000
O O7 0.801649 0.000000 0.364988
O O8 0.662991 0.249916 0.400066
O O9 0.410096 0.227240 0.193727
O O10 0.551490 0.000000 0.309096
O O11 0.738742 0.500000 0.420935
O O12 0.500000 0.364143 0.000000
O O13 0.500000 0.630959 0.500000
O O14 0.644155 0.500000 0.880079
#
# Coordination Sequence:
#
# PCOD9154726 Si02
#       5
#     4   4   4   4   4
#     4  11  23  42  69 107 141 180 224 291 344 404
#     4  11  26  47  71 103 140 182 230 282 343 413
#     4  11  23  42  71 103 137 181 232 286 347 407
#     4  11  26  47  70  98 137 183 233 284 344 415
#     4   9  21  40  62  95 138 180 225 275 335 404
#
# _framework density 23.912315
#
# number of rings (size 3 to 8) (size 9 to 14) (size 15 to 20)
#    0.000    1.400    2.000    1.800    2.800    9.200 
#    0.000    0.000    0.000    0.000    0.000    0.000 
#    0.000    0.000    0.000    0.000    0.000    0.000 
#
# Total GULP energy -111643.464050 kJ/mol
# GULP energy per Si atom -5582.173202 kJ/mol
# Density = 2.385789 g / cm^3
# Si number density = 23.912315 Si / 1000 Ang^3
#
#
#
# Elastic Constant Matrix: (Units=GPa)
#
#
# Indices 1 2 3 4 5 6 
#
# 1 134.2757 69.8152 22.0304 0.0000 19.2833 0.0000
# 2 69.8152 250.6205 29.2807 0.0000 19.2657 0.0000
# 3 22.0304 29.2807 75.5527 0.0000 -1.9878 0.0000
# 4 0.0000 0.0000 0.0000 -6.2896 0.0000 6.0673
# 5 19.2833 19.2657 -1.9878 0.0000 32.5597 0.0000
# 6 0.0000 0.0000 0.0000 6.0673 0.0000 -13.5113
#
#
#
# Elastic Compliance Matrix: (Units=1/GPa)
#
#
# Indices 1 2 3 4 5 6 
#
# 1 0.009513 -0.002056 -0.002097 0.000000 -0.004546 0.000000
# 2 -0.002056 0.004851 -0.001326 0.000000 -0.001734 0.000000
# 3 -0.002097 -0.001326 0.014438 0.000000 0.002908 0.000000
# 4 0.000000 0.000000 0.000000 -0.280501 0.000000 -0.125961
# 5 -0.004546 -0.001734 0.002908 0.000000 0.034608 0.000000
# 6 0.000000 0.000000 0.000000 -0.125961 0.000000 -0.130576
#
#
# Mechanical properties :
#
#
# Convention : Reuss Voigt Hill
#
# Bulk Modulus (GPa) = 56.04025 78.07793 67.05909
# Shear Modulus (GPa) = -15.11665 25.17326 5.02831
#
# Velocity S-wave (km/s) = -2.51703 3.24810 1.45168
# Velocity P-wave (km/s) = 3.87806 6.84029 5.56008
#
# Compressibility (1/GPa) = 0.01784432
#
# Stress axis : x y z
#
# Youngs Moduli (GPa) = 105.11942 206.14466 69.26316
#
# Poissons Ratio (x) = 0.42375 0.14523
# Poissons Ratio (y) = 0.21609 0.09186
# Poissons Ratio (z) = 0.22042 0.27339
#
# Static dielectric constant tensor:
#      x y z
#    x 1.981890 0.000000 -0.008080 
#    y 0.000000 1.984910 0.000000 
#    z -0.008080 0.000000 1.925970 
# 
# From -- ./inp_files/53115.got.cif
#   From: 2010.05.17/outbox.cif.g08.bks.cpg/sg10_27_cif.got.tgz:53115.got - 2010.06.03 11:33:40.
