data_PCOD9154520
_publ_section_title
;
Structure prediction by ZEFSAII (Michael W. Deem and Ramdas Pophale) SiO2 
 PCOD9154520
Probable space group: P 2/M
;
_chemical_formula_sum "Si O2"
_cell_formula_units_Z 32
_cell_length_a 8.260136
_cell_length_b 15.361131
_cell_length_c 11.513264
_cell_angle_alpha 90.000000
_cell_angle_beta 104.893992
_cell_angle_gamma 90.000000
_cell_volume 1411.780373
_symmetry_space_group_name_H-M "P 2/M"
_symmetry_group_IT_number 10
_symmetry_cell_setting 'monoclinic'
loop_
_space_group_symop_operation_xyz
x,y,z
-x,y,-z
-x,-y,-z
x,-y,z
loop_
_atom_site_type_symbol
_atom_site_label
_atom_site_fract_x
_atom_site_fract_y
_atom_site_fract_z
Si Si1 0.798582 0.092665 0.966049
Si Si2 0.302998 0.141730 0.799094
Si Si3 0.799059 0.402167 0.435743
Si Si4 0.895500 0.704099 0.239149
Si Si5 0.614340 0.744967 0.826359
Si Si6 0.259859 0.270352 0.391326
Si Si7 0.803410 0.400010 0.996857
Si Si8 0.678526 0.095830 0.466035
O O1 0.721022 0.093956 0.082389
O O2 0.742239 0.000000 0.901573
O O3 0.741134 0.178191 0.888119
O O4 0.000000 0.093507 0.000000
O O5 0.130871 0.193581 0.756151
O O6 0.441706 0.216925 0.842882
O O7 0.338035 0.101384 0.678369
O O8 0.739802 0.500000 0.409052
O O9 0.796206 0.344583 0.321484
O O10 0.704067 0.349614 0.516708
O O11 0.000000 0.405274 0.500000
O O12 0.821946 0.661666 0.111227
O O13 0.093442 0.696177 0.293506
O O14 0.607502 0.744119 0.685674
O O15 0.682677 0.653685 0.888041
O O16 0.234530 0.182546 0.463667
O O17 0.746374 0.500000 0.005375
O O18 0.000000 0.406019 0.000000
O O19 0.500000 0.095855 0.500000
O O20 0.756836 0.000000 0.505372
#
# Coordination Sequence:
#
# PCOD9154520 Si02
#       8
#     4   4   4   4   4   4   4   4
#     4  11  25  45  69  98 130 169 223 282 335 400
#     4  12  24  42  71  94 134 180 219 273 340 402
#     4   9  19  35  61  94 125 164 217 270 323 387
#     4  11  21  39  66  93 130 173 221 277 337 389
#     4  12  24  41  66  99 136 174 221 273 336 403
#     4  11  22  40  66  95 133 170 220 280 333 397
#     4  11  23  41  68  99 133 180 230 278 336 403
#     4  11  24  44  68  98 134 177 225 275 336 408
#
# _framework density 22.666412999999999
#
# number of rings (size 3 to 8) (size 9 to 14) (size 15 to 20)
#    0.000    1.000    5.000    2.250    0.000    3.000 
#    0.000    3.750    0.000    1.125    0.000    0.000 
#    0.000    0.000    0.000    0.000    0.000    0.000 
#
# Total GULP energy -178544.175580 kJ/mol
# GULP energy per Si atom -5579.505487 kJ/mol
# Density = 2.261482 g / cm^3
# Si number density = 22.666413 Si / 1000 Ang^3
#
#
#
# Elastic Constant Matrix: (Units=GPa)
#
#
# Indices 1 2 3 4 5 6 
#
# 1 56.6897 7.9155 13.0864 0.0000 -11.1482 0.0000
# 2 7.9155 118.2921 3.7289 0.0000 2.7515 0.0000
# 3 13.0864 3.7289 61.1485 0.0000 -15.8979 0.0000
# 4 0.0000 0.0000 0.0000 -6.0264 0.0000 5.7495
# 5 -11.1482 2.7515 -15.8979 0.0000 29.7263 0.0000
# 6 0.0000 0.0000 0.0000 5.7495 0.0000 -1.9757
#
#
#
# Elastic Compliance Matrix: (Units=1/GPa)
#
#
# Indices 1 2 3 4 5 6 
#
# 1 0.019621 -0.001376 -0.002519 0.000000 0.006138 0.000000
# 2 -0.001376 0.008605 -0.000664 0.000000 -0.001668 0.000000
# 3 -0.002519 -0.000664 0.019401 0.000000 0.009493 0.000000
# 4 0.000000 0.000000 0.000000 0.093408 0.000000 0.271833
# 5 0.006138 -0.001668 0.009493 0.000000 0.041173 0.000000
# 6 0.000000 0.000000 0.000000 0.271833 0.000000 0.284923
#
#
# Mechanical properties :
#
#
# Convention : Reuss Voigt Hill
#
# Bulk Modulus (GPa) = 25.96803 31.73240 28.85022
# Shear Modulus (GPa) = 10.22314 18.43815 14.33064
#
# Velocity S-wave (km/s) = 2.12604 2.85521 2.51717
# Velocity P-wave (km/s) = 4.18428 4.98997 4.60478
#
# Compressibility (1/GPa) = 0.03850888
#
# Stress axis : x y z
#
# Youngs Moduli (GPa) = 50.96650 116.20528 51.54319
#
# Poissons Ratio (x) = 0.15993 0.12985
# Poissons Ratio (y) = 0.07014 0.03421
# Poissons Ratio (z) = 0.12839 0.07714
#
# Static dielectric constant tensor:
#      x y z
#    x 1.900630 0.000000 -0.014100 
#    y 0.000000 1.894990 0.000000 
#    z -0.014100 0.000000 1.855610 
# 
# From -- ./inp_files/42992.got.cif
#   From: 2010.05.17/outbox.cif.g08.bks.cpg/sg10_22_cif.got.tgz:42992.got - 2010.06.03 11:33:40.
