data_PCOD9154186
_publ_section_title
;
Structure prediction by ZEFSAII (Michael W. Deem and Ramdas Pophale) SiO2 
 PCOD9154186
Probable space group: P 2/M
;
_chemical_formula_sum "Si O2"
_cell_formula_units_Z 15
_cell_length_a 9.078472
_cell_length_b 15.530015
_cell_length_c 5.424530
_cell_angle_alpha 90.000000
_cell_angle_beta 109.982465
_cell_angle_gamma 90.000000
_cell_volume 718.755066
_symmetry_space_group_name_H-M "P 2/M"
_symmetry_group_IT_number 10
_symmetry_cell_setting 'monoclinic'
loop_
_space_group_symop_operation_xyz
x,y,z
-x,y,-z
-x,-y,-z
x,-y,z
loop_
_atom_site_type_symbol
_atom_site_label
_atom_site_fract_x
_atom_site_fract_y
_atom_site_fract_z
Si Si1 0.374515 0.856173 0.621286
Si Si2 0.900298 0.746704 0.693166
Si Si3 0.500000 0.000000 0.000000
Si Si4 0.500000 0.700309 0.000000
Si Si5 0.672189 0.401407 0.726540
O O1 0.500000 0.894131 0.500000
O O2 0.213820 0.829198 0.402814
O O3 0.443488 0.765776 0.758009
O O4 0.375309 0.923862 0.841777
O O5 0.794498 0.661084 0.665058
O O6 0.000000 0.740798 0.500000
O O7 0.000000 0.754823 0.000000
O O8 0.636940 0.640691 0.972861
O O9 0.500000 0.401128 0.500000
O O10 0.724937 0.500000 0.771115
#
# Coordination Sequence:
#
# PCOD9154186 Si02
#       5
#     4   4   1   2   4
#     4  11  22  44  72 101 128 177 235 283 343 416
#     4  12  26  44  69 100 147 192 225 275 353 423
#     4  10  26  40  82 100 130 160 242 300 336 398
#     4  11  17  39  71  96 132 176 237 299 329 395
#     4  11  23  40  66  99 134 184 247 294 326 391
#
# _framework density 20.869418
#
# number of rings (size 3 to 8) (size 9 to 14) (size 15 to 20)
#    0.000    0.800    5.333    2.400    3.733    1.067 
#    0.000    1.333    0.000    0.000    0.000    0.000 
#    0.000    0.000    0.000    0.000    0.000    0.000 
#
# Total GULP energy -83521.423197 kJ/mol
# GULP energy per Si atom -5568.094880 kJ/mol
# Density = 2.082192 g / cm^3
# Si number density = 20.869418 Si / 1000 Ang^3
#
#
#
# Elastic Constant Matrix: (Units=GPa)
#
#
# Indices 1 2 3 4 5 6 
#
# 1 114.5764 39.6955 41.8297 0.0000 -9.7671 0.0000
# 2 39.6955 154.8546 37.8014 0.0000 16.4531 0.0000
# 3 41.8297 37.8014 110.1136 0.0000 17.1421 0.0000
# 4 0.0000 0.0000 0.0000 -20.3990 0.0000 -0.6949
# 5 -9.7671 16.4531 17.1421 0.0000 40.7436 0.0000
# 6 0.0000 0.0000 0.0000 -0.6949 0.0000 16.1580
#
#
#
# Elastic Compliance Matrix: (Units=1/GPa)
#
#
# Indices 1 2 3 4 5 6 
#
# 1 0.011722 -0.002519 -0.004477 0.000000 0.005711 0.000000
# 2 -0.002519 0.007738 -0.001198 0.000000 -0.003225 0.000000
# 3 -0.004477 -0.001198 0.012076 0.000000 -0.005670 0.000000
# 4 0.000000 0.000000 0.000000 -0.048950 0.000000 -0.002105
# 5 0.005711 -0.003225 -0.005670 0.000000 0.029601 0.000000
# 6 0.000000 0.000000 0.000000 -0.002105 0.000000 0.061798
#
#
# Mechanical properties :
#
#
# Convention : Reuss Voigt Hill
#
# Bulk Modulus (GPa) = 66.01025 68.68868 67.34946
# Shear Modulus (GPa) = 52.39896 24.64839 38.52368
#
# Velocity S-wave (km/s) = 5.01623 3.44041 4.30110
# Velocity P-wave (km/s) = 8.07767 6.98333 7.55035
#
# Compressibility (1/GPa) = 0.01514916
#
# Stress axis : x y z
#
# Youngs Moduli (GPa) = 85.31153 129.22754 82.80698
#
# Poissons Ratio (x) = 0.32547 0.37075
# Poissons Ratio (y) = 0.21486 0.09918
# Poissons Ratio (z) = 0.38196 0.15478
#
# Static dielectric constant tensor:
#      x y z
#    x 1.779620 0.000000 -0.017340 
#    y 0.000000 1.726610 0.000000 
#    z -0.017340 0.000000 1.874200 
# 
# From -- ./inp_files/3398.got.cif
#   From: 2010.05.17/outbox.cif.g08.bks.cpg/sg10_2_cif.got.tgz:3398.got - 2010.06.03 11:33:40.
