data_PCOD9154349
_publ_section_title
;
Structure prediction by ZEFSAII (Michael W. Deem and Ramdas Pophale) SiO2 
 PCOD9154349
Probable space group: P 2/M
;
_chemical_formula_sum "Si O2"
_cell_formula_units_Z 28
_cell_length_a 12.384640
_cell_length_b 13.820984
_cell_length_c 8.511213
_cell_angle_alpha 90.000000
_cell_angle_beta 112.372223
_cell_angle_gamma 90.000000
_cell_volume 1347.190685
_symmetry_space_group_name_H-M "P 2/M"
_symmetry_group_IT_number 10
_symmetry_cell_setting 'monoclinic'
loop_
_space_group_symop_operation_xyz
x,y,z
-x,y,-z
-x,-y,-z
x,-y,z
loop_
_atom_site_type_symbol
_atom_site_label
_atom_site_fract_x
_atom_site_fract_y
_atom_site_fract_z
Si Si1 0.022754 0.604731 0.324539
Si Si2 0.130954 0.854527 0.628561
Si Si3 0.492468 0.391067 0.686321
Si Si4 0.335420 0.216970 0.239189
Si Si5 0.669081 0.000000 0.239518
Si Si6 0.095926 0.221222 0.930447
Si Si7 0.598986 0.000000 0.831255
Si Si8 0.253461 0.691226 0.509055
O O1 0.984705 0.500000 0.245166
O O2 0.161568 0.619131 0.377169
O O3 0.000000 0.606029 0.500000
O O4 0.957506 0.687717 0.192372
O O5 0.247414 0.913956 0.659465
O O6 0.120307 0.855503 0.809211
O O7 0.169082 0.753001 0.574395
O O8 0.000000 0.881076 0.500000
O O9 0.500000 0.396651 0.500000
O O10 0.523817 0.500000 0.761711
O O11 0.570535 0.296630 0.769769
O O12 0.358352 0.364747 0.651292
O O13 0.311960 0.240462 0.409406
O O14 0.364330 0.103510 0.225302
O O15 0.215376 0.240857 0.084533
O O16 0.541627 0.000000 0.242895
O O17 0.645885 0.000000 0.038054
O O18 0.000000 0.186862 0.000000
#
# Coordination Sequence:
#
# PCOD9154349 Si02
#       8
#     4   4   4   4   2   4   2   4
#     4  11  22  38  62  91 126 169 215 265 321 383
#     4  12  22  42  65  93 126 167 214 265 318 389
#     4   9  20  38  62  93 126 167 214 262 318 377
#     4  11  23  41  67  93 131 169 214 270 325 384
#     4  11  25  41  67  93 124 172 220 264 328 377
#     4  12  22  41  63  92 128 164 208 261 328 385
#     4  11  24  45  63  99 131 170 215 266 334 383
#     4  11  20  40  65  92 127 169 209 267 319 383
#
# _framework density 20.783992999999999
#
# number of rings (size 3 to 8) (size 9 to 14) (size 15 to 20)
#    0.000    1.000    5.714    1.500    0.000    2.000 
#    0.000    6.786    0.000    0.857    0.000    0.000 
#    0.000    0.000    0.000    0.000    0.000    0.000 
#
# Total GULP energy -156078.657583 kJ/mol
# GULP energy per Si atom -5574.237771 kJ/mol
# Density = 2.073669 g / cm^3
# Si number density = 20.783993 Si / 1000 Ang^3
#
#
#
# Elastic Constant Matrix: (Units=GPa)
#
#
# Indices 1 2 3 4 5 6 
#
# 1 111.2988 43.0299 30.6337 0.0000 26.1423 0.0000
# 2 43.0299 97.9251 4.4316 0.0000 10.9530 0.0000
# 3 30.6337 4.4316 33.4223 0.0000 14.2461 0.0000
# 4 0.0000 0.0000 0.0000 19.8095 0.0000 -0.7698
# 5 26.1423 10.9530 14.2461 0.0000 45.7620 0.0000
# 6 0.0000 0.0000 0.0000 -0.7698 0.0000 14.2781
#
#
#
# Elastic Compliance Matrix: (Units=1/GPa)
#
#
# Indices 1 2 3 4 5 6 
#
# 1 0.015310 -0.005782 -0.011677 0.000000 -0.003727 0.000000
# 2 -0.005782 0.012680 0.004040 0.000000 -0.000990 0.000000
# 3 -0.011677 0.004040 0.043417 0.000000 -0.007812 0.000000
# 4 0.000000 0.000000 0.000000 0.050587 0.000000 0.002727
# 5 -0.003727 -0.000990 -0.007812 0.000000 0.026650 0.000000
# 6 0.000000 0.000000 0.000000 0.002727 0.000000 0.070184
#
#
# Mechanical properties :
#
#
# Convention : Reuss Voigt Hill
#
# Bulk Modulus (GPa) = 22.43694 44.31516 33.37605
# Shear Modulus (GPa) = 19.19218 26.94000 23.06609
#
# Velocity S-wave (km/s) = 3.04207 3.60417 3.33498
# Velocity P-wave (km/s) = 4.81224 6.21998 5.56083
#
# Compressibility (1/GPa) = 0.04456936
#
# Stress axis : x y z
#
# Youngs Moduli (GPa) = 65.31865 78.86154 23.03234
#
# Poissons Ratio (x) = 0.45598 0.26895
# Poissons Ratio (y) = 0.37767 -0.09305
# Poissons Ratio (z) = 0.76273 -0.31861
#
# Static dielectric constant tensor:
#      x y z
#    x 1.761960 0.000000 -0.002210 
#    y 0.000000 1.744290 0.000000 
#    z -0.002210 0.000000 1.739620 
# 
# From -- ./inp_files/25464.got.cif
#   From: 2010.05.17/outbox.cif.g08.bks.cpg/sg10_13_cif.got.tgz:25464.got - 2010.06.03 11:33:40.
