data_PCOD9154921
_publ_section_title
;
Structure prediction by ZEFSAII (Michael W. Deem and Ramdas Pophale) SiO2 
 PCOD9154921
Probable space group: P 2/M
;
_chemical_formula_sum "Si O2"
_cell_formula_units_Z 32
_cell_length_a 21.165662
_cell_length_b 10.732195
_cell_length_c 7.119192
_cell_angle_alpha 90.000000
_cell_angle_beta 68.501859
_cell_angle_gamma 90.000000
_cell_volume 1504.646813
_symmetry_space_group_name_H-M "P 2/M"
_symmetry_group_IT_number 10
_symmetry_cell_setting 'monoclinic'
loop_
_space_group_symop_operation_xyz
x,y,z
-x,y,-z
-x,-y,-z
x,-y,z
loop_
_atom_site_type_symbol
_atom_site_label
_atom_site_fract_x
_atom_site_fract_y
_atom_site_fract_z
Si Si1 0.091759 0.639998 0.081623
Si Si2 0.659765 0.135531 0.317165
Si Si3 0.420038 0.368900 0.558900
Si Si4 0.938208 0.359052 0.336408
Si Si5 0.683287 0.142427 0.744974
Si Si6 0.161847 0.142330 0.497347
Si Si7 0.419961 0.356947 0.113911
Si Si8 0.185914 0.861917 0.923564
O O1 0.116321 0.500000 0.098100
O O2 0.077231 0.642083 0.871913
O O3 0.144346 0.750205 0.059050
O O4 0.019168 0.660019 0.259962
O O5 0.612508 0.248828 0.316970
O O6 0.670952 0.139491 0.531378
O O7 0.733371 0.148876 0.144049
O O8 0.630828 0.000000 0.304452
O O9 0.500000 0.367411 0.500000
O O10 0.391501 0.500000 0.660579
O O11 0.408952 0.366036 0.349122
O O12 0.922198 0.500000 0.419397
O O13 0.893058 0.250452 0.475243
O O14 0.764141 0.167245 0.673937
O O15 0.633509 0.248341 0.881587
O O16 0.669840 0.000000 0.825229
O O17 0.173404 0.142389 0.711571
O O18 0.140968 0.000000 0.473016
O O19 0.410832 0.500000 0.051103
O O20 0.500000 0.324210 0.000000
O O21 0.164564 0.000000 0.010687
#
# Coordination Sequence:
#
# PCOD9154921 Si02
#       8
#     4   4   4   4   4   4   4   4
#     4   8  13  19  25  35  53  77 106 140 175 209
#     4   8  14  24  36  50  68  89 115 148 183 218
#     4   9  17  28  41  57  76  97 122 152 185 221
#     4   8  13  19  25  35  53  77 106 140 175 209
#     4   8  14  24  36  50  68  89 115 148 183 218
#     4   8  13  20  29  41  57  78 106 140 175 209
#     4   9  17  28  41  57  76  97 122 152 185 221
#     4   8  13  20  29  41  57  78 106 140 175 209
#
# _framework density 21.267448000000002
#
# number of rings (size 3 to 8) (size 9 to 14) (size 15 to 20)
#    0.000    3.750    0.000    2.250    0.000    2.000 
#    0.000    7.500    0.000    0.000    0.000    0.000 
#    0.000    0.000    0.000    0.000    0.000    1.250 
#
# Total GULP energy -178499.838649 kJ/mol
# GULP energy per Si atom -5578.119958 kJ/mol
# Density = 2.121904 g / cm^3
# Si number density = 21.267448 Si / 1000 Ang^3
#
#
#
# Elastic Constant Matrix: (Units=GPa)
#
#
# Indices 1 2 3 4 5 6 
#
# 1 47.5655 84.9961 25.3949 0.0000 -21.0059 0.0000
# 2 84.9961 255.3082 67.2391 0.0000 -68.3520 0.0000
# 3 25.3949 67.2391 99.5984 0.0000 -1.4122 0.0000
# 4 0.0000 0.0000 0.0000 14.2431 0.0000 -28.7156
# 5 -21.0059 -68.3520 -1.4122 0.0000 42.5699 0.0000
# 6 0.0000 0.0000 0.0000 -28.7156 0.0000 32.2511
#
#
#
# Elastic Compliance Matrix: (Units=1/GPa)
#
#
# Indices 1 2 3 4 5 6 
#
# 1 0.052367 -0.017843 -0.001347 0.000000 -0.002854 0.000000
# 2 -0.017843 0.015774 -0.005868 0.000000 0.016328 0.000000
# 3 -0.001347 -0.005868 0.014209 0.000000 -0.009615 0.000000
# 4 0.000000 0.000000 0.000000 -0.088304 0.000000 -0.078624
# 5 -0.002854 0.016328 -0.009615 0.000000 0.047980 0.000000
# 6 0.000000 0.000000 0.000000 -0.078624 0.000000 -0.038998
#
#
# Mechanical properties :
#
#
# Convention : Reuss Voigt Hill
#
# Bulk Modulus (GPa) = 31.02328 84.19247 57.60788
# Shear Modulus (GPa) = 78.26296 32.80229 55.53262
#
# Velocity S-wave (km/s) = 6.07283 3.93156 5.11549
# Velocity P-wave (km/s) = 7.98694 7.76421 7.87637
#
# Compressibility (1/GPa) = 0.03223386
#
# Stress axis : x y z
#
# Youngs Moduli (GPa) = 19.09617 63.39595 70.37900
#
# Poissons Ratio (x) = 1.13119 0.09477
# Poissons Ratio (y) = 0.34074 0.41298
# Poissons Ratio (z) = 0.02571 0.37200
#
# Static dielectric constant tensor:
#      x y z
#    x 1.957280 0.000000 0.266240 
#    y 0.000000 1.764290 0.000000 
#    z 0.266240 0.000000 1.989100 
# 
# From -- ./inp_files/56292.got.cif
#   From: 2010.05.17/outbox.cif.g08.bks.cpg/sg10_29_cif.got.tgz:56292.got - 2010.06.03 11:33:40.
