data_PCOD9154018
_publ_section_title
;
Structure prediction by ZEFSAII (Michael W. Deem and Ramdas Pophale) SiO2 
 PCOD9154018
Probable space group: P 2/M
;
_chemical_formula_sum "Si O2"
_cell_formula_units_Z 26
_cell_length_a 5.555678
_cell_length_b 16.442654
_cell_length_c 13.919959
_cell_angle_alpha 90.000000
_cell_angle_beta 117.080384
_cell_angle_gamma 90.000000
_cell_volume 1132.183529
_symmetry_space_group_name_H-M "P 2/M"
_symmetry_group_IT_number 10
_symmetry_cell_setting 'monoclinic'
loop_
_space_group_symop_operation_xyz
x,y,z
-x,y,-z
-x,-y,-z
x,-y,z
loop_
_atom_site_type_symbol
_atom_site_label
_atom_site_fract_x
_atom_site_fract_y
_atom_site_fract_z
Si Si1 0.500000 0.132576 0.000000
Si Si2 0.307207 0.090446 0.590480
Si Si3 0.643521 0.587709 0.185174
Si Si4 0.719627 0.729523 0.910211
Si Si5 0.707532 0.409901 0.680788
Si Si6 0.871271 0.087031 0.235175
Si Si7 0.708162 0.230115 0.680578
O O1 0.328535 0.189417 0.039293
O O2 0.708561 0.088316 0.107095
O O3 0.322826 0.085803 0.708621
O O4 0.475909 0.170554 0.600193
O O5 0.000000 0.101922 0.500000
O O6 0.383076 0.000000 0.569513
O O7 0.558239 0.500000 0.129507
O O8 0.520059 0.666394 0.113942
O O9 0.502500 0.590080 0.266605
O O10 0.968500 0.590458 0.238767
O O11 0.709857 0.750353 0.795497
O O12 0.000000 0.693107 0.000000
O O13 0.664233 0.500000 0.626584
O O14 0.684634 0.319965 0.629981
O O15 0.033959 0.170448 0.280615
O O16 0.026489 0.000000 0.267810
#
# Coordination Sequence:
#
# PCOD9154018 Si02
#       7
#     2   4   4   4   4   4   4
#     4  12  21  38  55  86 124 166 207 252 312 382
#     4  10  23  43  65  92 124 159 210 272 328 382
#     4   9  19  35  53  82 123 170 218 265 315 372
#     4  11  22  34  55  83 123 170 212 260 312 382
#     4   9  19  35  60  90 125 167 212 262 319 382
#     4  11  23  38  61  90 123 166 210 258 316 385
#     4  11  21  38  62  88 124 164 212 259 325 380
#
# _framework density 22.964473999999999
#
# number of rings (size 3 to 8) (size 9 to 14) (size 15 to 20)
#    0.000    1.692    3.077    1.615    4.308    0.923 
#    0.000    3.462    0.000    0.462    0.000    1.077 
#    0.000    0.000    0.000    0.000    0.000    0.000 
#
# Total GULP energy -144859.126743 kJ/mol
# GULP energy per Si atom -5571.504875 kJ/mol
# Density = 2.291221 g / cm^3
# Si number density = 22.964474 Si / 1000 Ang^3
#
#
#
# Elastic Constant Matrix: (Units=GPa)
#
#
# Indices 1 2 3 4 5 6 
#
# 1 69.6218 23.7463 26.2501 0.0000 4.2914 0.0000
# 2 23.7463 224.8505 36.3682 0.0000 11.0996 0.0000
# 3 26.2501 36.3682 82.7862 0.0000 6.0086 0.0000
# 4 0.0000 0.0000 0.0000 301.7404 0.0000 -81.3343
# 5 4.2914 11.0996 6.0086 0.0000 32.3873 0.0000
# 6 0.0000 0.0000 0.0000 -81.3343 0.0000 73.5299
#
#
#
# Elastic Compliance Matrix: (Units=1/GPa)
#
#
# Indices 1 2 3 4 5 6 
#
# 1 0.016537 -0.000927 -0.004765 0.000000 -0.000990 0.000000
# 2 -0.000927 0.004891 -0.001766 0.000000 -0.001226 0.000000
# 3 -0.004765 -0.001766 0.014471 0.000000 -0.001448 0.000000
# 4 0.000000 0.000000 0.000000 0.004722 0.000000 0.005223
# 5 -0.000990 -0.001226 -0.001448 0.000000 0.031696 0.000000
# 6 0.000000 0.000000 0.000000 0.005223 0.000000 0.019378
#
#
# Mechanical properties :
#
#
# Convention : Reuss Voigt Hill
#
# Bulk Modulus (GPa) = 47.65435 61.10973 54.38204
# Shear Modulus (GPa) = 44.01224 100.92443 72.46833
#
# Velocity S-wave (km/s) = 4.38258 6.63653 5.62363
# Velocity P-wave (km/s) = 6.81217 9.24083 8.11784
#
# Compressibility (1/GPa) = 0.02098444
#
# Stress axis : x y z
#
# Youngs Moduli (GPa) = 60.47086 204.43878 69.10399
#
# Poissons Ratio (x) = 0.18951 0.32925
# Poissons Ratio (y) = 0.05605 0.12203
# Poissons Ratio (z) = 0.28812 0.36102
#
# Static dielectric constant tensor:
#      x y z
#    x 1.906240 0.000000 0.006370 
#    y 0.000000 1.897340 0.000000 
#    z 0.006370 0.000000 1.849860 
# 
# From -- ./inp_files/59360.got.cif
#   From: 2010.05.17/outbox.cif.g08.bks.cpg/sg10_30_cif.got.tgz:59360.got - 2010.06.03 11:33:40.
