data_PCOD9154521
_publ_section_title
;
Structure prediction by ZEFSAII (Michael W. Deem and Ramdas Pophale) SiO2 
 PCOD9154521
Probable space group: P 2/M
;
_chemical_formula_sum "Si O2"
_cell_formula_units_Z 24
_cell_length_a 15.122328
_cell_length_b 8.532248
_cell_length_c 15.424756
_cell_angle_alpha 90.000000
_cell_angle_beta 140.133163
_cell_angle_gamma 90.000000
_cell_volume 1275.740001
_symmetry_space_group_name_H-M "P 2/M"
_symmetry_group_IT_number 10
_symmetry_cell_setting 'monoclinic'
loop_
_space_group_symop_operation_xyz
x,y,z
-x,y,-z
-x,-y,-z
x,-y,z
loop_
_atom_site_type_symbol
_atom_site_label
_atom_site_fract_x
_atom_site_fract_y
_atom_site_fract_z
Si Si1 0.356033 0.686245 0.667392
Si Si2 0.347322 0.190752 0.356042
Si Si3 0.153321 0.811226 0.367864
Si Si4 0.658191 0.188278 0.846042
Si Si5 0.843370 0.313806 0.139790
Si Si6 0.653126 0.812867 0.149294
O O1 0.367060 0.500000 0.666349
O O2 0.242379 0.752252 0.516124
O O3 0.503184 0.763663 0.755279
O O4 0.321199 0.730467 0.739873
O O5 0.500000 0.243586 0.500000
O O6 0.234884 0.239006 0.342176
O O7 0.317585 0.238515 0.235164
O O8 0.350313 0.000000 0.358523
O O9 0.000041 0.744332 0.254708
O O10 0.148356 0.000000 0.365516
O O11 0.669909 0.000000 0.860304
O O12 0.763771 0.263593 0.992735
O O13 0.838274 0.500000 0.145547
O O14 0.762410 0.236288 0.159057
O O15 0.656086 0.000000 0.163999
O O16 0.500000 0.770105 0.000000
#
# Coordination Sequence:
#
# PCOD9154521 Si02
#       6
#     4   4   4   4   4   4
#     4  12  24  39  63  97 131 164 204 258 321 373
#     4   9  18  36  65  96 122 160 215 266 303 357
#     4  11  23  43  67  92 127 169 214 260 310 371
#     4  11  21  39  66  94 124 166 218 259 304 371
#     4  12  26  43  62  93 134 166 203 261 325 374
#     4  11  23  41  68  95 121 163 217 259 302 372
#
# _framework density 18.812609999999999
#
# number of rings (size 3 to 8) (size 9 to 14) (size 15 to 20)
#    0.000    1.000    3.333    4.500    0.000    2.000 
#    0.000   10.833    0.000    0.000    0.000    0.000 
#    0.000    0.000    0.000    0.000    0.000    0.000 
#
# Total GULP energy -134242.184549 kJ/mol
# GULP energy per Si atom -5593.424356 kJ/mol
# Density = 1.876979 g / cm^3
# Si number density = 18.812610 Si / 1000 Ang^3
#
#
#
# Elastic Constant Matrix: (Units=GPa)
#
#
# Indices 1 2 3 4 5 6 
#
# 1 116.0474 -12.0850 52.9614 0.0000 4.0017 0.0000
# 2 -12.0850 31.6908 -2.9253 0.0000 5.7452 0.0000
# 3 52.9614 -2.9253 125.5352 0.0000 4.4053 0.0000
# 4 0.0000 0.0000 0.0000 33.7633 0.0000 17.0507
# 5 4.0017 5.7452 4.4053 0.0000 40.7039 0.0000
# 6 0.0000 0.0000 0.0000 17.0507 0.0000 -44.1791
#
#
#
# Elastic Compliance Matrix: (Units=1/GPa)
#
#
# Indices 1 2 3 4 5 6 
#
# 1 0.011168 0.004049 -0.004576 0.000000 -0.001174 0.000000
# 2 0.004049 0.033958 -0.000738 0.000000 -0.005111 0.000000
# 3 -0.004576 -0.000738 0.009897 0.000000 -0.000517 0.000000
# 4 0.000000 0.000000 0.000000 0.024787 0.000000 0.009566
# 5 -0.001174 -0.005111 -0.000517 0.000000 0.025461 0.000000
# 6 0.000000 0.000000 0.000000 0.009566 0.000000 -0.018943
#
#
# Mechanical properties :
#
#
# Convention : Reuss Voigt Hill
#
# Bulk Modulus (GPa) = 19.04983 38.79729 28.92356
# Shear Modulus (GPa) = 47.01293 21.74575 34.37934
#
# Velocity S-wave (km/s) = 5.00443 3.40356 4.27952
# Velocity P-wave (km/s) = 6.59853 6.00945 6.31086
#
# Compressibility (1/GPa) = 0.05249390
#
# Stress axis : x y z
#
# Youngs Moduli (GPa) = 89.54412 29.44850 101.03698
#
# Poissons Ratio (x) = -0.11924 0.46234
# Poissons Ratio (y) = -0.36258 0.07453
# Poissons Ratio (z) = 0.40975 0.02172
#
# Static dielectric constant tensor:
#      x y z
#    x 1.631400 0.000000 -0.013070 
#    y 0.000000 1.628050 0.000000 
#    z -0.013070 0.000000 1.615110 
# 
# From -- ./inp_files/60203.got.cif
#   From: 2010.05.17/outbox.cif.g08.bks.cpg/sg10_31_cif.got.tgz:60203.got - 2010.06.03 11:33:40.
