data_PCOD9154986
_publ_section_title
;
Structure prediction by ZEFSAII (Michael W. Deem and Ramdas Pophale) SiO2 
 PCOD9154986
Probable space group: P 2/M
;
_chemical_formula_sum "Si O2"
_cell_formula_units_Z 20
_cell_length_a 14.461640
_cell_length_b 8.700493
_cell_length_c 28.227544
_cell_angle_alpha 90.000000
_cell_angle_beta 14.845108
_cell_angle_gamma 90.000000
_cell_volume 909.966125
_symmetry_space_group_name_H-M "P 2/M"
_symmetry_group_IT_number 10
_symmetry_cell_setting 'monoclinic'
loop_
_space_group_symop_operation_xyz
x,y,z
-x,y,-z
-x,-y,-z
x,-y,z
loop_
_atom_site_type_symbol
_atom_site_label
_atom_site_fract_x
_atom_site_fract_y
_atom_site_fract_z
Si Si1 0.552745 0.176037 0.422274
Si Si2 0.586254 0.184694 0.304715
Si Si3 0.440465 0.680184 0.779451
Si Si4 0.400994 0.684061 0.901208
Si Si5 0.416970 0.824536 0.990091
O O1 0.500000 0.251317 0.500000
O O2 0.418184 0.239526 0.438230
O O3 0.983940 0.169296 0.202563
O O4 0.412874 0.000000 0.495420
O O5 0.427102 0.234939 0.333116
O O6 0.605880 0.000000 0.297115
O O7 0.990003 0.254331 0.103951
O O8 0.525113 0.500000 0.732334
O O9 0.567645 0.735269 0.768351
O O10 0.000000 0.692749 0.000000
O O11 0.394938 0.500000 0.903925
O O12 0.556047 0.743500 0.873988
O O13 0.553627 0.000000 0.922722
O O14 0.500000 0.752113 0.000000
#
# Coordination Sequence:
#
# PCOD9154986 Si02
#       5
#     4   4   4   4   4
#     4   8  14  25  40  58  81 107 131 156 193 239
#     4   9  15  22  36  57  78 102 132 165 198 231
#     4   8  14  23  34  51  77 105 129 157 198 241
#     4   9  16  25  37  54  78 107 133 158 195 241
#     4   9  17  28  42  61  82 103 131 167 200 228
#
# _framework density 21.978840000000002
#
# number of rings (size 3 to 8) (size 9 to 14) (size 15 to 20)
#    0.000    3.400    0.000    3.600    0.000    4.800 
#    0.000    0.000    0.000   15.000    0.000    1.400 
#    0.000   11.200    0.000    0.000    0.000    0.000 
#
# Total GULP energy -111334.586119 kJ/mol
# GULP energy per Si atom -5566.729306 kJ/mol
# Density = 2.192882 g / cm^3
# Si number density = 21.978840 Si / 1000 Ang^3
#
#
#
# Elastic Constant Matrix: (Units=GPa)
#
#
# Indices 1 2 3 4 5 6 
#
# 1 222.4095 48.9204 56.2893 0.0000 92.0548 0.0000
# 2 48.9204 32.6802 12.3414 0.0000 23.3446 0.0000
# 3 56.2893 12.3414 74.8237 0.0000 14.1861 0.0000
# 4 0.0000 0.0000 0.0000 6.1871 0.0000 18.4355
# 5 92.0548 23.3446 14.1861 0.0000 57.6664 0.0000
# 6 0.0000 0.0000 0.0000 18.4355 0.0000 31.4657
#
#
#
# Elastic Compliance Matrix: (Units=1/GPa)
#
#
# Indices 1 2 3 4 5 6 
#
# 1 0.017741 -0.006700 -0.007748 0.000000 -0.023703 0.000000
# 2 -0.006700 0.046740 -0.001164 0.000000 -0.007939 0.000000
# 3 -0.007748 -0.001164 0.017780 0.000000 0.008465 0.000000
# 4 0.000000 0.000000 0.000000 -0.216726 0.000000 0.126978
# 5 -0.023703 -0.007939 0.008465 0.000000 0.056310 0.000000
# 6 0.000000 0.000000 0.000000 0.126978 0.000000 -0.042615
#
#
# Mechanical properties :
#
#
# Convention : Reuss Voigt Hill
#
# Bulk Modulus (GPa) = 19.59291 62.77952 41.18622
# Shear Modulus (GPa) = -68.93427 33.22132 -17.85648
#
# Velocity S-wave (km/s) = -5.60643 3.89204 -2.85342
# Velocity P-wave (km/s) = 5.74243 6.98734 2.81490
#
# Compressibility (1/GPa) = 0.05103887
#
# Stress axis : x y z
#
# Youngs Moduli (GPa) = 56.36554 21.39490 56.24204
#
# Poissons Ratio (x) = 0.14335 0.43574
# Poissons Ratio (y) = 0.37766 0.06544
# Poissons Ratio (z) = 0.43670 0.02489
#
# Static dielectric constant tensor:
#      x y z
#    x 2.008410 0.000000 -0.056450 
#    y 0.000000 1.748070 0.000000 
#    z -0.056450 0.000000 1.904380 
# 
# From -- ./inp_files/26759.got.cif
#   From: 2010.05.17/outbox.cif.g08.bks.cpg/sg10_14_cif.got.tgz:26759.got - 2010.06.03 11:33:40.
