data_PCOD9154901
_publ_section_title
;
Structure prediction by ZEFSAII (Michael W. Deem and Ramdas Pophale) SiO2 
 PCOD9154901
Probable space group: P 2/M
;
_chemical_formula_sum "Si O2"
_cell_formula_units_Z 28
_cell_length_a 6.965235
_cell_length_b 7.291851
_cell_length_c 21.332130
_cell_angle_alpha 90.000000
_cell_angle_beta 68.870877
_cell_angle_gamma 90.000000
_cell_volume 1010.607580
_symmetry_space_group_name_H-M "P 2/M"
_symmetry_group_IT_number 10
_symmetry_cell_setting 'monoclinic'
loop_
_space_group_symop_operation_xyz
x,y,z
-x,y,-z
-x,-y,-z
x,-y,z
loop_
_atom_site_type_symbol
_atom_site_label
_atom_site_fract_x
_atom_site_fract_y
_atom_site_fract_z
Si Si1 0.792267 0.783502 0.707513
Si Si2 0.040409 0.724576 0.131368
Si Si3 0.535345 0.280601 0.847496
Si Si4 0.641008 0.276985 0.422013
Si Si5 0.283508 0.719205 0.987327
Si Si6 0.218248 0.708203 0.725793
Si Si7 0.070725 0.795569 0.429282
O O1 0.583586 0.764519 0.770430
O O2 0.988215 0.700231 0.720272
O O3 0.781145 0.707541 0.638576
O O4 0.832531 0.000000 0.697509
O O5 0.025717 0.500000 0.131594
O O6 0.251971 0.775055 0.143016
O O7 0.852653 0.787995 0.197856
O O8 0.098875 0.784493 0.053697
O O9 0.525556 0.500000 0.852131
O O10 0.344849 0.211699 0.911027
O O11 0.500000 0.228989 0.500000
O O12 0.641337 0.500000 0.419906
O O13 0.639419 0.216087 0.348165
O O14 0.858806 0.198455 0.417230
O O15 0.250982 0.500000 0.985799
O O16 0.500000 0.742914 0.000000
O O17 0.285954 0.500000 0.729474
O O18 0.000000 0.697208 0.500000
O O19 0.148235 0.000000 0.437540
#
# Coordination Sequence:
#
# PCOD9154901 Si02
#       7
#     4   4   4   4   4   4   4
#     4   9  15  22  33  48  66  88 116 152 188 220
#     4   7   9  14  26  42  57  79 115 149 171 199
#     4   8  12  18  28  41  59  84 113 144 177 215
#     4   9  17  28  42  62  85 105 128 161 200 240
#     4   7   9  13  23  39  56  77 110 147 173 198
#     4   8  13  22  35  48  65  92 122 149 178 217
#     4   9  18  31  44  58  77 103 136 169 197 229
#
# _framework density 27.706102999999999
#
# number of rings (size 3 to 8) (size 9 to 14) (size 15 to 20)
#    0.000    3.857    0.000    3.000    0.000    1.143 
#    0.000    0.000    0.000   10.714    0.000    0.000 
#    0.000    0.000    0.000    1.286    0.000   31.143 
#
# Total GULP energy -156053.503073 kJ/mol
# GULP energy per Si atom -5573.339395 kJ/mol
# Density = 2.764304 g / cm^3
# Si number density = 27.706103 Si / 1000 Ang^3
#
#
#
# Elastic Constant Matrix: (Units=GPa)
#
#
# Indices 1 2 3 4 5 6 
#
# 1 98.8458 -4.8662 42.8062 0.0000 -35.1614 0.0000
# 2 -4.8662 124.8529 17.7626 0.0000 -1.7903 0.0000
# 3 42.8062 17.7626 404.5431 0.0000 -21.6165 0.0000
# 4 0.0000 0.0000 0.0000 -1.5697 0.0000 -1.2049
# 5 -35.1614 -1.7903 -21.6165 0.0000 40.7338 0.0000
# 6 0.0000 0.0000 0.0000 -1.2049 0.0000 -1.5787
#
#
#
# Elastic Compliance Matrix: (Units=1/GPa)
#
#
# Indices 1 2 3 4 5 6 
#
# 1 0.015023 0.000902 -0.000961 0.000000 0.012497 0.000000
# 2 0.000902 0.008115 -0.000402 0.000000 0.000921 0.000000
# 3 -0.000961 -0.000402 0.002620 0.000000 0.000543 0.000000
# 4 0.000000 0.000000 0.000000 -1.538102 0.000000 1.173888
# 5 0.012497 0.000921 0.000543 0.000000 0.035666 0.000000
# 6 0.000000 0.000000 0.000000 1.173888 0.000000 -1.529351
#
#
# Mechanical properties :
#
#
# Convention : Reuss Voigt Hill
#
# Bulk Modulus (GPa) = 40.26803 82.18299 61.22551
# Shear Modulus (GPa) = -1.66843 45.68637 22.00897
#
# Velocity S-wave (km/s) = -0.77685 4.06515 2.82152
# Velocity P-wave (km/s) = 3.70957 7.19449 5.72371
#
# Compressibility (1/GPa) = 0.02483360
#
# Stress axis : x y z
#
# Youngs Moduli (GPa) = 66.56449 123.22806 381.62954
#
# Poissons Ratio (x) = -0.11109 0.36691
# Poissons Ratio (y) = -0.06001 0.15360
# Poissons Ratio (z) = 0.06400 0.04960
#
# Static dielectric constant tensor:
#      x y z
#    x 2.293890 0.000000 0.090570 
#    y 0.000000 2.091600 0.000000 
#    z 0.090570 0.000000 2.359130 
# 
# From -- ./inp_files/88433.got.cif
#   From: 2010.05.17/outbox.cif.g08.bks.cpg/sg10_45_cif.got.tgz:88433.got - 2010.06.03 11:33:40.
