data_PCOD9154203
_publ_section_title
;
Structure prediction by ZEFSAII (Michael W. Deem and Ramdas Pophale) SiO2 
 PCOD9154203
Probable space group: P 2/M
;
_chemical_formula_sum "Si O2"
_cell_formula_units_Z 24
_cell_length_a 24.239941
_cell_length_b 11.758526
_cell_length_c 14.863796
_cell_angle_alpha 90.000000
_cell_angle_beta 17.971389
_cell_angle_gamma 90.000000
_cell_volume 1307.159324
_symmetry_space_group_name_H-M "P 2/M"
_symmetry_group_IT_number 10
_symmetry_cell_setting 'monoclinic'
loop_
_space_group_symop_operation_xyz
x,y,z
-x,y,-z
-x,-y,-z
x,-y,z
loop_
_atom_site_type_symbol
_atom_site_label
_atom_site_fract_x
_atom_site_fract_y
_atom_site_fract_z
Si Si1 0.967515 0.775484 0.831514
Si Si2 0.169404 0.865656 0.670159
Si Si3 0.617048 0.635757 0.405388
Si Si4 0.883710 0.861330 0.587928
Si Si5 0.775770 0.000000 0.126673
Si Si6 0.531861 0.210546 0.205958
Si Si7 0.381043 0.000000 0.809895
O O1 0.135909 0.782036 0.637137
O O2 0.017509 0.805321 0.651611
O O3 0.821260 0.677437 0.072561
O O4 0.862772 0.887780 0.027752
O O5 0.353779 0.833105 0.433066
O O6 0.180949 0.000000 0.627231
O O7 0.000000 0.851227 0.000000
O O8 0.500000 0.674333 0.500000
O O9 0.610700 0.500000 0.420340
O O10 0.530190 0.690263 0.629881
O O11 0.000000 0.851259 0.500000
O O12 0.848718 0.000000 0.628763
O O13 0.701569 0.784913 0.876450
O O14 0.573075 0.000000 0.467417
O O15 0.774248 0.000000 0.021343
O O16 0.615125 0.112318 0.139175
#
# Coordination Sequence:
#
# PCOD9154203 Si02
#       7
#     4   4   4   4   2   4   2
#     4  12  22  37  57  88 123 159 197 243 302 361
#     4  11  20  35  57  89 126 160 197 244 299 369
#     4  11  24  42  63  86 114 156 214 267 302 341
#     4  11  22  35  56  92 129 157 192 244 309 379
#     4  11  18  28  54  85 112 145 189 242 303 354
#     4  12  22  37  57  88 123 159 197 243 302 361
#     4  11  18  28  54  85 112 145 189 242 303 354
#
# _framework density 18.360423999999998
#
# number of rings (size 3 to 8) (size 9 to 14) (size 15 to 20)
#    0.000    0.667    6.667    3.000    0.000    0.667 
#    0.000    4.167    0.000    3.000    0.000    2.333 
#    0.000    0.000    0.000    0.000    0.000    0.000 
#
# Total GULP energy -133733.422168 kJ/mol
# GULP energy per Si atom -5572.225924 kJ/mol
# Density = 1.831863 g / cm^3
# Si number density = 18.360424 Si / 1000 Ang^3
#
#
#
# Elastic Constant Matrix: (Units=GPa)
#
#
# Indices 1 2 3 4 5 6 
#
# 1 93.5967 21.8166 34.8185 0.0000 -9.6173 0.0000
# 2 21.8166 60.1533 27.0374 0.0000 2.8096 0.0000
# 3 34.8185 27.0374 125.8945 0.0000 2.6015 0.0000
# 4 0.0000 0.0000 0.0000 6.7318 0.0000 -2.7095
# 5 -9.6173 2.8096 2.6015 0.0000 37.1114 0.0000
# 6 0.0000 0.0000 0.0000 -2.7095 0.0000 21.5485
#
#
#
# Elastic Compliance Matrix: (Units=1/GPa)
#
#
# Indices 1 2 3 4 5 6 
#
# 1 0.012995 -0.003588 -0.002903 0.000000 0.003843 0.000000
# 2 -0.003588 0.019437 -0.003137 0.000000 -0.002181 0.000000
# 3 -0.002903 -0.003137 0.009444 0.000000 -0.001177 0.000000
# 4 0.000000 0.000000 0.000000 0.156468 0.000000 0.019675
# 5 0.003843 -0.002181 -0.001177 0.000000 0.028189 0.000000
# 6 0.000000 0.000000 0.000000 0.019675 0.000000 0.048881
#
#
# Mechanical properties :
#
#
# Convention : Reuss Voigt Hill
#
# Bulk Modulus (GPa) = 44.20679 49.66550 46.93615
# Shear Modulus (GPa) = 16.54473 26.14315 21.34394
#
# Velocity S-wave (km/s) = 3.00510 3.77754 3.41324
# Velocity P-wave (km/s) = 6.01418 6.79230 6.41505
#
# Compressibility (1/GPa) = 0.02262096
#
# Stress axis : x y z
#
# Youngs Moduli (GPa) = 76.95154 51.44738 105.88664
#
# Poissons Ratio (x) = 0.18458 0.30738
# Poissons Ratio (y) = 0.27609 0.33217
# Poissons Ratio (z) = 0.22339 0.16139
#
# Static dielectric constant tensor:
#      x y z
#    x 1.806010 0.000000 0.097990 
#    y 0.000000 1.598340 0.000000 
#    z 0.097990 0.000000 1.745410 
# 
# From -- ./inp_files/71798.got.cif
#   From: 2010.05.17/outbox.cif.g08.bks.cpg/sg10_36_cif.got.tgz:71798.got - 2010.06.03 11:33:40.
