data_PCOD9154679
_publ_section_title
;
Structure prediction by ZEFSAII (Michael W. Deem and Ramdas Pophale) SiO2 
 PCOD9154679
Probable space group: P 2/M
;
_chemical_formula_sum "Si O2"
_cell_formula_units_Z 32
_cell_length_a 8.075865
_cell_length_b 14.570258
_cell_length_c 15.101123
_cell_angle_alpha 90.000000
_cell_angle_beta 78.198080
_cell_angle_gamma 90.000000
_cell_volume 1739.347498
_symmetry_space_group_name_H-M "P 2/M"
_symmetry_group_IT_number 10
_symmetry_cell_setting 'monoclinic'
loop_
_space_group_symop_operation_xyz
x,y,z
-x,y,-z
-x,-y,-z
x,-y,z
loop_
_atom_site_type_symbol
_atom_site_label
_atom_site_fract_x
_atom_site_fract_y
_atom_site_fract_z
Si Si1 0.311559 0.111224 0.044354
Si Si2 0.403587 0.105584 0.223672
Si Si3 0.808250 0.791601 0.621585
Si Si4 0.131094 0.208209 0.707480
Si Si5 0.297849 0.604950 0.634390
Si Si6 0.198743 0.106518 0.872377
Si Si7 0.300514 0.893803 0.539461
Si Si8 0.700264 0.602683 0.578118
O O1 0.293231 0.133340 0.149292
O O2 0.315257 0.000000 0.040440
O O3 0.500000 0.144665 0.000000
O O4 0.192384 0.137507 0.975776
O O5 0.355070 0.171101 0.308508
O O6 0.600108 0.106752 0.174083
O O7 0.362478 0.000000 0.252385
O O8 0.797412 0.837429 0.526017
O O9 0.803416 0.682884 0.611181
O O10 0.966155 0.812399 0.666602
O O11 0.194408 0.313435 0.691962
O O12 0.115031 0.171453 0.808843
O O13 0.268042 0.147406 0.639489
O O14 0.252822 0.500000 0.665333
O O15 0.501381 0.615040 0.622975
O O16 0.276940 0.611993 0.530214
O O17 0.139438 0.000000 0.871629
O O18 0.500000 0.886934 0.500000
O O19 0.249460 0.000000 0.541455
O O20 0.751272 0.500000 0.597938
#
# Coordination Sequence:
#
# PCOD9154679 Si02
#       8
#     4   4   4   4   4   4   4   4
#     4   7  12  26  49  73  92 117 162 211 243 270
#     4   9  17  31  51  72  96 129 167 204 239 279
#     4  12  23  32  46  72 102 130 158 194 241 293
#     4  12  23  32  46  72 102 130 158 194 241 293
#     4   9  18  34  55  73  90 119 161 205 243 282
#     4   9  17  31  51  72  96 129 167 204 239 279
#     4  11  23  37  50  63  88 131 175 206 232 269
#     4   9  18  34  55  73  90 119 161 205 243 282
#
# _framework density 18.397703
#
# number of rings (size 3 to 8) (size 9 to 14) (size 15 to 20)
#    0.000    2.250    1.250    5.625    0.000    5.000 
#    0.000    1.875    0.000    2.250    0.000    0.875 
#    0.000    7.000    0.000    0.000    0.000    0.000 
#
# Total GULP energy -178550.443090 kJ/mol
# GULP energy per Si atom -5579.701347 kJ/mol
# Density = 1.835583 g / cm^3
# Si number density = 18.397703 Si / 1000 Ang^3
#
#
#
# Elastic Constant Matrix: (Units=GPa)
#
#
# Indices 1 2 3 4 5 6 
#
# 1 46.8793 20.3286 9.9757 0.0000 13.8294 0.0000
# 2 20.3286 75.6348 13.6809 0.0000 14.2865 0.0000
# 3 9.9757 13.6809 49.0872 0.0000 27.2763 0.0000
# 4 0.0000 0.0000 0.0000 5.9017 0.0000 12.8360
# 5 13.8294 14.2865 27.2763 0.0000 25.1979 0.0000
# 6 0.0000 0.0000 0.0000 12.8360 0.0000 11.1257
#
#
#
# Elastic Compliance Matrix: (Units=1/GPa)
#
#
# Indices 1 2 3 4 5 6 
#
# 1 0.027882 -0.004980 0.006665 0.000000 -0.019694 0.000000
# 2 -0.004980 0.015732 0.000163 0.000000 -0.006364 0.000000
# 3 0.006665 0.000163 0.052838 0.000000 -0.060947 0.000000
# 4 0.000000 0.000000 0.000000 -0.112266 0.000000 0.129524
# 5 -0.019694 -0.006364 -0.060947 0.000000 0.120077 0.000000
# 6 0.000000 0.000000 0.000000 0.129524 0.000000 -0.059553
#
#
# Mechanical properties :
#
#
# Convention : Reuss Voigt Hill
#
# Bulk Modulus (GPa) = 9.98500 28.84131 19.41316
# Shear Modulus (GPa) = 67.20652 16.95280 42.07966
#
# Velocity S-wave (km/s) = 6.05055 3.03885 4.78768
# Velocity P-wave (km/s) = 7.36555 5.29372 6.41384
#
# Compressibility (1/GPa) = 0.10015018
#
# Stress axis : x y z
#
# Youngs Moduli (GPa) = 35.86522 63.56359 18.92562
#
# Poissons Ratio (x) = 0.31652 -0.12614
# Poissons Ratio (y) = 0.17859 -0.00309
# Poissons Ratio (z) = -0.23903 -0.01039
#
# Static dielectric constant tensor:
#      x y z
#    x 1.706470 0.000000 0.000340 
#    y 0.000000 1.607000 0.000000 
#    z 0.000340 0.000000 1.640970 
# 
# From -- ./inp_files/61523.got.cif
#   From: 2010.05.17/outbox.cif.g08.bks.cpg/sg10_31_cif.got.tgz:61523.got - 2010.06.03 11:33:40.
