data_PCOD9154130
_publ_section_title
;
Structure prediction by ZEFSAII (Michael W. Deem and Ramdas Pophale) SiO2 
 PCOD9154130
Probable space group: P 2/M
;
_chemical_formula_sum "Si O2"
_cell_formula_units_Z 17
_cell_length_a 6.003741
_cell_length_b 17.471901
_cell_length_c 7.904207
_cell_angle_alpha 90.000000
_cell_angle_beta 66.675536
_cell_angle_gamma 90.000000
_cell_volume 761.367464
_symmetry_space_group_name_H-M "P 2/M"
_symmetry_group_IT_number 10
_symmetry_cell_setting 'monoclinic'
loop_
_space_group_symop_operation_xyz
x,y,z
-x,y,-z
-x,-y,-z
x,-y,z
loop_
_atom_site_type_symbol
_atom_site_label
_atom_site_fract_x
_atom_site_fract_y
_atom_site_fract_z
Si Si1 0.543343 0.713508 0.288754
Si Si2 0.199076 0.582032 0.290036
Si Si3 0.200635 0.000000 0.592341
Si Si4 0.000000 0.627445 0.000000
Si Si5 0.500000 0.000000 0.000000
Si Si6 0.755176 0.128077 0.158667
O O1 0.500000 0.700638 0.500000
O O2 0.343426 0.661486 0.258152
O O3 0.566421 0.804181 0.252404
O O4 0.791355 0.678559 0.145824
O O5 0.334718 0.500000 0.275965
O O6 0.000000 0.584684 0.500000
O O7 0.096378 0.581172 0.131863
O O8 0.500000 0.000000 0.500000
O O9 0.155707 0.078750 0.706517
O O10 0.000000 0.000000 0.500000
O O11 0.630368 0.066249 0.076299
O O12 0.000000 0.158919 0.000000
#
# Coordination Sequence:
#
# PCOD9154130 Si02
#       6
#     4   4   2   2   1   4
#     4  12  26  49  75 113 153 204 261 322 403 478
#     4  11  26  49  79 114 158 208 265 330 398 482
#     4  11  26  49  74 114 151 207 263 333 412 486
#     4  12  25  48  76 113 152 204 258 325 402 466
#     4  10  24  44  80 104 148 202 258 318 406 466
#     4  11  26  47  75 107 150 202 259 328 399 489
#
# _framework density 22.328247999999999
#
# number of rings (size 3 to 8) (size 9 to 14) (size 15 to 20)
#    0.000    0.706    3.529    3.176    9.882    3.294 
#    4.235    0.000    0.000    0.000    0.000    0.000 
#    0.000    0.000    0.000    0.000    0.000    0.000 
#
# Total GULP energy -94636.619132 kJ/mol
# GULP energy per Si atom -5566.859949 kJ/mol
# Density = 2.227743 g / cm^3
# Si number density = 22.328248 Si / 1000 Ang^3
#
#
#
# Elastic Constant Matrix: (Units=GPa)
#
#
# Indices 1 2 3 4 5 6 
#
# 1 123.9977 69.1864 55.6392 0.0000 32.6594 0.0000
# 2 69.1864 176.4513 47.4170 0.0000 15.0611 0.0000
# 3 55.6392 47.4170 139.9362 0.0000 1.4433 0.0000
# 4 0.0000 0.0000 0.0000 59.0732 0.0000 -30.3591
# 5 32.6594 15.0611 1.4433 0.0000 37.8753 0.0000
# 6 0.0000 0.0000 0.0000 -30.3591 0.0000 31.0698
#
#
#
# Elastic Compliance Matrix: (Units=1/GPa)
#
#
# Indices 1 2 3 4 5 6 
#
# 1 0.015299 -0.003755 -0.004692 0.000000 -0.011521 0.000000
# 2 -0.003755 0.007382 -0.001012 0.000000 0.000341 0.000000
# 3 -0.004692 -0.001012 0.009312 0.000000 0.004093 0.000000
# 4 0.000000 0.000000 0.000000 0.034004 0.000000 0.033226
# 5 -0.011521 0.000341 0.004093 0.000000 0.036045 0.000000
# 6 0.000000 0.000000 0.000000 0.033226 0.000000 0.064651
#
#
# Mechanical properties :
#
#
# Convention : Reuss Voigt Hill
#
# Bulk Modulus (GPa) = 76.47277 87.20783 81.84030
# Shear Modulus (GPa) = 26.31981 43.47985 34.89983
#
# Velocity S-wave (km/s) = 3.43704 4.41761 3.95781
# Velocity P-wave (km/s) = 7.07635 8.07232 7.59069
#
# Compressibility (1/GPa) = 0.01307655
#
# Stress axis : x y z
#
# Youngs Moduli (GPa) = 65.36217 135.45715 107.38337
#
# Poissons Ratio (x) = 0.50859 0.50384
# Poissons Ratio (y) = 0.24541 0.10869
# Poissons Ratio (z) = 0.30668 0.13710
#
# Static dielectric constant tensor:
#      x y z
#    x 1.830710 0.000000 -0.049210 
#    y 0.000000 1.844630 0.000000 
#    z -0.049210 0.000000 1.827090 
# 
# From -- ./inp_files/14689.got.cif
#   From: 2010.05.17/outbox.cif.g08.bks.cpg/sg10_8_cif.got.tgz:14689.got - 2010.06.03 11:33:40.
