data_PCOD9154503
_publ_section_title
;
Structure prediction by ZEFSAII (Michael W. Deem and Ramdas Pophale) SiO2 
 PCOD9154503
Probable space group: P 2/M
;
_chemical_formula_sum "Si O2"
_cell_formula_units_Z 28
_cell_length_a 5.104422
_cell_length_b 32.909457
_cell_length_c 9.295447
_cell_angle_alpha 90.000000
_cell_angle_beta 56.980249
_cell_angle_gamma 90.000000
_cell_volume 1309.277517
_symmetry_space_group_name_H-M "P 2/M"
_symmetry_group_IT_number 10
_symmetry_cell_setting 'monoclinic'
loop_
_space_group_symop_operation_xyz
x,y,z
-x,y,-z
-x,-y,-z
x,-y,z
loop_
_atom_site_type_symbol
_atom_site_label
_atom_site_fract_x
_atom_site_fract_y
_atom_site_fract_z
Si Si1 0.798147 0.953936 0.709941
Si Si2 0.395956 0.186649 0.698183
Si Si3 0.699933 0.094263 0.290904
Si Si4 0.068023 0.325832 0.313493
Si Si5 0.315005 0.630592 0.811205
Si Si6 0.793180 0.234388 0.808052
Si Si7 0.373721 0.455310 0.876308
O O1 0.461517 0.937694 0.766197
O O2 0.000000 0.954173 0.500000
O O3 0.962540 0.921943 0.765754
O O4 0.799568 0.000000 0.764249
O O5 0.500000 0.187869 0.500000
O O6 0.329648 0.139871 0.757639
O O7 0.660970 0.207231 0.716429
O O8 0.074738 0.211390 0.801893
O O9 0.500000 0.094036 0.500000
O O10 0.413746 0.344424 0.191213
O O11 0.080988 0.278017 0.278732
O O12 0.000000 0.332847 0.500000
O O13 0.805979 0.347561 0.295936
O O14 0.437546 0.584257 0.761070
O O15 0.000000 0.629256 0.000000
O O16 0.500000 0.240726 0.000000
O O17 0.490914 0.500000 0.794006
O O18 0.500000 0.447657 0.000000
O O19 0.000000 0.458086 0.000000
#
# Coordination Sequence:
#
# PCOD9154503 Si02
#       7
#     4   4   4   4   4   4   4
#     4   9  15  24  40  67 106 146 179 216 269 329
#     4  11  22  39  61  85 116 152 191 236 292 351
#     4   9  17  28  45  71 104 143 181 221 274 334
#     4  12  25  41  60  85 119 156 193 236 295 356
#     4  11  21  38  62  89 118 153 198 245 288 336
#     4  12  25  42  61  85 114 148 194 243 291 343
#     4   9  17  31  55  88 120 151 193 243 288 333
#
# _framework density 21.385842
#
# number of rings (size 3 to 8) (size 9 to 14) (size 15 to 20)
#    0.000    1.571    0.000    7.286    0.000    4.000 
#    0.000    0.000    0.000    2.571    0.000    0.000 
#    0.000   40.000    0.000    0.000    0.000    0.000 
#
# Total GULP energy -156494.249630 kJ/mol
# GULP energy per Si atom -5589.080344 kJ/mol
# Density = 2.133717 g / cm^3
# Si number density = 21.385842 Si / 1000 Ang^3
#
#
#
# Elastic Constant Matrix: (Units=GPa)
#
#
# Indices 1 2 3 4 5 6 
#
# 1 121.1939 47.2523 0.5840 0.0000 13.2130 0.0000
# 2 47.2523 176.0045 5.8783 0.0000 23.3605 0.0000
# 3 0.5840 5.8783 41.9331 0.0000 9.9606 0.0000
# 4 0.0000 0.0000 0.0000 65.8463 0.0000 -26.2612
# 5 13.2130 23.3605 9.9606 0.0000 24.5008 0.0000
# 6 0.0000 0.0000 0.0000 -26.2612 0.0000 72.5072
#
#
#
# Elastic Compliance Matrix: (Units=1/GPa)
#
#
# Indices 1 2 3 4 5 6 
#
# 1 0.009448 -0.002106 0.000993 0.000000 -0.003491 0.000000
# 2 -0.002106 0.006989 0.000401 0.000000 -0.005691 0.000000
# 3 0.000993 0.000401 0.026560 0.000000 -0.011716 0.000000
# 4 0.000000 0.000000 0.000000 0.017751 0.000000 0.006429
# 5 -0.003491 -0.005691 -0.011716 0.000000 0.052887 0.000000
# 6 0.000000 0.000000 0.000000 0.006429 0.000000 0.016120
#
#
# Mechanical properties :
#
#
# Convention : Reuss Voigt Hill
#
# Bulk Modulus (GPa) = 24.05387 49.61784 36.83585
# Shear Modulus (GPa) = 34.47372 51.59866 43.03619
#
# Velocity S-wave (km/s) = 4.01931 4.91730 4.49081
# Velocity P-wave (km/s) = 5.72816 7.44926 6.64467
#
# Compressibility (1/GPa) = 0.04157335
#
# Stress axis : x y z
#
# Youngs Moduli (GPa) = 105.83915 143.07895 37.65007
#
# Poissons Ratio (x) = 0.30139 -0.03738
# Poissons Ratio (y) = 0.22295 -0.01511
# Poissons Ratio (z) = -0.10508 -0.05743
#
# Static dielectric constant tensor:
#      x y z
#    x 1.724780 0.000000 -0.006680 
#    y 0.000000 1.783840 0.000000 
#    z -0.006680 0.000000 1.811370 
# 
# From -- ./inp_files/15875.got.cif
#   From: 2010.05.17/outbox.cif.g08.bks.cpg/sg10_8_cif.got.tgz:15875.got - 2010.06.03 11:33:40.
