data_PCOD9154114
_publ_section_title
;
Structure prediction by ZEFSAII (Michael W. Deem and Ramdas Pophale) SiO2 
 PCOD9154114
Probable space group: P 2/M
;
_chemical_formula_sum "Si O2"
_cell_formula_units_Z 21
_cell_length_a 10.984039
_cell_length_b 11.171988
_cell_length_c 13.268981
_cell_angle_alpha 90.000000
_cell_angle_beta 34.648569
_cell_angle_gamma 90.000000
_cell_volume 925.746589
_symmetry_space_group_name_H-M "P 2/M"
_symmetry_group_IT_number 10
_symmetry_cell_setting 'monoclinic'
loop_
_space_group_symop_operation_xyz
x,y,z
-x,y,-z
-x,-y,-z
x,-y,z
loop_
_atom_site_type_symbol
_atom_site_label
_atom_site_fract_x
_atom_site_fract_y
_atom_site_fract_z
Si Si1 0.000000 0.500000 0.500000
Si Si2 0.148101 0.862964 0.090222
Si Si3 0.872431 0.500000 0.239771
Si Si4 0.546009 0.240327 0.729615
Si Si5 0.728796 0.696152 0.806327
Si Si6 0.654092 0.500000 0.167050
Si Si7 0.726964 0.757389 0.398839
O O1 0.895507 0.603216 0.646519
O O2 0.187223 0.774452 0.158185
O O3 0.907146 0.834607 0.221684
O O4 0.175509 0.000000 0.100081
O O5 0.320035 0.826409 0.889293
O O6 0.746368 0.500000 0.218228
O O7 0.801858 0.619542 0.343642
O O8 0.128307 0.500000 0.047389
O O9 0.661186 0.222344 0.757319
O O10 0.486442 0.382004 0.758098
O O11 0.689998 0.203548 0.538440
O O12 0.500000 0.641823 0.000000
O O13 0.500000 0.764880 0.500000
#
# Coordination Sequence:
#
# PCOD9154114 Si02
#       7
#     1   4   2   4   4   2   4
#     4  12  20  40  66 106 144 164 200 282 350 412
#     4  11  27  49  69  94 135 187 242 290 330 397
#     4  11  22  40  69 103 144 182 216 277 346 433
#     4  11  23  42  69 103 136 177 225 282 343 415
#     4  10  24  43  68 101 139 182 222 274 347 413
#     4  11  20  39  71 102 140 180 216 272 354 418
#     4  12  24  42  71 105 138 178 228 285 355 412
#
# _framework density 22.684393
#
# number of rings (size 3 to 8) (size 9 to 14) (size 15 to 20)
#    0.000    0.952    3.810    2.857    0.000    9.905 
#    0.000    4.286    0.000    0.000    0.000    0.000 
#    0.000    0.000    0.000    0.000    0.000    0.000 
#
# Total GULP energy -117306.004662 kJ/mol
# GULP energy per Si atom -5586.000222 kJ/mol
# Density = 2.263276 g / cm^3
# Si number density = 22.684393 Si / 1000 Ang^3
#
#
#
# Elastic Constant Matrix: (Units=GPa)
#
#
# Indices 1 2 3 4 5 6 
#
# 1 36.0206 -6.6145 8.0179 0.0000 0.7071 0.0000
# 2 -6.6145 100.2890 34.3409 0.0000 -5.1217 0.0000
# 3 8.0179 34.3409 120.4630 0.0000 11.4041 0.0000
# 4 0.0000 0.0000 0.0000 -14.0285 0.0000 -0.9049
# 5 0.7071 -5.1217 11.4041 0.0000 33.1132 0.0000
# 6 0.0000 0.0000 0.0000 -0.9049 0.0000 4.3426
#
#
#
# Elastic Compliance Matrix: (Units=1/GPa)
#
#
# Indices 1 2 3 4 5 6 
#
# 1 0.028913 0.002918 -0.002833 0.000000 0.000810 0.000000
# 2 0.002918 0.011618 -0.003794 0.000000 0.003041 0.000000
# 3 -0.002833 -0.003794 0.009946 0.000000 -0.003952 0.000000
# 4 0.000000 0.000000 0.000000 -0.070338 0.000000 -0.014658
# 5 0.000810 0.003041 -0.003952 0.000000 0.032014 0.000000
# 6 0.000000 0.000000 0.000000 -0.014658 0.000000 0.227225
#
#
# Mechanical properties :
#
#
# Convention : Reuss Voigt Hill
#
# Bulk Modulus (GPa) = 23.22417 36.47345 29.84881
# Shear Modulus (GPa) = 19.14631 19.42068 19.28349
#
# Velocity S-wave (km/s) = 2.90837 2.92914 2.91877
# Velocity P-wave (km/s) = 4.64094 5.24913 4.95438
#
# Compressibility (1/GPa) = 0.04305860
#
# Stress axis : x y z
#
# Youngs Moduli (GPa) = 34.58707 86.07184 100.54709
#
# Poissons Ratio (x) = -0.25119 0.28485
# Poissons Ratio (y) = -0.10094 0.38150
# Poissons Ratio (z) = 0.09798 0.32658
#
# Static dielectric constant tensor:
#      x y z
#    x 1.883960 0.000000 -0.038770 
#    y 0.000000 1.776550 0.000000 
#    z -0.038770 0.000000 1.859260 
# 
# From -- ./inp_files/64641.got.cif
#   From: 2010.05.17/outbox.cif.g08.bks.cpg/sg10_33_cif.got.tgz:64641.got - 2010.06.03 11:33:40.
