data_PCOD9154028
_publ_section_title
;
Structure prediction by ZEFSAII (Michael W. Deem and Ramdas Pophale) SiO2 
 PCOD9154028
Probable space group: P 2/M
;
_chemical_formula_sum "Si O2"
_cell_formula_units_Z 17
_cell_length_a 5.283345
_cell_length_b 18.791502
_cell_length_c 8.759625
_cell_angle_alpha 90.000000
_cell_angle_beta 74.184712
_cell_angle_gamma 90.000000
_cell_volume 836.751782
_symmetry_space_group_name_H-M "P 2/M"
_symmetry_group_IT_number 10
_symmetry_cell_setting 'monoclinic'
loop_
_space_group_symop_operation_xyz
x,y,z
-x,y,-z
-x,-y,-z
x,-y,z
loop_
_atom_site_type_symbol
_atom_site_label
_atom_site_fract_x
_atom_site_fract_y
_atom_site_fract_z
Si Si1 0.916462 0.385229 0.839147
Si Si2 0.299332 0.000000 0.891383
Si Si3 0.910112 0.233443 0.690427
Si Si4 0.795393 0.500000 0.394002
Si Si5 0.500000 0.500000 0.000000
Si Si6 0.410482 0.855837 0.691174
O O1 0.864980 0.310608 0.768621
O O2 0.670292 0.438075 0.883464
O O3 0.144017 0.430439 0.717469
O O4 0.000000 0.374496 0.000000
O O5 0.352525 0.069904 0.781677
O O6 0.500000 0.000000 0.000000
O O7 0.000000 0.000000 0.000000
O O8 0.647925 0.186057 0.733369
O O9 0.000000 0.242581 0.500000
O O10 0.148753 0.192287 0.732847
O O11 0.500000 0.500000 0.500000
O O12 0.000000 0.500000 0.500000
O O13 0.500000 0.866930 0.500000
#
# Coordination Sequence:
#
# PCOD9154028 Si02
#       6
#     4   2   4   2   1   4
#     4  11  26  43  67  94 136 174 222 280 344 406
#     4  12  25  42  67 104 142 174 220 274 329 392
#     4  10  23  43  69 100 129 175 228 279 325 395
#     4  11  26  43  68  92 125 171 224 276 333 398
#     4  10  24  44  60  92 130 174 220 258 340 416
#     4  10  23  45  69  96 135 179 226 265 331 396
#
# _framework density 20.316658
#
# number of rings (size 3 to 8) (size 9 to 14) (size 15 to 20)
#    0.000    1.412    0.000    3.882    9.882    5.647 
#    0.000    4.706    0.000    0.000    0.000    0.000 
#    0.000    0.000    0.000    0.000    0.000    0.000 
#
# Total GULP energy -94882.841645 kJ/mol
# GULP energy per Si atom -5581.343626 kJ/mol
# Density = 2.027042 g / cm^3
# Si number density = 20.316658 Si / 1000 Ang^3
#
#
#
# Elastic Constant Matrix: (Units=GPa)
#
#
# Indices 1 2 3 4 5 6 
#
# 1 153.8803 86.8237 63.1669 0.0000 -33.7478 0.0000
# 2 86.8237 237.7325 88.4071 0.0000 -28.8873 0.0000
# 3 63.1669 88.4071 79.7443 0.0000 -29.4034 0.0000
# 4 0.0000 0.0000 0.0000 78.8579 0.0000 -99.2227
# 5 -33.7478 -28.8873 -29.4034 0.0000 31.4849 0.0000
# 6 0.0000 0.0000 0.0000 -99.2227 0.0000 155.5658
#
#
#
# Elastic Compliance Matrix: (Units=1/GPa)
#
#
# Indices 1 2 3 4 5 6 
#
# 1 0.010412 -0.001398 -0.004660 0.000000 0.005526 0.000000
# 2 -0.001398 0.007379 -0.007823 0.000000 -0.002035 0.000000
# 3 -0.004660 -0.007823 0.031139 0.000000 0.016907 0.000000
# 4 0.000000 0.000000 0.000000 0.064218 0.000000 0.040960
# 5 0.005526 -0.002035 0.016907 0.000000 0.051607 0.000000
# 6 0.000000 0.000000 0.000000 0.040960 0.000000 0.032553
#
#
# Mechanical properties :
#
#
# Convention : Reuss Voigt Hill
#
# Bulk Modulus (GPa) = 47.24432 105.35027 76.29729
# Shear Modulus (GPa) = 21.53988 68.71233 45.12611
#
# Velocity S-wave (km/s) = 3.25962 5.82186 4.71801
# Velocity P-wave (km/s) = 6.12138 9.85692 8.20458
#
# Compressibility (1/GPa) = 0.02116657
#
# Stress axis : x y z
#
# Youngs Moduli (GPa) = 96.03981 135.51609 32.11434
#
# Poissons Ratio (x) = 0.18949 0.14966
# Poissons Ratio (y) = 0.13429 0.25124
# Poissons Ratio (z) = 0.44756 1.06019
#
# Static dielectric constant tensor:
#      x y z
#    x 1.733220 0.000000 0.012280 
#    y 0.000000 1.649560 0.000000 
#    z 0.012280 0.000000 1.714010 
# 
# From -- ./inp_files/3984.got.cif
#   From: 2010.05.17/outbox.cif.g08.bks.cpg/sg10_2_cif.got.tgz:3984.got - 2010.06.03 11:33:40.
