data_PCOD9154536
_publ_section_title
;
Structure prediction by ZEFSAII (Michael W. Deem and Ramdas Pophale) SiO2 
 PCOD9154536
Probable space group: P 2/M
;
_chemical_formula_sum "Si O2"
_cell_formula_units_Z 16
_cell_length_a 7.716282
_cell_length_b 11.449440
_cell_length_c 10.575788
_cell_angle_alpha 90.000000
_cell_angle_beta 131.524299
_cell_angle_gamma 90.000000
_cell_volume 699.516873
_symmetry_space_group_name_H-M "P 2/M"
_symmetry_group_IT_number 10
_symmetry_cell_setting 'monoclinic'
loop_
_space_group_symop_operation_xyz
x,y,z
-x,y,-z
-x,-y,-z
x,-y,z
loop_
_atom_site_type_symbol
_atom_site_label
_atom_site_fract_x
_atom_site_fract_y
_atom_site_fract_z
Si Si1 0.891784 0.500000 0.738367
Si Si2 0.678673 0.862021 0.781023
Si Si3 0.420833 0.500000 0.666952
Si Si4 0.091023 0.754669 0.857295
Si Si5 0.739577 0.255939 0.326603
O O1 0.678239 0.500000 0.733774
O O2 0.763444 0.500000 0.539422
O O3 0.042819 0.616194 0.829355
O O4 0.412445 0.825075 0.655882
O O5 0.835303 0.811581 0.744307
O O6 0.707776 0.000000 0.802286
O O7 0.778007 0.800038 0.955572
O O8 0.375279 0.383574 0.723442
O O9 0.234162 0.789138 0.803050
O O10 0.000000 0.267921 0.500000
#
# Coordination Sequence:
#
# PCOD9154536 Si02
#       5
#     2   4   2   4   4
#     4  11  21  40  75 100 139 176 212 271 347 407
#     4  11  27  48  67  94 136 183 231 279 323 384
#     4  11  22  42  67 106 146 168 206 282 342 408
#     4  11  23  43  72 100 133 177 219 274 340 400
#     4  12  24  42  72 102 136 175 220 272 343 402
#
# _framework density 22.872931000000001
#
# number of rings (size 3 to 8) (size 9 to 14) (size 15 to 20)
#    0.000    0.750    5.000    3.375    0.000    7.500 
#    0.000    3.750    0.000    0.000    0.000    0.000 
#    0.000    0.000    0.000    0.000    0.000    0.000 
#
# Total GULP energy -89601.936354 kJ/mol
# GULP energy per Si atom -5600.121022 kJ/mol
# Density = 2.282087 g / cm^3
# Si number density = 22.872931 Si / 1000 Ang^3
#
#
#
# Elastic Constant Matrix: (Units=GPa)
#
#
# Indices 1 2 3 4 5 6 
#
# 1 145.4388 29.9780 24.6442 0.0000 1.6538 0.0000
# 2 29.9780 141.1731 8.0631 0.0000 5.7082 0.0000
# 3 24.6442 8.0631 30.5911 0.0000 -7.8076 0.0000
# 4 0.0000 0.0000 0.0000 -8.9992 0.0000 25.6602
# 5 1.6538 5.7082 -7.8076 0.0000 35.8356 0.0000
# 6 0.0000 0.0000 0.0000 25.6602 0.0000 -38.6460
#
#
#
# Elastic Compliance Matrix: (Units=1/GPa)
#
#
# Indices 1 2 3 4 5 6 
#
# 1 0.008312 -0.001312 -0.006772 0.000000 -0.001650 0.000000
# 2 -0.001312 0.007492 -0.001278 0.000000 -0.001411 0.000000
# 3 -0.006772 -0.001278 0.040887 0.000000 0.009424 0.000000
# 4 0.000000 0.000000 0.000000 0.124398 0.000000 0.082598
# 5 -0.001650 -0.001411 0.009424 0.000000 0.030259 0.000000
# 6 0.000000 0.000000 0.000000 0.082598 0.000000 0.028968
#
#
# Mechanical properties :
#
#
# Convention : Reuss Voigt Hill
#
# Bulk Modulus (GPa) = 26.33817 49.17485 37.75651
# Shear Modulus (GPa) = 18.40293 14.60592 16.50443
#
# Velocity S-wave (km/s) = 2.83958 2.52973 2.68912
# Velocity P-wave (km/s) = 4.72133 5.48439 5.11710
#
# Compressibility (1/GPa) = 0.03796770
#
# Stress axis : x y z
#
# Youngs Moduli (GPa) = 120.30319 133.47381 24.45774
#
# Poissons Ratio (x) = 0.17507 0.16562
# Poissons Ratio (y) = 0.15779 0.03127
# Poissons Ratio (z) = 0.81467 0.17062
#
# Static dielectric constant tensor:
#      x y z
#    x 1.877320 0.000000 0.023680 
#    y 0.000000 1.783900 0.000000 
#    z 0.023680 0.000000 1.927410 
# 
# From -- ./inp_files/40985.got.cif
#   From: 2010.05.17/outbox.cif.g08.bks.cpg/sg10_21_cif.got.tgz:40985.got - 2010.06.03 11:33:40.
