data_PCOD9154617
_publ_section_title
;
Structure prediction by ZEFSAII (Michael W. Deem and Ramdas Pophale) SiO2 
 PCOD9154617
Probable space group: P 2/M
;
_chemical_formula_sum "Si O2"
_cell_formula_units_Z 24
_cell_length_a 24.219895
_cell_length_b 11.311209
_cell_length_c 14.923920
_cell_angle_alpha 90.000000
_cell_angle_beta 162.073906
_cell_angle_gamma 90.000000
_cell_volume 1258.399840
_symmetry_space_group_name_H-M "P 2/M"
_symmetry_group_IT_number 10
_symmetry_cell_setting 'monoclinic'
loop_
_space_group_symop_operation_xyz
x,y,z
-x,y,-z
-x,-y,-z
x,-y,z
loop_
_atom_site_type_symbol
_atom_site_label
_atom_site_fract_x
_atom_site_fract_y
_atom_site_fract_z
Si Si1 0.841247 0.139184 0.823624
Si Si2 0.491575 0.727205 0.217146
Si Si3 0.034646 0.256992 0.808698
Si Si4 0.840072 0.640196 0.180259
Si Si5 0.330973 0.137343 0.805341
Si Si6 0.065534 0.500000 0.962211
Si Si7 0.695254 0.500000 0.497982
O O1 0.659301 0.207058 0.520516
O O2 0.818803 0.000000 0.773410
O O3 0.000000 0.180464 0.000000
O O4 0.890845 0.164858 0.003133
O O5 0.577425 0.615429 0.298415
O O6 0.346547 0.676256 0.062226
O O7 0.394796 0.815656 0.999752
O O8 0.829672 0.219441 0.476590
O O9 0.123018 0.276128 0.847968
O O10 0.061585 0.382608 0.897843
O O11 0.837367 0.500000 0.151651
O O12 0.000000 0.654725 0.500000
O O13 0.273059 0.000000 0.719658
O O14 0.500000 0.144454 0.000000
O O15 0.879393 0.500000 0.728699
O O16 0.235214 0.500000 0.291348
#
# Coordination Sequence:
#
# PCOD9154617 Si02
#       7
#     4   4   4   4   4   2   2
#     4  11  24  44  69  98 136 176 214 269 336 397
#     4  12  23  42  67  97 129 175 223 264 331 393
#     4  12  23  42  67  97 129 175 223 264 331 393
#     4  11  24  45  64  91 135 179 215 268 330 395
#     4  11  24  42  65  96 132 170 218 275 330 389
#     4  11  22  38  63 100 138 163 206 277 338 395
#     4  11  22  38  63 100 138 163 206 277 338 395
#
# _framework density 19.071840000000002
#
# number of rings (size 3 to 8) (size 9 to 14) (size 15 to 20)
#    0.000    0.667    5.000    4.000    0.000    4.000 
#    0.000    8.333    0.000    0.000    0.000    0.000 
#    0.000    0.000    0.000    0.000    0.000    0.000 
#
# Total GULP energy -134126.031017 kJ/mol
# GULP energy per Si atom -5588.584626 kJ/mol
# Density = 1.902843 g / cm^3
# Si number density = 19.071840 Si / 1000 Ang^3
#
#
#
# Elastic Constant Matrix: (Units=GPa)
#
#
# Indices 1 2 3 4 5 6 
#
# 1 53.3561 0.4983 -3.3134 0.0000 -4.7631 0.0000
# 2 0.4983 48.8276 1.5237 0.0000 5.7560 0.0000
# 3 -3.3134 1.5237 72.2750 0.0000 -4.8727 0.0000
# 4 0.0000 0.0000 0.0000 -26.4073 0.0000 -17.6523
# 5 -4.7631 5.7560 -4.8727 0.0000 27.9530 0.0000
# 6 0.0000 0.0000 0.0000 -17.6523 0.0000 30.2276
#
#
#
# Elastic Compliance Matrix: (Units=1/GPa)
#
#
# Indices 1 2 3 4 5 6 
#
# 1 0.019139 -0.000654 0.001133 0.000000 0.003594 0.000000
# 2 -0.000654 0.021052 -0.000783 0.000000 -0.004583 0.000000
# 3 0.001133 -0.000783 0.014094 0.000000 0.002811 0.000000
# 4 0.000000 0.000000 0.000000 -0.027236 0.000000 -0.015905
# 5 0.003594 -0.004583 0.002811 0.000000 0.037820 0.000000
# 6 0.000000 0.000000 0.000000 -0.015905 0.000000 0.023794
#
#
# Mechanical properties :
#
#
# Convention : Reuss Voigt Hill
#
# Bulk Modulus (GPa) = 18.62971 19.09733 18.86352
# Shear Modulus (GPa) = 46.65795 18.07133 32.36464
#
# Velocity S-wave (km/s) = 4.95151 3.08155 4.12392
# Velocity P-wave (km/s) = 6.51761 4.76407 5.70858
#
# Compressibility (1/GPa) = 0.05367770
#
# Stress axis : x y z
#
# Youngs Moduli (GPa) = 52.24854 47.50235 70.95205
#
# Poissons Ratio (x) = 0.03108 -0.08042
# Poissons Ratio (y) = 0.03419 0.05554
# Poissons Ratio (z) = -0.05922 0.03718
#
# Static dielectric constant tensor:
#      x y z
#    x 1.669620 0.000000 -0.022160 
#    y 0.000000 1.652220 0.000000 
#    z -0.022160 0.000000 1.631210 
# 
# From -- ./inp_files/71853.got.cif
#   From: 2010.05.17/outbox.cif.g08.bks.cpg/sg10_36_cif.got.tgz:71853.got - 2010.06.03 11:33:40.
