data_PCOD9154867
_publ_section_title
;
Structure prediction by ZEFSAII (Michael W. Deem and Ramdas Pophale) SiO2 
 PCOD9154867
Probable space group: P 2/M
;
_chemical_formula_sum "Si O2"
_cell_formula_units_Z 15
_cell_length_a 8.912656
_cell_length_b 18.104395
_cell_length_c 5.042161
_cell_angle_alpha 90.000000
_cell_angle_beta 121.009184
_cell_angle_gamma 90.000000
_cell_volume 697.319210
_symmetry_space_group_name_H-M "P 2/M"
_symmetry_group_IT_number 10
_symmetry_cell_setting 'monoclinic'
loop_
_space_group_symop_operation_xyz
x,y,z
-x,y,-z
-x,-y,-z
x,-y,z
loop_
_atom_site_type_symbol
_atom_site_label
_atom_site_fract_x
_atom_site_fract_y
_atom_site_fract_z
Si Si1 0.500000 0.000000 0.500000
Si Si2 0.795927 0.126350 0.806108
Si Si3 0.624143 0.500000 0.860172
Si Si4 0.706802 0.220093 0.221281
Si Si5 0.113906 0.633163 0.842059
O O1 0.346130 0.935915 0.389914
O O2 0.764010 0.192684 0.564872
O O3 0.754684 0.154862 0.062830
O O4 0.000000 0.103524 0.000000
O O5 0.500000 0.500000 0.500000
O O6 0.500000 0.500000 0.000000
O O7 0.740936 0.573238 0.957357
O O8 0.805177 0.292690 0.209287
O O9 0.500000 0.232771 0.000000
O O10 0.000000 0.599632 0.500000
O O11 0.000000 0.648889 0.000000
#
# Coordination Sequence:
#
# PCOD9154867 Si02
#       5
#     1   4   2   4   4
#     4  12  26  50  72 108 144 184 242 294 376 424
#     4  12  26  46  73 103 142 187 238 295 361 433
#     4  12  26  46  70 106 144 190 240 292 362 420
#     4  12  24  46  70 104 141 186 238 295 352 428
#     4  12  25  44  71 103 143 188 238 296 355 423
#
# _framework density 21.510953000000001
#
# number of rings (size 3 to 8) (size 9 to 14) (size 15 to 20)
#    0.000    0.000    2.667    8.400    0.000    4.267 
#    0.000    2.667    0.000    0.000    0.000    0.000 
#    0.000    0.000    0.000    0.000    0.000    0.000 
#
# Total GULP energy -83731.922831 kJ/mol
# GULP energy per Si atom -5582.128189 kJ/mol
# Density = 2.146199 g / cm^3
# Si number density = 21.510953 Si / 1000 Ang^3
#
#
#
# Elastic Constant Matrix: (Units=GPa)
#
#
# Indices 1 2 3 4 5 6 
#
# 1 137.4490 28.0212 55.4676 0.0000 39.4039 0.0000
# 2 28.0212 102.3184 21.7788 0.0000 35.7755 0.0000
# 3 55.4676 21.7788 145.2734 0.0000 24.6568 0.0000
# 4 0.0000 0.0000 0.0000-1329.5230 0.0000 -218.4271
# 5 39.4039 35.7755 24.6568 0.0000 51.3685 0.0000
# 6 0.0000 0.0000 0.0000 -218.4271 0.0000 -44.6284
#
#
#
# Elastic Compliance Matrix: (Units=1/GPa)
#
#
# Indices 1 2 3 4 5 6 
#
# 1 0.010288 0.000091 -0.002821 0.000000 -0.006601 0.000000
# 2 0.000091 0.012947 -0.000472 0.000000 -0.008860 0.000000
# 3 -0.002821 -0.000472 0.008283 0.000000 -0.001483 0.000000
# 4 0.000000 0.000000 0.000000 -0.003839 0.000000 0.018791
# 5 -0.006601 -0.008860 -0.001483 0.000000 0.031413 0.000000
# 6 0.000000 0.000000 0.000000 0.018791 0.000000 -0.114377
#
#
# Mechanical properties :
#
#
# Convention : Reuss Voigt Hill
#
# Bulk Modulus (GPa) = 39.81937 66.17510 52.99723
# Shear Modulus (GPa) = -123.42703 -245.90503 -184.66603
#
# Velocity S-wave (km/s) = -7.58309 -10.70347 -9.27544
# Velocity P-wave (km/s) = 7.62362 11.04184 9.48794
#
# Compressibility (1/GPa) = 0.02511341
#
# Stress axis : x y z
#
# Youngs Moduli (GPa) = 97.20349 77.23885 120.72530
#
# Poissons Ratio (x) = -0.00703 0.34061
# Poissons Ratio (y) = -0.00885 0.05697
# Poissons Ratio (z) = 0.27424 0.03645
#
# Static dielectric constant tensor:
#      x y z
#    x 1.762650 0.000000 0.039840 
#    y 0.000000 1.742340 0.000000 
#    z 0.039840 0.000000 1.818970 
# 
# From -- ./inp_files/4327.got.cif
#   From: 2010.05.17/outbox.cif.g08.bks.cpg/sg10_3_cif.got.tgz:4327.got - 2010.06.03 11:33:40.
