data_PCOD9154969
_publ_section_title
;
Structure prediction by ZEFSAII (Michael W. Deem and Ramdas Pophale) SiO2 
 PCOD9154969
Probable space group: P 2/M
;
_chemical_formula_sum "Si O2"
_cell_formula_units_Z 32
_cell_length_a 22.739093
_cell_length_b 9.781410
_cell_length_c 11.343018
_cell_angle_alpha 90.000000
_cell_angle_beta 142.147498
_cell_angle_gamma 90.000000
_cell_volume 1548.140605
_symmetry_space_group_name_H-M "P 2/M"
_symmetry_group_IT_number 10
_symmetry_cell_setting 'monoclinic'
loop_
_space_group_symop_operation_xyz
x,y,z
-x,y,-z
-x,-y,-z
x,-y,z
loop_
_atom_site_type_symbol
_atom_site_label
_atom_site_fract_x
_atom_site_fract_y
_atom_site_fract_z
Si Si1 0.154227 0.842544 0.719182
Si Si2 0.901814 0.654612 0.163276
Si Si3 0.778563 0.165494 0.416812
Si Si4 0.567761 0.833837 0.001585
Si Si5 0.320574 0.343218 0.281685
Si Si6 0.253607 0.153897 0.370280
Si Si7 0.955867 0.849646 0.057904
Si Si8 0.377524 0.841741 0.161735
O O1 0.099821 0.747085 0.723553
O O2 0.153428 0.792167 0.582852
O O3 0.121864 0.000000 0.675090
O O4 0.266713 0.843267 0.938712
O O5 0.931638 0.500000 0.232250
O O6 0.790636 0.651272 0.940654
O O7 0.965041 0.729007 0.164338
O O8 0.673033 0.207353 0.209649
O O9 0.784023 0.204562 0.562034
O O10 0.782644 0.000000 0.421850
O O11 0.563379 0.000000 0.992996
O O12 0.500000 0.786011 0.000000
O O13 0.559053 0.794919 0.850272
O O14 0.352616 0.500000 0.344835
O O15 0.318430 0.258914 0.400773
O O16 0.377986 0.257071 0.274444
O O17 0.157753 0.137793 0.141965
O O18 0.296538 0.000000 0.452784
O O19 0.992368 0.000000 0.155082
O O20 0.000000 0.822783 0.000000
O O21 0.400243 0.000000 0.228272
#
# Coordination Sequence:
#
# PCOD9154969 Si02
#       8
#     4   4   4   4   4   4   4   4
#     4   8  13  23  39  58  80 103 129 162 197 234
#     4   9  16  25  39  60  82 103 131 167 203 236
#     4   8  14  24  40  62  84 107 133 162 200 241
#     4   8  13  22  39  64  89 107 127 162 204 241
#     4   9  16  25  38  58  82 105 133 169 203 234
#     4   9  16  27  43  61  82 106 133 166 201 239
#     4   9  17  28  42  60  81 106 135 166 201 239
#     4   8  13  22  38  59  80 103 131 162 197 234
#
# _framework density 20.669955999999999
#
# number of rings (size 3 to 8) (size 9 to 14) (size 15 to 20)
#    0.000    3.500    0.000    2.250    0.000    3.250 
#    0.000    0.625    0.000    2.625    0.000   10.500 
#    0.000    0.000    0.000    0.000    0.000    0.000 
#
# Total GULP energy -178284.740544 kJ/mol
# GULP energy per Si atom -5571.398142 kJ/mol
# Density = 2.062291 g / cm^3
# Si number density = 20.669956 Si / 1000 Ang^3
#
#
#
# Elastic Constant Matrix: (Units=GPa)
#
#
# Indices 1 2 3 4 5 6 
#
# 1 122.9865 98.1619 13.7833 0.0000 -40.0959 0.0000
# 2 98.1619 122.6847 26.2411 0.0000 -39.3905 0.0000
# 3 13.7833 26.2411 26.9507 0.0000 -11.1286 0.0000
# 4 0.0000 0.0000 0.0000 -6.1172 0.0000 12.0467
# 5 -40.0959 -39.3905 -11.1286 0.0000 36.3096 0.0000
# 6 0.0000 0.0000 0.0000 12.0467 0.0000 -15.1959
#
#
#
# Elastic Compliance Matrix: (Units=1/GPa)
#
#
# Indices 1 2 3 4 5 6 
#
# 1 0.026217 -0.019735 0.010214 0.000000 0.010672 0.000000
# 2 -0.019735 0.028856 -0.016115 0.000000 0.004573 0.000000
# 3 0.010214 -0.016115 0.051532 0.000000 0.009590 0.000000
# 4 0.000000 0.000000 0.000000 0.291296 0.000000 0.230928
# 5 0.010672 0.004573 0.009590 0.000000 0.047226 0.000000
# 6 0.000000 0.000000 0.000000 0.230928 0.000000 0.117263
#
#
# Mechanical properties :
#
#
# Convention : Reuss Voigt Hill
#
# Bulk Modulus (GPa) = 18.07242 60.99939 39.53591
# Shear Modulus (GPa) = 7.91006 11.96167 9.93586
#
# Velocity S-wave (km/s) = 1.95835 2.40822 2.19485
# Velocity P-wave (km/s) = 3.72503 6.10802 5.05884
#
# Compressibility (1/GPa) = 0.05533292
#
# Stress axis : x y z
#
# Youngs Moduli (GPa) = 38.14361 34.65489 19.40531
#
# Poissons Ratio (x) = 0.68390 -0.19820
# Poissons Ratio (y) = 0.75275 0.31272
# Poissons Ratio (z) = -0.38959 0.55847
#
# Static dielectric constant tensor:
#      x y z
#    x 1.769480 0.000000 0.020800 
#    y 0.000000 1.699620 0.000000 
#    z 0.020800 0.000000 1.800080 
# 
# From -- ./inp_files/54506.got.cif
#   From: 2010.05.17/outbox.cif.g08.bks.cpg/sg10_28_cif.got.tgz:54506.got - 2010.06.03 11:33:40.
