data_PCOD9154585
_publ_section_title
;
Structure prediction by ZEFSAII (Michael W. Deem and Ramdas Pophale) SiO2 
 PCOD9154585
Probable space group: P 2/M
;
_chemical_formula_sum "Si O2"
_cell_formula_units_Z 30
_cell_length_a 15.751652
_cell_length_b 7.596443
_cell_length_c 12.094453
_cell_angle_alpha 90.000000
_cell_angle_beta 63.114733
_cell_angle_gamma 90.000000
_cell_volume 1290.760081
_symmetry_space_group_name_H-M "P 2/M"
_symmetry_group_IT_number 10
_symmetry_cell_setting 'monoclinic'
loop_
_space_group_symop_operation_xyz
x,y,z
-x,y,-z
-x,-y,-z
x,-y,z
loop_
_atom_site_type_symbol
_atom_site_label
_atom_site_fract_x
_atom_site_fract_y
_atom_site_fract_z
Si Si1 0.041819 0.712338 0.805930
Si Si2 0.647293 0.204558 0.196731
Si Si3 0.831055 0.500000 0.655558
Si Si4 0.480737 0.213818 0.135762
Si Si5 0.394233 0.701892 0.539879
Si Si6 0.956420 0.201661 0.642632
Si Si7 0.290934 0.797683 0.379841
Si Si8 0.148913 0.287944 0.954273
O O1 0.045986 0.500000 0.799178
O O2 0.121205 0.770913 0.846072
O O3 0.039223 0.784511 0.684917
O O4 0.939772 0.766001 0.918144
O O5 0.561500 0.276975 0.173215
O O6 0.654772 0.293604 0.311710
O O7 0.747613 0.221177 0.075848
O O8 0.627651 0.000000 0.229803
O O9 0.875164 0.344373 0.711807
O O10 0.789177 0.655647 0.597986
O O11 0.377254 0.254265 0.245298
O O12 0.487374 0.000000 0.129868
O O13 0.500000 0.276572 0.000000
O O14 0.500000 0.777794 0.500000
O O15 0.407391 0.500000 0.496069
O O16 0.334928 0.789264 0.477092
O O17 0.000000 0.261165 0.500000
O O18 0.925257 0.000000 0.654707
O O19 0.262972 0.000000 0.374868
O O20 0.150812 0.500000 0.953931
#
# Coordination Sequence:
#
# PCOD9154585 Si02
#       8
#     4   4   2   4   4   4   4   4
#     4   9  19  41  69  93 130 172 210 265 338 397
#     4  11  22  36  61  95 129 168 219 273 327 389
#     4  12  25  44  64  97 136 173 215 273 327 385
#     4   9  20  40  62  88 130 180 222 272 327 382
#     4  11  22  39  65  89 124 171 223 279 339 389
#     4  11  25  45  71  99 131 175 221 267 329 402
#     4  11  23  42  68  95 130 177 227 272 331 398
#     4   9  20  39  64  97 131 167 210 270 335 394
#
# _framework density 23.24212
#
# number of rings (size 3 to 8) (size 9 to 14) (size 15 to 20)
#    0.000    1.733    2.667    2.200    0.000    3.733 
#    3.600    4.333    0.000    0.000    0.000    0.000 
#    0.000    0.000    0.000    0.000    0.000    0.000 
#
# Total GULP energy -167229.393114 kJ/mol
# GULP energy per Si atom -5574.313104 kJ/mol
# Density = 2.318922 g / cm^3
# Si number density = 23.242120 Si / 1000 Ang^3
#
#
#
# Elastic Constant Matrix: (Units=GPa)
#
#
# Indices 1 2 3 4 5 6 
#
# 1 70.8228 19.5689 7.5656 0.0000 5.1249 0.0000
# 2 19.5689 82.6854 -0.5542 0.0000 -1.0546 0.0000
# 3 7.5656 -0.5542 77.4926 0.0000 17.0697 0.0000
# 4 0.0000 0.0000 0.0000 9.7785 0.0000 -11.8245
# 5 5.1249 -1.0546 17.0697 0.0000 35.5652 0.0000
# 6 0.0000 0.0000 0.0000 -11.8245 0.0000 -12.6652
#
#
#
# Elastic Compliance Matrix: (Units=1/GPa)
#
#
# Indices 1 2 3 4 5 6 
#
# 1 0.015384 -0.003671 -0.001136 0.000000 -0.001780 0.000000
# 2 -0.003671 0.012975 0.000279 0.000000 0.000780 0.000000
# 3 -0.001136 0.000279 0.014514 0.000000 -0.006794 0.000000
# 4 0.000000 0.000000 0.000000 0.048035 0.000000 -0.044847
# 5 -0.001780 0.000780 -0.006794 0.000000 0.031658 0.000000
# 6 0.000000 0.000000 0.000000 -0.044847 0.000000 -0.037087
#
#
# Mechanical properties :
#
#
# Convention : Reuss Voigt Hill
#
# Bulk Modulus (GPa) = 29.57063 31.57349 30.57206
# Shear Modulus (GPa) = 47.25561 20.16372 33.70966
#
# Velocity S-wave (km/s) = 4.51398 2.94862 3.81250
# Velocity P-wave (km/s) = 6.31811 5.02061 5.70636
#
# Compressibility (1/GPa) = 0.03381733
#
# Stress axis : x y z
#
# Youngs Moduli (GPa) = 65.00113 77.07292 68.89927
#
# Poissons Ratio (x) = 0.28296 0.07827
# Poissons Ratio (y) = 0.23864 -0.01926
# Poissons Ratio (z) = 0.07384 -0.02154
#
# Static dielectric constant tensor:
#      x y z
#    x 1.880440 0.000000 -0.019900 
#    y 0.000000 1.880410 0.000000 
#    z -0.019900 0.000000 1.904040 
# 
# From -- ./inp_files/49756.got.cif
#   From: 2010.05.17/outbox.cif.g08.bks.cpg/sg10_25_cif.got.tgz:49756.got - 2010.06.03 11:33:40.
