data_PCOD9154338
_publ_section_title
;
Structure prediction by ZEFSAII (Michael W. Deem and Ramdas Pophale) SiO2 
 PCOD9154338
Probable space group: P 2/M
;
_chemical_formula_sum "Si O2"
_cell_formula_units_Z 21
_cell_length_a 15.199865
_cell_length_b 11.773897
_cell_length_c 7.565145
_cell_angle_alpha 90.000000
_cell_angle_beta 65.122581
_cell_angle_gamma 90.000000
_cell_volume 1228.244959
_symmetry_space_group_name_H-M "P 2/M"
_symmetry_group_IT_number 10
_symmetry_cell_setting 'monoclinic'
loop_
_space_group_symop_operation_xyz
x,y,z
-x,y,-z
-x,-y,-z
x,-y,z
loop_
_atom_site_type_symbol
_atom_site_label
_atom_site_fract_x
_atom_site_fract_y
_atom_site_fract_z
Si Si1 0.500000 0.000000 0.500000
Si Si2 0.068011 0.500000 0.675675
Si Si3 0.891896 0.864407 0.149004
Si Si4 0.235052 0.741042 0.034344
Si Si5 0.151916 0.500000 0.999693
Si Si6 0.894794 0.745460 0.515349
Si Si7 0.426177 0.124275 0.902665
O O1 0.520853 0.902638 0.327547
O O2 0.047467 0.500000 0.187298
O O3 0.095519 0.613665 0.548490
O O4 0.122821 0.500000 0.817681
O O5 0.871092 0.814577 0.359044
O O6 0.890272 0.000000 0.154264
O O7 0.817191 0.817839 0.069262
O O8 0.000000 0.825334 0.000000
O O9 0.211328 0.612051 0.999918
O O10 0.182960 0.761109 0.265710
O O11 0.345709 0.779625 0.952332
O O12 0.000000 0.782033 0.500000
O O13 0.378078 0.000000 0.986554
O O14 0.500000 0.147587 0.000000
#
# Coordination Sequence:
#
# PCOD9154338 Si02
#       7
#     1   2   4   4   2   4   4
#     4   8  18  44  76  84 116 154 198 260 320 368
#     4  11  20  39  58  84 125 180 221 245 277 365
#     4  11  23  37  52  81 127 170 206 247 306 360
#     4  12  23  39  62  92 123 162 209 259 304 364
#     4  11  21  36  64  85 128 169 213 254 300 345
#     4  12  22  36  59  86 125 174 210 251 293 354
#     4   9  21  43  68  93 115 152 207 256 314 379
#
# _framework density 17.097567999999999
#
# number of rings (size 3 to 8) (size 9 to 14) (size 15 to 20)
#    0.571    0.571    5.714    1.429    0.000    3.429 
#    0.000    0.476    0.000    0.571    0.000    0.000 
#    0.000    0.000    0.000    0.000    0.000    0.000 
#
# Total GULP energy -116953.120381 kJ/mol
# GULP energy per Si atom -5569.196209 kJ/mol
# Density = 1.705865 g / cm^3
# Si number density = 17.097568 Si / 1000 Ang^3
#
#
#
# Elastic Constant Matrix: (Units=GPa)
#
#
# Indices 1 2 3 4 5 6 
#
# 1 96.0803 50.5031 67.4016 0.0000 13.4584 0.0000
# 2 50.5031 78.0301 46.2036 0.0000 10.2783 0.0000
# 3 67.4016 46.2036 168.8968 0.0000 17.3169 0.0000
# 4 0.0000 0.0000 0.0000 -95.2334 0.0000 -19.0993
# 5 13.4584 10.2783 17.3169 0.0000 16.9456 0.0000
# 6 0.0000 0.0000 0.0000 -19.0993 0.0000 13.7266
#
#
#
# Elastic Compliance Matrix: (Units=1/GPa)
#
#
# Indices 1 2 3 4 5 6 
#
# 1 0.019062 -0.008926 -0.004656 0.000000 -0.004967 0.000000
# 2 -0.008926 0.019961 -0.001546 0.000000 -0.003438 0.000000
# 3 -0.004656 -0.001546 0.008631 0.000000 -0.004184 0.000000
# 4 0.000000 0.000000 0.000000 -0.008210 0.000000 -0.011423
# 5 -0.004967 -0.003438 -0.004184 0.000000 0.069319 0.000000
# 6 0.000000 0.000000 0.000000 -0.011423 0.000000 0.056957
#
#
# Mechanical properties :
#
#
# Convention : Reuss Voigt Hill
#
# Bulk Modulus (GPa) = 57.47868 74.58040 66.02954
# Shear Modulus (GPa) = 24.78006 -0.98565 11.89720
#
# Velocity S-wave (km/s) = 3.81114 -0.76009 2.64074
# Velocity P-wave (km/s) = 7.28405 6.55323 6.92828
#
# Compressibility (1/GPa) = 0.01739776
#
# Stress axis : x y z
#
# Youngs Moduli (GPa) = 52.46109 50.09758 115.86542
#
# Poissons Ratio (x) = 0.44718 0.53945
# Poissons Ratio (y) = 0.46827 0.17912
# Poissons Ratio (z) = 0.24425 0.07745
#
# Static dielectric constant tensor:
#      x y z
#    x 1.565020 0.000000 0.008090 
#    y 0.000000 1.572460 0.000000 
#    z 0.008090 0.000000 1.575540 
# 
# From -- ./inp_files/8910.got.cif
#   From: 2010.05.17/outbox.cif.g08.bks.cpg/sg10_5_cif.got.tgz:8910.got - 2010.06.03 11:33:40.
