data_PCOD9154115
_publ_section_title
;
Structure prediction by ZEFSAII (Michael W. Deem and Ramdas Pophale) SiO2 
 PCOD9154115
Probable space group: P 2/M
;
_chemical_formula_sum "Si O2"
_cell_formula_units_Z 13
_cell_length_a 5.707450
_cell_length_b 15.396104
_cell_length_c 7.640904
_cell_angle_alpha 90.000000
_cell_angle_beta 64.597604
_cell_angle_gamma 90.000000
_cell_volume 606.510116
_symmetry_space_group_name_H-M "P 2/M"
_symmetry_group_IT_number 10
_symmetry_cell_setting 'monoclinic'
loop_
_space_group_symop_operation_xyz
x,y,z
-x,y,-z
-x,-y,-z
x,-y,z
loop_
_atom_site_type_symbol
_atom_site_label
_atom_site_fract_x
_atom_site_fract_y
_atom_site_fract_z
Si Si1 0.180638 0.856689 0.786827
Si Si2 0.514846 0.313292 0.206959
Si Si3 0.000000 0.224972 0.500000
Si Si4 0.500000 0.000000 0.500000
Si Si5 0.315443 0.500000 0.882269
O O1 0.289101 0.762743 0.804965
O O2 0.027227 0.837915 0.657551
O O3 0.403533 0.923889 0.668023
O O4 0.000000 0.888987 0.000000
O O5 0.246344 0.285739 0.382904
O O6 0.608976 0.408921 0.230813
O O7 0.500000 0.312099 0.000000
O O8 0.500000 0.500000 0.000000
O O9 0.000000 0.500000 0.000000
#
# Coordination Sequence:
#
# PCOD9154115 Si02
#       5
#     4   4   2   1   2
#     4  12  25  47  71 103 144 188 243 303 380 430
#     4  11  23  45  75 104 149 192 240 302 370 437
#     4  12  24  44  74 104 140 196 240 304 362 454
#     4  12  26  46  70 108 136 188 250 312 356 466
#     4  10  24  43  75 115 149 197 254 300 367 449
#
# _framework density 21.434103
#
# number of rings (size 3 to 8) (size 9 to 14) (size 15 to 20)
#    0.000    0.615    6.154    1.385    4.308    1.231 
#    0.000    5.385    0.000    0.000    0.000    0.000 
#    0.000    0.000    0.000    0.000    0.000    0.000 
#
# Total GULP energy -72387.095200 kJ/mol
# GULP energy per Si atom -5568.238092 kJ/mol
# Density = 2.138532 g / cm^3
# Si number density = 21.434103 Si / 1000 Ang^3
#
#
#
# Elastic Constant Matrix: (Units=GPa)
#
#
# Indices 1 2 3 4 5 6 
#
# 1 62.4172 4.0237 24.7679 0.0000 5.1046 0.0000
# 2 4.0237 137.7420 20.2962 0.0000 19.0095 0.0000
# 3 24.7679 20.2962 160.5336 0.0000 -3.2983 0.0000
# 4 0.0000 0.0000 0.0000 6.9932 0.0000 -8.5731
# 5 5.1046 19.0095 -3.2983 0.0000 35.8805 0.0000
# 6 0.0000 0.0000 0.0000 -8.5731 0.0000 -48.5517
#
#
#
# Elastic Compliance Matrix: (Units=1/GPa)
#
#
# Indices 1 2 3 4 5 6 
#
# 1 0.017337 0.000299 -0.002772 0.000000 -0.002880 0.000000
# 2 0.000299 0.008028 -0.001152 0.000000 -0.004402 0.000000
# 3 -0.002772 -0.001152 0.006836 0.000000 0.001633 0.000000
# 4 0.000000 0.000000 0.000000 0.117550 0.000000 -0.020756
# 5 -0.002880 -0.004402 0.001633 0.000000 0.030762 0.000000
# 6 0.000000 0.000000 0.000000 -0.020756 0.000000 -0.016932
#
#
# Mechanical properties :
#
#
# Convention : Reuss Voigt Hill
#
# Bulk Modulus (GPa) = 40.07445 50.98537 45.52991
# Shear Modulus (GPa) = 27.90981 19.63807 23.77394
#
# Velocity S-wave (km/s) = 3.61241 3.03017 3.33403
# Velocity P-wave (km/s) = 6.01136 6.00677 6.00907
#
# Compressibility (1/GPa) = 0.02495356
#
# Stress axis : x y z
#
# Youngs Moduli (GPa) = 57.67879 124.55776 146.28335
#
# Poissons Ratio (x) = -0.03730 0.40549
# Poissons Ratio (y) = -0.01727 0.16847
# Poissons Ratio (z) = 0.15988 0.14345
#
# Static dielectric constant tensor:
#      x y z
#    x 1.911440 0.000000 0.084920 
#    y 0.000000 1.738720 0.000000 
#    z 0.084920 0.000000 2.005630 
# 
# From -- ./inp_files/3230.got.cif
#   From: 2010.05.17/outbox.cif.g08.bks.cpg/sg10_2_cif.got.tgz:3230.got - 2010.06.03 11:33:40.
