data_PCOD9154318
_publ_section_title
;
Structure prediction by ZEFSAII (Michael W. Deem and Ramdas Pophale) SiO2 
 PCOD9154318
Probable space group: P 2/M
;
_chemical_formula_sum "Si O2"
_cell_formula_units_Z 24
_cell_length_a 14.958028
_cell_length_b 13.933951
_cell_length_c 12.946393
_cell_angle_alpha 90.000000
_cell_angle_beta 30.065490
_cell_angle_gamma 90.000000
_cell_volume 1351.842444
_symmetry_space_group_name_H-M "P 2/M"
_symmetry_group_IT_number 10
_symmetry_cell_setting 'monoclinic'
loop_
_space_group_symop_operation_xyz
x,y,z
-x,y,-z
-x,-y,-z
x,-y,z
loop_
_atom_site_type_symbol
_atom_site_label
_atom_site_fract_x
_atom_site_fract_y
_atom_site_fract_z
Si Si1 0.999974 0.387575 0.875701
Si Si2 0.706715 0.241915 0.489297
Si Si3 0.706600 0.241936 0.097436
Si Si4 0.717318 0.891170 0.664839
Si Si5 0.784615 0.111050 0.215402
Si Si6 0.717268 0.891171 0.900638
O O1 0.000005 0.500000 0.851048
O O2 0.171166 0.331900 0.660634
O O3 0.828707 0.331937 0.003112
O O4 0.000000 0.376880 0.000000
O O5 0.500059 0.269076 0.709683
O O6 0.773278 0.185865 0.524421
O O7 0.719857 0.166980 0.381351
O O8 0.719768 0.167029 0.179097
O O9 0.773194 0.185862 0.929186
O O10 0.772003 0.870649 0.728037
O O11 0.774440 0.000000 0.581515
O O12 0.500025 0.891746 0.880532
O O13 0.728768 0.000000 0.271224
O O14 0.000000 0.114523 0.000000
O O15 0.774378 0.000000 0.869750
#
# Coordination Sequence:
#
# PCOD9154318 Si02
#       6
#     4   4   4   4   4   4
#     4  11  24  42  57  76 107 137 178 236 286 328
#     4  11  20  35  58  81 107 142 181 221 268 320
#     4  11  20  35  58  81 107 142 181 221 268 320
#     4   8  15  29  51  81 115 148 179 211 251 308
#     4  11  21  33  51  79 117 150 173 210 264 320
#     4   8  15  29  51  81 115 148 179 211 251 308
#
# _framework density 17.753547999999999
#
# number of rings (size 3 to 8) (size 9 to 14) (size 15 to 20)
#    0.000    2.000    3.333    2.500    0.000    3.333 
#    0.000    2.500    0.000    4.000    0.000    4.667 
#    0.000    0.000    0.000    0.000    0.000    0.000 
#
# Total GULP energy -134044.592421 kJ/mol
# GULP energy per Si atom -5585.191351 kJ/mol
# Density = 1.771314 g / cm^3
# Si number density = 17.753548 Si / 1000 Ang^3
#
#
#
# Elastic Constant Matrix: (Units=GPa)
#
#
# Indices 1 2 3 4 5 6 
#
# 1 -3.7471 76.9082 140.0914 0.0000 49.7596 0.0000
# 2 76.9082 166.0809 66.2498 0.0000 14.1482 0.0000
# 3 140.0914 66.2498 -9.8885 0.0000 -40.5178 0.0000
# 4 0.0000 0.0000 0.0000 0.2035 0.0000 15.2913
# 5 49.7596 14.1482 -40.5178 0.0000 18.9471 0.0000
# 6 0.0000 0.0000 0.0000 15.2913 0.0000 12.6656
#
#
#
# Elastic Compliance Matrix: (Units=1/GPa)
#
#
# Indices 1 2 3 4 5 6 
#
# 1 0.005882 -0.006680 0.008342 0.000000 0.007379 0.000000
# 2 -0.006680 0.011555 -0.005506 0.000000 -0.002860 0.000000
# 3 0.008342 -0.005506 0.005437 0.000000 -0.006169 0.000000
# 4 0.000000 0.000000 0.000000 -0.054771 0.000000 0.066126
# 5 0.007379 -0.002860 -0.006169 0.000000 0.022343 0.000000
# 6 0.000000 0.000000 0.000000 0.066126 0.000000 -0.000880
#
#
# Mechanical properties :
#
#
# Convention : Reuss Voigt Hill
#
# Bulk Modulus (GPa) = 65.85562 79.88266 72.86914
# Shear Modulus (GPa) = 2158.76507 -2.35704 1078.20402
#
# Velocity S-wave (km/s) = 34.90849 -1.15348 24.67055
# Velocity P-wave (km/s) = 40.76736 6.58171 29.20015
#
# Compressibility (1/GPa) = 0.01518473
#
# Stress axis : x y z
#
# Youngs Moduli (GPa) = 170.01061 86.54619 183.92350
#
# Poissons Ratio (x) = 0.57812 -1.53424
# Poissons Ratio (y) = 1.13566 1.01272
# Poissons Ratio (z) = -1.41818 0.47654
#
# Static dielectric constant tensor:
#      x y z
#    x 1.617260 0.000000 -0.029080 
#    y 0.000000 1.564720 0.000000 
#    z -0.029080 0.000000 1.640960 
# 
# From -- ./inp_files/51504.got.cif
#   From: 2010.05.17/outbox.cif.g08.bks.cpg/sg10_26_cif.got.tgz:51504.got - 2010.06.03 11:33:40.
