data_PCOD9154211
_publ_section_title
;
Structure prediction by ZEFSAII (Michael W. Deem and Ramdas Pophale) SiO2 
 PCOD9154211
Probable space group: P 2/M
;
_chemical_formula_sum "Si O2"
_cell_formula_units_Z 24
_cell_length_a 9.612960
_cell_length_b 14.005941
_cell_length_c 16.138588
_cell_angle_alpha 90.000000
_cell_angle_beta 143.753646
_cell_angle_gamma 90.000000
_cell_volume 1284.731091
_symmetry_space_group_name_H-M "P 2/M"
_symmetry_group_IT_number 10
_symmetry_cell_setting 'monoclinic'
loop_
_space_group_symop_operation_xyz
x,y,z
-x,y,-z
-x,-y,-z
x,-y,z
loop_
_atom_site_type_symbol
_atom_site_label
_atom_site_fract_x
_atom_site_fract_y
_atom_site_fract_z
Si Si1 0.587335 0.106610 0.410338
Si Si2 0.900653 0.104799 0.722301
Si Si3 0.164634 0.612152 0.335359
Si Si4 0.747010 0.276056 0.076145
Si Si5 0.472764 0.319016 0.628658
Si Si6 0.264769 0.606573 0.091311
O O1 0.791144 0.116052 0.577779
O O2 0.333570 0.104614 0.333816
O O3 0.577983 0.211042 0.364727
O O4 0.615510 0.000000 0.384492
O O5 0.084725 0.184481 0.835926
O O6 0.010216 0.000000 0.780928
O O7 0.206219 0.500000 0.341478
O O8 0.316156 0.670218 0.338660
O O9 0.257277 0.641744 0.470391
O O10 0.896307 0.640937 0.193454
O O11 0.500000 0.257971 0.000000
O O12 0.708841 0.313104 0.965030
O O13 0.556559 0.378983 0.747167
O O14 0.291811 0.500000 0.068824
O O15 0.000000 0.613518 0.000000
#
# Coordination Sequence:
#
# PCOD9154211 Si02
#       6
#     4   4   4   4   4   4
#     4   9  15  28  58  90 111 134 180 245 293 321
#     4   9  16  32  56  84 111 143 188 233 280 334
#     4  11  20  33  56  83 107 143 195 239 273 328
#     4  12  24  38  55  81 118 159 187 227 283 339
#     4  11  18  34  59  87 112 139 186 242 283 328
#     4  11  22  37  57  83 116 150 187 234 285 332
#
# _framework density 18.680952000000001
#
# number of rings (size 3 to 8) (size 9 to 14) (size 15 to 20)
#    0.000    1.500    5.000    4.500    0.000    1.667 
#    0.000    1.667    0.000    5.000    0.000    2.333 
#    0.000    0.000    0.000    0.000    0.000    0.000 
#
# Total GULP energy -133755.787897 kJ/mol
# GULP energy per Si atom -5573.157829 kJ/mol
# Density = 1.863843 g / cm^3
# Si number density = 18.680952 Si / 1000 Ang^3
#
#
#
# Elastic Constant Matrix: (Units=GPa)
#
#
# Indices 1 2 3 4 5 6 
#
# 1 27.7216 19.6345 32.2494 0.0000 -3.2029 0.0000
# 2 19.6345 137.1607 30.7671 0.0000 -9.0323 0.0000
# 3 32.2494 30.7671 101.7764 0.0000 -6.2068 0.0000
# 4 0.0000 0.0000 0.0000 27.1309 0.0000 -2.6575
# 5 -3.2029 -9.0323 -6.2068 0.0000 7.4631 0.0000
# 6 0.0000 0.0000 0.0000 -2.6575 0.0000 6.3705
#
#
#
# Elastic Compliance Matrix: (Units=1/GPa)
#
#
# Indices 1 2 3 4 5 6 
#
# 1 0.059992 -0.004295 -0.017337 0.000000 0.006129 0.000000
# 2 -0.004295 0.008597 -0.000754 0.000000 0.007934 0.000000
# 3 -0.017337 -0.000754 0.015841 0.000000 0.004821 0.000000
# 4 0.000000 0.000000 0.000000 0.038429 0.000000 0.016031
# 5 0.006129 0.007934 0.004821 0.000000 0.150236 0.000000
# 6 0.000000 0.000000 0.000000 0.016031 0.000000 0.163661
#
#
# Mechanical properties :
#
#
# Convention : Reuss Voigt Hill
#
# Bulk Modulus (GPa) = 25.21595 47.99565 36.60580
# Shear Modulus (GPa) = 10.10617 20.46009 15.28313
#
# Velocity S-wave (km/s) = 2.32844 3.31303 2.86337
# Velocity P-wave (km/s) = 4.55591 6.35476 5.52898
#
# Compressibility (1/GPa) = 0.03965744
#
# Stress axis : x y z
#
# Youngs Moduli (GPa) = 16.66884 116.31678 63.12735
#
# Poissons Ratio (x) = 0.49961 1.09445
# Poissons Ratio (y) = 0.07160 0.04760
# Poissons Ratio (z) = 0.28899 0.08771
#
# Static dielectric constant tensor:
#      x y z
#    x 1.636140 0.000000 0.004220 
#    y 0.000000 1.698000 0.000000 
#    z 0.004220 0.000000 1.635140 
# 
# From -- ./inp_files/61940.got.cif
#   From: 2010.05.17/outbox.cif.g08.bks.cpg/sg10_31_cif.got.tgz:61940.got - 2010.06.03 11:33:40.
