data_PCOD9154215
_publ_section_title
;
Structure prediction by ZEFSAII (Michael W. Deem and Ramdas Pophale) SiO2 
 PCOD9154215
Probable space group: P 2/M
;
_chemical_formula_sum "Si O2"
_cell_formula_units_Z 20
_cell_length_a 16.445479
_cell_length_b 14.762085
_cell_length_c 10.248215
_cell_angle_alpha 90.000000
_cell_angle_beta 18.128814
_cell_angle_gamma 90.000000
_cell_volume 774.138041
_symmetry_space_group_name_H-M "P 2/M"
_symmetry_group_IT_number 10
_symmetry_cell_setting 'monoclinic'
loop_
_space_group_symop_operation_xyz
x,y,z
-x,y,-z
-x,-y,-z
x,-y,z
loop_
_atom_site_type_symbol
_atom_site_label
_atom_site_fract_x
_atom_site_fract_y
_atom_site_fract_z
Si Si1 0.598165 0.000000 0.053700
Si Si2 0.265291 0.354400 0.509541
Si Si3 0.765291 0.854400 0.009541
Si Si4 0.098165 0.500000 0.553700
Si Si5 0.814925 0.854406 0.410240
Si Si6 0.685075 0.645594 0.089760
O O1 0.731835 0.078545 0.942227
O O2 0.420115 0.078544 0.253920
O O3 0.231834 0.421455 0.442228
O O4 0.272854 0.249997 0.454313
O O5 0.507304 0.376222 0.235410
O O6 0.000000 0.364333 0.000000
O O7 0.500000 0.864333 0.500000
O O8 0.772854 0.749997 0.954313
O O9 0.007304 0.876222 0.735410
O O10 0.920115 0.578544 0.753920
O O11 0.000000 0.864342 0.000000
O O12 0.500000 0.635658 0.500000
#
# Coordination Sequence:
#
# PCOD9154215 Si02
#       6
#     2   4   4   2   4   4
#     4  12  20  26  38  40  48  62  62  70  86  84
#     4  11  19  28  34  42  51  56  65  74  78  88
#     4  11  19  28  34  42  51  56  65  74  78  88
#     4  12  20  26  38  40  48  62  62  70  86  84
#     4  11  19  28  34  42  51  56  65  74  78  88
#     4  11  19  28  34  42  51  56  65  74  78  88
#
# _framework density 25.835184999999999
#
# number of rings (size 3 to 8) (size 9 to 14) (size 15 to 20)
#    0.000    0.800    8.000    4.800    0.000    0.000 
#    0.000    0.000    0.000    0.000    0.000    0.000 
#    0.000    0.000    0.000    0.000    0.000    0.000 
#
# Total GULP energy -111390.294845 kJ/mol
# GULP energy per Si atom -5569.514742 kJ/mol
# Density = 2.577638 g / cm^3
# Si number density = 25.835185 Si / 1000 Ang^3
#
#
#
# Elastic Constant Matrix: (Units=GPa)
#
#
# Indices 1 2 3 4 5 6 
#
# 1 159.9884 84.7311 135.5066 0.0000 -55.4808 0.0000
# 2 84.7311 240.9763 102.1804 0.0000 -51.8420 0.0000
# 3 135.5066 102.1804 205.6666 0.0000 -81.3235 0.0000
# 4 0.0000 0.0000 0.0000 31.9931 0.0000 -52.8674
# 5 -55.4808 -51.8420 -81.3235 0.0000 99.2724 0.0000
# 6 0.0000 0.0000 0.0000 -52.8674 0.0000 14.3493
#
#
#
# Elastic Compliance Matrix: (Units=1/GPa)
#
#
# Indices 1 2 3 4 5 6 
#
# 1 0.014471 -0.001313 -0.008809 0.000000 0.000186 0.000000
# 2 -0.001313 0.005431 -0.001482 0.000000 0.000888 0.000000
# 3 -0.008809 -0.001482 0.013533 0.000000 0.005390 0.000000
# 4 0.000000 0.000000 0.000000 -0.006143 0.000000 -0.022633
# 5 0.000186 0.000888 0.005390 0.000000 0.015056 0.000000
# 6 0.000000 0.000000 0.000000 -0.022633 0.000000 -0.013696
#
#
# Mechanical properties :
#
#
# Convention : Reuss Voigt Hill
#
# Bulk Modulus (GPa) = 97.76894 139.05191 118.41043
# Shear Modulus (GPa) = 90.46758 48.07051 69.26904
#
# Velocity S-wave (km/s) = 5.92395 4.31822 5.18364
# Velocity P-wave (km/s) = 9.20415 8.87706 9.04209
#
# Compressibility (1/GPa) = 0.01022820
#
# Stress axis : x y z
#
# Youngs Moduli (GPa) = 69.10368 184.13002 73.89236
#
# Poissons Ratio (x) = 0.24180 0.65089
# Poissons Ratio (y) = 0.09075 0.10949
# Poissons Ratio (z) = 0.60870 0.27283
#
# Static dielectric constant tensor:
#      x y z
#    x 2.112470 0.000000 0.053820 
#    y 0.000000 1.905000 0.000000 
#    z 0.053820 0.000000 2.094890 
# 
# From -- ./inp_files/76879.got.cif
#   From: 2010.05.17/outbox.cif.g08.bks.cpg/sg10_39_cif.got.tgz:76879.got - 2010.06.03 11:33:40.
