data_PCOD9154956
_publ_section_title
;
Structure prediction by ZEFSAII (Michael W. Deem and Ramdas Pophale) SiO2 
 PCOD9154956
Probable space group: P 2/M
;
_chemical_formula_sum "Si O2"
_cell_formula_units_Z 28
_cell_length_a 26.985213
_cell_length_b 7.414988
_cell_length_c 31.515590
_cell_angle_alpha 90.000000
_cell_angle_beta 11.254525
_cell_angle_gamma 90.000000
_cell_volume 1230.750064
_symmetry_space_group_name_H-M "P 2/M"
_symmetry_group_IT_number 10
_symmetry_cell_setting 'monoclinic'
loop_
_space_group_symop_operation_xyz
x,y,z
-x,y,-z
-x,-y,-z
x,-y,z
loop_
_atom_site_type_symbol
_atom_site_label
_atom_site_fract_x
_atom_site_fract_y
_atom_site_fract_z
Si Si1 0.098661 0.217812 0.323742
Si Si2 0.789463 0.719626 0.305697
Si Si3 0.614427 0.785365 0.839652
Si Si4 0.779057 0.719977 0.216557
Si Si5 0.691732 0.284403 0.981291
Si Si6 0.723122 0.721620 0.051437
Si Si7 0.815646 0.291819 0.481004
O O1 0.153281 0.280912 0.326026
O O2 0.875414 0.287311 0.481309
O O3 0.077395 0.000000 0.341365
O O4 0.356036 0.269286 0.081552
O O5 0.791531 0.500000 0.304733
O O6 0.824115 0.773249 0.227519
O O7 0.505720 0.775791 0.557128
O O8 0.019994 0.780108 0.141483
O O9 0.555692 0.749470 0.839951
O O10 0.631345 0.000000 0.828633
O O11 0.780713 0.500000 0.214645
O O12 0.000000 0.782240 0.000000
O O13 0.710510 0.500000 0.967123
O O14 0.701721 0.218159 0.020736
O O15 0.940741 0.211549 0.747315
O O16 0.721615 0.500000 0.052824
O O17 0.463701 0.783169 0.291905
O O18 0.805955 0.500000 0.475995
#
# Coordination Sequence:
#
# PCOD9154956 Si02
#       7
#     4   4   4   4   4   4   4
#     4   8  14  26  44  63  82 106 137 175 219 260
#     4   8  14  23  34  50  74 105 137 168 203 238
#     4   8  14  26  44  63  82 106 137 175 219 260
#     4   8  13  21  34  53  75 100 135 173 201 232
#     4   9  17  28  42  60  81 108 142 175 209 252
#     4   9  17  28  39  54  81 112 141 174 208 246
#     4   9  17  28  42  60  81 108 142 175 209 252
#
# _framework density 22.750354000000002
#
# number of rings (size 3 to 8) (size 9 to 14) (size 15 to 20)
#    0.000    3.571    0.000    1.714    0.000    1.714 
#    0.000   10.000    0.000    4.286    0.000    0.000 
#    0.000    0.000    0.000   10.286    0.000   72.571 
#
# Total GULP energy -156165.337035 kJ/mol
# GULP energy per Si atom -5577.333466 kJ/mol
# Density = 2.269857 g / cm^3
# Si number density = 22.750354 Si / 1000 Ang^3
#
#
#
# Elastic Constant Matrix: (Units=GPa)
#
#
# Indices 1 2 3 4 5 6 
#
# 1 64.6381 -4.4924 65.5968 0.0000 -5.7256 0.0000
# 2 -4.4924 70.1060 -1.6047 0.0000 1.2086 0.0000
# 3 65.5968 -1.6047 167.2950 0.0000 -14.0413 0.0000
# 4 0.0000 0.0000 0.0000 -0.8732 0.0000 -16.3339
# 5 -5.7256 1.2086 -14.0413 0.0000 32.9880 0.0000
# 6 0.0000 0.0000 0.0000 -16.3339 0.0000 22.3817
#
#
#
# Elastic Compliance Matrix: (Units=1/GPa)
#
#
# Indices 1 2 3 4 5 6 
#
# 1 0.025837 0.001422 -0.010106 0.000000 0.000131 0.000000
# 2 0.001422 0.014353 -0.000460 0.000000 -0.000475 0.000000
# 3 -0.010106 -0.000460 0.010153 0.000000 0.002584 0.000000
# 4 0.000000 0.000000 0.000000 -0.078165 0.000000 -0.057044
# 5 0.000131 -0.000475 0.002584 0.000000 0.031454 0.000000
# 6 0.000000 0.000000 0.000000 -0.057044 0.000000 0.003050
#
#
# Mechanical properties :
#
#
# Convention : Reuss Voigt Hill
#
# Bulk Modulus (GPa) = 31.19641 46.78205 38.98923
# Shear Modulus (GPa) = 140.23280 27.06858 83.65069
#
# Velocity S-wave (km/s) = 7.85962 3.45310 6.07032
# Velocity P-wave (km/s) = 9.80342 6.04205 8.14290
#
# Compressibility (1/GPa) = 0.03205497
#
# Stress axis : x y z
#
# Youngs Moduli (GPa) = 38.70367 69.67229 98.49645
#
# Poissons Ratio (x) = -0.09908 0.99543
# Poissons Ratio (y) = -0.05504 0.04529
# Poissons Ratio (z) = 0.39115 0.03203
#
# Static dielectric constant tensor:
#      x y z
#    x 1.848600 0.000000 0.028720 
#    y 0.000000 1.868090 0.000000 
#    z 0.028720 0.000000 1.860400 
# 
# From -- ./inp_files/79564.got.cif
#   From: 2010.05.17/outbox.cif.g08.bks.cpg/sg10_40_cif.got.tgz:79564.got - 2010.06.03 11:33:40.
