data_PCOD9154430
_publ_section_title
;
Structure prediction by ZEFSAII (Michael W. Deem and Ramdas Pophale) SiO2 
 PCOD9154430
Probable space group: P 2/M
;
_chemical_formula_sum "Si O2"
_cell_formula_units_Z 22
_cell_length_a 8.583302
_cell_length_b 26.826987
_cell_length_c 7.274819
_cell_angle_alpha 90.000000
_cell_angle_beta 143.468590
_cell_angle_gamma 90.000000
_cell_volume 997.143469
_symmetry_space_group_name_H-M "P 2/M"
_symmetry_group_IT_number 10
_symmetry_cell_setting 'monoclinic'
loop_
_space_group_symop_operation_xyz
x,y,z
-x,y,-z
-x,-y,-z
x,-y,z
loop_
_atom_site_type_symbol
_atom_site_label
_atom_site_fract_x
_atom_site_fract_y
_atom_site_fract_z
Si Si1 0.762790 0.000000 0.628882
Si Si2 0.879951 0.213862 0.682082
Si Si3 0.035122 0.443692 0.310184
Si Si4 0.234560 0.892235 0.369080
Si Si5 0.613318 0.726145 0.904469
Si Si6 0.463573 0.614822 0.188675
O O1 0.500000 0.000000 0.500000
O O2 0.760958 0.053749 0.527824
O O3 0.000000 0.000000 0.000000
O O4 0.821815 0.157080 0.565451
O O5 0.605842 0.242377 0.410658
O O6 0.000000 0.209719 0.000000
O O7 0.110500 0.246082 0.811097
O O8 0.101492 0.500000 0.318560
O O9 0.259392 0.404097 0.475753
O O10 0.000000 0.443926 0.500000
O O11 0.758620 0.424927 0.974716
O O12 0.500000 0.885082 0.500000
O O13 0.000000 0.895665 0.000000
O O14 0.626739 0.670053 0.840767
O O15 0.500000 0.721651 0.000000
O O16 0.500000 0.614968 0.000000
#
# Coordination Sequence:
#
# PCOD9154430 Si02
#       6
#     2   4   4   4   4   4
#     4   8  14  24  42  68  99 128 159 202 259 312
#     4  11  21  35  54  78 106 136 174 221 262 299
#     4   9  15  24  40  63  92 124 155 195 252 305
#     4   9  16  28  46  72 102 131 163 210 263 304
#     4  11  22  36  53  75 106 144 178 209 254 312
#     4   9  17  28  42  63  94 128 161 199 245 300
#
# _framework density 22.063025
#
# number of rings (size 3 to 8) (size 9 to 14) (size 15 to 20)
#    0.000    2.364    0.000    4.909    0.000    5.091 
#    0.000    0.000    0.000    0.000    0.000    3.818 
#    0.000   50.909    0.000    0.000    0.000    0.000 
#
# Total GULP energy -122722.132936 kJ/mol
# GULP energy per Si atom -5578.278770 kJ/mol
# Density = 2.201281 g / cm^3
# Si number density = 22.063025 Si / 1000 Ang^3
#
#
#
# Elastic Constant Matrix: (Units=GPa)
#
#
# Indices 1 2 3 4 5 6 
#
# 1 33.1812 17.7049 17.2214 0.0000 6.7424 0.0000
# 2 17.7049 195.3007 25.3674 0.0000 25.4681 0.0000
# 3 17.2214 25.3674 103.4416 0.0000 32.8833 0.0000
# 4 0.0000 0.0000 0.0000 30.3991 0.0000 12.0617
# 5 6.7424 25.4681 32.8833 0.0000 38.1198 0.0000
# 6 0.0000 0.0000 0.0000 12.0617 0.0000 13.8158
#
#
#
# Elastic Compliance Matrix: (Units=1/GPa)
#
#
# Indices 1 2 3 4 5 6 
#
# 1 0.034068 -0.002426 -0.005066 0.000000 -0.000035 0.000000
# 2 -0.002426 0.005787 0.000107 0.000000 -0.003529 0.000000
# 3 -0.005066 0.000107 0.014085 0.000000 -0.011325 0.000000
# 4 0.000000 0.000000 0.000000 0.050330 0.000000 -0.043941
# 5 -0.000035 -0.003529 -0.011325 0.000000 0.038366 0.000000
# 6 0.000000 0.000000 0.000000 -0.043941 0.000000 0.110743
#
#
# Mechanical properties :
#
#
# Convention : Reuss Voigt Hill
#
# Bulk Modulus (GPa) = 25.53001 50.27899 37.90450
# Shear Modulus (GPa) = 17.78056 34.57557 26.17806
#
# Velocity S-wave (km/s) = 2.84192 3.96299 3.44832
# Velocity P-wave (km/s) = 4.72918 6.61654 5.75082
#
# Compressibility (1/GPa) = 0.03916959
#
# Stress axis : x y z
#
# Youngs Moduli (GPa) = 29.35277 172.81398 70.99919
#
# Poissons Ratio (x) = 0.41923 0.35966
# Poissons Ratio (y) = 0.07121 -0.00757
# Poissons Ratio (z) = 0.14869 -0.01843
#
# Static dielectric constant tensor:
#      x y z
#    x 1.897880 0.000000 -0.038280 
#    y 0.000000 1.882360 0.000000 
#    z -0.038280 0.000000 1.773570 
# 
# From -- ./inp_files/20815.got.cif
#   From: 2010.05.17/outbox.cif.g08.bks.cpg/sg10_11_cif.got.tgz:20815.got - 2010.06.03 11:33:40.
