data_PCOD9154140
_publ_section_title
;
Structure prediction by ZEFSAII (Michael W. Deem and Ramdas Pophale) SiO2 
 PCOD9154140
Probable space group: P 2/M
;
_chemical_formula_sum "Si O2"
_cell_formula_units_Z 18
_cell_length_a 7.335037
_cell_length_b 25.373846
_cell_length_c 5.209420
_cell_angle_alpha 90.000000
_cell_angle_beta 42.090901
_cell_angle_gamma 90.000000
_cell_volume 649.909506
_symmetry_space_group_name_H-M "P 2/M"
_symmetry_group_IT_number 10
_symmetry_cell_setting 'monoclinic'
loop_
_space_group_symop_operation_xyz
x,y,z
-x,y,-z
-x,-y,-z
x,-y,z
loop_
_atom_site_type_symbol
_atom_site_label
_atom_site_fract_x
_atom_site_fract_y
_atom_site_fract_z
Si Si1 0.720465 0.283656 0.958903
Si Si2 0.000000 0.359284 0.000000
Si Si3 0.192453 0.943861 0.050054
Si Si4 0.809089 0.831119 0.948813
Si Si5 0.688499 0.439213 0.049394
O O1 0.646811 0.223175 0.098470
O O2 0.000000 0.283530 0.500000
O O3 0.500000 0.307607 0.000000
O O4 0.772143 0.316721 0.160542
O O5 0.941735 0.400436 0.831284
O O6 0.000000 0.944093 0.500000
O O7 0.342704 0.887561 0.895262
O O8 0.345962 0.000000 0.894475
O O9 0.000000 0.943546 0.000000
O O10 0.000000 0.832033 0.500000
O O11 0.000000 0.827867 0.000000
O O12 0.500000 0.431754 0.500000
O O13 0.780488 0.500000 0.949912
O O14 0.500000 0.430375 0.000000
#
# Coordination Sequence:
#
# PCOD9154140 Si02
#       5
#     4   2   4   4   4
#     4  11  26  44  66  98 138 182 230 282 342 405
#     4  12  25  40  70  98 139 178 228 284 330 408
#     4   8  13  22  44  75 110 153 206 262 323 389
#     4   9  17  35  54  83 123 168 214 271 333 397
#     4  10  24  45  70 101 138 179 224 277 339 401
#
# _framework density 27.696166000000002
#
# number of rings (size 3 to 8) (size 9 to 14) (size 15 to 20)
#    0.000    2.222    1.111    1.000    6.222    0.000 
#    0.000    3.333    0.000    0.667    0.000    0.000 
#    0.000   26.667    0.000    0.000    0.000    5.333 
#
# Total GULP energy -100704.211185 kJ/mol
# GULP energy per Si atom -5594.678399 kJ/mol
# Density = 2.763313 g / cm^3
# Si number density = 27.696166 Si / 1000 Ang^3
#
#
#
# Elastic Constant Matrix: (Units=GPa)
#
#
# Indices 1 2 3 4 5 6 
#
# 1 226.7161 65.3703 36.3180 0.0000 37.8597 0.0000
# 2 65.3703 297.9006 -9.6631 0.0000 -3.2294 0.0000
# 3 36.3180 -9.6631 163.0853 0.0000 30.6910 0.0000
# 4 0.0000 0.0000 0.0000 -17.7967 0.0000 11.8591
# 5 37.8597 -3.2294 30.6910 0.0000 53.9663 0.0000
# 6 0.0000 0.0000 0.0000 11.8591 0.0000 44.3176
#
#
#
# Elastic Compliance Matrix: (Units=1/GPa)
#
#
# Indices 1 2 3 4 5 6 
#
# 1 0.005467 -0.001259 -0.000623 0.000000 -0.003557 0.000000
# 2 -0.001259 0.003653 0.000324 0.000000 0.000917 0.000000
# 3 -0.000623 0.000324 0.006947 0.000000 -0.003495 0.000000
# 4 0.000000 0.000000 0.000000 -0.047687 0.000000 0.012761
# 5 -0.003557 0.000917 -0.003495 0.000000 0.023068 0.000000
# 6 0.000000 0.000000 0.000000 0.012761 0.000000 0.019150
#
#
# Mechanical properties :
#
#
# Convention : Reuss Voigt Hill
#
# Bulk Modulus (GPa) = 77.19713 96.86138 87.02926
# Shear Modulus (GPa) = 277.30219 55.80923 166.55571
#
# Velocity S-wave (km/s) = 10.01700 4.49380 7.76320
# Velocity P-wave (km/s) = 12.71694 7.87239 10.57580
#
# Compressibility (1/GPa) = 0.01295385
#
# Stress axis : x y z
#
# Youngs Moduli (GPa) = 182.90281 273.71449 143.94042
#
# Poissons Ratio (x) = 0.34447 0.08964
# Poissons Ratio (y) = 0.23018 -0.04665
# Poissons Ratio (z) = 0.11391 -0.08872
#
# Static dielectric constant tensor:
#      x y z
#    x 1.952740 0.000000 0.096300 
#    y 0.000000 2.189320 0.000000 
#    z 0.096300 0.000000 2.218720 
# 
# From -- ./inp_files/1952.got.cif
#   From: 2010.05.17/outbox.cif.g08.bks.cpg/sg10_1_cif.got.tgz:1952.got - 2010.06.03 11:33:40.
