data_PCOD9154933
_publ_section_title
;
Structure prediction by ZEFSAII (Michael W. Deem and Ramdas Pophale) SiO2 
 PCOD9154933
Probable space group: P 2/M
;
_chemical_formula_sum "Si O2"
_cell_formula_units_Z 32
_cell_length_a 13.302353
_cell_length_b 7.472293
_cell_length_c 17.830958
_cell_angle_alpha 90.000000
_cell_angle_beta 90.341927
_cell_angle_gamma 90.000000
_cell_volume 1772.349246
_symmetry_space_group_name_H-M "P 2/M"
_symmetry_group_IT_number 10
_symmetry_cell_setting 'monoclinic'
loop_
_space_group_symop_operation_xyz
x,y,z
-x,y,-z
-x,-y,-z
x,-y,z
loop_
_atom_site_type_symbol
_atom_site_label
_atom_site_fract_x
_atom_site_fract_y
_atom_site_fract_z
Si Si1 0.114263 0.710963 0.835311
Si Si2 0.611225 0.718214 0.412634
Si Si3 0.616083 0.281813 0.584957
Si Si4 0.002571 0.718153 0.586237
Si Si5 0.806659 0.281078 0.679954
Si Si6 0.800726 0.281058 0.319347
Si Si7 0.115722 0.713723 0.161955
Si Si8 0.113912 0.211485 0.997983
O O1 0.103585 0.500000 0.821799
O O2 0.177740 0.780021 0.765463
O O3 0.159146 0.731006 0.918784
O O4 0.999631 0.784661 0.835565
O O5 0.611373 0.500000 0.411886
O O6 0.497075 0.774632 0.394887
O O7 0.635010 0.770898 0.498582
O O8 0.697101 0.779517 0.356339
O O9 0.616691 0.500000 0.585762
O O10 0.704324 0.220933 0.640024
O O11 0.002383 0.500000 0.585751
O O12 0.903791 0.773127 0.631718
O O13 0.000000 0.777031 0.500000
O O14 0.103788 0.772363 0.629604
O O15 0.805171 0.500000 0.679500
O O16 0.823380 0.221588 0.765627
O O17 0.797930 0.500000 0.319953
O O18 0.109541 0.500000 0.169110
O O19 0.159402 0.748199 0.079408
O O20 0.106126 0.000000 0.992952
O O21 0.000000 0.289785 0.000000
#
# Coordination Sequence:
#
# PCOD9154933 Si02
#       8
#     4   4   4   4   4   4   4   4
#     4   9  15  24  37  54  77 102 127 156 191 229
#     4   8  13  20  29  43  68 103 135 158 185 222
#     4   8  13  20  29  43  68 103 135 158 185 222
#     4   9  14  18  26  43  69  98 124 151 185 221
#     4   9  14  20  30  47  71  99 128 156 186 222
#     4   9  14  20  30  47  71  99 128 156 186 222
#     4   9  15  24  37  54  77 102 127 156 191 229
#     4   9  17  27  39  55  76 101 128 154 187 232
#
# _framework density 18.055132
#
# number of rings (size 3 to 8) (size 9 to 14) (size 15 to 20)
#    0.000    3.250    1.250    1.875    0.000    4.500 
#    0.000    0.000    0.000    0.000    0.000    0.875 
#    0.000   13.000    0.000    2.750    0.000    2.500 
#
# Total GULP energy -178321.103985 kJ/mol
# GULP energy per Si atom -5572.534500 kJ/mol
# Density = 1.801404 g / cm^3
# Si number density = 18.055132 Si / 1000 Ang^3
#
#
#
# Elastic Constant Matrix: (Units=GPa)
#
#
# Indices 1 2 3 4 5 6 
#
# 1 110.9401 1.2522 90.0255 0.0000 -10.6770 0.0000
# 2 1.2522 49.3052 -2.1303 0.0000 -4.3658 0.0000
# 3 90.0255 -2.1303 181.4305 0.0000 -19.3003 0.0000
# 4 0.0000 0.0000 0.0000 -46.9891 0.0000 0.5147
# 5 -10.6770 -4.3658 -19.3003 0.0000 12.2795 0.0000
# 6 0.0000 0.0000 0.0000 0.5147 0.0000 -6.0035
#
#
#
# Elastic Compliance Matrix: (Units=1/GPa)
#
#
# Indices 1 2 3 4 5 6 
#
# 1 0.015133 -0.000582 -0.007370 0.000000 0.001367 0.000000
# 2 -0.000582 0.021201 0.001544 0.000000 0.009458 0.000000
# 3 -0.007370 0.001544 0.010283 0.000000 0.010303 0.000000
# 4 0.000000 0.000000 0.000000 -0.021302 0.000000 -0.001826
# 5 0.001367 0.009458 0.010303 0.000000 0.102181 0.000000
# 6 0.000000 0.000000 0.000000 -0.001826 0.000000 -0.166726
#
#
# Mechanical properties :
#
#
# Convention : Reuss Voigt Hill
#
# Bulk Modulus (GPa) = 29.58584 57.77450 43.68017
# Shear Modulus (GPa) = -330.09098 8.69262 -160.69918
#
# Velocity S-wave (km/s) = -13.53591 2.19657 -9.44447
# Velocity P-wave (km/s) = 15.09544 6.20497 9.73064
#
# Compressibility (1/GPa) = 0.03379995
#
# Stress axis : x y z
#
# Youngs Moduli (GPa) = 66.08149 47.16811 97.24797
#
# Poissons Ratio (x) = 0.02744 0.71675
# Poissons Ratio (y) = 0.03844 -0.15012
# Poissons Ratio (z) = 0.48704 -0.07281
#
# Static dielectric constant tensor:
#      x y z
#    x 1.590440 0.000000 -0.002630 
#    y 0.000000 1.673160 0.000000 
#    z -0.002630 0.000000 1.643810 
# 
# From -- ./inp_files/75969.got.cif
#   From: 2010.05.17/outbox.cif.g08.bks.cpg/sg10_38_cif.got.tgz:75969.got - 2010.06.03 11:33:40.
