data_PCOD9154480
_publ_section_title
;
Structure prediction by ZEFSAII (Michael W. Deem and Ramdas Pophale) SiO2 
 PCOD9154480
Probable space group: P 2/M
;
_chemical_formula_sum "Si O2"
_cell_formula_units_Z 30
_cell_length_a 9.463090
_cell_length_b 19.792094
_cell_length_c 8.483153
_cell_angle_alpha 90.000000
_cell_angle_beta 96.999646
_cell_angle_gamma 90.000000
_cell_volume 1577.004943
_symmetry_space_group_name_H-M "P 2/M"
_symmetry_group_IT_number 10
_symmetry_cell_setting 'monoclinic'
loop_
_space_group_symop_operation_xyz
x,y,z
-x,y,-z
-x,-y,-z
x,-y,z
loop_
_atom_site_type_symbol
_atom_site_label
_atom_site_fract_x
_atom_site_fract_y
_atom_site_fract_z
Si Si1 0.500000 0.298635 0.500000
Si Si2 0.039782 0.336213 0.662115
Si Si3 0.335263 0.198607 0.016383
Si Si4 0.743819 0.780270 0.352451
Si Si5 0.841339 0.925572 0.407072
Si Si6 0.160282 0.576866 0.949576
Si Si7 0.845202 0.076512 0.026613
Si Si8 0.268202 0.673269 0.221364
O O1 0.397078 0.253304 0.595244
O O2 0.611320 0.337404 0.629145
O O3 0.124609 0.270834 0.611077
O O4 0.142541 0.377424 0.792260
O O5 0.000000 0.377716 0.500000
O O6 0.891364 0.320704 0.729739
O O7 0.265059 0.213854 0.837741
O O8 0.272117 0.126554 0.057012
O O9 0.500000 0.193609 0.000000
O O10 0.303237 0.257137 0.135861
O O11 0.765885 0.854199 0.432384
O O12 0.842642 0.926319 0.216254
O O13 0.000000 0.921863 0.500000
O O14 0.782637 0.000000 0.448325
O O15 0.204040 0.500000 0.923704
O O16 0.259061 0.614168 0.090367
O O17 0.000000 0.574887 0.000000
O O18 0.830104 0.000000 0.964427
O O19 0.000000 0.102910 0.000000
#
# Coordination Sequence:
#
# PCOD9154480 Si02
#       8
#     2   4   4   4   4   4   4   4
#     4  12  24  38  58  86 124 156 194 250 298 346
#     4  11  21  36  63  94 118 153 199 245 291 344
#     4  11  22  36  57  81 115 157 194 240 298 358
#     4  11  22  37  57  87 118 152 201 249 290 350
#     4   9  19  35  55  78 111 151 189 241 296 342
#     4   9  20  39  63  92 123 152 191 244 296 350
#     4   9  20  35  54  81 109 143 194 247 295 349
#     4  11  23  38  61  89 118 157 196 241 295 349
#
# _framework density 19.023402999999998
#
# number of rings (size 3 to 8) (size 9 to 14) (size 15 to 20)
#    0.000    1.733    4.000    0.400    3.733    0.533 
#    0.000    0.667    0.000    3.600    0.000    0.000 
#    0.000    0.000    0.000    0.000    0.000    0.000 
#
# Total GULP energy -167229.458899 kJ/mol
# GULP energy per Si atom -5574.315297 kJ/mol
# Density = 1.898011 g / cm^3
# Si number density = 19.023403 Si / 1000 Ang^3
#
#
#
# Elastic Constant Matrix: (Units=GPa)
#
#
# Indices 1 2 3 4 5 6 
#
# 1 78.1567 47.1475 12.1351 0.0000 -0.3271 0.0000
# 2 47.1475 109.7996 37.9269 0.0000 13.0751 0.0000
# 3 12.1351 37.9269 70.4147 0.0000 20.3475 0.0000
# 4 0.0000 0.0000 0.0000 -26.3353 0.0000 -26.2718
# 5 -0.3271 13.0751 20.3475 0.0000 31.6444 0.0000
# 6 0.0000 0.0000 0.0000 -26.2718 0.0000 -24.4453
#
#
#
# Elastic Compliance Matrix: (Units=1/GPa)
#
#
# Indices 1 2 3 4 5 6 
#
# 1 0.017631 -0.008090 0.000369 0.000000 0.003288 0.000000
# 2 -0.008090 0.014923 -0.005942 0.000000 -0.002429 0.000000
# 3 0.000369 -0.005942 0.020422 0.000000 -0.010673 0.000000
# 4 0.000000 0.000000 0.000000 0.526468 0.000000 -0.565804
# 5 0.003288 -0.002429 -0.010673 0.000000 0.039501 0.000000
# 6 0.000000 0.000000 0.000000 -0.565804 0.000000 0.567172
#
#
# Mechanical properties :
#
#
# Convention : Reuss Voigt Hill
#
# Bulk Modulus (GPa) = 38.98444 50.31001 44.64722
# Shear Modulus (GPa) = 4.09167 6.91687 5.50427
#
# Velocity S-wave (km/s) = 1.46817 1.90889 1.70285
# Velocity P-wave (km/s) = 4.83853 5.60020 5.23324
#
# Compressibility (1/GPa) = 0.02565126
#
# Stress axis : x y z
#
# Youngs Moduli (GPa) = 56.71708 67.01157 48.96562
#
# Poissons Ratio (x) = 0.54210 -0.01805
# Poissons Ratio (y) = 0.45882 0.29094
# Poissons Ratio (z) = -0.02091 0.39816
#
# Static dielectric constant tensor:
#      x y z
#    x 1.674940 0.000000 0.061220 
#    y 0.000000 1.685060 0.000000 
#    z 0.061220 0.000000 1.780130 
# 
# From -- ./inp_files/20248.got.cif
#   From: 2010.05.17/outbox.cif.g08.bks.cpg/sg10_11_cif.got.tgz:20248.got - 2010.06.03 11:33:40.
