data_PCOD9154754
_publ_section_title
;
Structure prediction by ZEFSAII (Michael W. Deem and Ramdas Pophale) SiO2 
 PCOD9154754
Probable space group: P 2/M
;
_chemical_formula_sum "Si O2"
_cell_formula_units_Z 28
_cell_length_a 9.441409
_cell_length_b 14.003853
_cell_length_c 17.696753
_cell_angle_alpha 90.000000
_cell_angle_beta 36.844416
_cell_angle_gamma 90.000000
_cell_volume 1403.044822
_symmetry_space_group_name_H-M "P 2/M"
_symmetry_group_IT_number 10
_symmetry_cell_setting 'monoclinic'
loop_
_space_group_symop_operation_xyz
x,y,z
-x,y,-z
-x,-y,-z
x,-y,z
loop_
_atom_site_type_symbol
_atom_site_label
_atom_site_fract_x
_atom_site_fract_y
_atom_site_fract_z
Si Si1 0.897356 0.301633 0.623973
Si Si2 0.621707 0.384785 0.143162
Si Si3 0.961846 0.109538 0.247959
Si Si4 0.160644 0.115941 0.000003
Si Si5 0.230727 0.698365 0.623971
Si Si6 0.051193 0.615215 0.856837
Si Si7 0.294282 0.109538 0.247951
O O1 0.643080 0.347615 0.748973
O O2 0.849192 0.187509 0.643917
O O3 0.000000 0.333352 0.500000
O O4 0.078842 0.322496 0.614105
O O5 0.617125 0.500000 0.143927
O O6 0.747288 0.356080 0.168474
O O7 0.799757 0.353986 1.000000
O O8 0.051591 0.140840 0.127335
O O9 0.181734 0.110804 0.212174
O O10 0.780932 0.187510 0.356089
O O11 0.874572 0.000000 0.281784
O O12 0.157430 0.000000 0.000000
O O13 0.433591 0.140842 0.872676
O O14 0.000000 0.150976 0.000000
O O15 0.500000 0.666643 0.500000
O O16 0.110001 0.652386 0.748973
O O17 0.048908 0.500000 0.856071
O O18 0.280087 0.000000 0.281773
#
# Coordination Sequence:
#
# PCOD9154754 Si02
#       7
#     4   4   4   4   4   4   4
#     4  11  24  39  58  86 119 157 200 242 291 345
#     4   9  20  41  67  92 118 150 188 235 294 353
#     4   9  19  36  55  77 112 156 197 238 286 341
#     4   9  17  29  49  79 108 139 186 239 287 334
#     4  11  24  39  58  86 119 157 200 242 291 345
#     4   9  20  41  67  92 118 150 188 235 294 353
#     4   9  19  36  55  77 112 156 197 238 286 341
#
# _framework density 19.956598
#
# number of rings (size 3 to 8) (size 9 to 14) (size 15 to 20)
#    0.000    2.429    0.000    2.143    2.000    6.286 
#    0.000    1.429    0.000    0.000    0.000    0.000 
#    0.000    0.000    0.000    0.000    0.000    0.000 
#
# Total GULP energy -156351.895980 kJ/mol
# GULP energy per Si atom -5583.996285 kJ/mol
# Density = 1.991118 g / cm^3
# Si number density = 19.956598 Si / 1000 Ang^3
#
#
#
# Elastic Constant Matrix: (Units=GPa)
#
#
# Indices 1 2 3 4 5 6 
#
# 1 111.0733 33.4568 97.1454 0.0000 0.6568 0.0000
# 2 33.4568 48.8118 26.5972 0.0000 -0.0921 0.0000
# 3 97.1454 26.5972 136.3387 0.0000 -0.3213 0.0000
# 4 0.0000 0.0000 0.0000 14.2561 0.0000 -0.1460
# 5 0.6568 -0.0921 -0.3213 0.0000 31.6575 0.0000
# 6 0.0000 0.0000 0.0000 -0.1460 0.0000 25.1995
#
#
#
# Elastic Compliance Matrix: (Units=1/GPa)
#
#
# Indices 1 2 3 4 5 6 
#
# 1 0.027023 -0.008986 -0.017503 0.000000 -0.000764 0.000000
# 2 -0.008986 0.025912 0.001349 0.000000 0.000275 0.000000
# 3 -0.017503 0.001349 0.019545 0.000000 0.000565 0.000000
# 4 0.000000 0.000000 0.000000 0.070150 0.000000 0.000406
# 5 -0.000764 0.000275 0.000565 0.000000 0.031611 0.000000
# 6 0.000000 0.000000 0.000000 0.000406 0.000000 0.039686
#
#
# Mechanical properties :
#
#
# Convention : Reuss Voigt Hill
#
# Bulk Modulus (GPa) = 45.05009 67.84695 56.44852
# Shear Modulus (GPa) = 18.40901 23.49092 20.94997
#
# Velocity S-wave (km/s) = 3.04049 3.43461 3.24354
# Velocity P-wave (km/s) = 5.91178 7.05690 6.50957
#
# Compressibility (1/GPa) = 0.02219751
#
# Stress axis : x y z
#
# Youngs Moduli (GPa) = 37.00559 38.59242 51.16493
#
# Poissons Ratio (x) = 0.34680 0.89556
# Poissons Ratio (y) = 0.33254 -0.06900
# Poissons Ratio (z) = 0.64772 -0.05205
#
# Static dielectric constant tensor:
#      x y z
#    x 1.666870 0.000000 -0.000070 
#    y 0.000000 1.758540 0.000000 
#    z -0.000070 0.000000 1.661580 
# 
# From -- ./inp_files/75278.got.cif
#   From: 2010.05.17/outbox.cif.g08.bks.cpg/sg10_38_cif.got.tgz:75278.got - 2010.06.03 11:33:40.
