data_PCOD9154747
_publ_section_title
;
Structure prediction by ZEFSAII (Michael W. Deem and Ramdas Pophale) SiO2 
 PCOD9154747
Probable space group: P 2/M
;
_chemical_formula_sum "Si O2"
_cell_formula_units_Z 20
_cell_length_a 13.170284
_cell_length_b 7.501478
_cell_length_c 7.967240
_cell_angle_alpha 90.000000
_cell_angle_beta 67.364837
_cell_angle_gamma 90.000000
_cell_volume 726.506392
_symmetry_space_group_name_H-M "P 2/M"
_symmetry_group_IT_number 10
_symmetry_cell_setting 'monoclinic'
loop_
_space_group_symop_operation_xyz
x,y,z
-x,y,-z
-x,-y,-z
x,-y,z
loop_
_atom_site_type_symbol
_atom_site_label
_atom_site_fract_x
_atom_site_fract_y
_atom_site_fract_z
Si Si1 0.631906 0.283649 0.586317
Si Si2 0.828972 0.712288 0.672198
Si Si3 0.575708 0.206444 0.096268
Si Si4 0.976766 0.287258 0.238505
Si Si5 0.227492 0.289198 0.817862
O O1 0.632573 0.500000 0.580952
O O2 0.709053 0.221418 0.693074
O O3 0.694338 0.218648 0.380975
O O4 0.507683 0.226925 0.693910
O O5 0.818431 0.500000 0.706781
O O6 0.900373 0.729353 0.454295
O O7 0.906043 0.786820 0.771591
O O8 0.696605 0.272967 0.066714
O O9 0.588802 0.000000 0.051343
O O10 0.500000 0.294020 0.000000
O O11 0.996091 0.500000 0.199225
O O12 0.895839 0.220205 0.141725
O O13 0.215248 0.500000 0.799897
#
# Coordination Sequence:
#
# PCOD9154747 Si02
#       5
#     4   4   4   4   4
#     4   9  17  30  51  77  98 117 148 189 230 275
#     4   7  10  19  39  69 100 121 137 168 219 273
#     4  11  24  37  46  60  88 127 166 199 232 272
#     4   7  10  19  39  69 100 121 137 168 219 273
#     4   9  17  30  51  77  98 117 148 189 230 275
#
# _framework density 27.529008000000001
#
# number of rings (size 3 to 8) (size 9 to 14) (size 15 to 20)
#    0.000    3.400    0.000    4.800    0.000    4.800 
#    0.000    0.000    0.000    2.400    0.000   14.000 
#    0.000    0.000    0.000    0.000    0.000    0.000 
#
# Total GULP energy -111753.897105 kJ/mol
# GULP energy per Si atom -5587.694855 kJ/mol
# Density = 2.746635 g / cm^3
# Si number density = 27.529008 Si / 1000 Ang^3
#
#
#
# Elastic Constant Matrix: (Units=GPa)
#
#
# Indices 1 2 3 4 5 6 
#
# 1 301.4475 11.2812 60.4639 0.0000 27.8487 0.0000
# 2 11.2812 81.0652 -3.9351 0.0000 0.3103 0.0000
# 3 60.4639 -3.9351 109.0886 0.0000 27.3608 0.0000
# 4 0.0000 0.0000 0.0000 15.6130 0.0000 -1.0300
# 5 27.8487 0.3103 27.3608 0.0000 68.9723 0.0000
# 6 0.0000 0.0000 0.0000 -1.0300 0.0000 -53.9070
#
#
#
# Elastic Compliance Matrix: (Units=1/GPa)
#
#
# Indices 1 2 3 4 5 6 
#
# 1 0.003800 -0.000620 -0.001937 0.000000 -0.000763 0.000000
# 2 -0.000620 0.012463 0.000827 0.000000 -0.000134 0.000000
# 3 -0.001937 0.000827 0.011188 0.000000 -0.003660 0.000000
# 4 0.000000 0.000000 0.000000 0.063968 0.000000 -0.001222
# 5 -0.000763 -0.000134 -0.003660 0.000000 0.016259 0.000000
# 6 0.000000 0.000000 0.000000 -0.001222 0.000000 -0.018527
#
#
# Mechanical properties :
#
#
# Convention : Reuss Voigt Hill
#
# Bulk Modulus (GPa) = 41.68383 69.69126 55.68754
# Shear Modulus (GPa) = 49.69798 34.38842 42.04320
#
# Velocity S-wave (km/s) = 4.25349 3.53819 3.91222
# Velocity P-wave (km/s) = 6.26877 6.48554 6.37808
#
# Compressibility (1/GPa) = 0.02399012
#
# Stress axis : x y z
#
# Youngs Moduli (GPa) = 263.19138 80.23974 89.37983
#
# Poissons Ratio (x) = 0.04974 0.17312
# Poissons Ratio (y) = 0.16314 -0.07389
# Poissons Ratio (z) = 0.50978 -0.06633
#
# Static dielectric constant tensor:
#      x y z
#    x 2.132720 0.000000 0.036980 
#    y 0.000000 2.017100 0.000000 
#    z 0.036980 0.000000 2.321630 
# 
# From -- ./inp_files/18526.got.cif
#   From: 2010.05.17/outbox.cif.g08.bks.cpg/sg10_10_cif.got.tgz:18526.got - 2010.06.03 11:33:40.
