data_PCOD9154384
_publ_section_title
;
Structure prediction by ZEFSAII (Michael W. Deem and Ramdas Pophale) SiO2 
 PCOD9154384
Probable space group: P 2/M
;
_chemical_formula_sum "Si O2"
_cell_formula_units_Z 20
_cell_length_a 9.626326
_cell_length_b 11.435207
_cell_length_c 12.034206
_cell_angle_alpha 90.000000
_cell_angle_beta 129.768748
_cell_angle_gamma 90.000000
_cell_volume 1018.218101
_symmetry_space_group_name_H-M "P 2/M"
_symmetry_group_IT_number 10
_symmetry_cell_setting 'monoclinic'
loop_
_space_group_symop_operation_xyz
x,y,z
-x,y,-z
-x,-y,-z
x,-y,z
loop_
_atom_site_type_symbol
_atom_site_label
_atom_site_fract_x
_atom_site_fract_y
_atom_site_fract_z
Si Si1 0.185064 0.000000 0.952702
Si Si2 0.469278 0.773378 0.363845
Si Si3 0.229490 0.000000 0.240826
Si Si4 0.804725 0.638208 0.937327
Si Si5 0.294846 0.241477 0.901498
Si Si6 0.786100 0.864901 0.370679
O O1 0.276592 0.883930 0.952933
O O2 0.972033 0.000000 0.811765
O O3 0.203638 0.000000 0.094525
O O4 0.500000 0.714028 0.500000
O O5 0.344683 0.885926 0.327975
O O6 0.354035 0.699711 0.214638
O O7 0.655239 0.816134 0.400563
O O8 0.795779 0.500000 0.913823
O O9 0.798444 0.667846 0.064431
O O10 0.000000 0.685391 0.000000
O O11 0.232724 0.217712 0.745668
O O12 0.500000 0.278830 0.000000
O O13 0.000000 0.868957 0.500000
O O14 0.726974 0.000000 0.317456
#
# Coordination Sequence:
#
# PCOD9154384 Si02
#       6
#     2   4   2   4   4   4
#     4  11  21  32  64  97 127 168 207 259 320 381
#     4  12  25  41  65  94 134 170 213 259 318 387
#     4  11  21  36  58 100 131 162 213 256 313 386
#     4  11  26  47  70  93 120 166 224 274 319 371
#     4  12  22  40  66  93 127 165 210 265 318 379
#     4  11  25  40  59  98 142 173 201 249 321 389
#
# _framework density 19.642156
#
# number of rings (size 3 to 8) (size 9 to 14) (size 15 to 20)
#    0.000    0.600    6.000    1.800    5.600    0.800 
#    0.000    0.000    0.000    1.200    0.000    0.000 
#    0.000    0.000    0.000    0.000    0.000    0.000 
#
# Total GULP energy -111733.330102 kJ/mol
# GULP energy per Si atom -5586.666505 kJ/mol
# Density = 1.959745 g / cm^3
# Si number density = 19.642156 Si / 1000 Ang^3
#
#
#
# Elastic Constant Matrix: (Units=GPa)
#
#
# Indices 1 2 3 4 5 6 
#
# 1 135.8199 5.2589 39.2747 0.0000 1.8120 0.0000
# 2 5.2589 32.7729 9.4299 0.0000 1.5451 0.0000
# 3 39.2747 9.4299 86.8249 0.0000 -10.6431 0.0000
# 4 0.0000 0.0000 0.0000 23.4358 0.0000 2.0370
# 5 1.8120 1.5451 -10.6431 0.0000 32.4043 0.0000
# 6 0.0000 0.0000 0.0000 2.0370 0.0000 64.6870
#
#
#
# Elastic Compliance Matrix: (Units=1/GPa)
#
#
# Indices 1 2 3 4 5 6 
#
# 1 0.008574 -0.000114 -0.004089 0.000000 -0.001817 0.000000
# 2 -0.000114 0.031733 -0.003730 0.000000 -0.002732 0.000000
# 3 -0.004089 -0.003730 0.014402 0.000000 0.005137 0.000000
# 4 0.000000 0.000000 0.000000 0.042787 0.000000 -0.001347
# 5 -0.001817 -0.002732 0.005137 0.000000 0.032779 0.000000
# 6 0.000000 0.000000 0.000000 -0.001347 0.000000 0.015501
#
#
# Mechanical properties :
#
#
# Convention : Reuss Voigt Hill
#
# Bulk Modulus (GPa) = 25.74392 40.37163 33.05778
# Shear Modulus (GPa) = 28.63879 37.53571 33.08725
#
# Velocity S-wave (km/s) = 3.82255 4.37622 4.10872
# Velocity P-wave (km/s) = 5.71117 6.79214 6.27498
#
# Compressibility (1/GPa) = 0.03884412
#
# Stress axis : x y z
#
# Youngs Moduli (GPa) = 116.63686 31.51266 69.43654
#
# Poissons Ratio (x) = 0.00358 0.28390
# Poissons Ratio (y) = 0.01326 0.25899
# Poissons Ratio (z) = 0.47688 0.11754
#
# Static dielectric constant tensor:
#      x y z
#    x 1.684370 0.000000 -0.004850 
#    y 0.000000 1.660120 0.000000 
#    z -0.004850 0.000000 1.721150 
# 
# From -- ./inp_files/17787.got.cif
#   From: 2010.05.17/outbox.cif.g08.bks.cpg/sg10_9_cif.got.tgz:17787.got - 2010.06.03 11:33:40.
