data_PCOD9154631
_publ_section_title
;
Structure prediction by ZEFSAII (Michael W. Deem and Ramdas Pophale) SiO2 
 PCOD9154631
Probable space group: P 2/M
;
_chemical_formula_sum "Si O2"
_cell_formula_units_Z 18
_cell_length_a 7.636639
_cell_length_b 20.727196
_cell_length_c 9.258169
_cell_angle_alpha 90.000000
_cell_angle_beta 146.416167
_cell_angle_gamma 90.000000
_cell_volume 810.617439
_symmetry_space_group_name_H-M "P 2/M"
_symmetry_group_IT_number 10
_symmetry_cell_setting 'monoclinic'
loop_
_space_group_symop_operation_xyz
x,y,z
-x,y,-z
-x,-y,-z
x,-y,z
loop_
_atom_site_type_symbol
_atom_site_label
_atom_site_fract_x
_atom_site_fract_y
_atom_site_fract_z
Si Si1 0.430995 0.131820 0.119042
Si Si2 0.762912 0.426985 0.977040
Si Si3 0.194247 0.793134 0.394504
Si Si4 0.626845 0.000000 0.749823
Si Si5 0.261821 0.646622 0.474506
O O1 0.090164 0.167964 0.877641
O O2 0.500000 0.118984 0.000000
O O3 0.685208 0.176623 0.373139
O O4 0.456148 0.065102 0.223039
O O5 0.645372 0.500000 0.910508
O O6 0.985066 0.404449 0.259196
O O7 0.485142 0.375860 0.757829
O O8 0.000000 0.426051 0.000000
O O9 0.500000 0.796266 0.500000
O O10 0.121253 0.718360 0.375279
O O11 0.500000 0.000000 0.500000
O O12 0.000000 0.000000 0.000000
O O13 0.500000 0.644567 0.500000
#
# Coordination Sequence:
#
# PCOD9154631 Si02
#       5
#     4   4   4   2   4
#     4  12  25  42  63  92 125 156 196 248 300 347
#     4   9  15  24  40  67 107 149 185 231 296 355
#     4  11  22  39  62  87 120 162 205 246 296 359
#     4  12  25  44  69  94 121 158 201 238 289 356
#     4   9  17  28  45  72 106 147 192 237 287 348
#
# _framework density 22.205297999999999
#
# number of rings (size 3 to 8) (size 9 to 14) (size 15 to 20)
#    0.000    1.556    0.000    7.000    0.000    6.222 
#    0.000    3.333    0.000    0.000    0.000    0.000 
#    0.000   62.222    0.000    0.000    0.000    0.000 
#
# Total GULP energy -100629.900319 kJ/mol
# GULP energy per Si atom -5590.550018 kJ/mol
# Density = 2.215476 g / cm^3
# Si number density = 22.205298 Si / 1000 Ang^3
#
#
#
# Elastic Constant Matrix: (Units=GPa)
#
#
# Indices 1 2 3 4 5 6 
#
# 1 53.0994 20.0217 17.2244 0.0000 -13.3224 0.0000
# 2 20.0217 142.3278 50.6423 0.0000 0.8023 0.0000
# 3 17.2244 50.6423 151.4100 0.0000 -3.6135 0.0000
# 4 0.0000 0.0000 0.0000 129.3872 0.0000 156.2835
# 5 -13.3224 0.8023 -3.6135 0.0000 27.7934 0.0000
# 6 0.0000 0.0000 0.0000 156.2835 0.0000 273.8697
#
#
#
# Elastic Compliance Matrix: (Units=1/GPa)
#
#
# Indices 1 2 3 4 5 6 
#
# 1 0.023106 -0.002804 -0.001429 0.000000 0.010971 0.000000
# 2 -0.002804 0.008325 -0.002511 0.000000 -0.001911 0.000000
# 3 -0.001429 -0.002511 0.007616 0.000000 0.000378 0.000000
# 4 0.000000 0.000000 0.000000 0.024873 0.000000 -0.014194
# 5 0.010971 -0.001911 0.000378 0.000000 0.041343 0.000000
# 6 0.000000 0.000000 0.000000 -0.014194 0.000000 0.011751
#
#
# Mechanical properties :
#
#
# Convention : Reuss Voigt Hill
#
# Bulk Modulus (GPa) = 39.12504 58.06823 48.59664
# Shear Modulus (GPa) = 35.96599 103.47331 69.71965
#
# Velocity S-wave (km/s) = 4.02892 6.83371 5.60945
# Velocity P-wave (km/s) = 6.26904 9.40604 7.99295
#
# Compressibility (1/GPa) = 0.02555908
#
# Stress axis : x y z
#
# Youngs Moduli (GPa) = 43.27918 120.12482 131.30229
#
# Poissons Ratio (x) = 0.33680 0.18762
# Poissons Ratio (y) = 0.12135 0.32970
# Poissons Ratio (z) = 0.06184 0.30163
#
# Static dielectric constant tensor:
#      x y z
#    x 1.869030 0.000000 -0.002020 
#    y 0.000000 1.116020 0.000000 
#    z -0.002020 0.000000 1.743190 
# 
# From -- ./inp_files/20034.got.cif
#   From: 2010.05.17/outbox.cif.g08.bks.cpg/sg10_11_cif.got.tgz:20034.got - 2010.06.03 11:33:40.
