data_PCOD9154923
_publ_section_title
;
Structure prediction by ZEFSAII (Michael W. Deem and Ramdas Pophale) SiO2 
 PCOD9154923
Probable space group: P 2/M
;
_chemical_formula_sum "Si O2"
_cell_formula_units_Z 32
_cell_length_a 22.901553
_cell_length_b 9.255980
_cell_length_c 6.925795
_cell_angle_alpha 90.000000
_cell_angle_beta 106.095251
_cell_angle_gamma 90.000000
_cell_volume 1410.557953
_symmetry_space_group_name_H-M "P 2/M"
_symmetry_group_IT_number 10
_symmetry_cell_setting 'monoclinic'
loop_
_space_group_symop_operation_xyz
x,y,z
-x,y,-z
-x,-y,-z
x,-y,z
loop_
_atom_site_type_symbol
_atom_site_label
_atom_site_fract_x
_atom_site_fract_y
_atom_site_fract_z
Si Si1 0.432857 0.339473 0.015809
Si Si2 0.831904 0.834265 0.988635
Si Si3 0.801624 0.165983 0.424149
Si Si4 0.432602 0.830873 0.386110
Si Si5 0.080407 0.330782 0.386877
Si Si6 0.050853 0.667967 0.819709
Si Si7 0.301822 0.824236 0.189086
Si Si8 0.310421 0.667520 0.781610
O O1 0.419871 0.500000 0.095235
O O2 0.430866 0.205332 0.157542
O O3 0.500000 0.345553 0.000000
O O4 0.382113 0.322912 0.804625
O O5 0.815760 0.827885 0.204804
O O6 0.892681 0.741571 0.023362
O O7 0.846249 0.000000 0.957287
O O8 0.768826 0.793893 0.824335
O O9 0.858555 0.240091 0.579191
O O10 0.737505 0.245126 0.385891
O O11 0.795982 0.000000 0.473042
O O12 0.500000 0.767427 0.500000
O O13 0.362165 0.786162 0.369806
O O14 0.435473 0.000000 0.437882
O O15 0.090161 0.500000 0.350796
O O16 0.065717 0.324416 0.603750
O O17 0.018531 0.277300 0.227735
O O18 0.049594 0.500000 0.870168
O O19 0.304230 0.000000 0.158549
O O20 0.308417 0.734456 0.995789
O O21 0.292133 0.500000 0.766521
#
# Coordination Sequence:
#
# PCOD9154923 Si02
#       8
#     4   4   4   4   4   4   4   4
#     4   9  18  31  45  62  84 109 138 172 209 249
#     4   8  13  19  27  39  56  80 109 142 180 220
#     4   9  15  21  29  42  60  82 110 146 185 223
#     4   9  17  29  45  64  85 109 138 172 209 249
#     4   8  13  20  27  36  52  76 107 142 180 219
#     4   8  13  19  26  36  52  75 105 143 181 216
#     4   8  14  24  35  49  70  93 119 153 191 230
#     4   9  15  23  36  51  67  90 120 154 191 230
#
# _framework density 22.686060000000001
#
# number of rings (size 3 to 8) (size 9 to 14) (size 15 to 20)
#    0.000    3.500    0.000    2.250    0.000    4.500 
#    0.000    2.500    0.000    0.000    0.000    0.000 
#    0.000    0.000    0.000    0.000    0.000    1.250 
#
# Total GULP energy -178250.647274 kJ/mol
# GULP energy per Si atom -5570.332727 kJ/mol
# Density = 2.263443 g / cm^3
# Si number density = 22.686060 Si / 1000 Ang^3
#
#
#
# Elastic Constant Matrix: (Units=GPa)
#
#
# Indices 1 2 3 4 5 6 
#
# 1 126.3505 48.2904 69.4141 0.0000 67.4535 0.0000
# 2 48.2904 48.5934 54.2543 0.0000 39.7702 0.0000
# 3 69.4141 54.2543 165.7397 0.0000 57.9446 0.0000
# 4 0.0000 0.0000 0.0000 17.9094 0.0000 20.7494
# 5 67.4535 39.7702 57.9446 0.0000 72.3757 0.0000
# 6 0.0000 0.0000 0.0000 20.7494 0.0000 8.4033
#
#
#
# Elastic Compliance Matrix: (Units=1/GPa)
#
#
# Indices 1 2 3 4 5 6 
#
# 1 0.017119 -0.006330 -0.001022 0.000000 -0.011659 0.000000
# 2 -0.006330 0.046725 -0.007958 0.000000 -0.013405 0.000000
# 3 -0.001022 -0.007958 0.010005 0.000000 -0.002685 0.000000
# 4 0.000000 0.000000 0.000000 -0.030007 0.000000 0.074095
# 5 -0.011659 -0.013405 -0.002685 0.000000 0.034198 0.000000
# 6 0.000000 0.000000 0.000000 0.074095 0.000000 -0.063953
#
#
# Mechanical properties :
#
#
# Convention : Reuss Voigt Hill
#
# Bulk Modulus (GPa) = 23.13180 76.06680 49.59930
# Shear Modulus (GPa) = 84.58034 30.98600 57.78317
#
# Velocity S-wave (km/s) = 6.11260 3.69976 5.05233
# Velocity P-wave (km/s) = 7.74836 7.20097 7.47968
#
# Compressibility (1/GPa) = 0.04323053
#
# Stress axis : x y z
#
# Youngs Moduli (GPa) = 58.41424 21.40191 99.94808
#
# Poissons Ratio (x) = 0.13547 0.10211
# Poissons Ratio (y) = 0.36976 0.79536
# Poissons Ratio (z) = 0.05968 0.17031
#
# Static dielectric constant tensor:
#      x y z
#    x 1.958140 0.000000 -0.030110 
#    y 0.000000 1.793880 0.000000 
#    z -0.030110 0.000000 1.910270 
# 
# From -- ./inp_files/57184.got.cif
#   From: 2010.05.17/outbox.cif.g08.bks.cpg/sg10_29_cif.got.tgz:57184.got - 2010.06.03 11:33:40.
