data_PCOD9154259
_publ_section_title
;
Structure prediction by ZEFSAII (Michael W. Deem and Ramdas Pophale) SiO2 
 PCOD9154259
Probable space group: P 2/M
;
_chemical_formula_sum "Si O2"
_cell_formula_units_Z 32
_cell_length_a 22.146277
_cell_length_b 8.319661
_cell_length_c 31.808089
_cell_angle_alpha 90.000000
_cell_angle_beta 19.451850
_cell_angle_gamma 90.000000
_cell_volume 1951.673516
_symmetry_space_group_name_H-M "P 2/M"
_symmetry_group_IT_number 10
_symmetry_cell_setting 'monoclinic'
loop_
_space_group_symop_operation_xyz
x,y,z
-x,y,-z
-x,-y,-z
x,-y,z
loop_
_atom_site_type_symbol
_atom_site_label
_atom_site_fract_x
_atom_site_fract_y
_atom_site_fract_z
Si Si1 0.212573 0.805985 0.701468
Si Si2 0.556395 0.805985 0.529560
Si Si3 0.209740 0.194352 0.453696
Si Si4 0.173578 0.696393 0.913213
Si Si5 0.558649 0.308298 0.622568
Si Si6 0.876569 0.186618 0.623431
Si Si7 0.833785 0.691702 0.984997
Si Si8 0.444005 0.805647 0.219432
O O1 0.361769 0.754474 0.638229
O O2 0.292662 0.755277 0.603667
O O3 0.015588 0.743526 0.842159
O O4 0.208958 0.000000 0.704130
O O5 0.584578 0.743523 0.557669
O O6 0.556595 0.000000 0.530315
O O7 0.286480 0.246166 0.447871
O O8 0.351021 0.247472 0.324490
O O9 0.010063 0.255912 0.571216
O O10 0.203644 0.000000 0.456005
O O11 0.173168 0.500000 0.913418
O O12 0.362716 0.750340 0.768373
O O13 0.161624 0.750339 0.969462
O O14 0.000000 0.748601 0.000000
O O15 0.556372 0.500000 0.626292
O O16 0.684948 0.255910 0.733773
O O17 0.000000 0.186037 0.500000
O O18 0.843562 0.000000 0.656438
O O19 0.825728 0.500000 0.991610
O O20 0.650922 0.753831 0.083429
O O21 0.434955 0.000000 0.224696
#
# Coordination Sequence:
#
# PCOD9154259 Si02
#       8
#     4   4   4   4   4   4   4   4
#     4   9  19  36  54  70  90 118 157 205 247 279
#     4   9  19  36  54  70  90 118 157 205 247 279
#     4   9  16  28  46  67  94 126 161 196 231 274
#     4   9  18  30  41  58  91 130 158 183 221 269
#     4  11  20  30  46  69  99 129 158 191 233 283
#     4   7  12  24  43  65  88 121 160 195 229 269
#     4  11  20  30  46  69  99 129 158 191 233 283
#     4   9  16  28  46  67  94 126 161 196 231 274
#
# _framework density 16.396186
#
# number of rings (size 3 to 8) (size 9 to 14) (size 15 to 20)
#    0.000    2.750    1.250    3.750    0.000    2.000 
#    0.000    1.875    0.000    5.250    0.000    0.875 
#    0.000    7.000    0.000    0.000    0.000    0.000 
#
# Total GULP energy -178307.357209 kJ/mol
# GULP energy per Si atom -5572.104913 kJ/mol
# Density = 1.635887 g / cm^3
# Si number density = 16.396186 Si / 1000 Ang^3
#
#
#
# Elastic Constant Matrix: (Units=GPa)
#
#
# Indices 1 2 3 4 5 6 
#
# 1 146.1679 18.5878 93.5115 0.0000 -24.8475 0.0000
# 2 18.5878 11.6678 16.6779 0.0000 -2.8852 0.0000
# 3 93.5115 16.6779 116.2513 0.0000 -20.3029 0.0000
# 4 0.0000 0.0000 0.0000 12.8171 0.0000 4.7841
# 5 -24.8475 -2.8852 -20.3029 0.0000 24.9500 0.0000
# 6 0.0000 0.0000 0.0000 4.7841 0.0000 9.6444
#
#
#
# Elastic Compliance Matrix: (Units=1/GPa)
#
#
# Indices 1 2 3 4 5 6 
#
# 1 0.015465 -0.008642 -0.010123 0.000000 0.006164 0.000000
# 2 -0.008642 0.112645 -0.009835 0.000000 -0.003583 0.000000
# 3 -0.010123 -0.009835 0.018880 0.000000 0.004144 0.000000
# 4 0.000000 0.000000 0.000000 0.095750 0.000000 -0.047497
# 5 0.006164 -0.003583 0.004144 0.000000 0.049177 0.000000
# 6 0.000000 0.000000 0.000000 -0.047497 0.000000 0.127248
#
#
# Mechanical properties :
#
#
# Convention : Reuss Voigt Hill
#
# Bulk Modulus (GPa) = 11.13715 59.07126 35.10420
# Shear Modulus (GPa) = 9.87567 19.16962 14.52264
#
# Velocity S-wave (km/s) = 2.45687 3.42300 2.97936
# Velocity P-wave (km/s) = 3.85429 7.19223 5.76991
#
# Compressibility (1/GPa) = 0.08978958
#
# Stress axis : x y z
#
# Youngs Moduli (GPa) = 64.66337 8.87743 52.96648
#
# Poissons Ratio (x) = 0.07672 0.53620
# Poissons Ratio (y) = 0.55883 0.52091
# Poissons Ratio (z) = 0.65461 0.08731
#
# Static dielectric constant tensor:
#      x y z
#    x 1.557760 0.000000 -0.023410 
#    y 0.000000 1.569360 0.000000 
#    z -0.023410 0.000000 1.542230 
# 
# From -- ./inp_files/54866.got.cif
#   From: 2010.05.17/outbox.cif.g08.bks.cpg/sg10_28_cif.got.tgz:54866.got - 2010.06.03 11:33:40.
