data_PCOD9154665
_publ_section_title
;
Structure prediction by ZEFSAII (Michael W. Deem and Ramdas Pophale) SiO2 
 PCOD9154665
Probable space group: P 2/M
;
_chemical_formula_sum "Si O2"
_cell_formula_units_Z 16
_cell_length_a 9.143633
_cell_length_b 10.876792
_cell_length_c 12.506078
_cell_angle_alpha 90.000000
_cell_angle_beta 145.366455
_cell_angle_gamma 90.000000
_cell_volume 706.867377
_symmetry_space_group_name_H-M "P 2/M"
_symmetry_group_IT_number 10
_symmetry_cell_setting 'monoclinic'
loop_
_space_group_symop_operation_xyz
x,y,z
-x,y,-z
-x,-y,-z
x,-y,z
loop_
_atom_site_type_symbol
_atom_site_label
_atom_site_fract_x
_atom_site_fract_y
_atom_site_fract_z
Si Si1 0.976060 0.738389 0.106668
Si Si2 0.191502 0.000000 0.294910
Si Si3 0.964936 0.361584 0.636361
Si Si4 0.768463 0.000000 0.441255
Si Si5 0.386189 0.746203 0.741463
O O1 0.105926 0.670908 0.285086
O O2 0.674034 0.727964 0.952321
O O3 0.087179 0.877187 0.177028
O O4 0.000000 0.690906 0.000000
O O5 0.500000 0.000000 0.500000
O O6 0.106856 0.000000 0.367310
O O7 0.067019 0.500000 0.691470
O O8 0.177486 0.269877 0.711205
O O9 0.718715 0.346861 0.411523
O O10 0.615141 0.122796 0.320325
O O11 0.000000 0.000000 0.500000
#
# Coordination Sequence:
#
# PCOD9154665 Si02
#       5
#     4   2   4   2   4
#     4  12  26  42  68 101 134 176 222 271 333 404
#     4  12  24  45  69  96 142 177 211 269 344 411
#     4  11  25  45  70  96 133 183 225 276 330 386
#     4  12  19  37  69 100 128 167 212 275 335 392
#     4  11  22  43  69 100 136 170 222 277 338 395
#
# _framework density 22.635081
#
# number of rings (size 3 to 8) (size 9 to 14) (size 15 to 20)
#    0.000    0.500    5.000    4.875    0.000    3.500 
#    0.000    5.000    0.000    0.000    0.000    0.000 
#    0.000    0.000    0.000    0.000    0.000    0.000 
#
# Total GULP energy -89409.423948 kJ/mol
# GULP energy per Si atom -5588.088997 kJ/mol
# Density = 2.258356 g / cm^3
# Si number density = 22.635081 Si / 1000 Ang^3
#
#
#
# Elastic Constant Matrix: (Units=GPa)
#
#
# Indices 1 2 3 4 5 6 
#
# 1 80.4608 15.3380 41.3868 0.0000 -34.3989 0.0000
# 2 15.3380 86.0829 -0.8454 0.0000 -7.2322 0.0000
# 3 41.3868 -0.8454 93.9746 0.0000 -15.2306 0.0000
# 4 0.0000 0.0000 0.0000 -2.2929 0.0000 1.9955
# 5 -34.3989 -7.2322 -15.2306 0.0000 59.7496 0.0000
# 6 0.0000 0.0000 0.0000 1.9955 0.0000 2.7820
#
#
#
# Elastic Compliance Matrix: (Units=1/GPa)
#
#
# Indices 1 2 3 4 5 6 
#
# 1 0.021225 -0.003029 -0.007775 0.000000 0.009871 0.000000
# 2 -0.003029 0.012179 0.001460 0.000000 0.000103 0.000000
# 3 -0.007775 0.001460 0.013958 0.000000 -0.000741 0.000000
# 4 0.000000 0.000000 0.000000 -0.268505 0.000000 0.192601
# 5 0.009871 0.000103 -0.000741 0.000000 0.022243 0.000000
# 6 0.000000 0.000000 0.000000 0.192601 0.000000 0.221304
#
#
# Mechanical properties :
#
#
# Convention : Reuss Voigt Hill
#
# Bulk Modulus (GPa) = 34.87331 41.36412 38.11872
# Shear Modulus (GPa) = 98.71479 25.69033 62.20256
#
# Velocity S-wave (km/s) = 6.61106 3.37260 5.24788
# Velocity P-wave (km/s) = 8.58574 5.78618 7.32103
#
# Compressibility (1/GPa) = 0.02867522
#
# Stress axis : x y z
#
# Youngs Moduli (GPa) = 47.11368 82.10613 71.64183
#
# Poissons Ratio (x) = 0.24869 0.55702
# Poissons Ratio (y) = 0.14270 -0.10461
# Poissons Ratio (z) = 0.36631 -0.11989
#
# Static dielectric constant tensor:
#      x y z
#    x 1.367070 0.000000 0.140920 
#    y 0.000000 1.924430 0.000000 
#    z 0.140920 0.000000 1.818820 
# 
# From -- ./inp_files/41838.got.cif
#   From: 2010.05.17/outbox.cif.g08.bks.cpg/sg10_21_cif.got.tgz:41838.got - 2010.06.03 11:33:40.
