data_PCOD9154050
_publ_section_title
;
Structure prediction by ZEFSAII (Michael W. Deem and Ramdas Pophale) SiO2 
 PCOD9154050
Probable space group: P 2/M
;
_chemical_formula_sum "Si O2"
_cell_formula_units_Z 15
_cell_length_a 5.706091
_cell_length_b 20.465356
_cell_length_c 5.388809
_cell_angle_alpha 90.000000
_cell_angle_beta 86.558384
_cell_angle_gamma 90.000000
_cell_volume 628.155007
_symmetry_space_group_name_H-M "P 2/M"
_symmetry_group_IT_number 10
_symmetry_cell_setting 'monoclinic'
loop_
_space_group_symop_operation_xyz
x,y,z
-x,y,-z
-x,-y,-z
x,-y,z
loop_
_atom_site_type_symbol
_atom_site_label
_atom_site_fract_x
_atom_site_fract_y
_atom_site_fract_z
Si Si1 0.637306 0.219860 0.741495
Si Si2 0.133064 0.091636 0.244237
Si Si3 0.849448 0.359734 0.762747
Si Si4 0.500000 0.000000 0.000000
Si Si5 0.262291 0.500000 0.351401
O O1 0.500000 0.203541 0.500000
O O2 0.852873 0.170162 0.742219
O O3 0.687586 0.296877 0.740562
O O4 0.500000 0.205526 0.000000
O O5 0.000000 0.070204 0.500000
O O6 0.382983 0.057142 0.189348
O O7 0.000000 0.072600 0.000000
O O8 0.734348 0.431334 0.793554
O O9 0.000000 0.361179 0.500000
O O10 0.000000 0.348669 0.000000
O O11 0.500000 0.500000 0.500000
O O12 0.000000 0.500000 0.500000
#
# Coordination Sequence:
#
# PCOD9154050 Si02
#       5
#     4   4   4   1   2
#     4  12  24  44  71 104 144 190 242 303 365 443
#     4  12  27  48  74 106 145 191 238 304 371 445
#     4  11  23  43  68 104 145 193 245 305 370 440
#     4  12  28  50  76 108 146 182 254 286 382 438
#     4  10  23  44  70 106 152 198 254 312 382 453
#
# _framework density 23.879459000000001
#
# number of rings (size 3 to 8) (size 9 to 14) (size 15 to 20)
#    0.000    0.533    1.333    6.800    0.000    3.200 
#    0.000    6.000    0.000    0.000    0.000    0.000 
#    0.000    0.000    0.000    0.000    0.000    0.000 
#
# Total GULP energy -83634.202132 kJ/mol
# GULP energy per Si atom -5575.613475 kJ/mol
# Density = 2.382511 g / cm^3
# Si number density = 23.879459 Si / 1000 Ang^3
#
#
#
# Elastic Constant Matrix: (Units=GPa)
#
#
# Indices 1 2 3 4 5 6 
#
# 1 59.8420 7.6840 58.6550 0.0000 -13.4786 0.0000
# 2 7.6840 162.8126 18.1553 0.0000 -12.6313 0.0000
# 3 58.6550 18.1553 218.1148 0.0000 -15.4624 0.0000
# 4 0.0000 0.0000 0.0000 103.0427 0.0000 44.7588
# 5 -13.4786 -12.6313 -15.4624 0.0000 65.3408 0.0000
# 6 0.0000 0.0000 0.0000 44.7588 0.0000 69.8390
#
#
#
# Elastic Compliance Matrix: (Units=1/GPa)
#
#
# Indices 1 2 3 4 5 6 
#
# 1 0.023415 -0.000170 -0.006044 0.000000 0.003367 0.000000
# 2 -0.000170 0.006279 -0.000400 0.000000 0.001084 0.000000
# 3 -0.006044 -0.000400 0.006254 0.000000 0.000156 0.000000
# 4 0.000000 0.000000 0.000000 0.013449 0.000000 -0.008619
# 5 0.003367 0.001084 0.000156 0.000000 0.016245 0.000000
# 6 0.000000 0.000000 0.000000 -0.008619 0.000000 0.019842
#
#
# Mechanical properties :
#
#
# Convention : Reuss Voigt Hill
#
# Bulk Modulus (GPa) = 44.01352 67.75089 55.88221
# Shear Modulus (GPa) = 47.04316 71.39617 59.21967
#
# Velocity S-wave (km/s) = 4.44331 5.47389 4.98530
# Velocity P-wave (km/s) = 6.69295 8.26952 7.52265
#
# Compressibility (1/GPa) = 0.02272029
#
# Stress axis : x y z
#
# Youngs Moduli (GPa) = 42.70810 159.26691 159.88761
#
# Poissons Ratio (x) = 0.02706 0.96633
# Poissons Ratio (y) = 0.00726 0.06397
# Poissons Ratio (z) = 0.25812 0.06372
#
# Static dielectric constant tensor:
#      x y z
#    x 2.021500 0.000000 0.046700 
#    y 0.000000 1.947320 0.000000 
#    z 0.046700 0.000000 1.837600 
# 
# From -- ./inp_files/1297.got.cif
#   From: 2010.05.17/outbox.cif.g08.bks.cpg/sg10_1_cif.got.tgz:1297.got - 2010.06.03 11:33:40.
