data_PCOD9154822
_publ_section_title
;
Structure prediction by ZEFSAII (Michael W. Deem and Ramdas Pophale) SiO2 
 PCOD9154822
Probable space group: P 2/M
;
_chemical_formula_sum "Si O2"
_cell_formula_units_Z 16
_cell_length_a 8.564312
_cell_length_b 15.515284
_cell_length_c 9.837004
_cell_angle_alpha 90.000000
_cell_angle_beta 150.531147
_cell_angle_gamma 90.000000
_cell_volume 643.037542
_symmetry_space_group_name_H-M "P 2/M"
_symmetry_group_IT_number 10
_symmetry_cell_setting 'monoclinic'
loop_
_space_group_symop_operation_xyz
x,y,z
-x,y,-z
-x,-y,-z
x,-y,z
loop_
_atom_site_type_symbol
_atom_site_label
_atom_site_fract_x
_atom_site_fract_y
_atom_site_fract_z
Si Si1 0.002588 0.652996 0.348863
Si Si2 0.497367 0.099365 0.652501
Si Si3 0.692363 0.599365 0.847499
Si Si4 0.804862 0.847005 0.151137
O O1 0.368439 0.650261 0.579282
O O2 0.000000 0.617984 0.500000
O O3 0.871843 0.750001 0.250000
O O4 0.790131 0.603360 0.079426
O O5 0.500000 0.132298 0.500000
O O6 0.131280 0.103359 0.420575
O O7 0.607445 0.000000 0.735245
O O8 0.709877 0.150259 0.920720
O O9 0.636948 0.500000 0.764752
O O10 0.000000 0.632296 0.000000
O O11 0.500000 0.882017 0.000000
#
# Coordination Sequence:
#
# PCOD9154822 Si02
#       4
#     4   4   4   4
#     4  12  25  44  68  98 137 177 222 273 330 396
#     4  11  25  45  70 101 135 173 222 277 332 395
#     4  11  25  45  70 101 135 173 222 277 332 395
#     4  12  25  44  68  98 137 177 222 273 330 396
#
# _framework density 24.881906000000001
#
# number of rings (size 3 to 8) (size 9 to 14) (size 15 to 20)
#    0.000    0.500    0.000    9.000    0.000   14.000 
#    0.000    2.500    0.000    0.000    0.000    0.000 
#    0.000    0.000    0.000    0.000    0.000    0.000 
#
# Total GULP energy -89744.088327 kJ/mol
# GULP energy per Si atom -5609.005520 kJ/mol
# Density = 2.482527 g / cm^3
# Si number density = 24.881906 Si / 1000 Ang^3
#
#
#
# Elastic Constant Matrix: (Units=GPa)
#
#
# Indices 1 2 3 4 5 6 
#
# 1 82.3725 2.7027 34.3744 0.0000 10.9200 0.0000
# 2 2.7027 32.4500 14.1375 0.0000 1.4629 0.0000
# 3 34.3744 14.1375 165.4910 0.0000 -0.2957 0.0000
# 4 0.0000 0.0000 0.0000 -0.7351 0.0000 -4.8188
# 5 10.9200 1.4629 -0.2957 0.0000 65.2830 0.0000
# 6 0.0000 0.0000 0.0000 -4.8188 0.0000 36.9744
#
#
#
# Elastic Compliance Matrix: (Units=1/GPa)
#
#
# Indices 1 2 3 4 5 6 
#
# 1 0.013628 0.000211 -0.002853 0.000000 -0.002297 0.000000
# 2 0.000211 0.032046 -0.002783 0.000000 -0.000766 0.000000
# 3 -0.002853 -0.002783 0.006874 0.000000 0.000571 0.000000
# 4 0.000000 0.000000 0.000000 -0.733595 0.000000 -0.095608
# 5 -0.002297 -0.000766 0.000571 0.000000 0.015722 0.000000
# 6 0.000000 0.000000 0.000000 -0.095608 0.000000 0.014585
#
#
# Mechanical properties :
#
#
# Convention : Reuss Voigt Hill
#
# Bulk Modulus (GPa) = 23.98117 42.52697 33.25407
# Shear Modulus (GPa) = -7.98733 35.57773 13.79520
#
# Velocity S-wave (km/s) = -1.79362 3.78546 2.35718
# Velocity P-wave (km/s) = 2.31722 6.01954 4.56094
#
# Compressibility (1/GPa) = 0.04169938
#
# Stress axis : x y z
#
# Youngs Moduli (GPa) = 73.37783 31.20511 145.47663
#
# Poissons Ratio (x) = -0.00660 0.41503
# Poissons Ratio (y) = -0.01551 0.40485
# Poissons Ratio (z) = 0.20934 0.08684
#
# Static dielectric constant tensor:
#      x y z
#    x 2.018190 0.000000 -0.014080 
#    y 0.000000 1.894360 0.000000 
#    z -0.014080 0.000000 1.908010 
# 
# From -- ./inp_files/19792.got.cif
#   From: 2010.05.17/outbox.cif.g08.bks.cpg/sg10_10_cif.got.tgz:19792.got - 2010.06.03 11:33:40.
