data_PCOD9154854
_publ_section_title
;
Structure prediction by ZEFSAII (Michael W. Deem and Ramdas Pophale) SiO2 
 PCOD9154854
Probable space group: P 2/M
;
_chemical_formula_sum "Si O2"
_cell_formula_units_Z 20
_cell_length_a 19.188040
_cell_length_b 7.386756
_cell_length_c 10.373983
_cell_angle_alpha 90.000000
_cell_angle_beta 47.817791
_cell_angle_gamma 90.000000
_cell_volume 1089.571685
_symmetry_space_group_name_H-M "P 2/M"
_symmetry_group_IT_number 10
_symmetry_cell_setting 'monoclinic'
loop_
_space_group_symop_operation_xyz
x,y,z
-x,y,-z
-x,-y,-z
x,-y,z
loop_
_atom_site_type_symbol
_atom_site_label
_atom_site_fract_x
_atom_site_fract_y
_atom_site_fract_z
Si Si1 0.792917 0.215410 0.537837
Si Si2 0.424171 0.779496 0.490326
Si Si3 0.790768 0.214890 0.234541
Si Si4 0.937933 0.500000 0.449700
Si Si5 0.068502 0.500000 0.037709
Si Si6 0.577394 0.779455 0.801609
O O1 0.807391 0.249892 0.366546
O O2 0.868821 0.327983 0.522013
O O3 0.684955 0.270416 0.700555
O O4 0.801462 0.000000 0.547502
O O5 0.500000 0.717450 0.500000
O O6 0.317128 0.730078 0.657447
O O7 0.443240 0.721591 0.319583
O O8 0.426078 0.000000 0.486833
O O9 0.864109 0.326645 0.060505
O O10 0.799675 0.000000 0.203269
O O11 0.000000 0.500000 0.500000
O O12 0.007733 0.500000 0.241301
O O13 0.000000 0.500000 0.000000
O O14 0.576182 0.000000 0.802485
O O15 0.500000 0.718195 0.000000
#
# Coordination Sequence:
#
# PCOD9154854 Si02
#       6
#     4   4   4   2   2   4
#     4   9  18  36  60  82 108 144 181 220 270 323
#     4   8  14  27  48  77 113 141 163 209 267 309
#     4   9  18  34  59  87 109 137 183 225 262 321
#     4  12  26  42  55  76 112 142 177 236 284 316
#     4  12  22  38  61  80 100 142 187 230 274 318
#     4   8  14  27  50  78 106 139 177 209 248 317
#
# _framework density 18.355837000000001
#
# number of rings (size 3 to 8) (size 9 to 14) (size 15 to 20)
#    0.000    2.800    2.000    2.400    0.000    1.600 
#    3.600    1.000    0.000    0.000    0.000    0.000 
#    0.000    0.000    0.000    0.000    0.000    0.000 
#
# Total GULP energy -111604.377024 kJ/mol
# GULP energy per Si atom -5580.218851 kJ/mol
# Density = 1.831406 g / cm^3
# Si number density = 18.355837 Si / 1000 Ang^3
#
#
#
# Elastic Constant Matrix: (Units=GPa)
#
#
# Indices 1 2 3 4 5 6 
#
# 1 186.2433 48.6466 80.4576 0.0000 -4.0057 0.0000
# 2 48.6466 74.8334 35.2899 0.0000 -7.1150 0.0000
# 3 80.4576 35.2899 146.9430 0.0000 -15.0950 0.0000
# 4 0.0000 0.0000 0.0000 26.1243 0.0000 -23.5326
# 5 -4.0057 -7.1150 -15.0950 0.0000 17.0177 0.0000
# 6 0.0000 0.0000 0.0000 -23.5326 0.0000 41.5630
#
#
#
# Elastic Compliance Matrix: (Units=1/GPa)
#
#
# Indices 1 2 3 4 5 6 
#
# 1 0.007872 -0.003636 -0.003744 0.000000 -0.002988 0.000000
# 2 -0.003636 0.016930 -0.001580 0.000000 0.004821 0.000000
# 3 -0.003744 -0.001580 0.009986 0.000000 0.007316 0.000000
# 4 0.000000 0.000000 0.000000 0.078122 0.000000 0.044232
# 5 -0.002988 0.004821 0.007316 0.000000 0.066565 0.000000
# 6 0.000000 0.000000 0.000000 0.044232 0.000000 0.049104
#
#
# Mechanical properties :
#
#
# Convention : Reuss Voigt Hill
#
# Bulk Modulus (GPa) = 59.28080 81.86755 70.57417
# Shear Modulus (GPa) = 19.83166 33.18270 26.50718
#
# Velocity S-wave (km/s) = 3.29051 4.25637 3.80422
# Velocity P-wave (km/s) = 6.84120 8.29775 7.60443
#
# Compressibility (1/GPa) = 0.01686887
#
# Stress axis : x y z
#
# Youngs Moduli (GPa) = 127.02869 59.06668 100.13573
#
# Poissons Ratio (x) = 0.21476 0.37492
# Poissons Ratio (y) = 0.46187 0.15820
# Poissons Ratio (z) = 0.47562 0.09332
#
# Static dielectric constant tensor:
#      x y z
#    x 1.606740 0.000000 -0.010410 
#    y 0.000000 1.685980 0.000000 
#    z -0.010410 0.000000 1.604990 
# 
# From -- ./inp_files/31462.got.cif
#   From: 2010.05.17/outbox.cif.g08.bks.cpg/sg10_16_cif.got.tgz:31462.got - 2010.06.03 11:33:40.
