data_PCOD9154170
_publ_section_title
;
Structure prediction by ZEFSAII (Michael W. Deem and Ramdas Pophale) SiO2 
 PCOD9154170
Probable space group: P 2/M
;
_chemical_formula_sum "Si O2"
_cell_formula_units_Z 14
_cell_length_a 5.633226
_cell_length_b 19.953716
_cell_length_c 5.111769
_cell_angle_alpha 90.000000
_cell_angle_beta 86.215484
_cell_angle_gamma 90.000000
_cell_volume 573.329251
_symmetry_space_group_name_H-M "P 2/M"
_symmetry_group_IT_number 10
_symmetry_cell_setting 'monoclinic'
loop_
_space_group_symop_operation_xyz
x,y,z
-x,y,-z
-x,-y,-z
x,-y,z
loop_
_atom_site_type_symbol
_atom_site_label
_atom_site_fract_x
_atom_site_fract_y
_atom_site_fract_z
Si Si1 0.337462 0.281520 0.267538
Si Si2 0.000000 0.825001 0.500000
Si Si3 0.337143 0.924383 0.768237
Si Si4 0.239215 0.427672 0.162229
O O1 0.500000 0.265635 0.500000
O O2 0.239994 0.357209 0.310238
O O3 0.140086 0.225350 0.298917
O O4 0.500000 0.279373 0.000000
O O5 0.140190 0.873048 0.688104
O O6 0.500000 0.928959 0.500000
O O7 0.249072 0.000000 0.833756
O O8 0.500000 0.902386 0.000000
O O9 0.232215 0.500000 0.305909
O O10 0.500000 0.427690 0.000000
O O11 0.000000 0.426131 0.000000
#
# Coordination Sequence:
#
# PCOD9154170 Si02
#       4
#     4   2   4   4
#     4  11  28  47  69 107 151 193 248 309 379 456
#     4  12  27  46  77 110 150 204 240 312 387 466
#     4  10  24  48  75 107 144 189 250 308 368 454
#     4   9  20  43  73 103 144 199 258 318 379 448
#
# _framework density 24.418776999999999
#
# number of rings (size 3 to 8) (size 9 to 14) (size 15 to 20)
#    0.000    1.714    0.000    1.286    8.000    8.571 
#    0.000    5.000    0.000    2.571    0.000    0.000 
#    0.000    0.000    0.000    0.000    0.000    0.000 
#
# Total GULP energy -78320.287665 kJ/mol
# GULP energy per Si atom -5594.306262 kJ/mol
# Density = 2.436320 g / cm^3
# Si number density = 24.418777 Si / 1000 Ang^3
#
#
#
# Elastic Constant Matrix: (Units=GPa)
#
#
# Indices 1 2 3 4 5 6 
#
# 1 128.1992 81.9737 40.0627 0.0000 -2.7055 0.0000
# 2 81.9737 214.3764 15.2072 0.0000 4.7680 0.0000
# 3 40.0627 15.2072 116.1436 0.0000 1.3009 0.0000
# 4 0.0000 0.0000 0.0000 116.8016 0.0000 33.7991
# 5 -2.7055 4.7680 1.3009 0.0000 34.3201 0.0000
# 6 0.0000 0.0000 0.0000 33.7991 0.0000 106.3256
#
#
#
# Elastic Compliance Matrix: (Units=1/GPa)
#
#
# Indices 1 2 3 4 5 6 
#
# 1 0.011630 -0.004237 -0.003475 0.000000 0.001637 0.000000
# 2 -0.004237 0.006266 0.000655 0.000000 -0.001229 0.000000
# 3 -0.003475 0.000655 0.009731 0.000000 -0.000734 0.000000
# 4 0.000000 0.000000 0.000000 0.009429 0.000000 -0.002997
# 5 0.001637 -0.001229 -0.000734 0.000000 0.029465 0.000000
# 6 0.000000 0.000000 0.000000 -0.002997 0.000000 0.010358
#
#
# Mechanical properties :
#
#
# Convention : Reuss Voigt Hill
#
# Bulk Modulus (GPa) = 74.00653 81.46738 77.73695
# Shear Modulus (GPa) = 52.35701 72.92117 62.63909
#
# Velocity S-wave (km/s) = 4.63550 5.47061 5.07028
# Velocity P-wave (km/s) = 7.68267 8.56379 8.13517
#
# Compressibility (1/GPa) = 0.01351232
#
# Stress axis : x y z
#
# Youngs Moduli (GPa) = 85.98258 159.59746 102.76139
#
# Poissons Ratio (x) = 0.67623 0.35713
# Poissons Ratio (y) = 0.36432 -0.06730
# Poissons Ratio (z) = 0.29882 -0.10452
#
# Static dielectric constant tensor:
#      x y z
#    x 1.960170 0.000000 -0.073410 
#    y 0.000000 1.957130 0.000000 
#    z -0.073410 0.000000 1.945610 
# 
# From -- ./inp_files/1154.got.cif
#   From: 2010.05.17/outbox.cif.g08.bks.cpg/sg10_1_cif.got.tgz:1154.got - 2010.06.03 11:33:40.
