data_PCOD9154014
_publ_section_title
;
Structure prediction by ZEFSAII (Michael W. Deem and Ramdas Pophale) SiO2 
 PCOD9154014
Probable space group: P 2/M
;
_chemical_formula_sum "Si O2"
_cell_formula_units_Z 20
_cell_length_a 15.475729
_cell_length_b 11.714190
_cell_length_c 12.266219
_cell_angle_alpha 90.000000
_cell_angle_beta 27.013148
_cell_angle_gamma 90.000000
_cell_volume 1009.988427
_symmetry_space_group_name_H-M "P 2/M"
_symmetry_group_IT_number 10
_symmetry_cell_setting 'monoclinic'
loop_
_space_group_symop_operation_xyz
x,y,z
-x,y,-z
-x,-y,-z
x,-y,z
loop_
_atom_site_type_symbol
_atom_site_label
_atom_site_fract_x
_atom_site_fract_y
_atom_site_fract_z
Si Si1 0.078776 0.813548 0.739627
Si Si2 0.715711 0.868047 0.274187
Si Si3 0.731217 0.365888 0.864677
Si Si4 0.893404 0.123048 0.735313
Si Si5 0.726240 0.628350 0.617827
O O1 0.215275 0.865593 0.678340
O O2 0.179143 0.702465 0.580883
O O3 0.036783 0.880496 0.675773
O O4 0.874031 0.800325 0.028052
O O5 0.500000 0.828355 0.500000
O O6 0.726208 0.000000 0.224340
O O7 0.785680 0.500000 0.831688
O O8 0.796778 0.249352 0.851564
O O9 0.786502 0.347154 0.675181
O O10 0.502049 0.363481 0.127710
O O11 0.000000 0.122080 0.500000
O O12 0.782174 0.000000 0.864837
O O13 0.781897 0.500000 0.534468
#
# Coordination Sequence:
#
# PCOD9154014 Si02
#       5
#     4   4   4   4   4
#     4  11  21  39  63  89 123 157 205 258 311 367
#     4  10  23  43  64  84 113 164 218 258 305 373
#     4   9  19  38  60  88 127 174 215 244 294 380
#     4  11  22  35  54  93 136 162 196 256 320 375
#     4   9  19  37  62  89 121 164 212 255 299 367
#
# _framework density 19.802209000000001
#
# number of rings (size 3 to 8) (size 9 to 14) (size 15 to 20)
#    0.000    2.000    2.000    3.600    2.800    1.200 
#    0.000    6.000    0.000    1.200    0.000    0.000 
#    0.000    0.000    0.000    0.000    0.000    0.000 
#
# Total GULP energy -111353.495232 kJ/mol
# GULP energy per Si atom -5567.674762 kJ/mol
# Density = 1.975714 g / cm^3
# Si number density = 19.802209 Si / 1000 Ang^3
#
#
#
# Elastic Constant Matrix: (Units=GPa)
#
#
# Indices 1 2 3 4 5 6 
#
# 1 112.6361 33.1982 43.9785 0.0000 3.2227 0.0000
# 2 33.1982 142.5108 40.7627 0.0000 -4.3013 0.0000
# 3 43.9785 40.7627 95.9609 0.0000 -1.2234 0.0000
# 4 0.0000 0.0000 0.0000 28.6223 0.0000 7.1369
# 5 3.2227 -4.3013 -1.2234 0.0000 31.3164 0.0000
# 6 0.0000 0.0000 0.0000 7.1369 0.0000 29.3723
#
#
#
# Elastic Compliance Matrix: (Units=1/GPa)
#
#
# Indices 1 2 3 4 5 6 
#
# 1 0.011083 -0.001330 -0.004533 0.000000 -0.001500 0.000000
# 2 -0.001330 0.008176 -0.002849 0.000000 0.001149 0.000000
# 3 -0.004533 -0.002849 0.013716 0.000000 0.000611 0.000000
# 4 0.000000 0.000000 0.000000 0.037191 0.000000 -0.009037
# 5 -0.001500 0.001149 0.000611 0.000000 0.032268 0.000000
# 6 0.000000 0.000000 0.000000 -0.009037 0.000000 0.036241
#
#
# Mechanical properties :
#
#
# Convention : Reuss Voigt Hill
#
# Bulk Modulus (GPa) = 64.30526 65.22075 64.76300
# Shear Modulus (GPa) = 31.00082 33.40675 32.20378
#
# Velocity S-wave (km/s) = 3.96096 4.11179 4.03708
# Velocity P-wave (km/s) = 7.31186 7.45319 7.38286
#
# Compressibility (1/GPa) = 0.01555083
#
# Stress axis : x y z
#
# Youngs Moduli (GPa) = 90.22609 122.30203 72.90492
#
# Poissons Ratio (x) = 0.16272 0.33051
# Poissons Ratio (y) = 0.12004 0.20770
# Poissons Ratio (z) = 0.40903 0.34842
#
# Static dielectric constant tensor:
#      x y z
#    x 1.722970 0.000000 -0.033250 
#    y 0.000000 1.745730 0.000000 
#    z -0.033250 0.000000 1.697080 
# 
# From -- ./inp_files/46852.got.cif
#   From: 2010.05.17/outbox.cif.g08.bks.cpg/sg10_24_cif.got.tgz:46852.got - 2010.06.03 11:33:40.
