data_PCOD9154135
_publ_section_title
;
Structure prediction by ZEFSAII (Michael W. Deem and Ramdas Pophale) SiO2 
 PCOD9154135
Probable space group: P 2/M
;
_chemical_formula_sum "Si O2"
_cell_formula_units_Z 20
_cell_length_a 11.945667
_cell_length_b 8.942012
_cell_length_c 9.572476
_cell_angle_alpha 90.000000
_cell_angle_beta 74.403208
_cell_angle_gamma 90.000000
_cell_volume 984.864135
_symmetry_space_group_name_H-M "P 2/M"
_symmetry_group_IT_number 10
_symmetry_cell_setting 'monoclinic'
loop_
_space_group_symop_operation_xyz
x,y,z
-x,y,-z
-x,-y,-z
x,-y,z
loop_
_atom_site_type_symbol
_atom_site_label
_atom_site_fract_x
_atom_site_fract_y
_atom_site_fract_z
Si Si1 0.887736 0.675578 0.138086
Si Si2 0.973853 0.173813 0.672749
Si Si3 0.663923 0.176727 0.074547
Si Si4 0.277559 0.322364 0.226685
Si Si5 0.545045 0.822230 0.637833
O O1 0.858728 0.500000 0.157019
O O2 0.780723 0.765526 0.109753
O O3 0.927933 0.741986 0.272056
O O4 0.000000 0.690648 0.000000
O O5 0.850141 0.251067 0.740364
O O6 0.000000 0.180617 0.500000
O O7 0.968988 0.000000 0.717748
O O8 0.557918 0.201183 0.216043
O O9 0.671186 0.000000 0.042370
O O10 0.653678 0.263512 0.932322
O O11 0.269267 0.500000 0.227176
O O12 0.343708 0.264805 0.341903
O O13 0.500000 0.777225 0.500000
O O14 0.571771 0.000000 0.624223
#
# Coordination Sequence:
#
# PCOD9154135 Si02
#       5
#     4   4   4   4   4
#     4  11  23  40  64  97 132 165 205 257 318 377
#     4  11  25  43  66  94 127 169 214 258 310 375
#     4  11  23  41  68  95 124 169 217 261 310 371
#     4  12  25  42  65  95 129 167 210 260 320 377
#     4  10  24  45  67  93 125 164 213 265 315 374
#
# _framework density 20.307372000000001
#
# number of rings (size 3 to 8) (size 9 to 14) (size 15 to 20)
#    0.000    1.000    2.000    4.200    2.800    6.800 
#    0.000    0.000    0.000    0.000    0.000    0.000 
#    0.000    0.000    0.000    0.000    0.000    0.000 
#
# Total GULP energy -111957.555795 kJ/mol
# GULP energy per Si atom -5597.877790 kJ/mol
# Density = 2.026115 g / cm^3
# Si number density = 20.307372 Si / 1000 Ang^3
#
#
#
# Elastic Constant Matrix: (Units=GPa)
#
#
# Indices 1 2 3 4 5 6 
#
# 1 57.4106 6.8216 1.9087 0.0000 14.9377 0.0000
# 2 6.8216 56.7003 16.9127 0.0000 -9.2217 0.0000
# 3 1.9087 16.9127 69.4476 0.0000 17.4907 0.0000
# 4 0.0000 0.0000 0.0000 69.6884 0.0000 94.2350
# 5 14.9377 -9.2217 17.4907 0.0000 30.8989 0.0000
# 6 0.0000 0.0000 0.0000 94.2350 0.0000 65.6897
#
#
#
# Elastic Compliance Matrix: (Units=1/GPa)
#
#
# Indices 1 2 3 4 5 6 
#
# 1 0.022048 -0.006613 0.004882 0.000000 -0.015396 0.000000
# 2 -0.006613 0.023855 -0.009593 0.000000 0.015747 0.000000
# 3 0.004882 -0.009593 0.020896 0.000000 -0.017052 0.000000
# 4 0.000000 0.000000 0.000000 -0.015268 0.000000 0.021903
# 5 -0.015396 0.015747 -0.017052 0.000000 0.054158 0.000000
# 6 0.000000 0.000000 0.000000 0.021903 0.000000 -0.016198
#
#
# Mechanical properties :
#
#
# Convention : Reuss Voigt Hill
#
# Bulk Modulus (GPa) = 22.65014 26.09383 24.37199
# Shear Modulus (GPa) = 39.41474 43.78312 41.59893
#
# Velocity S-wave (km/s) = 4.41035 4.64833 4.53091
# Velocity P-wave (km/s) = 6.09203 6.45652 6.27692
#
# Compressibility (1/GPa) = 0.04414983
#
# Stress axis : x y z
#
# Youngs Moduli (GPa) = 45.35644 41.92040 47.85599
#
# Poissons Ratio (x) = 0.27720 -0.23363
# Poissons Ratio (y) = 0.29993 0.45911
# Poissons Ratio (z) = -0.22142 0.40216
#
# Static dielectric constant tensor:
#      x y z
#    x 1.697390 0.000000 -0.001270 
#    y 0.000000 1.677610 0.000000 
#    z -0.001270 0.000000 1.723290 
# 
# From -- ./inp_files/22099.got.cif
#   From: 2010.05.17/outbox.cif.g08.bks.cpg/sg10_12_cif.got.tgz:22099.got - 2010.06.03 11:33:40.
