data_PCOD9154602
_publ_section_title
;
Structure prediction by ZEFSAII (Michael W. Deem and Ramdas Pophale) SiO2 
 PCOD9154602
Probable space group: P 2/M
;
_chemical_formula_sum "Si O2"
_cell_formula_units_Z 32
_cell_length_a 11.033433
_cell_length_b 7.878551
_cell_length_c 14.865986
_cell_angle_alpha 90.000000
_cell_angle_beta 101.590784
_cell_angle_gamma 90.000000
_cell_volume 1265.910113
_symmetry_space_group_name_H-M "P 2/M"
_symmetry_group_IT_number 10
_symmetry_cell_setting 'monoclinic'
loop_
_space_group_symop_operation_xyz
x,y,z
-x,y,-z
-x,-y,-z
x,-y,z
loop_
_atom_site_type_symbol
_atom_site_label
_atom_site_fract_x
_atom_site_fract_y
_atom_site_fract_z
Si Si1 0.446913 0.696605 0.395689
Si Si2 0.192510 0.694406 0.777377
Si Si3 0.807489 0.805593 0.722623
Si Si4 0.106581 0.207937 0.448172
Si Si5 0.553087 0.196606 0.104311
Si Si6 0.106582 0.707938 0.948173
Si Si7 0.696852 0.303306 0.883736
Si Si8 0.696852 0.196693 0.383736
O O1 0.500000 0.755709 0.500000
O O2 0.408941 0.500000 0.396790
O O3 0.330253 0.797902 0.341819
O O4 0.568556 0.707655 0.351292
O O5 0.159918 0.500000 0.753825
O O6 0.330252 0.702097 0.841819
O O7 0.106200 0.764696 0.844676
O O8 0.209460 0.788803 0.685999
O O9 0.893799 0.735304 0.655324
O O10 0.790539 0.711197 0.814001
O O11 0.840080 0.000000 0.746174
O O12 0.232183 0.260642 0.517376
O O13 0.000000 0.264038 0.500000
O O14 0.105262 0.000000 0.445861
O O15 0.431445 0.207658 0.148709
O O16 0.591059 0.000000 0.103210
O O17 0.500000 0.255709 0.000000
O O18 0.105269 0.500000 0.945862
O O19 0.232183 0.760649 0.017376
O O20 0.000000 0.764034 0.000000
O O21 0.665929 0.500000 0.890681
O O22 0.665925 0.000000 0.390677
#
# Coordination Sequence:
#
# PCOD9154602 Si02
#       8
#     4   4   4   4   4   4   4   4
#     4  11  22  37  60  88 120 152 190 239 291 347
#     4  11  22  38  61  88 119 154 194 237 288 346
#     4  11  22  38  61  88 119 154 194 237 288 346
#     4   9  20  39  61  84 114 155 198 239 286 343
#     4  11  22  37  60  88 120 152 190 239 291 347
#     4   9  20  39  61  84 114 155 198 239 286 343
#     4  11  22  38  61  88 119 154 194 237 288 346
#     4  11  22  38  61  88 119 154 194 237 288 346
#
# _framework density 25.278255000000001
#
# number of rings (size 3 to 8) (size 9 to 14) (size 15 to 20)
#    0.000    1.500    2.500    3.000    0.000    2.000 
#    0.000    0.000    0.000   10.500    0.000    0.000 
#    0.000    0.000    0.000    0.000    0.000    0.000 
#
# Total GULP energy -179085.913513 kJ/mol
# GULP energy per Si atom -5596.434797 kJ/mol
# Density = 2.522072 g / cm^3
# Si number density = 25.278255 Si / 1000 Ang^3
#
#
#
# Elastic Constant Matrix: (Units=GPa)
#
#
# Indices 1 2 3 4 5 6 
#
# 1 74.1413 -1.6663 5.0487 0.0000 -25.3551 0.0000
# 2 -1.6663 66.2085 -0.3492 0.0000 -0.3712 0.0000
# 3 5.0487 -0.3492 122.3156 0.0000 -23.1578 0.0000
# 4 0.0000 0.0000 0.0000 21.8783 0.0000 -6.7075
# 5 -25.3551 -0.3712 -23.1578 0.0000 49.5699 0.0000
# 6 0.0000 0.0000 0.0000 -6.7075 0.0000 15.7786
#
#
#
# Elastic Compliance Matrix: (Units=1/GPa)
#
#
# Indices 1 2 3 4 5 6 
#
# 1 0.016473 0.000470 0.001006 0.000000 0.008900 0.000000
# 2 0.000470 0.015118 0.000099 0.000000 0.000400 0.000000
# 3 0.001006 0.000099 0.009031 0.000000 0.004734 0.000000
# 4 0.000000 0.000000 0.000000 0.052557 0.000000 0.022342
# 5 0.008900 0.000400 0.004734 0.000000 0.026941 0.000000
# 6 0.000000 0.000000 0.000000 0.022342 0.000000 0.072875
#
#
# Mechanical properties :
#
#
# Convention : Reuss Voigt Hill
#
# Bulk Modulus (GPa) = 22.84471 29.85908 26.35190
# Shear Modulus (GPa) = 24.45766 34.75416 29.60591
#
# Velocity S-wave (km/s) = 3.11390 3.71194 3.42599
# Velocity P-wave (km/s) = 4.68886 5.49628 5.10855
#
# Compressibility (1/GPa) = 0.04377381
#
# Stress axis : x y z
#
# Youngs Moduli (GPa) = 60.70400 66.14462 110.73361
#
# Poissons Ratio (x) = -0.03107 -0.11144
# Poissons Ratio (y) = -0.02852 -0.01102
# Poissons Ratio (z) = -0.06109 -0.00658
#
# Static dielectric constant tensor:
#      x y z
#    x 2.047290 0.000000 -0.058320 
#    y 0.000000 1.866570 0.000000 
#    z -0.058320 0.000000 2.029900 
# 
# From -- ./inp_files/63790.got.cif
#   From: 2010.05.17/outbox.cif.g08.bks.cpg/sg10_32_cif.got.tgz:63790.got - 2010.06.03 11:33:40.
