data_PCOD9154055
_publ_section_title
;
Structure prediction by ZEFSAII (Michael W. Deem and Ramdas Pophale) SiO2 
 PCOD9154055
Probable space group: P 2/M
;
_chemical_formula_sum "Si O2"
_cell_formula_units_Z 17
_cell_length_a 5.149809
_cell_length_b 24.412786
_cell_length_c 5.325378
_cell_angle_alpha 90.000000
_cell_angle_beta 85.661921
_cell_angle_gamma 90.000000
_cell_volume 667.594734
_symmetry_space_group_name_H-M "P 2/M"
_symmetry_group_IT_number 10
_symmetry_cell_setting 'monoclinic'
loop_
_space_group_symop_operation_xyz
x,y,z
-x,y,-z
-x,-y,-z
x,-y,z
loop_
_atom_site_type_symbol
_atom_site_label
_atom_site_fract_x
_atom_site_fract_y
_atom_site_fract_z
Si Si1 0.233872 0.000000 0.676006
Si Si2 0.734420 0.396364 0.180873
Si Si3 0.500000 0.305030 0.500000
Si Si4 0.666217 0.880632 0.231150
Si Si5 0.500000 0.500000 0.500000
Si Si6 0.142261 0.235199 0.747315
O O1 0.500000 0.000000 0.500000
O O2 0.230146 0.057823 0.817196
O O3 0.000000 0.000000 0.500000
O O4 0.717878 0.348825 0.392163
O O5 0.662556 0.452126 0.331090
O O6 0.500000 0.385418 0.000000
O O7 0.000000 0.399517 0.000000
O O8 0.434586 0.259237 0.717048
O O9 0.500000 0.881383 0.500000
O O10 0.861868 0.830545 0.247937
O O11 0.500000 0.866679 0.000000
O O12 0.000000 0.251564 0.500000
O O13 0.000000 0.257678 0.000000
#
# Coordination Sequence:
#
# PCOD9154055 Si02
#       6
#     2   4   2   4   1   4
#     4  10  23  44  74 104 148 193 249 315 394 472
#     4  11  26  46  75 110 155 202 258 316 384 451
#     4  11  28  43  72 101 154 193 268 312 394 449
#     4  11  23  45  70 105 145 192 252 319 394 472
#     4  10  24  46  76 116 152 208 252 324 370 468
#     4  12  27  45  74 105 146 200 260 323 395 469
#
# _framework density 25.464552999999999
#
# number of rings (size 3 to 8) (size 9 to 14) (size 15 to 20)
#    0.000    0.941    1.176    3.882    6.588    5.647 
#    0.000    5.294    0.000    0.000    0.000    0.000 
#    0.000    0.000    0.000    0.000    0.000    0.000 
#
# Total GULP energy -94684.323333 kJ/mol
# GULP energy per Si atom -5569.666078 kJ/mol
# Density = 2.540659 g / cm^3
# Si number density = 25.464553 Si / 1000 Ang^3
#
#
#
# Elastic Constant Matrix: (Units=GPa)
#
#
# Indices 1 2 3 4 5 6 
#
# 1 141.4227 24.1055 89.1161 0.0000 -26.8970 0.0000
# 2 24.1055 208.9671 45.9668 0.0000 -16.7616 0.0000
# 3 89.1161 45.9668 201.4183 0.0000 -41.2382 0.0000
# 4 0.0000 0.0000 0.0000 -25.9843 0.0000 -111.9988
# 5 -26.8970 -16.7616 -41.2382 0.0000 83.1058 0.0000
# 6 0.0000 0.0000 0.0000 -111.9988 0.0000 -421.4962
#
#
#
# Elastic Compliance Matrix: (Units=1/GPa)
#
#
# Indices 1 2 3 4 5 6 
#
# 1 0.009906 -0.000146 -0.004117 0.000000 0.001133 0.000000
# 2 -0.000146 0.005059 -0.000991 0.000000 0.000481 0.000000
# 3 -0.004117 -0.000991 0.007457 0.000000 0.002167 0.000000
# 4 0.000000 0.000000 0.000000 0.264853 0.000000 -0.070376
# 5 0.001133 0.000481 0.002167 0.000000 0.013572 0.000000
# 6 0.000000 0.000000 0.000000 -0.070376 0.000000 0.016328
#
#
# Mechanical properties :
#
#
# Convention : Reuss Voigt Hill
#
# Bulk Modulus (GPa) = 83.95112 96.68724 90.31918
# Shear Modulus (GPa) = 15.07593 -46.70032 -15.81219
#
# Velocity S-wave (km/s) = 2.43582 -4.28709 -2.49459
# Velocity P-wave (km/s) = 6.39925 3.68052 5.21999
#
# Compressibility (1/GPa) = 0.01191169
#
# Stress axis : x y z
#
# Youngs Moduli (GPa) = 100.94841 197.66895 134.11015
#
# Poissons Ratio (x) = 0.02888 0.55219
# Poissons Ratio (y) = 0.01475 0.13296
# Poissons Ratio (z) = 0.41565 0.19597
#
# Static dielectric constant tensor:
#      x y z
#    x 2.228920 0.000000 0.021840 
#    y 0.000000 2.100770 0.000000 
#    z 0.021840 0.000000 1.949280 
# 
# From -- ./inp_files/1659.got.cif
#   From: 2010.05.17/outbox.cif.g08.bks.cpg/sg10_1_cif.got.tgz:1659.got - 2010.06.03 11:33:40.
