data_PCOD9154809
_publ_section_title
;
Structure prediction by ZEFSAII (Michael W. Deem and Ramdas Pophale) SiO2 
 PCOD9154809
Probable space group: P 2/M
;
_chemical_formula_sum "Si O2"
_cell_formula_units_Z 24
_cell_length_a 18.071829
_cell_length_b 7.483726
_cell_length_c 22.050365
_cell_angle_alpha 90.000000
_cell_angle_beta 18.640236
_cell_angle_gamma 90.000000
_cell_volume 953.182897
_symmetry_space_group_name_H-M "P 2/M"
_symmetry_group_IT_number 10
_symmetry_cell_setting 'monoclinic'
loop_
_space_group_symop_operation_xyz
x,y,z
-x,y,-z
-x,-y,-z
x,-y,z
loop_
_atom_site_type_symbol
_atom_site_label
_atom_site_fract_x
_atom_site_fract_y
_atom_site_fract_z
Si Si1 0.753995 0.795577 0.806566
Si Si2 0.246440 0.289027 0.396529
Si Si3 0.566209 0.297048 0.626737
Si Si4 0.939296 0.704412 0.920918
Si Si5 0.720796 0.282663 0.969293
Si Si6 0.349270 0.705784 0.677220
O O1 0.972917 0.727980 0.598105
O O2 0.729658 0.000000 0.806469
O O3 0.500000 0.706896 0.000000
O O4 0.799174 0.781721 0.843226
O O5 0.292091 0.500000 0.365906
O O6 0.288837 0.211966 0.431342
O O7 0.454462 0.224469 0.191461
O O8 0.659521 0.500000 0.543596
O O9 0.313057 0.306672 0.853988
O O10 0.506350 0.213618 0.608422
O O11 0.025916 0.500000 0.844578
O O12 0.890172 0.779168 0.892145
O O13 0.109967 0.786695 0.838377
O O14 0.726598 0.500000 0.964527
O O15 0.500000 0.700737 0.500000
O O16 0.299823 0.500000 0.736532
#
# Coordination Sequence:
#
# PCOD9154809 Si02
#       6
#     4   4   4   4   4   4
#     4  11  25  41  57  80 109 142 178 219 273 335
#     4   9  19  36  59  85 111 142 181 225 272 320
#     4   8  14  25  41  65 100 138 172 210 257 306
#     4   8  14  25  41  65 100 138 172 210 257 306
#     4   9  19  36  59  85 111 142 181 225 272 320
#     4   9  15  19  31  63 103 140 171 202 250 306
#
# _framework density 25.178799999999999
#
# number of rings (size 3 to 8) (size 9 to 14) (size 15 to 20)
#    0.000    3.000    0.000    3.000    2.333    4.667 
#    0.000    3.333    0.000    0.000    0.000    2.333 
#    0.000    5.333    0.000    0.000    0.000    0.000 
#
# Total GULP energy -133826.209185 kJ/mol
# GULP energy per Si atom -5576.092049 kJ/mol
# Density = 2.512149 g / cm^3
# Si number density = 25.178800 Si / 1000 Ang^3
#
#
#
# Elastic Constant Matrix: (Units=GPa)
#
#
# Indices 1 2 3 4 5 6 
#
# 1 45.4621 -5.3136 3.1927 0.0000 22.6796 0.0000
# 2 -5.3136 70.4193 2.8896 0.0000 -4.0155 0.0000
# 3 3.1927 2.8896 142.2323 0.0000 -3.6742 0.0000
# 4 0.0000 0.0000 0.0000 72.3847 0.0000 13.4035
# 5 22.6796 -4.0155 -3.6742 0.0000 16.7643 0.0000
# 6 0.0000 0.0000 0.0000 13.4035 0.0000 27.0235
#
#
#
# Elastic Compliance Matrix: (Units=1/GPa)
#
#
# Indices 1 2 3 4 5 6 
#
# 1 0.069887 -0.000003 -0.004034 0.000000 -0.095431 0.000000
# 2 -0.000003 0.014403 -0.000205 0.000000 0.003409 0.000000
# 3 -0.004034 -0.000205 0.007307 0.000000 0.007010 0.000000
# 4 0.000000 0.000000 0.000000 0.015212 0.000000 -0.007545
# 5 -0.095431 0.003409 0.007010 0.000000 0.191108 0.000000
# 6 0.000000 0.000000 0.000000 -0.007545 0.000000 0.040747
#
#
# Mechanical properties :
#
#
# Convention : Reuss Voigt Hill
#
# Bulk Modulus (GPa) = 12.03160 28.85012 20.44086
# Shear Modulus (GPa) = 13.33864 40.39083 26.86473
#
# Velocity S-wave (km/s) = 2.30414 4.00954 3.26998
# Velocity P-wave (km/s) = 3.44494 5.73744 4.73211
#
# Compressibility (1/GPa) = 0.08311447
#
# Stress axis : x y z
#
# Youngs Moduli (GPa) = 14.30881 69.42892 136.86384
#
# Poissons Ratio (x) = 0.00019 0.55210
# Poissons Ratio (y) = 0.00004 0.02799
# Poissons Ratio (z) = 0.05772 0.01420
#
# Static dielectric constant tensor:
#      x y z
#    x 2.070840 0.000000 -0.095440 
#    y 0.000000 2.080590 0.000000 
#    z -0.095440 0.000000 2.038390 
# 
# From -- ./inp_files/90016.got.cif
#   From: 2010.05.17/outbox.cif.g08.bks.cpg/sg10_46_cif.got.tgz:90016.got - 2010.06.03 11:33:40.
