data_PCOD9154106
_publ_section_title
;
Structure prediction by ZEFSAII (Michael W. Deem and Ramdas Pophale) SiO2 
 PCOD9154106
Probable space group: P 2/M
;
_chemical_formula_sum "Si O2"
_cell_formula_units_Z 15
_cell_length_a 29.361009
_cell_length_b 5.167231
_cell_length_c 16.646063
_cell_angle_alpha 90.000000
_cell_angle_beta 18.616606
_cell_angle_gamma 90.000000
_cell_volume 806.212466
_symmetry_space_group_name_H-M "P 2/M"
_symmetry_group_IT_number 10
_symmetry_cell_setting 'monoclinic'
loop_
_space_group_symop_operation_xyz
x,y,z
-x,y,-z
-x,-y,-z
x,-y,z
loop_
_atom_site_type_symbol
_atom_site_label
_atom_site_fract_x
_atom_site_fract_y
_atom_site_fract_z
Si Si1 0.565251 0.500000 0.979543
Si Si2 0.973770 0.000000 0.825586
Si Si3 0.000000 0.500000 0.500000
Si Si4 0.441080 0.000000 0.903785
Si Si5 0.103947 0.000000 0.431012
Si Si6 0.854738 0.500000 0.411468
Si Si7 0.275089 0.000000 0.647745
Si Si8 0.829358 0.500000 0.274831
O O1 0.735413 0.500000 0.679411
O O2 0.500000 0.500000 0.000000
O O3 0.528381 0.751355 0.092376
O O4 0.015015 0.000000 0.663258
O O5 0.048066 0.249040 0.740767
O O6 0.807817 0.000000 0.128755
O O7 0.064348 0.265740 0.451181
O O8 0.553219 0.000000 0.642712
O O9 0.274846 0.000000 0.159055
O O10 0.779638 0.500000 0.450274
O O11 0.221690 0.249441 0.687731
O O12 0.000000 0.500000 0.000000
#
# Coordination Sequence:
#
# PCOD9154106 Si02
#       8
#     2   2   1   2   2   2   2   2
#     4  12  23  38  54  86 128 173 218 256 301 342
#     4  12  22  38  63  85 122 154 206 249 301 359
#     4  10  24  42  74  98 118 142 198 258 318 408
#     4  12  24  40  63  88 130 166 202 261 310 369
#     4  11  22  44  68  97 119 154 196 256 324 383
#     4  12  21  35  56  83 114 173 215 263 287 334
#     4  12  24  39  56  90 121 174 213 251 305 356
#     4  12  22  37  53  79 129 174 225 263 291 332
#
# _framework density 18.605516999999999
#
# number of rings (size 3 to 8) (size 9 to 14) (size 15 to 20)
#    0.000    0.267    5.333    5.600    0.000    0.000 
#    0.000    0.000    0.000    4.800    0.000    0.000 
#    0.000    0.000    0.000    0.000    0.000    0.000 
#
# Total GULP energy -83565.353161 kJ/mol
# GULP energy per Si atom -5571.023544 kJ/mol
# Density = 1.856317 g / cm^3
# Si number density = 18.605517 Si / 1000 Ang^3
#
#
#
# Elastic Constant Matrix: (Units=GPa)
#
#
# Indices 1 2 3 4 5 6 
#
# 1 97.0134 55.9286 46.4463 0.0000 -13.0190 0.0000
# 2 55.9286 202.4459 28.8281 0.0000 -5.5357 0.0000
# 3 46.4463 28.8281 168.7450 0.0000 20.0363 0.0000
# 4 0.0000 0.0000 0.0000 42.0561 0.0000 4.6527
# 5 -13.0190 -5.5357 20.0363 0.0000 2.5638 0.0000
# 6 0.0000 0.0000 0.0000 4.6527 0.0000 24.0566
#
#
#
# Elastic Compliance Matrix: (Units=1/GPa)
#
#
# Indices 1 2 3 4 5 6 
#
# 1 0.000781 -0.002805 0.007112 0.000000 -0.057669 0.000000
# 2 -0.002805 0.005854 -0.000514 0.000000 0.002408 0.000000
# 3 0.007112 -0.000514 -0.001387 0.000000 0.045841 0.000000
# 4 0.000000 0.000000 0.000000 0.024298 0.000000 -0.004699
# 5 -0.057669 0.002408 0.045841 0.000000 -0.255849 0.000000
# 6 0.000000 0.000000 0.000000 -0.004699 0.000000 0.042478
#
#
# Mechanical properties :
#
#
# Convention : Reuss Voigt Hill
#
# Bulk Modulus (GPa) = 77.92219 81.17893 79.55056
# Shear Modulus (GPa) = -26.71901 36.20205 4.74152
#
# Velocity S-wave (km/s) = -3.79368 4.41587 1.59812
# Velocity P-wave (km/s) = 4.77314 8.35023 6.80107
#
# Compressibility (1/GPa) = 0.01283331
#
# Stress axis : x y z
#
# Youngs Moduli (GPa) = 1279.94822 170.83320 -721.21204
#
# Poissons Ratio (x) = 0.47927 5.12907
# Poissons Ratio (y) = 3.59084 -0.37057
# Poissons Ratio (z) = -9.10265 0.08778
#
# Static dielectric constant tensor:
#      x y z
#    x 1.609550 0.000000 0.026690 
#    y 0.000000 1.482010 0.000000 
#    z 0.026690 0.000000 1.729930 
# 
# From -- ./inp_files/71956.got.cif
#   From: 2010.05.17/outbox.cif.g08.bks.cpg/sg10_36_cif.got.tgz:71956.got - 2010.06.03 11:33:40.
