data_PCOD9154007
_publ_section_title
;
Structure prediction by ZEFSAII (Michael W. Deem and Ramdas Pophale) SiO2 
 PCOD9154007
Probable space group: P 2/M
;
_chemical_formula_sum "Si O2"
_cell_formula_units_Z 16
_cell_length_a 5.226628
_cell_length_b 22.562752
_cell_length_c 5.182273
_cell_angle_alpha 90.000000
_cell_angle_beta 92.004935
_cell_angle_gamma 90.000000
_cell_volume 610.756362
_symmetry_space_group_name_H-M "P 2/M"
_symmetry_group_IT_number 10
_symmetry_cell_setting 'monoclinic'
loop_
_space_group_symop_operation_xyz
x,y,z
-x,y,-z
-x,-y,-z
x,-y,z
loop_
_atom_site_type_symbol
_atom_site_label
_atom_site_fract_x
_atom_site_fract_y
_atom_site_fract_z
Si Si1 0.826056 0.760143 0.754448
Si Si2 0.239668 0.629758 0.330093
Si Si3 0.674832 0.500000 0.761805
Si Si4 0.765860 0.069445 0.672206
Si Si5 0.500000 0.846624 0.000000
O O1 0.749596 0.691756 0.817872
O O2 0.000000 0.764668 0.500000
O O3 0.569764 0.799798 0.773203
O O4 0.000000 0.780044 0.000000
O O5 0.500000 0.626470 0.500000
O O6 0.191215 0.563842 0.220216
O O7 0.000000 0.639450 0.500000
O O8 0.500000 0.500000 0.500000
O O9 0.500000 0.500000 0.000000
O O10 0.500000 0.075344 0.500000
O O11 0.720148 0.105770 0.932552
O O12 0.000000 0.090447 0.500000
O O13 0.804703 0.000000 0.728746
#
# Coordination Sequence:
#
# PCOD9154007 Si02
#       5
#     4   4   2   4   2
#     4  11  29  47  72 107 150 200 250 308 368 445
#     4  10  24  47  74 103 146 187 245 302 372 432
#     4  10  23  42  72 104 138 184 242 300 368 436
#     4  10  24  46  73 107 145 188 241 301 364 432
#     4  12  27  40  78  97 158 184 260 282 388 413
#
# _framework density 26.197026999999999
#
# number of rings (size 3 to 8) (size 9 to 14) (size 15 to 20)
#    0.000    1.500    0.000    1.500   15.750    4.000 
#    0.000    9.375    0.000    0.000    0.000    0.000 
#    0.000    0.000    0.000    0.000    0.000    0.000 
#
# Total GULP energy -89262.735409 kJ/mol
# GULP energy per Si atom -5578.920963 kJ/mol
# Density = 2.613740 g / cm^3
# Si number density = 26.197027 Si / 1000 Ang^3
#
#
#
# Elastic Constant Matrix: (Units=GPa)
#
#
# Indices 1 2 3 4 5 6 
#
# 1 156.7717 31.6197 69.6386 0.0000 -26.5957 0.0000
# 2 31.6197 241.6477 48.2721 0.0000 -35.1756 0.0000
# 3 69.6386 48.2721 165.9092 0.0000 -29.2920 0.0000
# 4 0.0000 0.0000 0.0000 39.2583 0.0000 -21.4626
# 5 -26.5957 -35.1756 -29.2920 0.0000 68.0345 0.0000
# 6 0.0000 0.0000 0.0000 -21.4626 0.0000 37.1555
#
#
#
# Elastic Compliance Matrix: (Units=1/GPa)
#
#
# Indices 1 2 3 4 5 6 
#
# 1 0.008054 -0.000197 -0.003015 0.000000 0.001749 0.000000
# 2 -0.000197 0.004628 -0.000925 0.000000 0.001917 0.000000
# 3 -0.003015 -0.000925 0.007867 0.000000 0.001730 0.000000
# 4 0.000000 0.000000 0.000000 0.037229 0.000000 0.021505
# 5 0.001749 0.001917 0.001730 0.000000 0.017118 0.000000
# 6 0.000000 0.000000 0.000000 0.021505 0.000000 0.039336
#
#
# Mechanical properties :
#
#
# Convention : Reuss Voigt Hill
#
# Bulk Modulus (GPa) = 81.46197 95.93217 88.69707
# Shear Modulus (GPa) = 39.49466 56.54289 48.01878
#
# Velocity S-wave (km/s) = 3.88700 4.65087 4.28598
# Velocity P-wave (km/s) = 7.16299 8.09566 7.64356
#
# Compressibility (1/GPa) = 0.01227567
#
# Stress axis : x y z
#
# Youngs Moduli (GPa) = 124.15875 216.07671 127.10580
#
# Poissons Ratio (x) = 0.04260 0.38317
# Poissons Ratio (y) = 0.02448 0.11761
# Poissons Ratio (z) = 0.37429 0.19993
#
# Static dielectric constant tensor:
#      x y z
#    x 2.199220 0.000000 0.147430 
#    y 0.000000 1.781210 0.000000 
#    z 0.147430 0.000000 2.092230 
# 
# From -- ./inp_files/1605.got.cif
#   From: 2010.05.17/outbox.cif.g08.bks.cpg/sg10_1_cif.got.tgz:1605.got - 2010.06.03 11:33:40.
