data_PCOD9154297
_publ_section_title
;
Structure prediction by ZEFSAII (Michael W. Deem and Ramdas Pophale) SiO2 
 PCOD9154297
Probable space group: P 2/M
;
_chemical_formula_sum "Si O2"
_cell_formula_units_Z 28
_cell_length_a 11.980583
_cell_length_b 14.349359
_cell_length_c 10.128864
_cell_angle_alpha 90.000000
_cell_angle_beta 111.507914
_cell_angle_gamma 90.000000
_cell_volume 1620.038968
_symmetry_space_group_name_H-M "P 2/M"
_symmetry_group_IT_number 10
_symmetry_cell_setting 'monoclinic'
loop_
_space_group_symop_operation_xyz
x,y,z
-x,y,-z
-x,-y,-z
x,-y,z
loop_
_atom_site_type_symbol
_atom_site_label
_atom_site_fract_x
_atom_site_fract_y
_atom_site_fract_z
Si Si1 0.342868 0.104551 0.295372
Si Si2 0.618314 0.704659 0.261734
Si Si3 0.027204 0.612936 0.362754
Si Si4 0.786265 0.387950 0.115658
Si Si5 0.342869 0.294762 0.176161
Si Si6 0.301602 0.611811 0.432864
Si Si7 0.633143 0.895283 0.390364
O O1 0.300150 0.189670 0.187903
O O2 0.317860 0.121053 0.439994
O O3 0.488133 0.105922 0.343723
O O4 0.302412 0.000000 0.243395
O O5 0.694547 0.653177 0.183858
O O6 0.476245 0.706299 0.171776
O O7 0.638588 0.652053 0.409535
O O8 0.662319 0.810587 0.306418
O O9 0.025671 0.500000 0.366776
O O10 0.919908 0.640327 0.219043
O O11 0.000000 0.645901 0.500000
O O12 0.160739 0.638624 0.378008
O O13 0.779003 0.500000 0.113244
O O14 0.746874 0.349025 0.957562
O O15 0.353763 0.344632 0.322616
O O16 0.312440 0.500000 0.435946
O O17 0.667164 0.000000 0.363016
#
# Coordination Sequence:
#
# PCOD9154297 Si02
#       7
#     4   4   4   4   4   4   4
#     4   8  14  28  49  72 102 135 166 207 254 300
#     4  11  20  33  52  77 108 140 171 203 255 321
#     4   9  18  36  56  71  90 130 188 226 246 286
#     4  11  23  37  52  71 105 147 176 208 255 305
#     4  11  22  33  48  81 113 134 167 207 260 319
#     4  11  21  33  53  76 101 135 177 220 249 290
#     4   8  14  27  49  75 100 130 171 213 249 293
#
# _framework density 17.283534
#
# number of rings (size 3 to 8) (size 9 to 14) (size 15 to 20)
#    0.000    2.143    2.857    2.571    0.000    4.000 
#    0.000    2.857    0.000    3.429    0.000    6.000 
#    0.000    0.000    0.000    0.000    0.000    0.000 
#
# Total GULP energy -156143.246368 kJ/mol
# GULP energy per Si atom -5576.544513 kJ/mol
# Density = 1.724420 g / cm^3
# Si number density = 17.283534 Si / 1000 Ang^3
#
#
#
# Elastic Constant Matrix: (Units=GPa)
#
#
# Indices 1 2 3 4 5 6 
#
# 1 35.6662 5.5507 -7.5350 0.0000 5.6364 0.0000
# 2 5.5507 97.9711 19.2634 0.0000 1.0587 0.0000
# 3 -7.5350 19.2634 38.9377 0.0000 0.0744 0.0000
# 4 0.0000 0.0000 0.0000 28.6220 0.0000 -4.0587
# 5 5.6364 1.0587 0.0744 0.0000 19.6248 0.0000
# 6 0.0000 0.0000 0.0000 -4.0587 0.0000 -7.9163
#
#
#
# Elastic Compliance Matrix: (Units=1/GPa)
#
#
# Indices 1 2 3 4 5 6 
#
# 1 0.031578 -0.003210 0.007716 0.000000 -0.008925 0.000000
# 2 -0.003210 0.011640 -0.006380 0.000000 0.000318 0.000000
# 3 0.007716 -0.006380 0.030335 0.000000 -0.001987 0.000000
# 4 0.000000 0.000000 0.000000 0.032570 0.000000 -0.016699
# 5 -0.008925 0.000318 -0.001987 0.000000 0.053510 0.000000
# 6 0.000000 0.000000 0.000000 -0.016699 0.000000 -0.117760
#
#
# Mechanical properties :
#
#
# Convention : Reuss Voigt Hill
#
# Bulk Modulus (GPa) = 14.32569 23.01480 18.67025
# Shear Modulus (GPa) = 72.57911 18.41916 45.49914
#
# Velocity S-wave (km/s) = 6.48725 3.26806 5.13637
# Velocity P-wave (km/s) = 8.02615 5.25216 6.78249
#
# Compressibility (1/GPa) = 0.06980466
#
# Stress axis : x y z
#
# Youngs Moduli (GPa) = 31.66774 85.91045 32.96477
#
# Poissons Ratio (x) = 0.27575 -0.25435
# Poissons Ratio (y) = 0.10165 0.21033
# Poissons Ratio (z) = -0.24434 0.54814
#
# Static dielectric constant tensor:
#      x y z
#    x 1.581880 0.000000 -0.003230 
#    y 0.000000 1.605740 0.000000 
#    z -0.003230 0.000000 1.580420 
# 
# From -- ./inp_files/24924.got.cif
#   From: 2010.05.17/outbox.cif.g08.bks.cpg/sg10_13_cif.got.tgz:24924.got - 2010.06.03 11:33:40.
