data_PCOD9154865
_publ_section_title
;
Structure prediction by ZEFSAII (Michael W. Deem and Ramdas Pophale) SiO2 
 PCOD9154865
Probable space group: P 2/M
;
_chemical_formula_sum "Si O2"
_cell_formula_units_Z 15
_cell_length_a 16.526263
_cell_length_b 10.213946
_cell_length_c 14.260581
_cell_angle_alpha 90.000000
_cell_angle_beta 162.773839
_cell_angle_gamma 90.000000
_cell_volume 712.867247
_symmetry_space_group_name_H-M "P 2/M"
_symmetry_group_IT_number 10
_symmetry_cell_setting 'monoclinic'
loop_
_space_group_symop_operation_xyz
x,y,z
-x,y,-z
-x,-y,-z
x,-y,z
loop_
_atom_site_type_symbol
_atom_site_label
_atom_site_fract_x
_atom_site_fract_y
_atom_site_fract_z
Si Si1 0.306603 0.000000 0.874108
Si Si2 0.872671 0.741098 0.080600
Si Si3 0.500000 0.500000 0.000000
Si Si4 0.809561 0.500000 0.876910
Si Si5 0.487106 0.726040 0.824253
Si Si6 0.805539 0.000000 0.878479
O O1 0.000000 0.000000 0.500000
O O2 0.500000 0.000000 0.000000
O O3 0.376470 0.866149 0.003238
O O4 0.160795 0.742710 0.454498
O O5 0.880145 0.626665 0.014271
O O6 0.627823 0.699625 0.879738
O O7 0.841902 0.874990 0.987518
O O8 0.458760 0.616201 0.036539
O O9 0.500000 0.500000 0.500000
O O10 0.000000 0.500000 0.000000
O O11 0.500000 0.000000 0.500000
O O12 0.000000 0.000000 0.000000
#
# Coordination Sequence:
#
# PCOD9154865 Si02
#       6
#     2   4   1   2   4   2
#     4  12  24  46  68 100 130 184 230 283 351 410
#     4  12  25  45  68 103 139 180 229 293 348 411
#     4  12  28  46  72 102 140 196 248 292 350 412
#     4  12  24  43  68  97 137 182 226 277 351 422
#     4  12  26  45  70 100 142 183 239 289 350 413
#     4  12  24  44  74 105 137 178 230 287 357 432
#
# _framework density 21.041788
#
# number of rings (size 3 to 8) (size 9 to 14) (size 15 to 20)
#    0.000    0.000    1.333    9.600    0.000    1.067 
#    0.000    0.000    0.000    0.000    0.000    0.000 
#    0.000    0.000    0.000    0.000    0.000    0.000 
#
# Total GULP energy -83624.630619 kJ/mol
# GULP energy per Si atom -5574.975375 kJ/mol
# Density = 2.099390 g / cm^3
# Si number density = 21.041788 Si / 1000 Ang^3
#
#
#
# Elastic Constant Matrix: (Units=GPa)
#
#
# Indices 1 2 3 4 5 6 
#
# 1 159.3535 44.2079 -5.7032 0.0000 -1.4517 0.0000
# 2 44.2079 207.2320 30.3489 0.0000 -32.1486 0.0000
# 3 -5.7032 30.3489 107.9222 0.0000 11.7221 0.0000
# 4 0.0000 0.0000 0.0000 22.2085 0.0000 -10.9840
# 5 -1.4517 -32.1486 11.7221 0.0000 37.8693 0.0000
# 6 0.0000 0.0000 0.0000 -10.9840 0.0000 44.5668
#
#
#
# Elastic Compliance Matrix: (Units=1/GPa)
#
#
# Indices 1 2 3 4 5 6 
#
# 1 0.006816 -0.001866 0.001065 0.000000 -0.001653 0.000000
# 2 -0.001866 0.006595 -0.002642 0.000000 0.006345 0.000000
# 3 0.001065 -0.002642 0.010663 0.000000 -0.005503 0.000000
# 4 0.000000 0.000000 0.000000 0.051279 0.000000 0.012638
# 5 -0.001653 0.006345 -0.005503 0.000000 0.033433 0.000000
# 6 0.000000 0.000000 0.000000 0.012638 0.000000 0.025553
#
#
# Mechanical properties :
#
#
# Convention : Reuss Voigt Hill
#
# Bulk Modulus (GPa) = 58.18781 68.02387 63.10584
# Shear Modulus (GPa) = 34.02383 47.97253 40.99818
#
# Velocity S-wave (km/s) = 4.02551 4.77998 4.41888
# Velocity P-wave (km/s) = 7.02281 7.92858 7.48940
#
# Compressibility (1/GPa) = 0.01718573
#
# Stress axis : x y z
#
# Youngs Moduli (GPa) = 146.71015 151.63124 93.78253
#
# Poissons Ratio (x) = 0.28300 -0.09983
# Poissons Ratio (y) = 0.27381 0.24781
# Poissons Ratio (z) = -0.15618 0.40067
#
# Static dielectric constant tensor:
#      x y z
#    x 1.812840 0.000000 0.028170 
#    y 0.000000 1.671980 0.000000 
#    z 0.028170 0.000000 1.722560 
# 
# From -- ./inp_files/51204.got.cif
#   From: 2010.05.17/outbox.cif.g08.bks.cpg/sg10_26_cif.got.tgz:51204.got - 2010.06.03 11:33:40.
