data_PCOD9154250
_publ_section_title
;
Structure prediction by ZEFSAII (Michael W. Deem and Ramdas Pophale) SiO2 
 PCOD9154250
Probable space group: P 2/M
;
_chemical_formula_sum "Si O2"
_cell_formula_units_Z 32
_cell_length_a 8.055570
_cell_length_b 14.389510
_cell_length_c 14.649816
_cell_angle_alpha 90.000000
_cell_angle_beta 65.773759
_cell_angle_gamma 90.000000
_cell_volume 1548.592101
_symmetry_space_group_name_H-M "P 2/M"
_symmetry_group_IT_number 10
_symmetry_cell_setting 'monoclinic'
loop_
_space_group_symop_operation_xyz
x,y,z
-x,y,-z
-x,-y,-z
x,-y,z
loop_
_atom_site_type_symbol
_atom_site_label
_atom_site_fract_x
_atom_site_fract_y
_atom_site_fract_z
Si Si1 0.762344 0.390364 0.651664
Si Si2 0.800982 0.390150 0.434928
Si Si3 0.554390 0.762009 0.797257
Si Si4 0.973993 0.104298 0.157163
Si Si5 0.747979 0.891801 0.467601
Si Si6 0.695726 0.895175 0.047656
Si Si7 0.181852 0.108175 0.348937
Si Si8 0.711983 0.232437 0.315900
O O1 0.726550 0.500000 0.666262
O O2 0.725772 0.363628 0.553012
O O3 0.653907 0.336122 0.755234
O O4 0.980059 0.376252 0.612394
O O5 0.765308 0.500000 0.430218
O O6 0.730287 0.327538 0.368129
O O7 0.435536 0.807132 0.905640
O O8 0.717920 0.834645 0.749556
O O9 0.418694 0.764129 0.740847
O O10 0.832976 0.102103 0.103638
O O11 0.900506 0.188479 0.234667
O O12 0.962874 0.000000 0.203331
O O13 0.172845 0.115576 0.068920
O O14 0.736260 0.856910 0.573441
O O15 0.652534 0.840868 0.406412
O O16 0.965971 0.882347 0.401316
O O17 0.704427 0.000000 0.476703
O O18 0.611329 0.000000 0.064479
O O19 0.225163 0.000000 0.331517
#
# Coordination Sequence:
#
# PCOD9154250 Si02
#       8
#     4   4   4   4   4   4   4   4
#     4   9  19  36  54  69  90 126 166 195 226 281
#     4   9  19  36  54  69  90 126 166 195 226 281
#     4  11  20  28  46  75  98 117 150 199 248 283
#     4   8  15  29  47  67  95 130 162 190 226 278
#     4   9  18  31  44  60  89 130 165 186 215 272
#     4   8  15  29  47  67  95 130 162 190 226 278
#     4   9  18  31  44  60  89 130 165 186 215 272
#     4  11  20  28  46  75  98 117 150 199 248 283
#
# _framework density 20.663931000000002
#
# number of rings (size 3 to 8) (size 9 to 14) (size 15 to 20)
#    0.000    2.750    0.000    4.500    0.000    6.000 
#    0.000    2.500    0.000    3.750    0.000   14.000 
#    0.000    0.000    0.000    0.000    0.000    0.000 
#
# Total GULP energy -178530.817543 kJ/mol
# GULP energy per Si atom -5579.088048 kJ/mol
# Density = 2.061690 g / cm^3
# Si number density = 20.663931 Si / 1000 Ang^3
#
#
#
# Elastic Constant Matrix: (Units=GPa)
#
#
# Indices 1 2 3 4 5 6 
#
# 1 60.2710 16.0165 18.8512 0.0000 2.5473 0.0000
# 2 16.0165 99.9648 41.4196 0.0000 -12.6571 0.0000
# 3 18.8512 41.4196 70.8869 0.0000 -11.4953 0.0000
# 4 0.0000 0.0000 0.0000 -14.0129 0.0000 161.6389
# 5 2.5473 -12.6571 -11.4953 0.0000 36.9729 0.0000
# 6 0.0000 0.0000 0.0000 161.6389 0.0000 -596.7767
#
#
#
# Elastic Compliance Matrix: (Units=1/GPa)
#
#
# Indices 1 2 3 4 5 6 
#
# 1 0.018556 -0.001477 -0.004593 0.000000 -0.003212 0.000000
# 2 -0.001477 0.013494 -0.007083 0.000000 0.002519 0.000000
# 3 -0.004593 -0.007083 0.020141 0.000000 0.004154 0.000000
# 4 0.000000 0.000000 0.000000 0.033594 0.000000 0.009099
# 5 -0.003212 0.002519 0.004154 0.000000 0.029422 0.000000
# 6 0.000000 0.000000 0.000000 0.009099 0.000000 0.000789
#
#
# Mechanical properties :
#
#
# Convention : Reuss Voigt Hill
#
# Bulk Modulus (GPa) = 38.63205 42.63303 40.63254
# Shear Modulus (GPa) = 33.12795 -104.44100 -35.65653
#
# Velocity S-wave (km/s) = 4.00831 -7.11705 -4.15847
# Velocity P-wave (km/s) = 6.33704 6.84544 1.83058
#
# Compressibility (1/GPa) = 0.02588524
#
# Stress axis : x y z
#
# Youngs Moduli (GPa) = 53.88971 74.10684 49.65055
#
# Poissons Ratio (x) = 0.10945 0.22803
# Poissons Ratio (y) = 0.07959 0.35169
# Poissons Ratio (z) = 0.24750 0.52493
#
# Static dielectric constant tensor:
#      x y z
#    x 1.813670 0.000000 0.005600 
#    y 0.000000 1.732060 0.000000 
#    z 0.005600 0.000000 1.756840 
# 
# From -- ./inp_files/35172.got.cif
#   From: 2010.05.17/outbox.cif.g08.bks.cpg/sg10_18_cif.got.tgz:35172.got - 2010.06.03 11:33:40.
