data_PCOD9154071
_publ_section_title
;
Structure prediction by ZEFSAII (Michael W. Deem and Ramdas Pophale) SiO2 
 PCOD9154071
Probable space group: P 2/M
;
_chemical_formula_sum "Si O2"
_cell_formula_units_Z 32
_cell_length_a 13.739405
_cell_length_b 16.693853
_cell_length_c 11.288907
_cell_angle_alpha 90.000000
_cell_angle_beta 148.434133
_cell_angle_gamma 90.000000
_cell_volume 1355.424031
_symmetry_space_group_name_H-M "P 2/M"
_symmetry_group_IT_number 10
_symmetry_cell_setting 'monoclinic'
loop_
_space_group_symop_operation_xyz
x,y,z
-x,y,-z
-x,-y,-z
x,-y,z
loop_
_atom_site_type_symbol
_atom_site_label
_atom_site_fract_x
_atom_site_fract_y
_atom_site_fract_z
Si Si1 0.712371 0.334655 0.184406
Si Si2 0.541854 0.724422 0.682497
Si Si3 0.681609 0.909511 0.321655
Si Si4 0.996515 0.862427 0.793878
Si Si5 0.732157 0.156165 0.132542
Si Si6 0.358907 0.091453 0.244486
Si Si7 0.157024 0.689806 0.414678
Si Si8 0.177303 0.590264 0.936109
O O1 0.714187 0.251704 0.112372
O O2 0.818601 0.317897 0.417702
O O3 0.792687 0.398230 0.175000
O O4 0.500000 0.353440 0.000000
O O5 0.500000 0.720302 0.500000
O O6 0.598839 0.817828 0.763057
O O7 0.358815 0.701924 0.567622
O O8 0.692936 0.656839 0.868832
O O9 0.777483 0.859799 0.316882
O O10 0.793137 0.898897 0.559628
O O11 0.693893 0.000000 0.297446
O O12 0.468623 0.883303 0.097950
O O13 0.120272 0.880179 0.804433
O O14 0.957660 0.767763 0.748345
O O15 0.137057 0.896040 0.037819
O O16 0.500000 0.088635 0.500000
O O17 0.377926 0.000000 0.210421
O O18 0.034694 0.613490 0.253104
O O19 0.223478 0.500000 0.017766
#
# Coordination Sequence:
#
# PCOD9154071 Si02
#       8
#     4   4   4   4   4   4   4   4
#     4  12  21  42  73 103 148 194 238 295 370 449
#     4  11  26  52  80 108 150 198 251 315 378 444
#     4  11  24  36  55  94 140 193 247 292 353 437
#     4  12  23  39  67  99 135 191 246 299 368 439
#     4  11  21  37  60  91 141 193 233 293 357 437
#     4  10  23  46  74 104 143 192 249 318 381 436
#     4  12  25  44  77 108 146 200 245 300 379 449
#     4  12  28  49  77 116 151 192 251 309 379 456
#
# _framework density 23.60885
#
# number of rings (size 3 to 8) (size 9 to 14) (size 15 to 20)
#    0.000    0.625    6.250    1.875    1.750    5.000 
#    0.000    1.250    0.000    2.250    0.000    0.000 
#    0.000    0.000    0.000    0.000    0.000    0.000 
#
# Total GULP energy -178768.375827 kJ/mol
# GULP energy per Si atom -5586.511745 kJ/mol
# Density = 2.355512 g / cm^3
# Si number density = 23.608850 Si / 1000 Ang^3
#
#
#
# Elastic Constant Matrix: (Units=GPa)
#
#
# Indices 1 2 3 4 5 6 
#
# 1 55.5140 23.5429 14.7623 0.0000 8.6633 0.0000
# 2 23.5429 163.6922 45.5729 0.0000 2.7347 0.0000
# 3 14.7623 45.5729 153.1420 0.0000 8.3805 0.0000
# 4 0.0000 0.0000 0.0000 25.3783 0.0000 -2.0709
# 5 8.6633 2.7347 8.3805 0.0000 37.1577 0.0000
# 6 0.0000 0.0000 0.0000 -2.0709 0.0000 19.4214
#
#
#
# Elastic Compliance Matrix: (Units=1/GPa)
#
#
# Indices 1 2 3 4 5 6 
#
# 1 0.020008 -0.002545 -0.000938 0.000000 -0.004266 0.000000
# 2 -0.002545 0.006985 -0.001861 0.000000 0.000499 0.000000
# 3 -0.000938 -0.001861 0.007244 0.000000 -0.001278 0.000000
# 4 0.000000 0.000000 0.000000 0.039750 0.000000 0.004239
# 5 -0.004266 0.000499 -0.001278 0.000000 0.028158 0.000000
# 6 0.000000 0.000000 0.000000 0.004239 0.000000 0.051942
#
#
# Mechanical properties :
#
#
# Convention : Reuss Voigt Hill
#
# Bulk Modulus (GPa) = 42.46382 60.01160 51.23771
# Shear Modulus (GPa) = 28.96481 35.62283 32.29382
#
# Velocity S-wave (km/s) = 3.50646 3.88864 3.70248
# Velocity P-wave (km/s) = 5.86678 6.75547 6.32675
#
# Compressibility (1/GPa) = 0.02354946
#
# Stress axis : x y z
#
# Youngs Moduli (GPa) = 49.97999 143.16927 138.04720
#
# Poissons Ratio (x) = 0.36441 0.12946
# Poissons Ratio (y) = 0.12721 0.25684
# Poissons Ratio (z) = 0.04687 0.26637
#
# Static dielectric constant tensor:
#      x y z
#    x 1.991900 0.000000 -0.050670 
#    y 0.000000 1.835260 0.000000 
#    z -0.050670 0.000000 1.976750 
# 
# From -- ./inp_files/51991.got.cif
#   From: 2010.05.17/outbox.cif.g08.bks.cpg/sg10_26_cif.got.tgz:51991.got - 2010.06.03 11:33:40.
