data_PCOD9154575
_publ_section_title
;
Structure prediction by ZEFSAII (Michael W. Deem and Ramdas Pophale) SiO2 
 PCOD9154575
Probable space group: P 2/M
;
_chemical_formula_sum "Si O2"
_cell_formula_units_Z 32
_cell_length_a 15.653891
_cell_length_b 8.307372
_cell_length_c 23.122551
_cell_angle_alpha 90.000000
_cell_angle_beta 148.856303
_cell_angle_gamma 90.000000
_cell_volume 1555.136991
_symmetry_space_group_name_H-M "P 2/M"
_symmetry_group_IT_number 10
_symmetry_cell_setting 'monoclinic'
loop_
_space_group_symop_operation_xyz
x,y,z
-x,y,-z
-x,-y,-z
x,-y,z
loop_
_atom_site_type_symbol
_atom_site_label
_atom_site_fract_x
_atom_site_fract_y
_atom_site_fract_z
Si Si1 0.006772 0.692962 0.187192
Si Si2 0.695929 0.315898 0.945734
Si Si3 0.159436 0.817813 0.673970
Si Si4 0.369976 0.693775 0.694216
Si Si5 0.030843 0.189748 0.327498
Si Si6 0.487204 0.183180 0.058849
Si Si7 0.623204 0.807094 0.622813
Si Si8 0.631105 0.691953 0.438994
O O1 0.002375 0.500000 0.182353
O O2 0.963171 0.743124 0.227864
O O3 0.190978 0.751659 0.280763
O O4 0.876082 0.755999 0.063334
O O5 0.717869 0.500000 0.938866
O O6 0.547415 0.242461 0.821274
O O7 0.616030 0.306308 0.963195
O O8 0.217207 0.741598 0.646950
O O9 0.330844 0.822863 0.808835
O O10 0.037371 0.740578 0.650869
O O11 0.102501 0.000000 0.628846
O O12 0.379281 0.500000 0.701666
O O13 0.351808 0.744262 0.617615
O O14 0.226157 0.221024 0.441963
O O15 0.994370 0.000000 0.307136
O O16 0.417898 0.000000 0.022873
O O17 0.500000 0.227758 0.000000
O O18 0.500000 0.752224 0.500000
O O19 0.544496 0.736783 0.635636
O O20 0.619021 0.000000 0.622366
O O21 0.655736 0.500000 0.456827
#
# Coordination Sequence:
#
# PCOD9154575 Si02
#       8
#     4   4   4   4   4   4   4   4
#     4  11  22  36  59  88 116 146 183 230 281 336
#     4   9  19  35  54  79 110 145 184 226 274 325
#     4   9  19  33  51  77 110 151 193 231 275 326
#     4   9  20  39  59  80 112 152 192 232 274 323
#     4  11  22  36  55  83 118 151 187 234 284 332
#     4   9  16  28  47  72 104 144 188 230 273 322
#     4  11  23  40  62  87 114 145 179 223 282 341
#     4  11  23  39  61  85 110 146 189 233 280 333
#
# _framework density 20.576962999999999
#
# number of rings (size 3 to 8) (size 9 to 14) (size 15 to 20)
#    0.000    2.000    1.250    2.250    0.000    5.250 
#    0.000    5.625    0.000    3.750    0.000    0.000 
#    0.000    0.000    0.000    0.000    0.000    0.000 
#
# Total GULP energy -178487.069589 kJ/mol
# GULP energy per Si atom -5577.720925 kJ/mol
# Density = 2.053013 g / cm^3
# Si number density = 20.576963 Si / 1000 Ang^3
#
#
#
# Elastic Constant Matrix: (Units=GPa)
#
#
# Indices 1 2 3 4 5 6 
#
# 1 81.4794 0.5111 3.4830 0.0000 4.4121 0.0000
# 2 0.5111 19.9582 -1.6188 0.0000 -2.0186 0.0000
# 3 3.4830 -1.6188 65.5364 0.0000 9.5054 0.0000
# 4 0.0000 0.0000 0.0000 29.6161 0.0000 -11.4116
# 5 4.4121 -2.0186 9.5054 0.0000 31.8637 0.0000
# 6 0.0000 0.0000 0.0000 -11.4116 0.0000 39.3238
#
#
#
# Elastic Compliance Matrix: (Units=1/GPa)
#
#
# Indices 1 2 3 4 5 6 
#
# 1 0.012382 -0.000516 -0.000436 0.000000 -0.001617 0.000000
# 2 -0.000516 0.050491 0.000836 0.000000 0.003021 0.000000
# 3 -0.000436 0.000836 0.015977 0.000000 -0.004653 0.000000
# 4 0.000000 0.000000 0.000000 0.038016 0.000000 0.011032
# 5 -0.001617 0.003021 -0.004653 0.000000 0.033187 0.000000
# 6 0.000000 0.000000 0.000000 0.011032 0.000000 0.028631
#
#
# Mechanical properties :
#
#
# Convention : Reuss Voigt Hill
#
# Bulk Modulus (GPa) = 12.71949 19.08051 15.90000
# Shear Modulus (GPa) = 24.37549 31.13396 27.75472
#
# Velocity S-wave (km/s) = 3.44554 3.89401 3.67662
# Velocity P-wave (km/s) = 4.69295 5.43237 5.07614
#
# Compressibility (1/GPa) = 0.07861953
#
# Stress axis : x y z
#
# Youngs Moduli (GPa) = 80.75922 19.80539 62.58842
#
# Poissons Ratio (x) = 0.01022 0.02731
# Poissons Ratio (y) = 0.04168 -0.05235
# Poissons Ratio (z) = 0.03523 -0.01657
#
# Static dielectric constant tensor:
#      x y z
#    x 1.740260 0.000000 0.002200 
#    y 0.000000 1.735690 0.000000 
#    z 0.002200 0.000000 1.772280 
# 
# From -- ./inp_files/71652.got.cif
#   From: 2010.05.17/outbox.cif.g08.bks.cpg/sg10_36_cif.got.tgz:71652.got - 2010.06.03 11:33:40.
