data_PCOD9154023
_publ_section_title
;
Structure prediction by ZEFSAII (Michael W. Deem and Ramdas Pophale) SiO2 
 PCOD9154023
Probable space group: P 2/M
;
_chemical_formula_sum "Si O2"
_cell_formula_units_Z 28
_cell_length_a 12.681941
_cell_length_b 8.987845
_cell_length_c 14.503218
_cell_angle_alpha 90.000000
_cell_angle_beta 122.994692
_cell_angle_gamma 90.000000
_cell_volume 1386.510636
_symmetry_space_group_name_H-M "P 2/M"
_symmetry_group_IT_number 10
_symmetry_cell_setting 'monoclinic'
loop_
_space_group_symop_operation_xyz
x,y,z
-x,y,-z
-x,-y,-z
x,-y,z
loop_
_atom_site_type_symbol
_atom_site_label
_atom_site_fract_x
_atom_site_fract_y
_atom_site_fract_z
Si Si1 0.774626 0.323667 0.287358
Si Si2 0.551995 0.672496 0.421151
Si Si3 0.034777 0.823889 0.749695
Si Si4 0.188684 0.823689 0.502965
Si Si5 0.346794 0.822895 0.193121
Si Si6 0.512401 0.676792 0.898924
Si Si7 0.911950 0.327398 0.868364
O O1 0.796804 0.500000 0.301444
O O2 0.828462 0.245268 0.404028
O O3 0.624831 0.298550 0.211417
O O4 0.841002 0.255355 0.229427
O O5 0.500000 0.676353 0.500000
O O6 0.557490 0.500000 0.392912
O O7 0.689329 0.744021 0.481278
O O8 0.457477 0.763026 0.311650
O O9 0.929051 0.801793 0.620257
O O10 0.982055 0.752128 0.817541
O O11 0.054766 0.000000 0.770943
O O12 0.210982 0.000000 0.522296
O O13 0.383527 0.764367 0.109084
O O14 0.217692 0.753403 0.168318
O O15 0.340652 0.000000 0.191937
O O16 0.540311 0.500000 0.908051
O O17 0.500000 0.719016 0.000000
O O18 0.886801 0.500000 0.832712
O O19 0.000000 0.322800 0.000000
#
# Coordination Sequence:
#
# PCOD9154023 Si02
#       7
#     4   4   4   4   4   4   4
#     4  11  23  40  66  97 130 173 218 262 319 384
#     4  11  23  39  63  93 127 169 215 263 314 378
#     4  11  25  43  65  95 134 172 213 267 325 384
#     4  11  23  40  62  93 131 170 211 263 326 381
#     4  12  25  42  67  98 132 167 209 264 324 383
#     4  10  23  43  67  95 130 170 216 265 316 380
#     4  11  26  47  70  94 126 170 219 267 319 379
#
# _framework density 20.194579000000001
#
# number of rings (size 3 to 8) (size 9 to 14) (size 15 to 20)
#    0.000    1.000    1.429    4.714    2.000    9.429 
#    0.000    0.000    0.000    0.000    0.000    0.000 
#    0.000    0.000    0.000    0.000    0.000    0.000 
#
# Total GULP energy -156752.292165 kJ/mol
# GULP energy per Si atom -5598.296149 kJ/mol
# Density = 2.014862 g / cm^3
# Si number density = 20.194579 Si / 1000 Ang^3
#
#
#
# Elastic Constant Matrix: (Units=GPa)
#
#
# Indices 1 2 3 4 5 6 
#
# 1 137.7488 58.8299 5.8145 0.0000 -21.3810 0.0000
# 2 58.8299 110.6582 26.8724 0.0000 -9.8382 0.0000
# 3 5.8145 26.8724 38.6276 0.0000 -24.4312 0.0000
# 4 0.0000 0.0000 0.0000 9.4352 0.0000 24.5763
# 5 -21.3810 -9.8382 -24.4312 0.0000 34.3460 0.0000
# 6 0.0000 0.0000 0.0000 24.5763 0.0000 38.9630
#
#
#
# Elastic Compliance Matrix: (Units=1/GPa)
#
#
# Indices 1 2 3 4 5 6 
#
# 1 0.012834 -0.008842 0.013944 0.000000 0.015375 0.000000
# 2 -0.008842 0.017296 -0.020086 0.000000 -0.014838 0.000000
# 3 0.013944 -0.020086 0.072012 0.000000 0.054151 0.000000
# 4 0.000000 0.000000 0.000000 -0.164838 0.000000 0.103973
# 5 0.015375 -0.014838 0.054151 0.000000 0.072956 0.000000
# 6 0.000000 0.000000 0.000000 0.103973 0.000000 -0.039917
#
#
# Mechanical properties :
#
#
# Convention : Reuss Voigt Hill
#
# Bulk Modulus (GPa) = 13.85552 52.22979 33.04266
# Shear Modulus (GPa) = 205.16799 29.58338 117.37569
#
# Velocity S-wave (km/s) = 10.09040 3.83158 7.63207
# Velocity P-wave (km/s) = 11.94281 6.74493 9.69858
#
# Compressibility (1/GPa) = 0.07217338
#
# Stress axis : x y z
#
# Youngs Moduli (GPa) = 77.91909 57.81596 13.88651
#
# Poissons Ratio (x) = 0.51122 -0.19363
# Poissons Ratio (y) = 0.68897 0.27893
# Poissons Ratio (z) = -1.08650 1.16131
#
# Static dielectric constant tensor:
#      x y z
#    x 1.694090 0.000000 -0.009010 
#    y 0.000000 1.674260 0.000000 
#    z -0.009010 0.000000 1.708030 
# 
# From -- ./inp_files/63897.got.cif
#   From: 2010.05.17/outbox.cif.g08.bks.cpg/sg10_32_cif.got.tgz:63897.got - 2010.06.03 11:33:40.
