data_PCOD9154912
_publ_section_title
;
Structure prediction by ZEFSAII (Michael W. Deem and Ramdas Pophale) SiO2 
 PCOD9154912
Probable space group: P 2/M
;
_chemical_formula_sum "Si O2"
_cell_formula_units_Z 32
_cell_length_a 14.915699
_cell_length_b 7.449010
_cell_length_c 16.201651
_cell_angle_alpha 90.000000
_cell_angle_beta 90.001638
_cell_angle_gamma 90.000000
_cell_volume 1800.119932
_symmetry_space_group_name_H-M "P 2/M"
_symmetry_group_IT_number 10
_symmetry_cell_setting 'monoclinic'
loop_
_space_group_symop_operation_xyz
x,y,z
-x,y,-z
-x,-y,-z
x,-y,z
loop_
_atom_site_type_symbol
_atom_site_label
_atom_site_fract_x
_atom_site_fract_y
_atom_site_fract_z
Si Si1 0.712963 0.280254 0.162563
Si Si2 0.287044 0.719745 0.162587
Si Si3 0.398203 0.213001 0.500052
Si Si4 0.603135 0.281195 0.999985
Si Si5 0.397608 0.712470 0.680913
Si Si6 0.900241 0.718569 0.096044
Si Si7 0.099765 0.718569 0.096045
Si Si8 0.602440 0.287478 0.680834
O O1 0.713823 0.500000 0.163352
O O2 0.664636 0.217460 0.245863
O O3 0.815415 0.221751 0.149152
O O4 0.655358 0.226213 0.082460
O O5 0.286198 0.500000 0.163373
O O6 0.344663 0.773799 0.082497
O O7 0.184594 0.778243 0.149155
O O8 0.335342 0.782516 0.245905
O O9 0.500000 0.289242 0.500000
O O10 0.359059 0.264464 0.588650
O O11 0.359037 0.264173 0.411423
O O12 0.403522 0.000000 0.500142
O O13 0.602837 0.500000 0.999982
O O14 0.500000 0.222544 0.000000
O O15 0.405233 0.500000 0.694836
O O16 0.500019 0.785780 0.682979
O O17 0.900436 0.500000 0.097204
O O18 0.000004 0.777248 0.121504
O O19 0.886665 0.769580 0.999999
O O20 0.099574 0.500000 0.097206
O O21 0.594876 0.500000 0.694637
#
# Coordination Sequence:
#
# PCOD9154912 Si02
#       8
#     4   4   4   4   4   4   4   4
#     4   9  14  20  30  48  74 103 130 156 187 223
#     4   9  14  20  30  48  74 103 130 156 187 223
#     4   9  17  29  43  57  74  99 130 162 195 231
#     4   9  14  18  25  41  70 104 131 152 178 218
#     4   9  16  25  38  57  80 103 127 158 195 230
#     4   8  12  18  28  43  68 103 135 158 184 221
#     4   8  12  18  28  43  68 103 135 158 184 221
#     4   9  16  25  38  57  80 103 127 158 195 230
#
# _framework density 17.776592000000001
#
# number of rings (size 3 to 8) (size 9 to 14) (size 15 to 20)
#    0.000    3.250    1.250    1.875    0.000    4.500 
#    0.000    0.000    0.000    0.000    0.000    1.750 
#    0.000   13.000    0.000    2.750    0.000    2.500 
#
# Total GULP energy -178320.139268 kJ/mol
# GULP energy per Si atom -5572.504352 kJ/mol
# Density = 1.773613 g / cm^3
# Si number density = 17.776592 Si / 1000 Ang^3
#
#
#
# Elastic Constant Matrix: (Units=GPa)
#
#
# Indices 1 2 3 4 5 6 
#
# 1 144.4510 5.1281 94.8704 0.0000 -2.0814 0.0000
# 2 5.1281 52.9595 0.8897 0.0000 -0.3813 0.0000
# 3 94.8704 0.8897 166.3990 0.0000 3.8644 0.0000
# 4 0.0000 0.0000 0.0000 -77.7744 0.0000 -5.9209
# 5 -2.0814 -0.3813 3.8644 0.0000 13.0861 0.0000
# 6 0.0000 0.0000 0.0000 -5.9209 0.0000 -7.6371
#
#
#
# Elastic Compliance Matrix: (Units=1/GPa)
#
#
# Indices 1 2 3 4 5 6 
#
# 1 0.011291 -0.000957 -0.006518 0.000000 0.003693 0.000000
# 2 -0.000957 0.018970 0.000438 0.000000 0.000271 0.000000
# 3 -0.006518 0.000438 0.009814 0.000000 -0.003922 0.000000
# 4 0.000000 0.000000 0.000000 -0.013664 0.000000 0.010594
# 5 0.003693 0.000271 -0.003922 0.000000 0.078170 0.000000
# 6 0.000000 0.000000 0.000000 0.010594 0.000000 -0.139154
#
#
# Mechanical properties :
#
#
# Convention : Reuss Voigt Hill
#
# Bulk Modulus (GPa) = 38.46058 62.84288 50.65173
# Shear Modulus (GPa) = -422.59340 3.06302 -209.76519
#
# Velocity S-wave (km/s) = -15.43505 1.31408 -10.87460
# Velocity P-wave (km/s) = 17.20383 6.14253 11.36312
#
# Compressibility (1/GPa) = 0.02600065
#
# Stress axis : x y z
#
# Youngs Moduli (GPa) = 88.56867 52.71587 101.89009
#
# Poissons Ratio (x) = 0.05046 0.66411
# Poissons Ratio (y) = 0.08478 -0.04463
# Poissons Ratio (z) = 0.57728 -0.02309
#
# Static dielectric constant tensor:
#      x y z
#    x 1.606820 0.000000 -0.000210 
#    y 0.000000 1.663870 0.000000 
#    z -0.000210 0.000000 1.604490 
# 
# From -- ./inp_files/61561.got.cif
#   From: 2010.05.17/outbox.cif.g08.bks.cpg/sg10_31_cif.got.tgz:61561.got - 2010.06.03 11:33:40.
