data_PCOD9154330
_publ_section_title
;
Structure prediction by ZEFSAII (Michael W. Deem and Ramdas Pophale) SiO2 
 PCOD9154330
Probable space group: P 2/M
;
_chemical_formula_sum "Si O2"
_cell_formula_units_Z 26
_cell_length_a 14.122600
_cell_length_b 21.009275
_cell_length_c 13.727025
_cell_angle_alpha 90.000000
_cell_angle_beta 159.258942
_cell_angle_gamma 90.000000
_cell_volume 1442.392228
_symmetry_space_group_name_H-M "P 2/M"
_symmetry_group_IT_number 10
_symmetry_cell_setting 'monoclinic'
loop_
_space_group_symop_operation_xyz
x,y,z
-x,y,-z
-x,-y,-z
x,-y,z
loop_
_atom_site_type_symbol
_atom_site_label
_atom_site_fract_x
_atom_site_fract_y
_atom_site_fract_z
Si Si1 0.734426 0.000000 0.802408
Si Si2 0.011196 0.299868 0.129220
Si Si3 0.475698 0.243340 0.695225
Si Si4 0.232316 0.570277 0.303160
Si Si5 0.916135 0.071783 0.563918
Si Si6 0.391552 0.901268 0.160813
Si Si7 0.256371 0.793126 0.691095
O O1 0.500000 0.000000 0.500000
O O2 0.724792 0.060803 0.862020
O O3 0.000000 0.000000 0.000000
O O4 0.228242 0.252070 0.383683
O O5 0.135116 0.369805 0.271976
O O6 0.000000 0.293990 0.000000
O O7 0.720453 0.289007 0.897999
O O8 0.599826 0.173062 0.810738
O O9 0.350938 0.244189 0.684765
O O10 0.500000 0.585982 0.500000
O O11 0.269044 0.500000 0.384676
O O12 0.000000 0.564211 0.000000
O O13 0.691314 0.074067 0.431515
O O14 0.827496 0.134196 0.418287
O O15 0.905396 0.000000 0.511556
O O16 0.207742 0.084062 0.889890
O O17 0.000000 0.764790 0.500000
O O18 0.500000 0.795951 0.000000
#
# Coordination Sequence:
#
# PCOD9154330 Si02
#       7
#     2   4   4   4   4   4   4
#     4  12  24  36  52  72  94 132 184 230 270 322
#     4  11  21  36  57  86 118 152 193 222 259 331
#     4  11  23  38  58  79 113 151 183 235 284 322
#     4   9  17  31  52  81 119 157 185 220 268 313
#     4  11  20  37  61  75  97 131 164 220 292 360
#     4  11  22  39  52  72 102 137 176 225 284 327
#     4  11  23  39  57  82 110 138 182 233 293 355
#
# _framework density 18.025608999999999
#
# number of rings (size 3 to 8) (size 9 to 14) (size 15 to 20)
#    0.000    1.231    1.538    7.846    0.000    2.462 
#    0.000    0.000    0.000    0.000    0.000    0.000 
#    0.000   12.308    0.000    0.000    0.000    0.000 
#
# Total GULP energy -145015.239492 kJ/mol
# GULP energy per Si atom -5577.509211 kJ/mol
# Density = 1.798458 g / cm^3
# Si number density = 18.025609 Si / 1000 Ang^3
#
#
#
# Elastic Constant Matrix: (Units=GPa)
#
#
# Indices 1 2 3 4 5 6 
#
# 1 118.2146 41.0152 39.1845 0.0000 18.7912 0.0000
# 2 41.0152 68.7027 14.2594 0.0000 13.3201 0.0000
# 3 39.1845 14.2594 111.4389 0.0000 10.5102 0.0000
# 4 0.0000 0.0000 0.0000 26.3609 0.0000 5.6329
# 5 18.7912 13.3201 10.5102 0.0000 36.1755 0.0000
# 6 0.0000 0.0000 0.0000 5.6329 0.0000 12.6373
#
#
#
# Elastic Compliance Matrix: (Units=1/GPa)
#
#
# Indices 1 2 3 4 5 6 
#
# 1 0.012078 -0.005936 -0.003189 0.000000 -0.003162 0.000000
# 2 -0.005936 0.018840 0.000041 0.000000 -0.003866 0.000000
# 3 -0.003189 0.000041 0.010215 0.000000 -0.001326 0.000000
# 4 0.000000 0.000000 0.000000 0.041928 0.000000 -0.018689
# 5 -0.003162 -0.003866 -0.001326 0.000000 0.031094 0.000000
# 6 0.000000 0.000000 0.000000 -0.018689 0.000000 0.087461
#
#
# Mechanical properties :
#
#
# Convention : Reuss Voigt Hill
#
# Bulk Modulus (GPa) = 43.54436 54.14163 48.84300
# Shear Modulus (GPa) = 21.98384 28.62789 25.30586
#
# Velocity S-wave (km/s) = 3.49605 3.98952 3.75091
# Velocity P-wave (km/s) = 6.36442 7.16400 6.77601
#
# Compressibility (1/GPa) = 0.02296509
#
# Stress axis : x y z
#
# Youngs Moduli (GPa) = 82.79236 53.07841 97.89729
#
# Poissons Ratio (x) = 0.31506 0.31223
# Poissons Ratio (y) = 0.49144 -0.00402
# Poissons Ratio (z) = 0.26405 -0.00218
#
# Static dielectric constant tensor:
#      x y z
#    x 1.634700 0.000000 0.014020 
#    y 0.000000 1.660630 0.000000 
#    z 0.014020 0.000000 1.615280 
# 
# From -- ./inp_files/67828.got.cif
#   From: 2010.05.17/outbox.cif.g08.bks.cpg/sg10_34_cif.got.tgz:67828.got - 2010.06.03 11:33:40.
