data_PCOD9154614
_publ_section_title
;
Structure prediction by ZEFSAII (Michael W. Deem and Ramdas Pophale) SiO2 
 PCOD9154614
Probable space group: P 2/M
;
_chemical_formula_sum "Si O2"
_cell_formula_units_Z 16
_cell_length_a 16.266075
_cell_length_b 11.690080
_cell_length_c 12.670307
_cell_angle_alpha 90.000000
_cell_angle_beta 15.147585
_cell_angle_gamma 90.000000
_cell_volume 629.560110
_symmetry_space_group_name_H-M "P 2/M"
_symmetry_group_IT_number 10
_symmetry_cell_setting 'monoclinic'
loop_
_space_group_symop_operation_xyz
x,y,z
-x,y,-z
-x,-y,-z
x,-y,z
loop_
_atom_site_type_symbol
_atom_site_label
_atom_site_fract_x
_atom_site_fract_y
_atom_site_fract_z
Si Si1 0.437439 0.628677 0.961414
Si Si2 0.017606 0.875811 0.803199
Si Si3 0.938823 0.624208 0.951460
Si Si4 0.225923 0.839690 0.126265
O O1 0.327497 0.500000 0.114754
O O2 0.761799 0.623956 0.495863
O O3 0.500000 0.682162 0.000000
O O4 0.226546 0.702560 0.143672
O O5 0.850818 0.759737 0.052200
O O6 0.919213 0.874994 0.803377
O O7 0.924474 0.000000 0.965381
O O8 0.401168 0.868760 0.332763
O O9 0.786103 0.500000 0.108977
O O10 0.000000 0.614186 0.000000
O O11 0.000000 0.881626 0.500000
#
# Coordination Sequence:
#
# PCOD9154614 Si02
#       4
#     4   4   4   4
#     4   9  18  35  61  94 130 167 209 260 317 374
#     4  11  24  40  61  91 126 166 211 259 312 372
#     4   9  19  39  66  94 126 166 211 259 313 374
#     4  11  22  38  61  91 128 168 211 259 314 373
#
# _framework density 25.414573000000001
#
# number of rings (size 3 to 8) (size 9 to 14) (size 15 to 20)
#    0.000    2.000    0.000    4.500    0.000    5.000 
#    0.000    5.000    0.000   21.000    0.000    0.000 
#    0.000    0.000    0.000    0.000    0.000    0.000 
#
# Total GULP energy -89147.225215 kJ/mol
# GULP energy per Si atom -5571.701576 kJ/mol
# Density = 2.535673 g / cm^3
# Si number density = 25.414573 Si / 1000 Ang^3
#
#
#
# Elastic Constant Matrix: (Units=GPa)
#
#
# Indices 1 2 3 4 5 6 
#
# 1 125.5320 6.0722 30.3996 0.0000 3.2709 0.0000
# 2 6.0722 262.7061 -8.2869 0.0000 -3.5375 0.0000
# 3 30.3996 -8.2869 131.9161 0.0000 -7.9041 0.0000
# 4 0.0000 0.0000 0.0000 -188.9005 0.0000 158.0725
# 5 3.2709 -3.5375 -7.9041 0.0000 41.6851 0.0000
# 6 0.0000 0.0000 0.0000 158.0725 0.0000 -69.0241
#
#
#
# Elastic Compliance Matrix: (Units=1/GPa)
#
#
# Indices 1 2 3 4 5 6 
#
# 1 0.008502 -0.000275 -0.002041 0.000000 -0.001077 0.000000
# 2 -0.000275 0.003829 0.000328 0.000000 0.000409 0.000000
# 3 -0.002041 0.000328 0.008176 0.000000 0.001738 0.000000
# 4 0.000000 0.000000 0.000000 0.005777 0.000000 0.013230
# 5 -0.001077 0.000409 0.001738 0.000000 0.024438 0.000000
# 6 0.000000 0.000000 0.000000 0.013230 0.000000 0.015810
#
#
# Mechanical properties :
#
#
# Convention : Reuss Voigt Hill
#
# Bulk Modulus (GPa) = 60.49502 64.05823 62.27662
# Shear Modulus (GPa) = 65.77443 -10.44994 27.66224
#
# Velocity S-wave (km/s) = 5.09282 -2.02996 3.30273
# Velocity P-wave (km/s) = 7.64443 4.44587 6.25312
#
# Compressibility (1/GPa) = 0.01653029
#
# Stress axis : x y z
#
# Youngs Moduli (GPa) = 117.62260 261.18068 122.31340
#
# Poissons Ratio (x) = 0.07193 0.24965
# Poissons Ratio (y) = 0.03239 -0.04018
# Poissons Ratio (z) = 0.24008 -0.08579
#
# Static dielectric constant tensor:
#      x y z
#    x 1.884920 0.000000 0.045450 
#    y 0.000000 2.148220 0.000000 
#    z 0.045450 0.000000 1.853660 
# 
# From -- ./inp_files/6297.got.cif
#   From: 2010.05.17/outbox.cif.g08.bks.cpg/sg10_4_cif.got.tgz:6297.got - 2010.06.03 11:33:40.
