data_PCOD9154445
_publ_section_title
;
Structure prediction by ZEFSAII (Michael W. Deem and Ramdas Pophale) SiO2 
 PCOD9154445
Probable space group: P 2/M
;
_chemical_formula_sum "Si O2"
_cell_formula_units_Z 28
_cell_length_a 9.946872
_cell_length_b 10.703188
_cell_length_c 15.079895
_cell_angle_alpha 90.000000
_cell_angle_beta 66.948029
_cell_angle_gamma 90.000000
_cell_volume 1477.259045
_symmetry_space_group_name_H-M "P 2/M"
_symmetry_group_IT_number 10
_symmetry_cell_setting 'monoclinic'
loop_
_space_group_symop_operation_xyz
x,y,z
-x,y,-z
-x,-y,-z
x,-y,z
loop_
_atom_site_type_symbol
_atom_site_label
_atom_site_fract_x
_atom_site_fract_y
_atom_site_fract_z
Si Si1 0.415525 0.849432 0.297779
Si Si2 0.327241 0.500000 0.064724
Si Si3 0.354344 0.858341 0.990946
Si Si4 0.340242 0.150675 0.511561
Si Si5 0.221474 0.245750 0.185584
Si Si6 0.087087 0.147012 0.711625
Si Si7 0.163886 0.500000 0.918792
Si Si8 0.731359 0.242012 0.177478
O O1 0.326634 0.823157 0.410743
O O2 0.329188 0.801787 0.234476
O O3 0.571278 0.779727 0.261020
O O4 0.440233 0.000000 0.286409
O O5 0.271827 0.379192 0.133839
O O6 0.500000 0.500000 0.000000
O O7 0.258692 0.500000 0.984292
O O8 0.235598 0.847170 0.098153
O O9 0.392066 0.000000 0.958433
O O10 0.500000 0.802386 0.000000
O O11 0.295335 0.798730 0.917143
O O12 0.500000 0.197314 0.500000
O O13 0.209339 0.190128 0.609100
O O14 0.344235 0.000000 0.520056
O O15 0.056018 0.231799 0.259755
O O16 0.158332 0.163159 0.790543
O O17 0.052678 0.000000 0.705111
O O18 0.203659 0.379995 0.849535
O O19 0.000000 0.500000 0.000000
#
# Coordination Sequence:
#
# PCOD9154445 Si02
#       8
#     4   2   4   4   4   4   2   4
#     4  11  21  38  65  95 123 155 199 253 314 365
#     4  12  24  46  66  81 118 174 222 243 288 361
#     4  11  21  35  57  89 123 153 189 249 314 364
#     4   9  18  36  63  91 124 161 199 245 301 379
#     4  12  24  39  60  91 125 160 203 259 299 361
#     4  11  23  39  62  95 127 158 199 252 320 371
#     4  12  26  44  58  81 122 166 216 251 292 353
#     4  12  23  38  62  85 117 164 209 248 295 367
#
# _framework density 18.954021000000001
#
# number of rings (size 3 to 8) (size 9 to 14) (size 15 to 20)
#    0.000    0.857    4.286    4.714    0.000    0.571 
#    0.000    3.571    0.000    5.143    0.000    0.000 
#    0.000    0.000    0.000    0.000    0.000    0.000 
#
# Total GULP energy -156295.785657 kJ/mol
# GULP energy per Si atom -5581.992345 kJ/mol
# Density = 1.891088 g / cm^3
# Si number density = 18.954021 Si / 1000 Ang^3
#
#
#
# Elastic Constant Matrix: (Units=GPa)
#
#
# Indices 1 2 3 4 5 6 
#
# 1 80.3284 23.2018 30.7699 0.0000 -23.8660 0.0000
# 2 23.2018 86.5103 34.8875 0.0000 -11.1518 0.0000
# 3 30.7699 34.8875 108.9010 0.0000 -14.7629 0.0000
# 4 0.0000 0.0000 0.0000 -340.4813 0.0000 -212.0703
# 5 -23.8660 -11.1518 -14.7629 0.0000 38.2530 0.0000
# 6 0.0000 0.0000 0.0000 -212.0703 0.0000 -102.6606
#
#
#
# Elastic Compliance Matrix: (Units=1/GPa)
#
#
# Indices 1 2 3 4 5 6 
#
# 1 0.016771 -0.002228 -0.002843 0.000000 0.008717 0.000000
# 2 -0.002228 0.013774 -0.003616 0.000000 0.001230 0.000000
# 3 -0.002843 -0.003616 0.011355 0.000000 0.001554 0.000000
# 4 0.000000 0.000000 0.000000 0.010246 0.000000 -0.021165
# 5 0.008717 0.001230 0.001554 0.000000 0.032538 0.000000
# 6 0.000000 0.000000 0.000000 -0.021165 0.000000 0.033981
#
#
# Mechanical properties :
#
#
# Convention : Reuss Voigt Hill
#
# Bulk Modulus (GPa) = 40.77410 50.38423 45.57917
# Shear Modulus (GPa) = 34.67038 -68.51907 -16.92435
#
# Velocity S-wave (km/s) = 4.28154 -6.01902 -2.99141
# Velocity P-wave (km/s) = 6.78239 4.65454 3.48827
#
# Compressibility (1/GPa) = 0.02452537
#
# Stress axis : x y z
#
# Youngs Moduli (GPa) = 59.62562 72.60208 88.06491
#
# Poissons Ratio (x) = 0.16173 0.25040
# Poissons Ratio (y) = 0.13283 0.31848
# Poissons Ratio (z) = 0.16954 0.26256
#
# Static dielectric constant tensor:
#      x y z
#    x 1.710700 0.000000 -0.031860 
#    y 0.000000 1.668040 0.000000 
#    z -0.031860 0.000000 1.683780 
# 
# From -- ./inp_files/61152.got.cif
#   From: 2010.05.17/outbox.cif.g08.bks.cpg/sg10_31_cif.got.tgz:61152.got - 2010.06.03 11:33:40.
