data_PCOD9154639
_publ_section_title
;
Structure prediction by ZEFSAII (Michael W. Deem and Ramdas Pophale) SiO2 
 PCOD9154639
Probable space group: P 2/M
;
_chemical_formula_sum "Si O2"
_cell_formula_units_Z 28
_cell_length_a 15.129100
_cell_length_b 21.852829
_cell_length_c 8.984361
_cell_angle_alpha 90.000000
_cell_angle_beta 150.039431
_cell_angle_gamma 90.000000
_cell_volume 1483.405446
_symmetry_space_group_name_H-M "P 2/M"
_symmetry_group_IT_number 10
_symmetry_cell_setting 'monoclinic'
loop_
_space_group_symop_operation_xyz
x,y,z
-x,y,-z
-x,-y,-z
x,-y,z
loop_
_atom_site_type_symbol
_atom_site_label
_atom_site_fract_x
_atom_site_fract_y
_atom_site_fract_z
Si Si1 0.689558 0.652392 0.189558
Si Si2 0.530019 0.429460 0.715023
Si Si3 0.583390 0.000000 0.880193
Si Si4 0.213413 0.000000 0.510217
Si Si5 0.973375 0.869882 0.790645
Si Si6 0.687081 0.206039 0.187081
Si Si7 0.343895 0.869882 0.161164
Si Si8 0.845014 0.429460 0.660011
O O1 0.736098 0.723039 0.236098
O O2 0.824383 0.615739 0.491436
O O3 0.500000 0.651298 0.000000
O O4 0.657332 0.615739 0.990279
O O5 0.500000 0.412566 0.500000
O O6 0.594298 0.500000 0.814601
O O7 0.340402 0.428134 0.521204
O O8 0.617901 0.061009 0.837364
O O9 0.383268 0.000000 0.649805
O O10 0.710442 0.000000 0.210442
O O11 0.101560 0.938991 0.321022
O O12 0.832622 0.828164 0.498801
O O13 0.000000 0.850468 0.000000
O O14 0.158850 0.867991 0.976550
O O15 0.500000 0.202570 0.000000
O O16 0.666444 0.171836 0.000265
O O17 0.500000 0.850468 0.500000
O O18 0.873993 0.500000 0.653690
O O19 0.000000 0.412566 0.000000
#
# Coordination Sequence:
#
# PCOD9154639 Si02
#       8
#     4   4   2   2   4   4   4   4
#     4   9  19  35  57  81 110 151 192 232 281 342
#     4   9  17  32  55  83 113 146 186 232 283 338
#     4  11  22  39  66  94 123 153 187 237 296 348
#     4  11  22  39  66  94 123 153 187 237 296 348
#     4  12  25  42  64  89 119 155 197 241 293 349
#     4  11  23  41  60  84 118 155 199 246 293 345
#     4  12  25  42  64  89 119 155 197 241 293 349
#     4   9  17  32  55  83 113 146 186 232 283 338
#
# _framework density 18.875485999999999
#
# number of rings (size 3 to 8) (size 9 to 14) (size 15 to 20)
#    0.000    1.571    1.429    4.286    0.000    3.429 
#    0.000    6.429    0.000    3.429    0.000    0.000 
#    0.000    0.000    0.000    0.000    0.000    0.000 
#
# Total GULP energy -156523.039981 kJ/mol
# GULP energy per Si atom -5590.108571 kJ/mol
# Density = 1.883252 g / cm^3
# Si number density = 18.875486 Si / 1000 Ang^3
#
#
#
# Elastic Constant Matrix: (Units=GPa)
#
#
# Indices 1 2 3 4 5 6 
#
# 1 111.5570 61.6508 64.0919 0.0000 -25.0347 0.0000
# 2 61.6508 155.3501 99.0411 0.0000 -38.0292 0.0000
# 3 64.0919 99.0411 163.5746 0.0000 -27.8709 0.0000
# 4 0.0000 0.0000 0.0000 8.0908 0.0000 2.4013
# 5 -25.0347 -38.0292 -27.8709 0.0000 38.9245 0.0000
# 6 0.0000 0.0000 0.0000 2.4013 0.0000 10.4539
#
#
#
# Elastic Compliance Matrix: (Units=1/GPa)
#
#
# Indices 1 2 3 4 5 6 
#
# 1 0.012788 -0.002192 -0.003015 0.000000 0.003924 0.000000
# 2 -0.002192 0.012528 -0.005560 0.000000 0.006849 0.000000
# 3 -0.003015 -0.005560 0.010712 0.000000 0.000299 0.000000
# 4 0.000000 0.000000 0.000000 0.132640 0.000000 -0.030469
# 5 0.003924 0.006849 0.000299 0.000000 0.035121 0.000000
# 6 0.000000 0.000000 0.000000 -0.030469 0.000000 0.102657
#
#
# Mechanical properties :
#
#
# Convention : Reuss Voigt Hill
#
# Bulk Modulus (GPa) = 68.98848 97.78325 83.38587
# Shear Modulus (GPa) = 15.02355 25.20703 20.11529
#
# Velocity S-wave (km/s) = 2.82428 3.65833 3.26802
# Velocity P-wave (km/s) = 6.87488 8.35232 7.64936
#
# Compressibility (1/GPa) = 0.01449517
#
# Stress axis : x y z
#
# Youngs Moduli (GPa) = 78.19654 79.81998 93.35527
#
# Poissons Ratio (x) = 0.17500 0.28142
# Poissons Ratio (y) = 0.17144 0.51901
# Poissons Ratio (z) = 0.23573 0.44376
#
# Static dielectric constant tensor:
#      x y z
#    x 1.636080 0.000000 0.001100 
#    y 0.000000 1.632470 0.000000 
#    z 0.001100 0.000000 1.635000 
# 
# From -- ./inp_files/30535.got.cif
#   From: 2010.05.17/outbox.cif.g08.bks.cpg/sg10_16_cif.got.tgz:30535.got - 2010.06.03 11:33:40.
