data_PCOD9154849
_publ_section_title
;
Structure prediction by ZEFSAII (Michael W. Deem and Ramdas Pophale) SiO2 
 PCOD9154849
Probable space group: P 2/M
;
_chemical_formula_sum "Si O2"
_cell_formula_units_Z 21
_cell_length_a 6.755155
_cell_length_b 7.497667
_cell_length_c 15.071303
_cell_angle_alpha 90.000000
_cell_angle_beta 93.305439
_cell_angle_gamma 90.000000
_cell_volume 762.059973
_symmetry_space_group_name_H-M "P 2/M"
_symmetry_group_IT_number 10
_symmetry_cell_setting 'monoclinic'
loop_
_space_group_symop_operation_xyz
x,y,z
-x,y,-z
-x,-y,-z
x,-y,z
loop_
_atom_site_type_symbol
_atom_site_label
_atom_site_fract_x
_atom_site_fract_y
_atom_site_fract_z
Si Si1 0.284543 0.289469 0.524989
Si Si2 0.835645 0.213710 0.665913
Si Si3 0.495513 0.790904 0.097924
Si Si4 0.400620 0.788190 0.713662
Si Si5 0.000000 0.500000 0.000000
Si Si6 0.966552 0.790149 0.855811
O O1 0.500000 0.211916 0.500000
O O2 0.301243 0.500000 0.532445
O O3 0.143070 0.256013 0.437271
O O4 0.255635 0.229482 0.625701
O O5 0.613303 0.282402 0.683989
O O6 0.969433 0.270297 0.752856
O O7 0.834794 0.000000 0.672260
O O8 0.618674 0.720188 0.185928
O O9 0.267830 0.782365 0.124290
O O10 0.547881 0.000000 0.088185
O O11 0.500000 0.707634 0.000000
O O12 0.420737 0.000000 0.725940
O O13 0.058448 0.657528 0.928950
O O14 0.023820 0.000000 0.864347
#
# Coordination Sequence:
#
# PCOD9154849 Si02
#       6
#     4   4   4   4   1   4
#     4   9  15  20  31  53  82 113 142 171 207 258
#     4   8  14  25  39  55  80 113 144 177 216 262
#     4   8  14  28  49  68  91 124 156 187 224 269
#     4   8  13  22  36  56  82 114 146 172 209 262
#     4  12  22  32  50  66  90 126 158 198 236 272
#     4   9  19  33  48  69  94 121 156 193 231 274
#
# _framework density 27.556884
#
# number of rings (size 3 to 8) (size 9 to 14) (size 15 to 20)
#    0.000    3.429    0.000    3.143    1.333    2.286 
#    5.143    0.476    0.000    0.000    0.000    0.000 
#    0.000    3.048    0.000   14.286    0.000    3.810 
#
# Total GULP energy -117115.940030 kJ/mol
# GULP energy per Si atom -5576.949525 kJ/mol
# Density = 2.749416 g / cm^3
# Si number density = 27.556884 Si / 1000 Ang^3
#
#
#
# Elastic Constant Matrix: (Units=GPa)
#
#
# Indices 1 2 3 4 5 6 
#
# 1 95.8108 -6.3002 78.1263 0.0000 8.6050 0.0000
# 2 -6.3002 109.9729 52.6866 0.0000 5.0009 0.0000
# 3 78.1263 52.6866 388.8486 0.0000 -11.9337 0.0000
# 4 0.0000 0.0000 0.0000 202.0643 0.0000 0.3228
# 5 8.6050 5.0009 -11.9337 0.0000 55.9215 0.0000
# 6 0.0000 0.0000 0.0000 0.3228 0.0000 -16.3890
#
#
#
# Elastic Compliance Matrix: (Units=1/GPa)
#
#
# Indices 1 2 3 4 5 6 
#
# 1 0.013389 0.002387 -0.003104 0.000000 -0.002936 0.000000
# 2 0.002387 0.010225 -0.001917 0.000000 -0.001691 0.000000
# 3 -0.003104 -0.001917 0.003498 0.000000 0.001395 0.000000
# 4 0.000000 0.000000 0.000000 0.004949 0.000000 0.000097
# 5 -0.002936 -0.001691 0.001395 0.000000 0.018783 0.000000
# 6 0.000000 0.000000 0.000000 0.000097 0.000000 -0.061015
#
#
# Mechanical properties :
#
#
# Convention : Reuss Voigt Hill
#
# Bulk Modulus (GPa) = 45.77641 93.73976 69.75809
# Shear Modulus (GPa) = 2103.51973 79.66068 1091.59020
#
# Velocity S-wave (km/s) = 27.65853 5.38242 19.92442
# Velocity P-wave (km/s) = 32.19690 8.52748 23.55163
#
# Compressibility (1/GPa) = 0.02184531
#
# Stress axis : x y z
#
# Youngs Moduli (GPa) = 74.69013 97.79731 285.89145
#
# Poissons Ratio (x) = -0.23348 0.88729
# Poissons Ratio (y) = -0.17832 0.54806
# Poissons Ratio (z) = 0.23181 0.18748
#
# Static dielectric constant tensor:
#      x y z
#    x 2.299730 0.000000 -0.002180 
#    y 0.000000 1.991820 0.000000 
#    z -0.002180 0.000000 2.173760 
# 
# From -- ./inp_files/54437.got.cif
#   From: 2010.05.17/outbox.cif.g08.bks.cpg/sg10_28_cif.got.tgz:54437.got - 2010.06.03 11:33:40.
