data_PCOD9154979
_publ_section_title
;
Structure prediction by ZEFSAII (Michael W. Deem and Ramdas Pophale) SiO2 
 PCOD9154979
Probable space group: P 2/M
;
_chemical_formula_sum "Si O2"
_cell_formula_units_Z 28
_cell_length_a 9.410519
_cell_length_b 7.428479
_cell_length_c 30.305270
_cell_angle_alpha 90.000000
_cell_angle_beta 39.606132
_cell_angle_gamma 90.000000
_cell_volume 1350.567256
_symmetry_space_group_name_H-M "P 2/M"
_symmetry_group_IT_number 10
_symmetry_cell_setting 'monoclinic'
loop_
_space_group_symop_operation_xyz
x,y,z
-x,y,-z
-x,-y,-z
x,-y,z
loop_
_atom_site_type_symbol
_atom_site_label
_atom_site_fract_x
_atom_site_fract_y
_atom_site_fract_z
Si Si1 0.330856 0.720841 0.635228
Si Si2 0.990616 0.715586 0.367119
Si Si3 0.650775 0.213718 0.784435
Si Si4 0.242234 0.790364 0.932519
Si Si5 0.161244 0.279835 0.500666
Si Si6 0.980270 0.703742 0.784416
Si Si7 0.427419 0.281083 0.065951
O O1 0.324471 0.500000 0.637591
O O2 0.585032 0.775875 0.568895
O O3 0.185530 0.779684 0.627696
O O4 0.204775 0.783559 0.709879
O O5 0.970971 0.500000 0.372873
O O6 0.236784 0.756653 0.289697
O O7 0.928464 0.781527 0.430380
O O8 0.402755 0.280945 0.855078
O O9 0.816507 0.300438 0.780766
O O10 0.655041 0.000000 0.792203
O O11 0.393670 0.777000 0.940152
O O12 0.204024 0.000000 0.930743
O O13 0.000000 0.709035 0.000000
O O14 0.161754 0.500000 0.501160
O O15 0.000000 0.222851 0.500000
O O16 0.032779 0.500000 0.785827
O O17 0.818526 0.784092 0.860267
O O18 0.421984 0.500000 0.068361
O O19 0.500000 0.224186 0.000000
#
# Coordination Sequence:
#
# PCOD9154979 Si02
#       7
#     4   4   4   4   4   4   4
#     4   8  13  23  41  61  80 107 142 175 207 244
#     4   9  16  27  44  64  84 108 139 174 213 256
#     4   9  16  27  45  66  86 109 141 182 219 249
#     4   9  18  32  48  66  89 119 155 189 220 261
#     4   9  16  25  39  62  88 110 137 175 211 245
#     4   8  14  26  44  63  85 114 145 177 214 255
#     4   9  17  29  45  68  96 121 147 183 228 273
#
# _framework density 20.732032
#
# number of rings (size 3 to 8) (size 9 to 14) (size 15 to 20)
#    0.000    3.286    0.000    1.714    0.000    2.857 
#    0.000    1.429    0.000   10.714    0.000    0.000 
#    0.000    0.000    0.000    0.000    0.000    0.000 
#
# Total GULP energy -155998.777315 kJ/mol
# GULP energy per Si atom -5571.384904 kJ/mol
# Density = 2.068484 g / cm^3
# Si number density = 20.732032 Si / 1000 Ang^3
#
#
#
# Elastic Constant Matrix: (Units=GPa)
#
#
# Indices 1 2 3 4 5 6 
#
# 1 58.2821 -2.9436 85.6913 0.0000 -1.6484 0.0000
# 2 -2.9436 70.0833 0.8454 0.0000 -1.2099 0.0000
# 3 85.6913 0.8454 279.4208 0.0000 -1.1828 0.0000
# 4 0.0000 0.0000 0.0000 -66.3541 0.0000 3.7324
# 5 -1.6484 -1.2099 -1.1828 0.0000 29.5889 0.0000
# 6 0.0000 0.0000 0.0000 3.7324 0.0000 5.9683
#
#
#
# Elastic Compliance Matrix: (Units=1/GPa)
#
#
# Indices 1 2 3 4 5 6 
#
# 1 0.031451 0.001462 -0.009644 0.000000 0.001426 0.000000
# 2 0.001462 0.014347 -0.000489 0.000000 0.000649 0.000000
# 3 -0.009644 -0.000489 0.006537 0.000000 -0.000296 0.000000
# 4 0.000000 0.000000 0.000000 -0.014559 0.000000 0.009105
# 5 0.001426 0.000649 -0.000296 0.000000 0.033891 0.000000
# 6 0.000000 0.000000 0.000000 0.009105 0.000000 0.161859
#
#
# Mechanical properties :
#
#
# Convention : Reuss Voigt Hill
#
# Bulk Modulus (GPa) = 28.57685 63.88581 46.23133
# Shear Modulus (GPa) = 19.04532 15.45348 17.24940
#
# Velocity S-wave (km/s) = 3.03420 2.73315 2.88760
# Velocity P-wave (km/s) = 5.10774 6.39078 5.78494
#
# Compressibility (1/GPa) = 0.03499337
#
# Stress axis : x y z
#
# Youngs Moduli (GPa) = 31.79555 69.69982 152.98701
#
# Poissons Ratio (x) = -0.10190 1.47534
# Poissons Ratio (y) = -0.04648 0.07481
# Poissons Ratio (z) = 0.30662 0.03408
#
# Static dielectric constant tensor:
#      x y z
#    x 1.675840 0.000000 -0.002840 
#    y 0.000000 1.793120 0.000000 
#    z -0.002840 0.000000 1.805660 
# 
# From -- ./inp_files/37304.got.cif
#   From: 2010.05.17/outbox.cif.g08.bks.cpg/sg10_19_cif.got.tgz:37304.got - 2010.06.03 11:33:40.
