data_PCOD9154282
_publ_section_title
;
Structure prediction by ZEFSAII (Michael W. Deem and Ramdas Pophale) SiO2 
 PCOD9154282
Probable space group: P 2/M
;
_chemical_formula_sum "Si O2"
_cell_formula_units_Z 28
_cell_length_a 12.527862
_cell_length_b 13.197605
_cell_length_c 16.165218
_cell_angle_alpha 90.000000
_cell_angle_beta 39.564476
_cell_angle_gamma 90.000000
_cell_volume 1702.379430
_symmetry_space_group_name_H-M "P 2/M"
_symmetry_group_IT_number 10
_symmetry_cell_setting 'monoclinic'
loop_
_space_group_symop_operation_xyz
x,y,z
-x,y,-z
-x,-y,-z
x,-y,z
loop_
_atom_site_type_symbol
_atom_site_label
_atom_site_fract_x
_atom_site_fract_y
_atom_site_fract_z
Si Si1 0.437705 0.762164 0.254691
Si Si2 0.520150 0.617649 0.349317
Si Si3 0.219628 0.382631 0.656895
Si Si4 0.124531 0.881125 0.503501
Si Si5 0.947812 0.250069 0.746712
Si Si6 0.841479 0.619055 0.657215
Si Si7 0.366733 0.879813 0.004114
O O1 0.531054 0.697739 0.269326
O O2 0.307470 0.841018 0.372287
O O3 0.316750 0.681674 0.281037
O O4 0.552204 0.823675 0.122855
O O5 0.524123 0.500000 0.318524
O O6 0.665296 0.630615 0.330913
O O7 0.343966 0.631442 0.503741
O O8 0.163298 0.500000 0.688599
O O9 0.067439 0.305175 0.740821
O O10 0.000000 0.862294 0.500000
O O11 0.055820 0.822871 0.623484
O O12 0.124865 0.000000 0.518146
O O13 0.884894 0.336983 0.721163
O O14 0.797608 0.183148 0.872275
O O15 0.806639 0.500000 0.680709
O O16 0.000000 0.633158 0.500000
O O17 0.334293 0.000000 0.009258
O O18 0.500000 0.873835 0.000000
#
# Coordination Sequence:
#
# PCOD9154282 Si02
#       7
#     4   4   4   4   4   4   4
#     4  12  19  36  55  82 111 146 186 228 283 327
#     4   9  18  34  59  88 115 147 185 225 274 334
#     4   9  18  34  59  88 115 147 185 225 274 334
#     4  11  20  32  53  80 107 137 190 240 278 334
#     4  12  19  36  55  82 111 146 186 228 283 327
#     4  11  20  31  52  85 115 141 173 227 290 341
#     4  11  24  40  57  78 113 153 192 232 280 336
#
# _framework density 16.447568
#
# number of rings (size 3 to 8) (size 9 to 14) (size 15 to 20)
#    0.000    1.286    5.714    2.571    0.000    4.571 
#    0.000    4.286    0.000    6.857    0.000    0.000 
#    0.000    0.000    0.000    0.000    0.000    0.000 
#
# Total GULP energy -156298.116856 kJ/mol
# GULP energy per Si atom -5582.075602 kJ/mol
# Density = 1.641013 g / cm^3
# Si number density = 16.447568 Si / 1000 Ang^3
#
#
#
# Elastic Constant Matrix: (Units=GPa)
#
#
# Indices 1 2 3 4 5 6 
#
# 1 60.7873 39.3272 24.4219 0.0000 -4.6049 0.0000
# 2 39.3272 77.4581 11.4720 0.0000 -14.9868 0.0000
# 3 24.4219 11.4720 77.7204 0.0000 -10.1233 0.0000
# 4 0.0000 0.0000 0.0000 17.7236 0.0000 -4.4630
# 5 -4.6049 -14.9868 -10.1233 0.0000 16.7385 0.0000
# 6 0.0000 0.0000 0.0000 -4.4630 0.0000 32.3369
#
#
#
# Elastic Compliance Matrix: (Units=1/GPa)
#
#
# Indices 1 2 3 4 5 6 
#
# 1 0.029072 -0.015671 -0.008258 0.000000 -0.011028 0.000000
# 2 -0.015671 0.024082 0.003926 0.000000 0.019625 0.000000
# 3 -0.008258 0.003926 0.016331 0.000000 0.011119 0.000000
# 4 0.000000 0.000000 0.000000 0.058453 0.000000 0.008067
# 5 -0.011028 0.019625 0.011119 0.000000 0.081005 0.000000
# 6 0.000000 0.000000 0.000000 0.008067 0.000000 0.032038
#
#
# Mechanical properties :
#
#
# Convention : Reuss Voigt Hill
#
# Bulk Modulus (GPa) = 33.92417 40.71202 37.31809
# Shear Modulus (GPa) = 17.19314 22.74280 19.96797
#
# Velocity S-wave (km/s) = 3.23666 3.72256 3.48808
# Velocity P-wave (km/s) = 5.88544 6.57898 6.24185
#
# Compressibility (1/GPa) = 0.02947751
#
# Stress axis : x y z
#
# Youngs Moduli (GPa) = 34.39753 41.52418 61.23498
#
# Poissons Ratio (x) = 0.65072 0.50571
# Poissons Ratio (y) = 0.53904 -0.24039
# Poissons Ratio (z) = 0.28407 -0.16301
#
# Static dielectric constant tensor:
#      x y z
#    x 1.555500 0.000000 -0.000050 
#    y 0.000000 1.542940 0.000000 
#    z -0.000050 0.000000 1.541110 
# 
# From -- ./inp_files/64906.got.cif
#   From: 2010.05.17/outbox.cif.g08.bks.cpg/sg10_33_cif.got.tgz:64906.got - 2010.06.03 11:33:40.
