data_PCOD9154307
_publ_section_title
;
Structure prediction by ZEFSAII (Michael W. Deem and Ramdas Pophale) SiO2 
 PCOD9154307
Probable space group: P 2/M
;
_chemical_formula_sum "Si O2"
_cell_formula_units_Z 32
_cell_length_a 13.745856
_cell_length_b 14.414478
_cell_length_c 17.098072
_cell_angle_alpha 90.000000
_cell_angle_beta 36.761734
_cell_angle_gamma 90.000000
_cell_volume 2027.560367
_symmetry_space_group_name_H-M "P 2/M"
_symmetry_group_IT_number 10
_symmetry_cell_setting 'monoclinic'
loop_
_space_group_symop_operation_xyz
x,y,z
-x,y,-z
-x,-y,-z
x,-y,z
loop_
_atom_site_type_symbol
_atom_site_label
_atom_site_fract_x
_atom_site_fract_y
_atom_site_fract_z
Si Si1 0.699120 0.204019 0.713308
Si Si2 0.425068 0.396332 0.174871
Si Si3 0.347572 0.888742 0.958510
Si Si4 0.817450 0.887047 0.099518
Si Si5 0.476134 0.887590 0.603595
Si Si6 0.126106 0.202575 0.231960
Si Si7 0.758340 0.396109 0.875230
Si Si8 0.197843 0.888829 0.510145
O O1 0.650545 0.311277 0.729344
O O2 0.802795 0.200136 0.725917
O O3 0.791178 0.157462 0.582050
O O4 0.529292 0.150779 0.836535
O O5 0.407390 0.500000 0.219573
O O6 0.333112 0.396285 0.150082
O O7 0.614226 0.380086 0.031098
O O8 0.252741 0.849223 0.093995
O O9 0.354788 0.000000 0.957427
O O10 0.249690 0.861843 0.942821
O O11 0.687004 0.855241 0.248092
O O12 0.819465 0.000000 0.100203
O O13 0.000000 0.855228 0.000000
O O14 0.500000 0.853449 0.500000
O O15 0.633378 0.867299 0.554722
O O16 0.465151 0.000000 0.606972
O O17 0.121832 0.309288 0.205852
O O18 0.953568 0.152259 0.344992
O O19 0.825263 0.500000 0.843860
O O20 0.182582 0.000000 0.513176
#
# Coordination Sequence:
#
# PCOD9154307 Si02
#       8
#     4   4   4   4   4   4   4   4
#     4  11  20  34  49  67 100 137 172 202 237 284
#     4   8  14  27  49  71  90 119 160 209 257 288
#     4  11  21  32  47  70 100 131 169 209 237 278
#     4   9  18  32  50  70  91 118 157 211 260 283
#     4   9  18  33  51  67  88 123 163 204 252 294
#     4  11  22  32  47  72  98 137 176 199 231 286
#     4   8  14  28  48  69  93 120 158 210 257 284
#     4  11  23  36  47  66 102 141 171 201 237 284
#
# _framework density 15.782515
#
# number of rings (size 3 to 8) (size 9 to 14) (size 15 to 20)
#    0.000    2.250    2.500    2.250    1.750    3.000 
#    0.000    0.625    0.000    3.000    0.000    0.000 
#    0.000    6.000    0.000    0.000    0.000    0.000 
#
# Total GULP energy -178361.552281 kJ/mol
# GULP energy per Si atom -5573.798509 kJ/mol
# Density = 1.574659 g / cm^3
# Si number density = 15.782515 Si / 1000 Ang^3
#
#
#
# Elastic Constant Matrix: (Units=GPa)
#
#
# Indices 1 2 3 4 5 6 
#
# 1 38.5822 9.0484 8.0464 0.0000 -0.5236 0.0000
# 2 9.0484 79.2575 23.1937 0.0000 -3.3620 0.0000
# 3 8.0464 23.1937 62.1596 0.0000 -4.7493 0.0000
# 4 0.0000 0.0000 0.0000 20.9693 0.0000 -6.2030
# 5 -0.5236 -3.3620 -4.7493 0.0000 23.8938 0.0000
# 6 0.0000 0.0000 0.0000 -6.2030 0.0000 -2.5026
#
#
#
# Elastic Compliance Matrix: (Units=1/GPa)
#
#
# Indices 1 2 3 4 5 6 
#
# 1 0.027012 -0.002319 -0.002651 0.000000 -0.000261 0.000000
# 2 -0.002319 0.014384 -0.004992 0.000000 0.000981 0.000000
# 3 -0.002651 -0.004992 0.018517 0.000000 0.002920 0.000000
# 4 0.000000 0.000000 0.000000 0.027515 0.000000 -0.068198
# 5 -0.000261 0.000981 0.002920 0.000000 0.042565 0.000000
# 6 0.000000 0.000000 0.000000 -0.068198 0.000000 -0.230544
#
#
# Mechanical properties :
#
#
# Convention : Reuss Voigt Hill
#
# Bulk Modulus (GPa) = 25.00745 28.95292 26.98019
# Shear Modulus (GPa) = -74.29684 17.78614 -28.25535
#
# Velocity S-wave (km/s) = -6.86860 3.36065 -4.23578
# Velocity P-wave (km/s) = 6.85741 5.78303 2.60582
#
# Compressibility (1/GPa) = 0.03998808
#
# Stress axis : x y z
#
# Youngs Moduli (GPa) = 37.02062 69.52008 54.00555
#
# Poissons Ratio (x) = 0.16122 0.14318
# Poissons Ratio (y) = 0.08585 0.26960
# Poissons Ratio (z) = 0.09815 0.34705
#
# Static dielectric constant tensor:
#      x y z
#    x 1.519620 0.000000 0.002620 
#    y 0.000000 1.536860 0.000000 
#    z 0.002620 0.000000 1.525160 
# 
# From -- ./inp_files/35174.got.cif
#   From: 2010.05.17/outbox.cif.g08.bks.cpg/sg10_18_cif.got.tgz:35174.got - 2010.06.03 11:33:40.
