data_PCOD9154182
_publ_section_title
;
Structure prediction by ZEFSAII (Michael W. Deem and Ramdas Pophale) SiO2 
 PCOD9154182
Probable space group: P 2/M
;
_chemical_formula_sum "Si O2"
_cell_formula_units_Z 12
_cell_length_a 9.905360
_cell_length_b 9.013784
_cell_length_c 7.108766
_cell_angle_alpha 90.000000
_cell_angle_beta 47.568856
_cell_angle_gamma 90.000000
_cell_volume 468.468278
_symmetry_space_group_name_H-M "P 2/M"
_symmetry_group_IT_number 10
_symmetry_cell_setting 'monoclinic'
loop_
_space_group_symop_operation_xyz
x,y,z
-x,y,-z
-x,-y,-z
x,-y,z
loop_
_atom_site_type_symbol
_atom_site_label
_atom_site_fract_x
_atom_site_fract_y
_atom_site_fract_z
Si Si1 0.042764 0.500000 0.180915
Si Si2 0.524432 0.500000 0.248947
Si Si3 0.784378 0.000000 0.240978
Si Si4 0.763605 0.253415 0.561765
Si Si5 0.298632 0.000000 0.108162
O O1 0.739155 0.500000 0.997136
O O2 0.935786 0.359064 0.363081
O O3 0.000000 0.500000 0.000000
O O4 0.500000 0.500000 0.500000
O O5 0.414667 0.358189 0.273417
O O6 0.741222 0.143243 0.405603
O O7 0.000000 0.000000 0.000000
O O8 0.696601 0.000000 0.119132
O O9 0.786102 0.147598 0.720869
O O10 0.500000 0.000000 0.000000
#
# Coordination Sequence:
#
# PCOD9154182 Si02
#       5
#     2   2   2   4   2
#     4  11  21  42  77 111 149 195 252 314 376 452
#     4  11  23  42  81 110 147 204 257 305 388 453
#     4  11  26  47  81 106 153 202 251 316 383 455
#     4  10  25  47  75 115 149 196 256 314 384 453
#     4  11  28  47  77 114 156 199 257 316 383 457
#
# _framework density 25.615394999999999
#
# number of rings (size 3 to 8) (size 9 to 14) (size 15 to 20)
#    0.000    1.333    3.333    1.000    4.667    4.000 
#    0.000   15.000    0.000   20.000    0.000    0.000 
#    0.000    0.000    0.000    0.000    0.000    0.000 
#
# Total GULP energy -67444.218674 kJ/mol
# GULP energy per Si atom -5620.351556 kJ/mol
# Density = 2.555709 g / cm^3
# Si number density = 25.615395 Si / 1000 Ang^3
#
#
#
# Elastic Constant Matrix: (Units=GPa)
#
#
# Indices 1 2 3 4 5 6 
#
# 1 199.7613 95.8427 67.4057 0.0000 -35.2804 0.0000
# 2 95.8427 243.8815 104.0561 0.0000 -12.7762 0.0000
# 3 67.4057 104.0561 167.8424 0.0000 15.4964 0.0000
# 4 0.0000 0.0000 0.0000 18.8225 0.0000 -9.5881
# 5 -35.2804 -12.7762 15.4964 0.0000 71.7435 0.0000
# 6 0.0000 0.0000 0.0000 -9.5881 0.0000 33.8397
#
#
#
# Elastic Compliance Matrix: (Units=1/GPa)
#
#
# Indices 1 2 3 4 5 6 
#
# 1 0.007220 -0.001712 -0.002181 0.000000 0.003717 0.000000
# 2 -0.001712 0.006212 -0.003253 0.000000 0.000967 0.000000
# 3 -0.002181 -0.003253 0.009186 0.000000 -0.003636 0.000000
# 4 0.000000 0.000000 0.000000 0.062089 0.000000 0.017592
# 5 0.003717 0.000967 -0.003636 0.000000 0.016724 0.000000
# 6 0.000000 0.000000 0.000000 0.017592 0.000000 0.034536
#
#
# Mechanical properties :
#
#
# Convention : Reuss Voigt Hill
#
# Bulk Modulus (GPa) = 120.10901 127.34381 123.72641
# Shear Modulus (GPa) = 32.67257 47.82652 40.24955
#
# Velocity S-wave (km/s) = 3.57530 4.32568 3.96827
# Velocity P-wave (km/s) = 8.00218 8.64699 8.33082
#
# Compressibility (1/GPa) = 0.00832577
#
# Stress axis : x y z
#
# Youngs Moduli (GPa) = 138.50852 160.98930 108.85800
#
# Poissons Ratio (x) = 0.27560 0.23745
# Poissons Ratio (y) = 0.23711 0.35409
# Poissons Ratio (z) = 0.30213 0.52366
#
# Static dielectric constant tensor:
#      x y z
#    x 2.005280 0.000000 0.003050 
#    y 0.000000 1.999970 0.000000 
#    z 0.003050 0.000000 2.315870 
# 
# From -- ./inp_files/5663.got.cif
#   From: 2010.05.17/outbox.cif.g08.bks.cpg/sg10_3_cif.got.tgz:5663.got - 2010.06.03 11:33:40.
