data_PCOD9154288
_publ_section_title
;
Structure prediction by ZEFSAII (Michael W. Deem and Ramdas Pophale) SiO2 
 PCOD9154288
Probable space group: P 2/M
;
_chemical_formula_sum "Si O2"
_cell_formula_units_Z 28
_cell_length_a 11.556804
_cell_length_b 11.673750
_cell_length_c 12.648113
_cell_angle_alpha 90.000000
_cell_angle_beta 89.998433
_cell_angle_gamma 90.000000
_cell_volume 1706.372617
_symmetry_space_group_name_H-M "P 2/M"
_symmetry_group_IT_number 10
_symmetry_cell_setting 'monoclinic'
loop_
_space_group_symop_operation_xyz
x,y,z
-x,y,-z
-x,-y,-z
x,-y,z
loop_
_atom_site_type_symbol
_atom_site_label
_atom_site_fract_x
_atom_site_fract_y
_atom_site_fract_z
Si Si1 0.138453 0.500000 0.124369
Si Si2 0.256507 0.731143 0.189904
Si Si3 0.499936 0.370710 0.125319
Si Si4 0.743766 0.269241 0.190099
Si Si5 0.137754 0.500000 0.875060
Si Si6 0.636305 0.136272 0.375451
Si Si7 0.636346 0.863718 0.624520
Si Si8 0.135063 0.136939 0.999936
O O1 0.185136 0.613096 0.182229
O O2 0.000340 0.500000 0.122832
O O3 0.178384 0.500000 0.999626
O O4 0.385420 0.696329 0.155862
O O5 0.276602 0.793147 0.301671
O O6 0.198000 0.813569 0.103439
O O7 0.499272 0.500000 0.171037
O O8 0.615061 0.304855 0.156114
O O9 0.500000 0.381022 0.000000
O O10 0.815786 0.386917 0.182954
O O11 0.723347 0.206800 0.301608
O O12 0.801893 0.186903 0.103322
O O13 0.499980 0.163876 0.354258
O O14 0.655904 0.156927 0.499982
O O15 0.649443 0.000000 0.355966
O O16 0.649505 0.000000 0.644017
O O17 0.139749 0.000000 0.999675
O O18 0.000000 0.173530 0.000000
#
# Coordination Sequence:
#
# PCOD9154288 Si02
#       8
#     2   4   4   4   2   4   4   4
#     4  11  22  37  58  81 110 153 194 226 271 332
#     4  12  20  35  57  83 113 145 185 228 280 334
#     4  11  20  32  49  82 119 149 172 216 283 346
#     4  12  20  35  57  83 113 145 185 228 280 334
#     4  11  22  37  58  81 110 153 194 226 271 332
#     4   9  19  36  57  82 114 151 186 223 276 340
#     4   9  19  36  57  82 114 151 186 223 276 340
#     4  11  24  38  53  78 112 150 190 231 274 323
#
# _framework density 16.409078000000001
#
# number of rings (size 3 to 8) (size 9 to 14) (size 15 to 20)
#    0.000    1.286    5.714    2.571    0.000    0.000 
#    0.000    1.429    0.000    6.857    0.000   10.000 
#    0.000    0.000    0.000    0.000    0.000    0.000 
#
# Total GULP energy -156194.826426 kJ/mol
# GULP energy per Si atom -5578.386658 kJ/mol
# Density = 1.637173 g / cm^3
# Si number density = 16.409078 Si / 1000 Ang^3
#
#
#
# Elastic Constant Matrix: (Units=GPa)
#
#
# Indices 1 2 3 4 5 6 
#
# 1 103.6981 50.9914 45.9987 0.0000 -0.0355 0.0000
# 2 50.9914 98.1350 67.5720 0.0000 0.0002 0.0000
# 3 45.9987 67.5720 111.6496 0.0000 0.0245 0.0000
# 4 0.0000 0.0000 0.0000 24.8348 0.0000 -0.0308
# 5 -0.0355 0.0002 0.0245 0.0000 15.1825 0.0000
# 6 0.0000 0.0000 0.0000 -0.0308 0.0000 29.1606
#
#
#
# Elastic Compliance Matrix: (Units=1/GPa)
#
#
# Indices 1 2 3 4 5 6 
#
# 1 0.013266 -0.005366 -0.002218 0.000000 0.000035 0.000000
# 2 -0.005366 0.019641 -0.009676 0.000000 0.000003 0.000000
# 3 -0.002218 -0.009676 0.015727 0.000000 -0.000030 0.000000
# 4 0.000000 0.000000 0.000000 0.040266 0.000000 0.000043
# 5 0.000035 0.000003 -0.000030 0.000000 0.065866 0.000000
# 6 0.000000 0.000000 0.000000 0.000043 0.000000 0.034293
#
#
# Mechanical properties :
#
#
# Convention : Reuss Voigt Hill
#
# Bulk Modulus (GPa) = 70.85557 71.40076 71.12816
# Shear Modulus (GPa) = 21.90272 23.76360 22.83316
#
# Velocity S-wave (km/s) = 3.65745 3.80965 3.73432
# Velocity P-wave (km/s) = 7.81731 7.93465 7.87620
#
# Compressibility (1/GPa) = 0.01411322
#
# Stress axis : x y z
#
# Youngs Moduli (GPa) = 75.38222 50.91434 63.58657
#
# Poissons Ratio (x) = 0.27319 0.14103
# Poissons Ratio (y) = 0.40448 0.61528
# Poissons Ratio (z) = 0.16719 0.49266
#
# Static dielectric constant tensor:
#      x y z
#    x 1.531340 0.000000 0.000150 
#    y 0.000000 1.572090 0.000000 
#    z 0.000150 0.000000 1.537420 
# 
# From -- ./inp_files/46057.got.cif
#   From: 2010.05.17/outbox.cif.g08.bks.cpg/sg10_24_cif.got.tgz:46057.got - 2010.06.03 11:33:40.
