data_PCOD9154301
_publ_section_title
;
Structure prediction by ZEFSAII (Michael W. Deem and Ramdas Pophale) SiO2 
 PCOD9154301
Probable space group: P 2/M
;
_chemical_formula_sum "Si O2"
_cell_formula_units_Z 28
_cell_length_a 9.073897
_cell_length_b 15.186275
_cell_length_c 12.392006
_cell_angle_alpha 90.000000
_cell_angle_beta 56.332627
_cell_angle_gamma 90.000000
_cell_volume 1421.186033
_symmetry_space_group_name_H-M "P 2/M"
_symmetry_group_IT_number 10
_symmetry_cell_setting 'monoclinic'
loop_
_space_group_symop_operation_xyz
x,y,z
-x,y,-z
-x,-y,-z
x,-y,z
loop_
_atom_site_type_symbol
_atom_site_label
_atom_site_fract_x
_atom_site_fract_y
_atom_site_fract_z
Si Si1 0.861337 0.214080 0.966153
Si Si2 0.309811 0.659612 0.125732
Si Si3 0.739100 0.815381 0.686772
Si Si4 0.972737 0.400636 0.383424
Si Si5 0.959721 0.893750 0.296191
Si Si6 0.557919 0.905093 0.101492
Si Si7 0.300664 0.246794 0.541201
O O1 0.799080 0.299786 0.928981
O O2 0.935176 0.141617 0.851334
O O3 0.690102 0.168959 0.085769
O O4 0.000000 0.234998 0.000000
O O5 0.330857 0.742425 0.199008
O O6 0.166421 0.601528 0.248369
O O7 0.500000 0.629153 0.000000
O O8 0.930872 0.848771 0.648764
O O9 0.615291 0.899011 0.756346
O O10 0.711191 0.776142 0.580873
O O11 0.900810 0.500000 0.404305
O O12 0.839135 0.327869 0.387955
O O13 0.000000 0.380290 0.500000
O O14 0.774681 0.841202 0.370446
O O15 0.951675 0.000000 0.305690
O O16 0.644290 0.000000 0.073865
O O17 0.500000 0.892321 0.000000
O O18 0.500000 0.266671 0.500000
#
# Coordination Sequence:
#
# PCOD9154301 Si02
#       7
#     4   4   4   4   4   4   4
#     4  11  22  35  57  88 122 168 209 259 315 378
#     4  11  20  39  68  96 123 160 207 261 316 379
#     4  11  20  38  61  87 118 167 215 258 311 375
#     4  11  23  45  74  99 125 164 213 264 320 390
#     4  11  23  40  60  85 123 171 220 266 314 371
#     4  11  20  33  54  83 114 157 214 256 299 364
#     4  12  26  41  63  92 127 167 215 264 323 383
#
# _framework density 19.701854999999998
#
# number of rings (size 3 to 8) (size 9 to 14) (size 15 to 20)
#    0.000    0.857    8.571    1.286    2.000    3.714 
#    0.000    0.000    0.000    0.429    0.000    0.000 
#    0.000    0.000    0.000    0.000    0.000    0.000 
#
# Total GULP energy -156116.456781 kJ/mol
# GULP energy per Si atom -5575.587742 kJ/mol
# Density = 1.965701 g / cm^3
# Si number density = 19.701855 Si / 1000 Ang^3
#
#
#
# Elastic Constant Matrix: (Units=GPa)
#
#
# Indices 1 2 3 4 5 6 
#
# 1 113.2164 38.5621 41.7046 0.0000 -9.5494 0.0000
# 2 38.5621 83.9027 23.6053 0.0000 -7.4491 0.0000
# 3 41.7046 23.6053 70.8444 0.0000 -14.5156 0.0000
# 4 0.0000 0.0000 0.0000 13.4728 0.0000 -5.4091
# 5 -9.5494 -7.4491 -14.5156 0.0000 29.1025 0.0000
# 6 0.0000 0.0000 0.0000 -5.4091 0.0000 16.2396
#
#
#
# Elastic Compliance Matrix: (Units=1/GPa)
#
#
# Indices 1 2 3 4 5 6 
#
# 1 0.012397 -0.004019 -0.005944 0.000000 0.000075 0.000000
# 2 -0.004019 0.014500 -0.002200 0.000000 0.001295 0.000000
# 3 -0.005944 -0.002200 0.019862 0.000000 0.007393 0.000000
# 4 0.000000 0.000000 0.000000 0.085681 0.000000 0.028539
# 5 0.000075 0.001295 0.007393 0.000000 0.038405 0.000000
# 6 0.000000 0.000000 0.000000 0.028539 0.000000 0.071084
#
#
# Mechanical properties :
#
#
# Convention : Reuss Voigt Hill
#
# Bulk Modulus (GPa) = 44.57521 52.85639 48.71580
# Shear Modulus (GPa) = 18.26604 22.70242 20.48423
#
# Velocity S-wave (km/s) = 3.04817 3.39824 3.22795
# Velocity P-wave (km/s) = 5.92136 6.50259 6.21877
#
# Compressibility (1/GPa) = 0.02243399
#
# Stress axis : x y z
#
# Youngs Moduli (GPa) = 80.66328 68.96704 50.34692
#
# Poissons Ratio (x) = 0.27718 0.29924
# Poissons Ratio (y) = 0.32419 0.11076
# Poissons Ratio (z) = 0.47943 0.15173
#
# Static dielectric constant tensor:
#      x y z
#    x 1.399620 0.000000 -0.001800 
#    y 0.000000 1.688210 0.000000 
#    z -0.001800 0.000000 1.747790 
# 
# From -- ./inp_files/25205.got.cif
#   From: 2010.05.17/outbox.cif.g08.bks.cpg/sg10_13_cif.got.tgz:25205.got - 2010.06.03 11:33:40.
