data_PCOD9154153
_publ_section_title
;
Structure prediction by ZEFSAII (Michael W. Deem and Ramdas Pophale) SiO2 
 PCOD9154153
Probable space group: P 2/M
;
_chemical_formula_sum "Si O2"
_cell_formula_units_Z 20
_cell_length_a 24.381717
_cell_length_b 8.027143
_cell_length_c 8.263733
_cell_angle_alpha 90.000000
_cell_angle_beta 35.392782
_cell_angle_gamma 90.000000
_cell_volume 936.729029
_symmetry_space_group_name_H-M "P 2/M"
_symmetry_group_IT_number 10
_symmetry_cell_setting 'monoclinic'
loop_
_space_group_symop_operation_xyz
x,y,z
-x,y,-z
-x,-y,-z
x,-y,z
loop_
_atom_site_type_symbol
_atom_site_label
_atom_site_fract_x
_atom_site_fract_y
_atom_site_fract_z
Si Si1 0.391603 0.299452 0.778445
Si Si2 0.283702 0.695871 0.702455
Si Si3 0.896353 0.680225 0.329798
Si Si4 0.139629 0.000000 0.033363
Si Si5 0.707125 0.197973 0.650695
Si Si6 0.062311 0.000000 0.576381
O O1 0.500000 0.243577 0.500000
O O2 0.390507 0.500000 0.798544
O O3 0.336991 0.262363 0.742031
O O4 0.345569 0.228517 0.052735
O O5 0.256854 0.500000 0.773604
O O6 0.340658 0.728657 0.397173
O O7 0.200408 0.831468 0.883737
O O8 0.883786 0.500000 0.441127
O O9 0.808241 0.708500 0.423349
O O10 0.894294 0.835200 0.452593
O O11 0.000000 0.680824 0.000000
O O12 0.090570 0.000000 0.324352
O O13 0.051269 0.000000 0.122374
O O14 0.721071 0.000000 0.598084
#
# Coordination Sequence:
#
# PCOD9154153 Si02
#       6
#     4   4   4   2   4   2
#     4  10  24  46  71 100 134 175 224 278 338 403
#     4  11  24  44  68  96 134 173 222 278 331 403
#     4  11  23  39  63  95 132 179 230 274 330 396
#     4  11  24  40  61  95 129 174 225 271 341 399
#     4  12  24  41  69  99 137 180 223 278 336 399
#     4  11  23  38  60  90 133 174 223 283 331 392
#
# _framework density 21.350892999999999
#
# number of rings (size 3 to 8) (size 9 to 14) (size 15 to 20)
#    0.000    1.000    2.000    4.500    1.400    6.000 
#    0.000    6.000    0.000    0.000    0.000    0.000 
#    0.000    0.000    0.000    0.000    0.000    0.000 
#
# Total GULP energy -111708.643139 kJ/mol
# GULP energy per Si atom -5585.432157 kJ/mol
# Density = 2.130230 g / cm^3
# Si number density = 21.350893 Si / 1000 Ang^3
#
#
#
# Elastic Constant Matrix: (Units=GPa)
#
#
# Indices 1 2 3 4 5 6 
#
# 1 110.1994 50.6324 45.2873 0.0000 25.4457 0.0000
# 2 50.6324 150.7564 26.5031 0.0000 5.1470 0.0000
# 3 45.2873 26.5031 93.4869 0.0000 11.9270 0.0000
# 4 0.0000 0.0000 0.0000 -38.3929 0.0000 -37.3960
# 5 25.4457 5.1470 11.9270 0.0000 29.4066 0.0000
# 6 0.0000 0.0000 0.0000 -37.3960 0.0000 0.8217
#
#
#
# Elastic Compliance Matrix: (Units=1/GPa)
#
#
# Indices 1 2 3 4 5 6 
#
# 1 0.015371 -0.003925 -0.004982 0.000000 -0.010593 0.000000
# 2 -0.003925 0.007989 -0.000652 0.000000 0.002263 0.000000
# 3 -0.004982 -0.000652 0.013425 0.000000 -0.001020 0.000000
# 4 0.000000 0.000000 0.000000 -0.000575 0.000000 -0.026151
# 5 -0.010593 0.002263 -0.001020 0.000000 0.043190 0.000000
# 6 0.000000 0.000000 0.000000 -0.026151 0.000000 0.026848
#
#
# Mechanical properties :
#
#
# Convention : Reuss Voigt Hill
#
# Bulk Modulus (GPa) = 56.60284 66.58761 61.59523
# Shear Modulus (GPa) = 38.09355 13.83508 25.96431
#
# Velocity S-wave (km/s) = 4.22852 2.54832 3.49101
# Velocity P-wave (km/s) = 7.09992 6.31772 6.72021
#
# Compressibility (1/GPa) = 0.01766696
#
# Stress axis : x y z
#
# Youngs Moduli (GPa) = 65.05636 125.17449 74.48741
#
# Poissons Ratio (x) = 0.49131 0.37110
# Poissons Ratio (y) = 0.25535 0.04857
# Poissons Ratio (z) = 0.32411 0.08162
#
# Static dielectric constant tensor:
#      x y z
#    x 1.824720 0.000000 0.003160 
#    y 0.000000 -4.205450 0.000000 
#    z 0.003160 0.000000 1.821430 
# 
# From -- ./inp_files/35787.got.cif
#   From: 2010.05.17/outbox.cif.g08.bks.cpg/sg10_18_cif.got.tgz:35787.got - 2010.06.03 11:33:40.
