data_PCOD9154968
_publ_section_title
;
Structure prediction by ZEFSAII (Michael W. Deem and Ramdas Pophale) SiO2 
 PCOD9154968
Probable space group: P 2/M
;
_chemical_formula_sum "Si O2"
_cell_formula_units_Z 28
_cell_length_a 15.418572
_cell_length_b 13.105474
_cell_length_c 5.699242
_cell_angle_alpha 90.000000
_cell_angle_beta 65.235883
_cell_angle_gamma 90.000000
_cell_volume 1045.728541
_symmetry_space_group_name_H-M "P 2/M"
_symmetry_group_IT_number 10
_symmetry_cell_setting 'monoclinic'
loop_
_space_group_symop_operation_xyz
x,y,z
-x,y,-z
-x,-y,-z
x,-y,z
loop_
_atom_site_type_symbol
_atom_site_label
_atom_site_fract_x
_atom_site_fract_y
_atom_site_fract_z
Si Si1 0.453417 0.622362 0.302822
Si Si2 0.846609 0.155835 0.370022
Si Si3 0.879999 0.171432 0.816529
Si Si4 0.375665 0.886860 0.392659
Si Si5 0.920724 0.391493 0.883165
Si Si6 0.657968 0.875436 0.068857
Si Si7 0.771320 0.382778 0.423460
O O1 0.500000 0.653443 0.500000
O O2 0.460963 0.500000 0.295244
O O3 0.339687 0.643878 0.433889
O O4 0.500000 0.653043 0.000000
O O5 0.899244 0.119513 0.544538
O O6 0.740688 0.109003 0.477134
O O7 0.827814 0.278755 0.429873
O O8 0.896218 0.134472 0.064959
O O9 0.925860 0.283200 0.758799
O O10 0.763280 0.173114 0.948201
O O11 0.393907 0.845557 0.112369
O O12 0.418518 0.000000 0.344830
O O13 0.393141 0.845143 0.632449
O O14 0.931300 0.500000 0.747056
O O15 0.814476 0.392672 0.114370
O O16 0.000000 0.391904 0.000000
O O17 0.668705 0.000000 0.057075
O O18 0.785185 0.500000 0.507076
#
# Coordination Sequence:
#
# PCOD9154968 Si02
#       7
#     4   4   4   4   4   4   4
#     4   9  18  32  50  72  96 123 156 194 241 295
#     4   9  17  28  44  67  92 121 157 193 235 285
#     4   9  17  29  44  63  89 121 158 199 237 276
#     4   8  13  22  37  59  87 115 146 187 229 273
#     4   9  18  33  51  71  97 132 172 207 239 279
#     4   8  13  22  38  59  82 111 147 188 235 280
#     4   9  18  32  50  72 100 131 162 201 244 286
#
# _framework density 26.775594999999999
#
# number of rings (size 3 to 8) (size 9 to 14) (size 15 to 20)
#    0.000    3.286    0.000    0.000    0.000    2.857 
#    0.000    7.143    0.000    8.143    0.000    0.000 
#    0.000   26.286    0.000    0.000    0.000    6.000 
#
# Total GULP energy -156105.288997 kJ/mol
# GULP energy per Si atom -5575.188893 kJ/mol
# Density = 2.671465 g / cm^3
# Si number density = 26.775595 Si / 1000 Ang^3
#
#
#
# Elastic Constant Matrix: (Units=GPa)
#
#
# Indices 1 2 3 4 5 6 
#
# 1 433.5162 0.8296 -84.5517 0.0000 105.0481 0.0000
# 2 0.8296 156.3152 22.0405 0.0000 -8.0572 0.0000
# 3 -84.5517 22.0405 345.5319 0.0000 -8.8867 0.0000
# 4 0.0000 0.0000 0.0000 92.2530 0.0000 -52.1290
# 5 105.0481 -8.0572 -8.8867 0.0000 86.1572 0.0000
# 6 0.0000 0.0000 0.0000 -52.1290 0.0000 2.0113
#
#
#
# Elastic Compliance Matrix: (Units=1/GPa)
#
#
# Indices 1 2 3 4 5 6 
#
# 1 0.003470 -0.000342 0.000763 0.000000 -0.004184 0.000000
# 2 -0.000342 0.006516 -0.000474 0.000000 0.000977 0.000000
# 3 0.000763 -0.000474 0.003094 0.000000 -0.000656 0.000000
# 4 0.000000 0.000000 0.000000 -0.000794 0.000000 -0.020589
# 5 -0.004184 0.000977 -0.000656 0.000000 0.016732 0.000000
# 6 0.000000 0.000000 0.000000 -0.020589 0.000000 -0.036436
#
#
# Mechanical properties :
#
#
# Convention : Reuss Voigt Hill
#
# Bulk Modulus (GPa) = 77.06710 90.22225 83.64468
# Shear Modulus (GPa) = -1673.54549 102.55397 -785.49576
#
# Velocity S-wave (km/s) = -25.02765 6.19552 -17.14641
# Velocity P-wave (km/s) = 28.39600 9.21673 18.99190
#
# Compressibility (1/GPa) = 0.01297571
#
# Stress axis : x y z
#
# Youngs Moduli (GPa) = 288.17064 153.45980 323.17988
#
# Poissons Ratio (x) = 0.05244 -0.24669
# Poissons Ratio (y) = 0.09847 0.15324
# Poissons Ratio (z) = -0.21997 0.07276
#
# Static dielectric constant tensor:
#      x y z
#    x 2.038450 0.000000 0.036810 
#    y 0.000000 2.104850 0.000000 
#    z 0.036810 0.000000 2.126760 
# 
# From -- ./inp_files/9637.got.cif
#   From: 2010.05.17/outbox.cif.g08.bks.cpg/sg10_5_cif.got.tgz:9637.got - 2010.06.03 11:33:40.
