data_PCOD9154525
_publ_section_title
;
Structure prediction by ZEFSAII (Michael W. Deem and Ramdas Pophale) SiO2 
 PCOD9154525
Probable space group: P 2/M
;
_chemical_formula_sum "Si O2"
_cell_formula_units_Z 24
_cell_length_a 11.846580
_cell_length_b 11.453762
_cell_length_c 12.078773
_cell_angle_alpha 90.000000
_cell_angle_beta 133.291641
_cell_angle_gamma 90.000000
_cell_volume 1192.942358
_symmetry_space_group_name_H-M "P 2/M"
_symmetry_group_IT_number 10
_symmetry_cell_setting 'monoclinic'
loop_
_space_group_symop_operation_xyz
x,y,z
-x,y,-z
-x,-y,-z
x,-y,z
loop_
_atom_site_type_symbol
_atom_site_label
_atom_site_fract_x
_atom_site_fract_y
_atom_site_fract_z
Si Si1 0.393742 0.000000 0.034418
Si Si2 0.847101 0.000000 0.475850
Si Si3 0.500000 0.765651 0.500000
Si Si4 0.806222 0.637288 0.772777
Si Si5 0.946338 0.000000 0.174093
Si Si6 0.576617 0.362485 0.931615
Si Si7 0.567469 0.825465 0.302059
Si Si8 0.113101 0.257839 0.935059
O O1 0.439014 0.106440 0.143739
O O2 0.500000 0.000000 0.000000
O O3 0.219377 0.000000 0.875380
O O4 0.731477 0.111817 0.386030
O O5 0.000000 0.000000 0.500000
O O6 0.914264 0.000000 0.645871
O O7 0.650746 0.685781 0.615875
O O8 0.528619 0.835747 0.405628
O O9 0.800055 0.500000 0.789251
O O10 0.957744 0.669967 0.804125
O O11 0.831487 0.704238 0.905655
O O12 0.935344 0.878088 0.101364
O O13 0.597600 0.500000 0.923727
O O14 0.462999 0.305112 0.762789
O O15 0.500000 0.346216 0.000000
O O16 0.744435 0.299742 0.044312
#
# Coordination Sequence:
#
# PCOD9154525 Si02
#       8
#     2   2   2   4   2   4   4   4
#     4  11  21  39  69  93 121 173 224 270 324 390
#     4  11  27  43  67  95 134 183 223 268 336 414
#     4  12  23  41  64 100 142 179 217 278 344 402
#     4  11  23  41  66  94 132 183 228 273 331 411
#     4  12  22  39  60  96 126 170 214 272 334 390
#     4  11  23  41  70 102 133 173 230 294 338 392
#     4  11  24  43  65 100 136 176 222 278 335 410
#     4  11  23  40  66  96 133 168 230 286 331 398
#
# _framework density 20.118323
#
# number of rings (size 3 to 8) (size 9 to 14) (size 15 to 20)
#    0.000    0.833    3.333    4.750    2.333    3.333 
#    0.000    6.667    0.000    0.500    0.000    0.000 
#    0.000    0.000    0.000    0.000    0.000    0.000 
#
# Total GULP energy -133990.520029 kJ/mol
# GULP energy per Si atom -5582.938335 kJ/mol
# Density = 2.007253 g / cm^3
# Si number density = 20.118323 Si / 1000 Ang^3
#
#
#
# Elastic Constant Matrix: (Units=GPa)
#
#
# Indices 1 2 3 4 5 6 
#
# 1 107.9864 36.7356 37.8837 0.0000 12.3056 0.0000
# 2 36.7356 108.5151 39.6347 0.0000 0.3230 0.0000
# 3 37.8837 39.6347 104.4597 0.0000 22.7754 0.0000
# 4 0.0000 0.0000 0.0000 24.4461 0.0000 -2.7915
# 5 12.3056 0.3230 22.7754 0.0000 45.2569 0.0000
# 6 0.0000 0.0000 0.0000 -2.7915 0.0000 11.7182
#
#
#
# Elastic Compliance Matrix: (Units=1/GPa)
#
#
# Indices 1 2 3 4 5 6 
#
# 1 0.011367 -0.002873 -0.002654 0.000000 -0.001735 0.000000
# 2 -0.002873 0.011625 -0.003955 0.000000 0.002689 0.000000
# 3 -0.002654 -0.003955 0.013336 0.000000 -0.005961 0.000000
# 4 0.000000 0.000000 0.000000 0.042050 0.000000 0.010017
# 5 -0.001735 0.002689 -0.005961 0.000000 0.025549 0.000000
# 6 0.000000 0.000000 0.000000 0.010017 0.000000 0.087723
#
#
# Mechanical properties :
#
#
# Convention : Reuss Voigt Hill
#
# Bulk Modulus (GPa) = 57.59393 61.05213 59.32303
# Shear Modulus (GPa) = 23.10527 30.06472 26.58499
#
# Velocity S-wave (km/s) = 3.39258 3.86993 3.63909
# Velocity P-wave (km/s) = 6.63596 7.09795 6.87084
#
# Compressibility (1/GPa) = 0.01736294
#
# Stress axis : x y z
#
# Youngs Moduli (GPa) = 87.97686 86.02508 74.98620
#
# Poissons Ratio (x) = 0.24719 0.19900
# Poissons Ratio (y) = 0.25280 0.29655
# Poissons Ratio (z) = 0.23347 0.34020
#
# Static dielectric constant tensor:
#      x y z
#    x 1.772000 0.000000 0.001610 
#    y 0.000000 1.669680 0.000000 
#    z 0.001610 0.000000 1.681860 
# 
# From -- ./inp_files/46830.got.cif
#   From: 2010.05.17/outbox.cif.g08.bks.cpg/sg10_24_cif.got.tgz:46830.got - 2010.06.03 11:33:40.
