data_PCOD9154496
_publ_section_title
;
Structure prediction by ZEFSAII (Michael W. Deem and Ramdas Pophale) SiO2 
 PCOD9154496
Probable space group: P 2/M
;
_chemical_formula_sum "Si O2"
_cell_formula_units_Z 26
_cell_length_a 14.264204
_cell_length_b 12.754521
_cell_length_c 7.804886
_cell_angle_alpha 90.000000
_cell_angle_beta 78.393998
_cell_angle_gamma 90.000000
_cell_volume 1390.934633
_symmetry_space_group_name_H-M "P 2/M"
_symmetry_group_IT_number 10
_symmetry_cell_setting 'monoclinic'
loop_
_space_group_symop_operation_xyz
x,y,z
-x,y,-z
-x,-y,-z
x,-y,z
loop_
_atom_site_type_symbol
_atom_site_label
_atom_site_fract_x
_atom_site_fract_y
_atom_site_fract_z
Si Si1 0.362203 0.000000 0.775424
Si Si2 0.193098 0.273689 0.541734
Si Si3 0.867313 0.774456 0.813588
Si Si4 0.112999 0.381010 0.904177
Si Si5 0.772310 0.000000 0.896128
Si Si6 0.953065 0.885547 0.327507
Si Si7 0.604164 0.811577 0.495957
Si Si8 0.425077 0.000000 0.229170
O O1 0.371630 0.893341 0.664370
O O2 0.461282 0.000000 0.850221
O O3 0.257608 0.000000 0.895980
O O4 0.157348 0.282430 0.357484
O O5 0.143521 0.350729 0.697993
O O6 0.152076 0.159323 0.611869
O O7 0.307493 0.266561 0.509138
O O8 0.979982 0.801184 0.787745
O O9 0.823252 0.891738 0.828722
O O10 0.839333 0.703637 0.984893
O O11 0.146565 0.500000 0.923333
O O12 0.000000 0.382189 0.000000
O O13 0.667981 0.000000 0.852597
O O14 0.000000 0.891896 0.500000
O O15 0.956654 0.000000 0.246307
O O16 0.500000 0.761811 0.500000
O O17 0.590157 0.892876 0.657131
#
# Coordination Sequence:
#
# PCOD9154496 Si02
#       8
#     2   4   4   4   2   4   4   2
#     4   9  19  29  46  76 121 164 202 225 272 333
#     4  11  21  37  62  81 115 157 194 232 297 333
#     4  11  22  37  56  90 118 154 192 230 284 355
#     4  11  25  44  61  83 113 149 201 251 288 340
#     4  12  19  32  54  86 127 158 189 227 287 352
#     4   9  18  30  49  79 119 153 182 218 269 345
#     4   9  18  33  52  80 116 155 198 236 276 340
#     4   9  17  31  48  78 117 163 192 231 276 336
#
# _framework density 18.692468999999999
#
# number of rings (size 3 to 8) (size 9 to 14) (size 15 to 20)
#    0.000    1.846    3.846    2.077    3.231    0.615 
#    1.385    2.692    0.000    0.462    0.000    1.077 
#    0.000    0.000    0.000    0.000    0.000    0.000 
#
# Total GULP energy -144742.036106 kJ/mol
# GULP energy per Si atom -5567.001389 kJ/mol
# Density = 1.864992 g / cm^3
# Si number density = 18.692469 Si / 1000 Ang^3
#
#
#
# Elastic Constant Matrix: (Units=GPa)
#
#
# Indices 1 2 3 4 5 6 
#
# 1 90.6470 7.6441 14.2586 0.0000 -11.3013 0.0000
# 2 7.6441 73.6493 28.7741 0.0000 2.5954 0.0000
# 3 14.2586 28.7741 68.1256 0.0000 -3.3115 0.0000
# 4 0.0000 0.0000 0.0000 14.2917 0.0000 3.1490
# 5 -11.3013 2.5954 -3.3115 0.0000 24.7264 0.0000
# 6 0.0000 0.0000 0.0000 3.1490 0.0000 1.7725
#
#
#
# Elastic Compliance Matrix: (Units=1/GPa)
#
#
# Indices 1 2 3 4 5 6 
#
# 1 0.012063 -0.000663 -0.001986 0.000000 0.005317 0.000000
# 2 -0.000663 0.016471 -0.006962 0.000000 -0.002965 0.000000
# 3 -0.001986 -0.006962 0.018145 0.000000 0.002253 0.000000
# 4 0.000000 0.000000 0.000000 0.114980 0.000000 -0.204276
# 5 0.005317 -0.002965 0.002253 0.000000 0.043486 0.000000
# 6 0.000000 0.000000 0.000000 -0.204276 0.000000 0.927099
#
#
# Mechanical properties :
#
#
# Convention : Reuss Voigt Hill
#
# Bulk Modulus (GPa) = 36.42267 37.08616 36.75441
# Shear Modulus (GPa) = 4.30804 20.27447 12.29126
#
# Velocity S-wave (km/s) = 1.51977 3.29695 2.56706
# Velocity P-wave (km/s) = 4.75469 5.86314 5.33777
#
# Compressibility (1/GPa) = 0.02745543
#
# Stress axis : x y z
#
# Youngs Moduli (GPa) = 82.89769 60.71180 55.11281
#
# Poissons Ratio (x) = 0.04028 0.10946
# Poissons Ratio (y) = 0.05500 0.38371
# Poissons Ratio (z) = 0.16464 0.42269
#
# Static dielectric constant tensor:
#      x y z
#    x 1.675920 0.000000 0.000160 
#    y 0.000000 1.629490 0.000000 
#    z 0.000160 0.000000 1.762080 
# 
# From -- ./inp_files/27882.got.cif
#   From: 2010.05.17/outbox.cif.g08.bks.cpg/sg10_14_cif.got.tgz:27882.got - 2010.06.03 11:33:40.
