data_PCOD9154861
_publ_section_title
;
Structure prediction by ZEFSAII (Michael W. Deem and Ramdas Pophale) SiO2 
 PCOD9154861
Probable space group: P 2/M
;
_chemical_formula_sum "Si O2"
_cell_formula_units_Z 28
_cell_length_a 18.765617
_cell_length_b 8.461237
_cell_length_c 22.484129
_cell_angle_alpha 90.000000
_cell_angle_beta 26.075033
_cell_angle_gamma 90.000000
_cell_volume 1569.202148
_symmetry_space_group_name_H-M "P 2/M"
_symmetry_group_IT_number 10
_symmetry_cell_setting 'monoclinic'
loop_
_space_group_symop_operation_xyz
x,y,z
-x,y,-z
-x,-y,-z
x,-y,z
loop_
_atom_site_type_symbol
_atom_site_label
_atom_site_fract_x
_atom_site_fract_y
_atom_site_fract_z
Si Si1 0.524701 0.690897 0.077446
Si Si2 0.617774 0.692928 0.463961
Si Si3 0.758215 0.307857 0.791576
Si Si4 0.080230 0.692469 0.605168
Si Si5 0.978982 0.309615 0.213416
Si Si6 0.561483 0.690669 0.641345
Si Si7 0.321067 0.186523 0.917479
O O1 0.524037 0.500000 0.082438
O O2 0.349594 0.743876 0.183656
O O3 0.579828 0.757736 0.098668
O O4 0.655009 0.731796 0.928248
O O5 0.500000 0.748244 0.500000
O O6 0.616286 0.500000 0.464513
O O7 0.805856 0.740529 0.316302
O O8 0.561850 0.741111 0.572037
O O9 0.761383 0.500000 0.786661
O O10 0.942090 0.252252 0.663121
O O11 0.081705 0.500000 0.601766
O O12 0.025089 0.735132 0.713581
O O13 0.266251 0.744430 0.459363
O O14 0.986093 0.500000 0.206582
O O15 0.137540 0.245374 0.062987
O O16 0.563081 0.500000 0.640508
O O17 0.411298 0.747587 0.792112
O O18 0.321444 0.000000 0.914926
#
# Coordination Sequence:
#
# PCOD9154861 Si02
#       7
#     4   4   4   4   4   4   4
#     4   9  16  28  49  72  96 127 162 207 257 297
#     4   8  15  31  58  89 107 117 150 206 256 293
#     4   8  13  24  48  77  96 116 159 215 256 293
#     4   8  13  26  50  76  94 117 164 212 245 286
#     4   9  16  30  55  78  99 128 161 201 245 296
#     4   9  18  32  53  75  99 132 162 197 247 300
#     4  12  23  33  45  68 104 139 171 207 239 284
#
# _framework density 17.843461999999999
#
# number of rings (size 3 to 8) (size 9 to 14) (size 15 to 20)
#    0.000    3.000    1.429    3.857    0.000    0.000 
#    0.000    5.714    0.000   10.286    0.000    0.000 
#    0.000    0.000    0.000    0.000    0.000    0.000 
#
# Total GULP energy -155990.296949 kJ/mol
# GULP energy per Si atom -5571.082034 kJ/mol
# Density = 1.780285 g / cm^3
# Si number density = 17.843462 Si / 1000 Ang^3
#
#
#
# Elastic Constant Matrix: (Units=GPa)
#
#
# Indices 1 2 3 4 5 6 
#
# 1 121.7475 18.0270 68.8233 0.0000 -24.6033 0.0000
# 2 18.0270 13.8761 20.9904 0.0000 -0.9113 0.0000
# 3 68.8233 20.9904 132.7020 0.0000 -8.4366 0.0000
# 4 0.0000 0.0000 0.0000 -20.6296 0.0000 -15.7162
# 5 -24.6033 -0.9113 -8.4366 0.0000 23.7522 0.0000
# 6 0.0000 0.0000 0.0000 -15.7162 0.0000 -20.9785
#
#
#
# Elastic Compliance Matrix: (Units=1/GPa)
#
#
# Indices 1 2 3 4 5 6 
#
# 1 0.015852 -0.011285 -0.005545 0.000000 0.014018 0.000000
# 2 -0.011285 0.102838 -0.011158 0.000000 -0.011708 0.000000
# 3 -0.005545 -0.011158 0.012056 0.000000 -0.001890 0.000000
# 4 0.000000 0.000000 0.000000 -0.112922 0.000000 0.084597
# 5 0.014018 -0.011708 -0.001890 0.000000 0.055501 0.000000
# 6 0.000000 0.000000 0.000000 0.084597 0.000000 -0.111044
#
#
# Mechanical properties :
#
#
# Convention : Reuss Voigt Hill
#
# Bulk Modulus (GPa) = 13.37447 53.77857 33.57652
# Shear Modulus (GPa) = 115.79107 7.12781 61.45944
#
# Velocity S-wave (km/s) = 8.06434 2.00083 5.87524
# Velocity P-wave (km/s) = 9.70686 5.96173 8.05498
#
# Compressibility (1/GPa) = 0.07476931
#
# Stress axis : x y z
#
# Youngs Moduli (GPa) = 63.08311 9.72404 82.94388
#
# Poissons Ratio (x) = 0.10974 0.45993
# Poissons Ratio (y) = 0.71192 0.92548
# Poissons Ratio (z) = 0.34980 0.10850
#
# Static dielectric constant tensor:
#      x y z
#    x 1.616120 0.000000 -0.028510 
#    y 0.000000 1.600210 0.000000 
#    z -0.028510 0.000000 1.616610 
# 
# From -- ./inp_files/78798.got.cif
#   From: 2010.05.17/outbox.cif.g08.bks.cpg/sg10_40_cif.got.tgz:78798.got - 2010.06.03 11:33:40.
