data_PCOD9154188
_publ_section_title
;
Structure prediction by ZEFSAII (Michael W. Deem and Ramdas Pophale) SiO2 
 PCOD9154188
Probable space group: P 2/M
;
_chemical_formula_sum "Si O2"
_cell_formula_units_Z 15
_cell_length_a 5.084164
_cell_length_b 21.820794
_cell_length_c 5.283243
_cell_angle_alpha 90.000000
_cell_angle_beta 87.583762
_cell_angle_gamma 90.000000
_cell_volume 585.604484
_symmetry_space_group_name_H-M "P 2/M"
_symmetry_group_IT_number 10
_symmetry_cell_setting 'monoclinic'
loop_
_space_group_symop_operation_xyz
x,y,z
-x,y,-z
-x,-y,-z
x,-y,z
loop_
_atom_site_type_symbol
_atom_site_label
_atom_site_fract_x
_atom_site_fract_y
_atom_site_fract_z
Si Si1 0.500000 0.790623 0.000000
Si Si2 0.254804 0.908239 0.170655
Si Si3 0.228488 0.301235 0.666955
Si Si4 0.681508 0.434105 0.242268
Si Si5 0.500000 0.000000 0.500000
O O1 0.344786 0.837469 0.190911
O O2 0.709098 0.745815 0.116145
O O3 0.285215 0.946016 0.424316
O O4 0.500000 0.936088 0.000000
O O5 0.000000 0.913157 0.000000
O O6 0.500000 0.304975 0.500000
O O7 0.160862 0.370742 0.752584
O O8 0.000000 0.277909 0.500000
O O9 0.500000 0.434933 0.500000
O O10 0.825825 0.500000 0.235298
O O11 0.500000 0.431207 0.000000
#
# Coordination Sequence:
#
# PCOD9154188 Si02
#       5
#     2   4   4   4   1
#     4  10  26  43  65  96 136 168 224 274 326 412
#     4  10  26  43  66  97 129 168 212 269 323 396
#     4  11  25  41  66  95 131 180 224 280 343 408
#     4   9  18  38  64  96 135 181 235 294 353 415
#     4  12  24  46  72  96 132 170 214 266 336 392
#
# _framework density 25.614554999999999
#
# number of rings (size 3 to 8) (size 9 to 14) (size 15 to 20)
#    0.800    1.067    1.333    0.800    5.600    2.667 
#    0.000    0.000    0.000    8.000    0.000    0.000 
#    0.000    0.000    0.000    0.000    0.000    0.000 
#
# Total GULP energy -83617.091430 kJ/mol
# GULP energy per Si atom -5574.472762 kJ/mol
# Density = 2.555626 g / cm^3
# Si number density = 25.614555 Si / 1000 Ang^3
#
#
#
# Elastic Constant Matrix: (Units=GPa)
#
#
# Indices 1 2 3 4 5 6 
#
# 1 118.8691 14.1651 45.3081 0.0000 25.4606 0.0000
# 2 14.1651 255.8074 62.9811 0.0000 34.4592 0.0000
# 3 45.3081 62.9811 147.8305 0.0000 41.2150 0.0000
# 4 0.0000 0.0000 0.0000 60.4486 0.0000 21.3526
# 5 25.4606 34.4592 41.2150 0.0000 68.2797 0.0000
# 6 0.0000 0.0000 0.0000 21.3526 0.0000 -6.6056
#
#
#
# Elastic Compliance Matrix: (Units=1/GPa)
#
#
# Indices 1 2 3 4 5 6 
#
# 1 0.009830 0.000393 -0.002529 0.000000 -0.002338 0.000000
# 2 0.000393 0.004481 -0.001633 0.000000 -0.001422 0.000000
# 3 -0.002529 -0.001633 0.009309 0.000000 -0.003852 0.000000
# 4 0.000000 0.000000 0.000000 0.007724 0.000000 0.024967
# 5 -0.002338 -0.001422 -0.003852 0.000000 0.018560 0.000000
# 6 0.000000 0.000000 0.000000 0.024967 0.000000 -0.070681
#
#
# Mechanical properties :
#
#
# Convention : Reuss Voigt Hill
#
# Bulk Modulus (GPa) = 62.17540 85.26839 73.72190
# Shear Modulus (GPa) = -634.69526 51.09471 -291.80027
#
# Velocity S-wave (km/s) = -15.75833 4.47111 -10.68490
# Velocity P-wave (km/s) = 17.51496 7.74698 11.10761
#
# Compressibility (1/GPa) = 0.01608353
#
# Stress axis : x y z
#
# Youngs Moduli (GPa) = 101.72663 223.16016 107.42054
#
# Poissons Ratio (x) = -0.08773 0.27162
# Poissons Ratio (y) = -0.03999 0.17542
# Poissons Ratio (z) = 0.25722 0.36443
#
# Static dielectric constant tensor:
#      x y z
#    x 2.501960 0.000000 -0.346150 
#    y 0.000000 2.033560 0.000000 
#    z -0.346150 0.000000 2.257800 
# 
# From -- ./inp_files/1842.got.cif
#   From: 2010.05.17/outbox.cif.g08.bks.cpg/sg10_1_cif.got.tgz:1842.got - 2010.06.03 11:33:40.
