data_PCOD9154529
_publ_section_title
;
Structure prediction by ZEFSAII (Michael W. Deem and Ramdas Pophale) SiO2 
 PCOD9154529
Probable space group: P 2/M
;
_chemical_formula_sum "Si O2"
_cell_formula_units_Z 23
_cell_length_a 11.017253
_cell_length_b 16.451171
_cell_length_c 4.994994
_cell_angle_alpha 90.000000
_cell_angle_beta 77.437286
_cell_angle_gamma 90.000000
_cell_volume 883.651389
_symmetry_space_group_name_H-M "P 2/M"
_symmetry_group_IT_number 10
_symmetry_cell_setting 'monoclinic'
loop_
_space_group_symop_operation_xyz
x,y,z
-x,y,-z
-x,-y,-z
x,-y,z
loop_
_atom_site_type_symbol
_atom_site_label
_atom_site_fract_x
_atom_site_fract_y
_atom_site_fract_z
Si Si1 0.194150 0.000000 0.436754
Si Si2 0.357626 0.000000 0.867737
Si Si3 0.500000 0.500000 0.500000
Si Si4 0.890516 0.849163 0.857510
Si Si5 0.372366 0.620991 0.914399
Si Si6 0.500000 0.867203 0.500000
Si Si7 0.703615 0.231740 0.313908
Si Si8 0.133412 0.330988 0.364366
O O1 0.129764 0.916191 0.363144
O O2 0.237707 0.000000 0.721386
O O3 0.315011 0.000000 0.190659
O O4 0.439845 0.076352 0.748397
O O5 0.394255 0.569771 0.634256
O O6 0.906624 0.755285 0.754417
O O7 0.775421 0.833936 0.107659
O O8 0.000000 0.875674 0.000000
O O9 0.381574 0.714817 0.837612
O O10 0.500000 0.592247 0.000000
O O11 0.239530 0.619665 0.140432
O O12 0.386979 0.813390 0.441396
O O13 0.794938 0.295738 0.410759
O O14 0.000000 0.371825 0.500000
#
# Coordination Sequence:
#
# PCOD9154529 Si02
#       8
#     2   2   1   4   4   2   4   4
#     4  12  25  45  61  93 136 192 258 306 401 444
#     4  11  26  42  60  89 132 189 236 329 379 457
#     4  12  24  48  72 108 162 178 238 268 356 424
#     4  11  23  40  63  93 133 187 237 306 369 436
#     4  11  25  43  74 108 142 192 225 289 348 429
#     4  11  21  40  63  89 132 176 246 305 385 438
#     4  11  22  42  66 101 133 179 235 297 361 433
#     4  11  23  43  73 103 143 183 245 300 369 425
#
# _framework density 26.028362999999999
#
# number of rings (size 3 to 8) (size 9 to 14) (size 15 to 20)
#    0.000    0.870    3.478    4.174    0.000    2.783 
#    6.261    1.739    0.000    4.174    0.000    0.000 
#    0.000    0.000    0.000    0.000    0.000    0.000 
#
# Total GULP energy -128216.700263 kJ/mol
# GULP energy per Si atom -5574.639142 kJ/mol
# Density = 2.596912 g / cm^3
# Si number density = 26.028363 Si / 1000 Ang^3
#
#
#
# Elastic Constant Matrix: (Units=GPa)
#
#
# Indices 1 2 3 4 5 6 
#
# 1 142.1615 51.1387 49.7290 0.0000 -34.3899 0.0000
# 2 51.1387 93.9537 33.5835 0.0000 -23.4804 0.0000
# 3 49.7290 33.5835 94.2535 0.0000 -43.2917 0.0000
# 4 0.0000 0.0000 0.0000 -28.2747 0.0000 -29.3824
# 5 -34.3899 -23.4804 -43.2917 0.0000 76.6094 0.0000
# 6 0.0000 0.0000 0.0000 -29.3824 0.0000 -5.6352
#
#
#
# Elastic Compliance Matrix: (Units=1/GPa)
#
#
# Indices 1 2 3 4 5 6 
#
# 1 0.009893 -0.003889 -0.003163 0.000000 0.001462 0.000000
# 2 -0.003889 0.013898 -0.002357 0.000000 0.001182 0.000000
# 3 -0.003163 -0.002357 0.016388 0.000000 0.007119 0.000000
# 4 0.000000 0.000000 0.000000 0.008005 0.000000 -0.041737
# 5 0.001462 0.001182 0.007119 0.000000 0.018094 0.000000
# 6 0.000000 0.000000 0.000000 -0.041737 0.000000 0.040163
#
#
# Mechanical properties :
#
#
# Convention : Reuss Voigt Hill
#
# Bulk Modulus (GPa) = 46.81341 66.58569 56.69955
# Shear Modulus (GPa) = 37.76997 21.60105 29.68551
#
# Velocity S-wave (km/s) = 3.81347 2.88393 3.38080
# Velocity P-wave (km/s) = 6.11676 6.06027 6.08858
#
# Compressibility (1/GPa) = 0.02136140
#
# Stress axis : x y z
#
# Youngs Moduli (GPa) = 101.08008 71.95112 61.02073
#
# Poissons Ratio (x) = 0.27982 0.19298
# Poissons Ratio (y) = 0.39310 0.14385
# Poissons Ratio (z) = 0.31967 0.16962
#
# Static dielectric constant tensor:
#      x y z
#    x 2.171630 0.000000 0.025410 
#    y 0.000000 2.040670 0.000000 
#    z 0.025410 0.000000 2.176670 
# 
# From -- ./inp_files/7208.got.cif
#   From: 2010.05.17/outbox.cif.g08.bks.cpg/sg10_4_cif.got.tgz:7208.got - 2010.06.03 11:33:40.
