data_PCOD9154508
_publ_section_title
;
Structure prediction by ZEFSAII (Michael W. Deem and Ramdas Pophale) SiO2 
 PCOD9154508
Probable space group: P 2/M
;
_chemical_formula_sum "Si O2"
_cell_formula_units_Z 20
_cell_length_a 5.015670
_cell_length_b 14.579767
_cell_length_c 12.638903
_cell_angle_alpha 90.000000
_cell_angle_beta 79.440429
_cell_angle_gamma 90.000000
_cell_volume 908.596608
_symmetry_space_group_name_H-M "P 2/M"
_symmetry_group_IT_number 10
_symmetry_cell_setting 'monoclinic'
loop_
_space_group_symop_operation_xyz
x,y,z
-x,y,-z
-x,-y,-z
x,-y,z
loop_
_atom_site_type_symbol
_atom_site_label
_atom_site_fract_x
_atom_site_fract_y
_atom_site_fract_z
Si Si1 0.053368 0.217843 0.619492
Si Si2 0.483125 0.896019 0.313746
Si Si3 0.969091 0.602007 0.756399
Si Si4 0.397669 0.357897 0.893648
Si Si5 0.290843 0.140738 0.928395
O O1 0.794001 0.160779 0.681326
O O2 0.079396 0.314244 0.678451
O O3 0.000000 0.232932 0.500000
O O4 0.319907 0.157703 0.621061
O O5 0.646140 0.898024 0.191176
O O6 0.423839 0.000000 0.352063
O O7 0.000414 0.500000 0.708299
O O8 0.653374 0.623115 0.799550
O O9 0.131433 0.603876 0.855942
O O10 0.336240 0.250187 0.912004
O O11 0.500000 0.392884 0.000000
O O12 0.500000 0.106559 0.000000
O O13 0.000000 0.124084 0.000000
#
# Coordination Sequence:
#
# PCOD9154508 Si02
#       5
#     4   4   4   4   4
#     4  12  26  48  70  95 133 173 223 286 339 382
#     4  12  26  45  71 102 133 172 223 272 334 401
#     4  12  24  42  67  98 134 174 223 270 329 396
#     4  11  22  39  65  97 137 179 215 264 324 393
#     4  11  21  38  67  95 134 176 213 257 321 393
#
# _framework density 22.011970000000002
#
# number of rings (size 3 to 8) (size 9 to 14) (size 15 to 20)
#    0.000    0.400    4.000    6.000    0.000    6.000 
#    0.000    0.000    0.000    4.800    0.000    0.000 
#    0.000    0.000    0.000    0.000    0.000    0.000 
#
# Total GULP energy -111953.096483 kJ/mol
# GULP energy per Si atom -5597.654824 kJ/mol
# Density = 2.196187 g / cm^3
# Si number density = 22.011970 Si / 1000 Ang^3
#
#
#
# Elastic Constant Matrix: (Units=GPa)
#
#
# Indices 1 2 3 4 5 6 
#
# 1 132.5916 35.3292 10.0738 0.0000 10.3633 0.0000
# 2 35.3292 164.8136 26.9023 0.0000 1.0223 0.0000
# 3 10.0738 26.9023 90.2547 0.0000 8.9561 0.0000
# 4 0.0000 0.0000 0.0000 -51.0502 0.0000 -40.5956
# 5 10.3633 1.0223 8.9561 0.0000 33.7314 0.0000
# 6 0.0000 0.0000 0.0000 -40.5956 0.0000 -37.3954
#
#
#
# Elastic Compliance Matrix: (Units=1/GPa)
#
#
# Indices 1 2 3 4 5 6 
#
# 1 0.008201 -0.001716 -0.000163 0.000000 -0.002424 0.000000
# 2 -0.001716 0.006740 -0.001900 0.000000 0.000827 0.000000
# 3 -0.000163 -0.001900 0.011969 0.000000 -0.003070 0.000000
# 4 0.000000 0.000000 0.000000 -0.143256 0.000000 0.155516
# 5 -0.002424 0.000827 -0.003070 0.000000 0.031181 0.000000
# 6 0.000000 0.000000 0.000000 0.155516 0.000000 -0.195566
#
#
# Mechanical properties :
#
#
# Convention : Reuss Voigt Hill
#
# Bulk Modulus (GPa) = 51.67427 59.14119 55.40773
# Shear Modulus (GPa) = -18.74612 10.08078 -4.33267
#
# Velocity S-wave (km/s) = -2.92144 2.14234 -1.40449
# Velocity P-wave (km/s) = 3.48522 5.74853 4.75354
#
# Compressibility (1/GPa) = 0.01935199
#
# Stress axis : x y z
#
# Youngs Moduli (GPa) = 121.93404 148.36120 83.55013
#
# Poissons Ratio (x) = 0.25463 0.01364
# Poissons Ratio (y) = 0.20928 0.15871
# Poissons Ratio (z) = 0.01990 0.28183
#
# Static dielectric constant tensor:
#      x y z
#    x 1.759610 0.000000 0.001020 
#    y 0.000000 1.820290 0.000000 
#    z 0.001020 0.000000 1.789080 
# 
# From -- ./inp_files/39063.got.cif
#   From: 2010.05.17/outbox.cif.g08.bks.cpg/sg10_20_cif.got.tgz:39063.got - 2010.06.03 11:33:40.
