data_PCOD9154783
_publ_section_title
;
Structure prediction by ZEFSAII (Michael W. Deem and Ramdas Pophale) SiO2 
 PCOD9154783
Probable space group: P 2/M
;
_chemical_formula_sum "Si O2"
_cell_formula_units_Z 23
_cell_length_a 30.437120
_cell_length_b 8.611918
_cell_length_c 9.161941
_cell_angle_alpha 90.000000
_cell_angle_beta 152.089727
_cell_angle_gamma 90.000000
_cell_volume 1124.135559
_symmetry_space_group_name_H-M "P 2/M"
_symmetry_group_IT_number 10
_symmetry_cell_setting 'monoclinic'
loop_
_space_group_symop_operation_xyz
x,y,z
-x,y,-z
-x,-y,-z
x,-y,z
loop_
_atom_site_type_symbol
_atom_site_label
_atom_site_fract_x
_atom_site_fract_y
_atom_site_fract_z
Si Si1 0.166516 0.171913 0.310152
Si Si2 0.822106 0.820032 0.306425
Si Si3 0.289542 0.500000 0.043409
Si Si4 0.414055 0.500000 0.138184
Si Si5 0.500000 0.000000 0.000000
Si Si6 0.608056 0.500000 0.371117
Si Si7 0.367236 0.245313 0.769731
Si Si8 0.996566 0.319736 0.662461
O O1 0.169151 0.190865 0.492396
O O2 0.271195 0.179562 0.552824
O O3 0.128102 0.000000 0.165803
O O4 0.097885 0.293001 0.032204
O O5 0.921888 0.790107 0.523288
O O6 0.789322 0.000000 0.177727
O O7 0.762009 0.666697 0.084099
O O8 0.323011 0.500000 0.974584
O O9 0.375826 0.500000 0.410539
O O10 0.500000 0.500000 0.500000
O O11 0.410547 0.351622 0.023780
O O12 0.444891 0.131502 0.935688
O O13 0.656903 0.353366 0.439239
O O14 0.500000 0.500000 0.000000
O O15 0.968386 0.500000 0.599858
O O16 0.000000 0.287880 0.500000
#
# Coordination Sequence:
#
# PCOD9154783 Si02
#       8
#     4   4   2   2   1   2   4   4
#     4  11  24  43  67 100 138 183 234 290 353 431
#     4  11  25  46  70 106 144 188 240 295 359 428
#     4  12  24  46  73 106 145 187 244 305 361 429
#     4  11  25  46  74 102 138 188 240 306 366 438
#     4  12  24  46  70 104 144 182 244 306 364 434
#     4  11  25  45  68  99 137 186 234 289 368 437
#     4  11  24  44  71  99 139 186 238 292 362 446
#     4  11  26  43  69 104 143 186 238 292 353 428
#
# _framework density 20.460166000000001
#
# number of rings (size 3 to 8) (size 9 to 14) (size 15 to 20)
#    0.000    0.870    4.348    2.087    6.087    3.478 
#    1.565    0.435    0.000    0.000    0.000    0.000 
#    0.000    0.000    0.000    0.000    0.000    0.000 
#
# Total GULP energy -128134.178316 kJ/mol
# GULP energy per Si atom -5571.051231 kJ/mol
# Density = 2.041360 g / cm^3
# Si number density = 20.460166 Si / 1000 Ang^3
#
#
#
# Elastic Constant Matrix: (Units=GPa)
#
#
# Indices 1 2 3 4 5 6 
#
# 1 149.1827 62.2587 39.2703 0.0000 9.4859 0.0000
# 2 62.2587 142.6366 43.2584 0.0000 0.5174 0.0000
# 3 39.2703 43.2584 72.3116 0.0000 -0.0553 0.0000
# 4 0.0000 0.0000 0.0000 11.5866 0.0000 13.6221
# 5 9.4859 0.5174 -0.0553 0.0000 30.0460 0.0000
# 6 0.0000 0.0000 0.0000 13.6221 0.0000 54.4003
#
#
#
# Elastic Compliance Matrix: (Units=1/GPa)
#
#
# Indices 1 2 3 4 5 6 
#
# 1 0.008922 -0.002949 -0.003083 0.000000 -0.002772 0.000000
# 2 -0.002949 0.009540 -0.004105 0.000000 0.000759 0.000000
# 3 -0.003083 -0.004105 0.017960 0.000000 0.001077 0.000000
# 4 0.000000 0.000000 0.000000 0.122316 0.000000 -0.030628
# 5 -0.002772 0.000759 0.001077 0.000000 0.034146 0.000000
# 6 0.000000 0.000000 0.000000 -0.030628 0.000000 0.026052
#
#
# Mechanical properties :
#
#
# Convention : Reuss Voigt Hill
#
# Bulk Modulus (GPa) = 61.92896 72.63394 67.28145
# Shear Modulus (GPa) = 20.44215 33.82947 27.13581
#
# Velocity S-wave (km/s) = 3.16431 4.07065 3.64576
# Velocity P-wave (km/s) = 6.60941 7.59413 7.11882
#
# Compressibility (1/GPa) = 0.01614753
#
# Stress axis : x y z
#
# Youngs Moduli (GPa) = 112.08547 104.81857 55.67962
#
# Poissons Ratio (x) = 0.30913 0.17166
# Poissons Ratio (y) = 0.33056 0.22857
# Poissons Ratio (z) = 0.34556 0.43028
#
# Static dielectric constant tensor:
#      x y z
#    x 1.708790 0.000000 0.030920 
#    y 0.000000 1.754960 0.000000 
#    z 0.030920 0.000000 1.707250 
# 
# From -- ./inp_files/38124.got.cif
#   From: 2010.05.17/outbox.cif.g08.bks.cpg/sg10_20_cif.got.tgz:38124.got - 2010.06.03 11:33:40.
