data_PCOD9154498
_publ_section_title
;
Structure prediction by ZEFSAII (Michael W. Deem and Ramdas Pophale) SiO2 
 PCOD9154498
Probable space group: P 2/M
;
_chemical_formula_sum "Si O2"
_cell_formula_units_Z 28
_cell_length_a 10.471245
_cell_length_b 8.210689
_cell_length_c 31.083001
_cell_angle_alpha 90.000000
_cell_angle_beta 146.684835
_cell_angle_gamma 90.000000
_cell_volume 1467.797700
_symmetry_space_group_name_H-M "P 2/M"
_symmetry_group_IT_number 10
_symmetry_cell_setting 'monoclinic'
loop_
_space_group_symop_operation_xyz
x,y,z
-x,y,-z
-x,-y,-z
x,-y,z
loop_
_atom_site_type_symbol
_atom_site_label
_atom_site_fract_x
_atom_site_fract_y
_atom_site_fract_z
Si Si1 0.367943 0.697031 0.585491
Si Si2 0.341958 0.808149 0.995773
Si Si3 0.876048 0.812204 0.742202
Si Si4 0.918008 0.301931 0.409779
Si Si5 0.350129 0.309426 0.840063
Si Si6 0.394351 0.699013 0.754860
Si Si7 0.147065 0.308650 0.167422
O O1 0.383875 0.500000 0.589283
O O2 0.623384 0.767955 0.652722
O O3 0.257679 0.742958 0.600878
O O4 0.176110 0.749638 0.496399
O O5 0.485269 0.778992 0.079407
O O6 0.298202 0.000000 0.977438
O O7 0.500000 0.751325 0.000000
O O8 0.095938 0.718530 0.925025
O O9 0.865580 0.779886 0.790366
O O10 0.084931 0.709658 0.780835
O O11 0.930804 0.000000 0.749907
O O12 0.921593 0.500000 0.410515
O O13 0.813855 0.246614 0.335222
O O14 0.413391 0.500000 0.858525
O O15 0.375615 0.246097 0.798628
O O16 0.388387 0.500000 0.754005
O O17 0.635706 0.746798 0.800124
O O18 0.181559 0.500000 0.186424
#
# Coordination Sequence:
#
# PCOD9154498 Si02
#       7
#     4   4   4   4   4   4   4
#     4   9  16  30  58  87 111 145 190 235 280 327
#     4  11  23  39  58  84 119 149 183 231 283 334
#     4  12  23  36  54  83 119 152 189 233 280 334
#     4   8  14  29  56  88 115 141 182 239 285 322
#     4  11  23  39  61  84 111 150 192 232 282 336
#     4   9  19  36  59  89 117 142 184 241 286 327
#     4  11  21  37  64  88 111 144 190 237 280 333
#
# _framework density 19.076197000000001
#
# number of rings (size 3 to 8) (size 9 to 14) (size 15 to 20)
#    0.000    1.857    2.857    3.429    0.000    1.143 
#    0.000    7.857    0.000    4.286    0.000    0.000 
#    0.000    0.000    0.000    0.000    0.000    0.000 
#
# Total GULP energy -156359.541995 kJ/mol
# GULP energy per Si atom -5584.269357 kJ/mol
# Density = 1.903278 g / cm^3
# Si number density = 19.076197 Si / 1000 Ang^3
#
#
#
# Elastic Constant Matrix: (Units=GPa)
#
#
# Indices 1 2 3 4 5 6 
#
# 1 92.2610 -6.7457 53.1413 0.0000 -15.5856 0.0000
# 2 -6.7457 18.7327 -7.7754 0.0000 -3.5408 0.0000
# 3 53.1413 -7.7754 134.9987 0.0000 -8.2060 0.0000
# 4 0.0000 0.0000 0.0000 5.1422 0.0000 -3.7635
# 5 -15.5856 -3.5408 -8.2060 0.0000 31.8233 0.0000
# 6 0.0000 0.0000 0.0000 -3.7635 0.0000 -25.1853
#
#
#
# Elastic Compliance Matrix: (Units=1/GPa)
#
#
# Indices 1 2 3 4 5 6 
#
# 1 0.015407 0.004567 -0.005397 0.000000 0.006662 0.000000
# 2 0.004567 0.057626 0.002079 0.000000 0.009185 0.000000
# 3 -0.005397 0.002079 0.009656 0.000000 0.000078 0.000000
# 4 0.000000 0.000000 0.000000 0.175298 0.000000 -0.026195
# 5 0.006662 0.009185 0.000078 0.000000 0.035728 0.000000
# 6 0.000000 0.000000 0.000000 -0.026195 0.000000 -0.035791
#
#
# Mechanical properties :
#
#
# Convention : Reuss Voigt Hill
#
# Bulk Modulus (GPa) = 11.73856 35.91476 23.82666
# Shear Modulus (GPa) = 17.61674 16.18086 16.89880
#
# Velocity S-wave (km/s) = 3.04220 2.91559 2.97957
# Velocity P-wave (km/s) = 4.30196 5.49564 4.93502
#
# Compressibility (1/GPa) = 0.08518931
#
# Stress axis : x y z
#
# Youngs Moduli (GPa) = 64.90723 17.35318 103.55849
#
# Poissons Ratio (x) = -0.07926 0.55887
# Poissons Ratio (y) = -0.29645 -0.21535
# Poissons Ratio (z) = 0.35028 -0.03609
#
# Static dielectric constant tensor:
#      x y z
#    x 1.633890 0.000000 -0.005170 
#    y 0.000000 1.655710 0.000000 
#    z -0.005170 0.000000 1.663630 
# 
# From -- ./inp_files/92082.got.cif
#   From: 2010.05.17/outbox.cif.g08.bks.cpg/sg10_47_cif.got.tgz:92082.got - 2010.06.03 11:33:40.
