data_PCOD9154212
_publ_section_title
;
Structure prediction by ZEFSAII (Michael W. Deem and Ramdas Pophale) SiO2 
 PCOD9154212
Probable space group: P 2/M
;
_chemical_formula_sum "Si O2"
_cell_formula_units_Z 16
_cell_length_a 11.445768
_cell_length_b 10.568087
_cell_length_c 9.762327
_cell_angle_alpha 90.000000
_cell_angle_beta 43.658655
_cell_angle_gamma 90.000000
_cell_volume 815.212115
_symmetry_space_group_name_H-M "P 2/M"
_symmetry_group_IT_number 10
_symmetry_cell_setting 'monoclinic'
loop_
_space_group_symop_operation_xyz
x,y,z
-x,y,-z
-x,-y,-z
x,-y,z
loop_
_atom_site_type_symbol
_atom_site_label
_atom_site_fract_x
_atom_site_fract_y
_atom_site_fract_z
Si Si1 0.167696 0.500000 0.768589
Si Si2 0.591051 0.258088 0.779381
Si Si3 0.266693 0.000000 0.792203
Si Si4 0.648792 0.000000 0.589698
Si Si5 0.351966 0.257892 0.730640
Si Si6 0.170749 0.500000 0.442149
O O1 0.271643 0.376475 0.724034
O O2 0.134352 0.500000 0.635513
O O3 0.000000 0.500000 0.000000
O O4 0.676162 0.128692 0.650991
O O5 0.447789 0.293116 0.788418
O O6 0.719465 0.374558 0.681945
O O7 0.500000 0.232828 0.000000
O O8 0.217647 0.855841 0.869889
O O9 0.450089 0.000000 0.714432
O O10 0.256672 0.000000 0.635563
O O11 0.500000 0.211251 0.500000
O O12 0.000000 0.500000 0.500000
#
# Coordination Sequence:
#
# PCOD9154212 Si02
#       6
#     2   4   2   2   4   2
#     4  12  26  39  58  84 113 153 196 236 277 333
#     4  11  22  36  62  89 114 148 188 235 284 338
#     4   9  14  30  61  90 108 140 181 244 288 320
#     4   9  15  32  57  90 114 134 186 239 283 330
#     4  11  18  38  64  85 110 145 195 237 280 333
#     4  12  26  42  54  80 123 156 185 233 286 336
#
# _framework density 19.626792999999999
#
# number of rings (size 3 to 8) (size 9 to 14) (size 15 to 20)
#    0.000    1.250    7.500    1.875    3.500    0.000 
#    0.000    1.250    0.000    0.000    0.000    0.000 
#    0.000    0.000    0.000    0.000    0.000    0.000 
#
# Total GULP energy -89186.777091 kJ/mol
# GULP energy per Si atom -5574.173568 kJ/mol
# Density = 1.958212 g / cm^3
# Si number density = 19.626793 Si / 1000 Ang^3
#
#
#
# Elastic Constant Matrix: (Units=GPa)
#
#
# Indices 1 2 3 4 5 6 
#
# 1 117.9870 59.9492 23.6387 0.0000 22.2127 0.0000
# 2 59.9492 176.1816 3.4251 0.0000 -7.8715 0.0000
# 3 23.6387 3.4251 30.5050 0.0000 7.8640 0.0000
# 4 0.0000 0.0000 0.0000 -19.5656 0.0000 28.2897
# 5 22.2127 -7.8715 7.8640 0.0000 22.0804 0.0000
# 6 0.0000 0.0000 0.0000 28.2897 0.0000 -3.5036
#
#
#
# Elastic Compliance Matrix: (Units=1/GPa)
#
#
# Indices 1 2 3 4 5 6 
#
# 1 0.015962 -0.005971 -0.007719 0.000000 -0.015437 0.000000
# 2 -0.005971 0.008048 0.001580 0.000000 0.008313 0.000000
# 3 -0.007719 0.001580 0.040123 0.000000 -0.005961 0.000000
# 4 0.000000 0.000000 0.000000 0.004788 0.000000 0.038660
# 5 -0.015437 0.008313 -0.005961 0.000000 0.065905 0.000000
# 6 0.000000 0.000000 0.000000 0.038660 0.000000 0.026738
#
#
# Mechanical properties :
#
#
# Convention : Reuss Voigt Hill
#
# Bulk Modulus (GPa) = 25.05445 55.41107 40.23276
# Shear Modulus (GPa) = 25.11436 15.64627 20.38032
#
# Velocity S-wave (km/s) = 3.58102 2.82652 3.22591
# Velocity P-wave (km/s) = 5.46731 6.24067 5.86674
#
# Compressibility (1/GPa) = 0.03991308
#
# Stress axis : x y z
#
# Youngs Moduli (GPa) = 62.64768 124.24744 24.92364
#
# Poissons Ratio (x) = 0.74190 0.19239
# Poissons Ratio (y) = 0.37408 -0.03939
# Poissons Ratio (z) = 0.48359 -0.19635
#
# Static dielectric constant tensor:
#      x y z
#    x 1.688060 0.000000 -0.049130 
#    y 0.000000 1.809170 0.000000 
#    z -0.049130 0.000000 1.762840 
# 
# From -- ./inp_files/17713.got.cif
#   From: 2010.05.17/outbox.cif.g08.bks.cpg/sg10_9_cif.got.tgz:17713.got - 2010.06.03 11:33:40.
