data_PCOD9154299
_publ_section_title
;
Structure prediction by ZEFSAII (Michael W. Deem and Ramdas Pophale) SiO2 
 PCOD9154299
Probable space group: P 2/M
;
_chemical_formula_sum "Si O2"
_cell_formula_units_Z 16
_cell_length_a 10.148918
_cell_length_b 5.308646
_cell_length_c 22.769805
_cell_angle_alpha 90.000000
_cell_angle_beta 130.319808
_cell_angle_gamma 90.000000
_cell_volume 935.343557
_symmetry_space_group_name_H-M "P 2/M"
_symmetry_group_IT_number 10
_symmetry_cell_setting 'monoclinic'
loop_
_space_group_symop_operation_xyz
x,y,z
-x,y,-z
-x,-y,-z
x,-y,z
loop_
_atom_site_type_symbol
_atom_site_label
_atom_site_fract_x
_atom_site_fract_y
_atom_site_fract_z
Si Si1 0.390232 0.500000 0.690606
Si Si2 0.706706 0.000000 0.070163
Si Si3 0.803790 0.000000 0.964050
Si Si4 0.716042 0.000000 0.398517
Si Si5 0.073292 0.000000 0.425379
Si Si6 0.398846 0.500000 0.132620
Si Si7 0.034052 0.500000 0.664004
Si Si8 0.247439 0.500000 0.841159
O O1 0.384612 0.250056 0.649739
O O2 0.539793 0.500000 0.782189
O O3 0.211462 0.500000 0.676716
O O4 0.755206 0.249665 0.120302
O O5 0.500000 0.000000 0.000000
O O6 0.792681 0.000000 0.031271
O O7 0.707118 0.750765 0.912972
O O8 0.000000 0.000000 0.000000
O O9 0.894915 0.000000 0.412169
O O10 0.774795 0.000000 0.482952
O O11 0.066825 0.249837 0.384229
O O12 0.571188 0.500000 0.142099
O O13 0.096621 0.500000 0.749083
#
# Coordination Sequence:
#
# PCOD9154299 Si02
#       8
#     2   2   2   2   2   2   2   2
#     4   9  17  26  42  63  88 124 168 206 237 287
#     4  12  21  36  56  76 101 131 173 221 258 301
#     4  12  25  38  54  76 103 137 171 213 268 312
#     4   9  15  24  37  60  88 129 170 193 233 292
#     4   9  15  24  37  56  94 132 160 196 235 297
#     4  11  20  36  53  73 102 133 172 219 258 304
#     4   9  17  26  39  64  92 125 164 199 247 290
#     4  11  20  33  54  77  98 132 176 220 252 299
#
# _framework density 17.106014999999999
#
# number of rings (size 3 to 8) (size 9 to 14) (size 15 to 20)
#    0.000    1.750    2.500    3.750    0.000    7.000 
#    0.000    0.000    0.000    0.000    0.000    0.000 
#    0.000    0.000    0.000   78.750    0.000   35.000 
#
# Total GULP energy -89309.827470 kJ/mol
# GULP energy per Si atom -5581.864217 kJ/mol
# Density = 1.706708 g / cm^3
# Si number density = 17.106015 Si / 1000 Ang^3
#
#
#
# Elastic Constant Matrix: (Units=GPa)
#
#
# Indices 1 2 3 4 5 6 
#
# 1 56.1810 31.3066 45.6597 0.0000 -5.8899 0.0000
# 2 31.3066 223.6999 134.8745 0.0000 -15.5247 0.0000
# 3 45.6597 134.8745 199.8477 0.0000 -26.3561 0.0000
# 4 0.0000 0.0000 0.0000 58.1437 0.0000 -26.7094
# 5 -5.8899 -15.5247 -26.3561 0.0000 11.5669 0.0000
# 6 0.0000 0.0000 0.0000 -26.7094 0.0000 11.4968
#
#
#
# Elastic Compliance Matrix: (Units=1/GPa)
#
#
# Indices 1 2 3 4 5 6 
#
# 1 0.021860 -0.000075 -0.004988 0.000000 -0.000335 0.000000
# 2 -0.000075 0.007574 -0.005373 0.000000 -0.002117 0.000000
# 3 -0.004988 -0.005373 0.012128 0.000000 0.017883 0.000000
# 4 0.000000 0.000000 0.000000 -0.255923 0.000000 -0.594560
# 5 -0.000335 -0.002117 0.017883 0.000000 0.124190 0.000000
# 6 0.000000 0.000000 0.000000 -0.594560 0.000000 -1.294301
#
#
# Mechanical properties :
#
#
# Convention : Reuss Voigt Hill
#
# Bulk Modulus (GPa) = 48.33427 100.37892 74.35659
# Shear Modulus (GPa) = -3.68540 34.10068 15.20764
#
# Velocity S-wave (km/s) = -1.46940 4.46970 2.98488
# Velocity P-wave (km/s) = 5.04363 9.24367 7.44593
#
# Compressibility (1/GPa) = 0.02068925
#
# Stress axis : x y z
#
# Youngs Moduli (GPa) = 45.74532 132.03762 82.45244
#
# Poissons Ratio (x) = 0.00994 0.41126
# Poissons Ratio (y) = 0.00344 0.44304
# Poissons Ratio (z) = 0.22817 0.70947
#
# Static dielectric constant tensor:
#      x y z
#    x 1.540150 0.000000 -0.005220 
#    y 0.000000 1.568770 0.000000 
#    z -0.005220 0.000000 1.569780 
# 
# From -- ./inp_files/73897.got.cif
#   From: 2010.05.17/outbox.cif.g08.bks.cpg/sg10_37_cif.got.tgz:73897.got - 2010.06.03 11:33:40.
