data_PCOD9154495
_publ_section_title
;
Structure prediction by ZEFSAII (Michael W. Deem and Ramdas Pophale) SiO2 
 PCOD9154495
Probable space group: P 2/M
;
_chemical_formula_sum "Si O2"
_cell_formula_units_Z 22
_cell_length_a 8.472531
_cell_length_b 17.241230
_cell_length_c 7.533893
_cell_angle_alpha 90.000000
_cell_angle_beta 74.251478
_cell_angle_gamma 90.000000
_cell_volume 1059.216065
_symmetry_space_group_name_H-M "P 2/M"
_symmetry_group_IT_number 10
_symmetry_cell_setting 'monoclinic'
loop_
_space_group_symop_operation_xyz
x,y,z
-x,y,-z
-x,-y,-z
x,-y,z
loop_
_atom_site_type_symbol
_atom_site_label
_atom_site_fract_x
_atom_site_fract_y
_atom_site_fract_z
Si Si1 0.414308 0.779226 0.839302
Si Si2 0.248989 0.264996 0.400181
Si Si3 0.131351 0.690791 0.830900
Si Si4 0.101462 0.415457 0.287588
Si Si5 0.153965 0.912842 0.818076
Si Si6 0.000000 0.860443 0.500000
O O1 0.565428 0.761931 0.663979
O O2 0.179624 0.721419 0.620049
O O3 0.302115 0.701471 0.879709
O O4 0.500000 0.796065 0.000000
O O5 0.220388 0.343182 0.295371
O O6 0.135154 0.195364 0.366639
O O7 0.291722 0.848098 0.818340
O O8 0.034642 0.612487 0.811603
O O9 0.000000 0.732568 0.000000
O O10 0.173328 0.500000 0.222980
O O11 0.000000 0.422594 0.500000
O O12 0.087867 0.903951 0.635609
O O13 0.221756 0.000000 0.818921
O O14 0.000000 0.906211 0.000000
#
# Coordination Sequence:
#
# PCOD9154495 Si02
#       6
#     4   4   4   4   4   2
#     4  12  24  39  64  97 132 172 216 274 330 392
#     4  11  21  38  65  96 127 166 221 275 321 395
#     4  11  21  37  61  91 124 171 221 266 322 391
#     4   9  18  37  63  92 126 171 219 272 331 388
#     4  11  25  45  68  99 136 174 219 271 337 402
#     4  12  21  42  71  94 122 182 224 270 321 392
#
# _framework density 20.770077000000001
#
# number of rings (size 3 to 8) (size 9 to 14) (size 15 to 20)
#    0.000    1.091    4.545    3.545    0.000    0.727 
#    0.000    3.636    0.000    6.545    0.000    0.000 
#    0.000    0.000    0.000    0.000    0.000    0.000 
#
# Total GULP energy -122560.603621 kJ/mol
# GULP energy per Si atom -5570.936528 kJ/mol
# Density = 2.072280 g / cm^3
# Si number density = 20.770077 Si / 1000 Ang^3
#
#
#
# Elastic Constant Matrix: (Units=GPa)
#
#
# Indices 1 2 3 4 5 6 
#
# 1 140.8855 47.2738 47.7665 0.0000 -4.3082 0.0000
# 2 47.2738 126.7346 35.5551 0.0000 12.9873 0.0000
# 3 47.7665 35.5551 119.2318 0.0000 5.0894 0.0000
# 4 0.0000 0.0000 0.0000 -3.8519 0.0000 -4.1515
# 5 -4.3082 12.9873 5.0894 0.0000 44.2826 0.0000
# 6 0.0000 0.0000 0.0000 -4.1515 0.0000 16.0059
#
#
#
# Elastic Compliance Matrix: (Units=1/GPa)
#
#
# Indices 1 2 3 4 5 6 
#
# 1 0.009074 -0.002781 -0.002893 0.000000 0.002031 0.000000
# 2 -0.002781 0.009691 -0.001651 0.000000 -0.002923 0.000000
# 3 -0.002893 -0.001651 0.010079 0.000000 -0.000956 0.000000
# 4 0.000000 0.000000 0.000000 -0.202893 0.000000 -0.052625
# 5 0.002031 -0.002923 -0.000956 0.000000 0.023747 0.000000
# 6 0.000000 0.000000 0.000000 -0.052625 0.000000 0.048828
#
#
# Mechanical properties :
#
#
# Convention : Reuss Voigt Hill
#
# Bulk Modulus (GPa) = 70.45077 72.00474 71.22776
# Shear Modulus (GPa) = -60.90610 28.37106 -16.26752
#
# Velocity S-wave (km/s) = -5.42104 3.69990 -2.80164
# Velocity P-wave (km/s) = 2.27827 7.27977 4.88900
#
# Compressibility (1/GPa) = 0.01419431
#
# Stress axis : x y z
#
# Youngs Moduli (GPa) = 110.20432 103.19234 99.21755
#
# Poissons Ratio (x) = 0.28702 0.28699
# Poissons Ratio (y) = 0.30652 0.16378
# Poissons Ratio (z) = 0.31877 0.17034
#
# Static dielectric constant tensor:
#      x y z
#    x 1.739600 0.000000 0.020040 
#    y 0.000000 1.807170 0.000000 
#    z 0.020040 0.000000 1.845250 
# 
# From -- ./inp_files/18849.got.cif
#   From: 2010.05.17/outbox.cif.g08.bks.cpg/sg10_10_cif.got.tgz:18849.got - 2010.06.03 11:33:40.
