data_PCOD9154199
_publ_section_title
;
Structure prediction by ZEFSAII (Michael W. Deem and Ramdas Pophale) SiO2 
 PCOD9154199
Probable space group: P 2/M
;
_chemical_formula_sum "Si O2"
_cell_formula_units_Z 20
_cell_length_a 11.744444
_cell_length_b 11.496647
_cell_length_c 15.192191
_cell_angle_alpha 90.000000
_cell_angle_beta 28.684988
_cell_angle_gamma 90.000000
_cell_volume 984.599411
_symmetry_space_group_name_H-M "P 2/M"
_symmetry_group_IT_number 10
_symmetry_cell_setting 'monoclinic'
loop_
_space_group_symop_operation_xyz
x,y,z
-x,y,-z
-x,-y,-z
x,-y,z
loop_
_atom_site_type_symbol
_atom_site_label
_atom_site_fract_x
_atom_site_fract_y
_atom_site_fract_z
Si Si1 0.000000 0.794491 0.500000
Si Si2 0.760414 0.000000 0.462381
Si Si3 0.280312 0.746615 0.587941
Si Si4 0.788125 0.000000 0.758836
Si Si5 0.145172 0.770000 0.992613
Si Si6 0.573294 0.000000 0.142598
Si Si7 0.373033 0.365137 0.344057
O O1 0.213512 0.714897 0.389218
O O2 0.108603 0.880493 0.353446
O O3 0.680499 0.880268 0.471304
O O4 0.651043 0.000000 0.636099
O O5 0.047843 0.000000 0.265017
O O6 0.500000 0.714359 0.500000
O O7 0.276256 0.664607 0.506457
O O8 0.042778 0.738989 0.805162
O O9 0.524637 0.000000 0.892385
O O10 0.277425 0.887469 0.932440
O O11 0.353947 0.675976 0.841814
O O12 0.000000 0.785518 0.000000
O O13 0.350938 0.500000 0.337309
#
# Coordination Sequence:
#
# PCOD9154199 Si02
#       7
#     2   2   4   2   4   2   4
#     4  11  19  44  70 100 129 171 220 272 338 393
#     4  12  19  38  66  99 134 168 212 273 342 395
#     4  12  24  43  66  99 134 173 221 276 335 397
#     4  11  16  34  73  92 131 171 208 277 335 396
#     4  12  24  43  66  99 134 173 221 276 335 397
#     4  12  19  38  66  99 134 168 212 273 342 395
#     4  12  26  45  70  95 133 183 226 272 320 386
#
# _framework density 20.312830000000002
#
# number of rings (size 3 to 8) (size 9 to 14) (size 15 to 20)
#    0.000    0.200   10.000    1.500    0.000    1.600 
#    0.000    5.000    0.000    2.400    0.000    0.000 
#    0.000    0.000    0.000    0.000    0.000    0.000 
#
# Total GULP energy -111761.613738 kJ/mol
# GULP energy per Si atom -5588.080687 kJ/mol
# Density = 2.026660 g / cm^3
# Si number density = 20.312830 Si / 1000 Ang^3
#
#
#
# Elastic Constant Matrix: (Units=GPa)
#
#
# Indices 1 2 3 4 5 6 
#
# 1 98.3146 26.4383 13.6498 0.0000 -19.5399 0.0000
# 2 26.4383 112.3970 4.5949 0.0000 -15.7915 0.0000
# 3 13.6498 4.5949 102.4520 0.0000 -19.7614 0.0000
# 4 0.0000 0.0000 0.0000 -38.2528 0.0000 -32.5365
# 5 -19.5399 -15.7915 -19.7614 0.0000 38.3672 0.0000
# 6 0.0000 0.0000 0.0000 -32.5365 0.0000 -8.7379
#
#
#
# Elastic Compliance Matrix: (Units=1/GPa)
#
#
# Indices 1 2 3 4 5 6 
#
# 1 0.011768 -0.002062 -0.000536 0.000000 0.004868 0.000000
# 2 -0.002062 0.009817 0.000457 0.000000 0.003225 0.000000
# 3 -0.000536 0.000457 0.010876 0.000000 0.005516 0.000000
# 4 0.000000 0.000000 0.000000 0.012063 0.000000 -0.044917
# 5 0.004868 0.003225 0.005516 0.000000 0.032712 0.000000
# 6 0.000000 0.000000 0.000000 -0.044917 0.000000 0.052808
#
#
# Mechanical properties :
#
#
# Convention : Reuss Voigt Hill
#
# Bulk Modulus (GPa) = 35.49075 44.72552 40.10814
# Shear Modulus (GPa) = 34.79007 16.17401 25.48204
#
# Velocity S-wave (km/s) = 4.14298 2.82484 3.54571
# Velocity P-wave (km/s) = 6.35577 5.71890 6.04573
#
# Compressibility (1/GPa) = 0.02817636
#
# Stress axis : x y z
#
# Youngs Moduli (GPa) = 84.97612 101.86836 91.94833
#
# Poissons Ratio (x) = 0.21007 0.04932
# Poissons Ratio (y) = 0.17524 -0.04198
# Poissons Ratio (z) = 0.04558 -0.04651
#
# Static dielectric constant tensor:
#      x y z
#    x 1.735490 0.000000 0.031240 
#    y 0.000000 1.680880 0.000000 
#    z 0.031240 0.000000 1.866490 
# 
# From -- ./inp_files/64625.got.cif
#   From: 2010.05.17/outbox.cif.g08.bks.cpg/sg10_33_cif.got.tgz:64625.got - 2010.06.03 11:33:40.
