data_PCOD9154558
_publ_section_title
;
Structure prediction by ZEFSAII (Michael W. Deem and Ramdas Pophale) SiO2 
 PCOD9154558
Probable space group: P 2/M
;
_chemical_formula_sum "Si O2"
_cell_formula_units_Z 24
_cell_length_a 9.401002
_cell_length_b 21.783486
_cell_length_c 7.442053
_cell_angle_alpha 90.000000
_cell_angle_beta 130.097089
_cell_angle_gamma 90.000000
_cell_volume 1165.815099
_symmetry_space_group_name_H-M "P 2/M"
_symmetry_group_IT_number 10
_symmetry_cell_setting 'monoclinic'
loop_
_space_group_symop_operation_xyz
x,y,z
-x,y,-z
-x,-y,-z
x,-y,z
loop_
_atom_site_type_symbol
_atom_site_label
_atom_site_fract_x
_atom_site_fract_y
_atom_site_fract_z
Si Si1 0.750992 0.168166 0.058943
Si Si2 0.243776 0.500000 0.968319
Si Si3 0.949976 0.929877 0.674877
Si Si4 0.950762 0.400586 0.672118
Si Si5 0.946169 0.258663 0.752966
Si Si6 0.645679 0.162711 0.385568
Si Si7 0.658729 0.500000 0.381765
O O1 0.892986 0.114808 0.116587
O O2 0.679926 0.154240 0.200598
O O3 0.873029 0.229328 0.193941
O O4 0.575864 0.171988 0.782202
O O5 0.295371 0.500000 0.796453
O O6 0.116812 0.440062 0.896933
O O7 0.438963 0.500000 0.227799
O O8 0.000000 0.929888 0.500000
O O9 0.751597 0.897133 0.547789
O O10 0.955153 0.000000 0.739170
O O11 0.930784 0.331065 0.716163
O O12 0.764133 0.440356 0.541993
O O13 0.000000 0.399496 0.500000
O O14 0.763718 0.221488 0.546222
O O15 0.000000 0.244712 0.000000
#
# Coordination Sequence:
#
# PCOD9154558 Si02
#       7
#     4   2   4   4   4   4   2
#     4   9  18  33  52  73  98 130 168 206 244 291
#     4   8  15  29  50  74  96 120 154 197 240 283
#     4   8  14  26  47  77 106 125 150 198 256 303
#     4   9  17  31  51  73  96 123 160 200 237 285
#     4  11  22  34  49  71 102 135 167 205 247 291
#     4   9  18  33  52  73  98 130 168 206 244 291
#     4   8  15  29  50  74  96 120 154 197 240 283
#
# _framework density 20.586456999999999
#
# number of rings (size 3 to 8) (size 9 to 14) (size 15 to 20)
#    0.000    3.000    0.000    3.500    0.000    2.667 
#    0.000    8.333    0.000    9.000    0.000    9.333 
#    0.000    0.000    0.000    0.000    0.000    0.000 
#
# Total GULP energy -133839.567733 kJ/mol
# GULP energy per Si atom -5576.648656 kJ/mol
# Density = 2.053960 g / cm^3
# Si number density = 20.586457 Si / 1000 Ang^3
#
#
#
# Elastic Constant Matrix: (Units=GPa)
#
#
# Indices 1 2 3 4 5 6 
#
# 1 38.2328 24.3903 39.4491 0.0000 20.0598 0.0000
# 2 24.3903 188.9689 76.3221 0.0000 45.1683 0.0000
# 3 39.4491 76.3221 149.5158 0.0000 53.3276 0.0000
# 4 0.0000 0.0000 0.0000 28.9692 0.0000 21.8189
# 5 20.0598 45.1683 53.3276 0.0000 46.4207 0.0000
# 6 0.0000 0.0000 0.0000 21.8189 0.0000 10.6674
#
#
#
# Elastic Compliance Matrix: (Units=1/GPa)
#
#
# Indices 1 2 3 4 5 6 
#
# 1 0.037716 -0.000090 -0.006986 0.000000 -0.008185 0.000000
# 2 -0.000090 0.007233 -0.001986 0.000000 -0.004718 0.000000
# 3 -0.006986 -0.001986 0.013179 0.000000 -0.010189 0.000000
# 4 0.000000 0.000000 0.000000 -0.063862 0.000000 0.130623
# 5 -0.008185 -0.004718 -0.010189 0.000000 0.041375 0.000000
# 6 0.000000 0.000000 0.000000 0.130623 0.000000 -0.173429
#
#
# Mechanical properties :
#
#
# Convention : Reuss Voigt Hill
#
# Bulk Modulus (GPa) = 24.99685 73.00452 49.00069
# Shear Modulus (GPa) = -47.02330 32.98185 -7.02072
#
# Velocity S-wave (km/s) = -4.78450 4.00698 -1.84872
# Velocity P-wave (km/s) = 4.28406 7.54634 4.39284
#
# Compressibility (1/GPa) = 0.04000504
#
# Stress axis : x y z
#
# Youngs Moduli (GPa) = 26.51427 138.25067 75.87676
#
# Poissons Ratio (x) = 0.01245 0.53005
# Poissons Ratio (y) = 0.00239 0.15068
# Poissons Ratio (z) = 0.18522 0.27454
#
# Static dielectric constant tensor:
#      x y z
#    x 1.678640 0.000000 -0.003090 
#    y 0.000000 1.684210 0.000000 
#    z -0.003090 0.000000 1.761920 
# 
# From -- ./inp_files/25947.got.cif
#   From: 2010.05.17/outbox.cif.g08.bks.cpg/sg10_13_cif.got.tgz:25947.got - 2010.06.03 11:33:40.
