data_PCOD9154522
_publ_section_title
;
Structure prediction by ZEFSAII (Michael W. Deem and Ramdas Pophale) SiO2 
 PCOD9154522
Probable space group: P 2/M
;
_chemical_formula_sum "Si O2"
_cell_formula_units_Z 18
_cell_length_a 9.466729
_cell_length_b 9.791649
_cell_length_c 22.518643
_cell_angle_alpha 90.000000
_cell_angle_beta 154.121092
_cell_angle_gamma 90.000000
_cell_volume 911.072635
_symmetry_space_group_name_H-M "P 2/M"
_symmetry_group_IT_number 10
_symmetry_cell_setting 'monoclinic'
loop_
_space_group_symop_operation_xyz
x,y,z
-x,y,-z
-x,-y,-z
x,-y,z
loop_
_atom_site_type_symbol
_atom_site_label
_atom_site_fract_x
_atom_site_fract_y
_atom_site_fract_z
Si Si1 0.984033 0.000000 0.564141
Si Si2 0.235295 0.231092 0.852019
Si Si3 0.278759 0.500000 0.153082
Si Si4 0.303695 0.000000 0.364380
Si Si5 0.084653 0.500000 0.213414
Si Si6 0.713770 0.500000 0.522468
Si Si7 0.740344 0.275054 0.274281
O O1 0.600026 0.000000 0.431369
O O2 0.000000 0.000000 0.500000
O O3 0.157809 0.867869 0.658342
O O4 0.371561 0.254802 0.836713
O O5 0.094442 0.370326 0.826195
O O6 0.500000 0.180505 0.000000
O O7 0.934059 0.128664 0.730974
O O8 0.102924 0.500000 0.149734
O O9 0.495853 0.365388 0.221540
O O10 0.000000 0.500000 0.000000
O O11 0.500000 0.000000 0.500000
O O12 0.460910 0.500000 0.373838
O O13 0.500000 0.500000 0.500000
O O14 0.938837 0.367905 0.607856
#
# Coordination Sequence:
#
# PCOD9154522 Si02
#       7
#     2   4   2   2   2   2   4
#     4  12  28  44  67  97 138 174 220 278 340 396
#     4  12  24  43  71 103 133 173 224 278 333 396
#     4  11  26  46  64  95 141 183 217 269 336 408
#     4  12  25  46  71  97 131 177 225 278 333 391
#     4  12  24  38  72 101 134 175 225 269 338 400
#     4  11  21  39  68 102 130 170 222 280 335 383
#     4  11  24  44  67  96 138 175 221 280 331 392
#
# _framework density 19.756931999999999
#
# number of rings (size 3 to 8) (size 9 to 14) (size 15 to 20)
#    0.000    0.444    4.444    4.000    6.222    0.889 
#    0.000    0.556    0.000    0.000    0.000    0.000 
#    0.000    0.000    0.000    0.000    0.000    0.000 
#
# Total GULP energy -100655.353834 kJ/mol
# GULP energy per Si atom -5591.964102 kJ/mol
# Density = 1.971196 g / cm^3
# Si number density = 19.756932 Si / 1000 Ang^3
#
#
#
# Elastic Constant Matrix: (Units=GPa)
#
#
# Indices 1 2 3 4 5 6 
#
# 1 122.8772 56.8546 15.8314 0.0000 -28.1496 0.0000
# 2 56.8546 173.0186 46.5598 0.0000 -2.0201 0.0000
# 3 15.8314 46.5598 118.8576 0.0000 -24.9923 0.0000
# 4 0.0000 0.0000 0.0000 25.3843 0.0000 -11.0858
# 5 -28.1496 -2.0201 -24.9923 0.0000 44.1771 0.0000
# 6 0.0000 0.0000 0.0000 -11.0858 0.0000 12.1877
#
#
#
# Elastic Compliance Matrix: (Units=1/GPa)
#
#
# Indices 1 2 3 4 5 6 
#
# 1 0.011798 -0.004282 0.001868 0.000000 0.008378 0.000000
# 2 -0.004282 0.008080 -0.003508 0.000000 -0.004343 0.000000
# 3 0.001868 -0.003508 0.011073 0.000000 0.007294 0.000000
# 4 0.000000 0.000000 0.000000 0.065357 0.000000 0.059448
# 5 0.008378 -0.004343 0.007294 0.000000 0.031902 0.000000
# 6 0.000000 0.000000 0.000000 0.059448 0.000000 0.136124
#
#
# Mechanical properties :
#
#
# Convention : Reuss Voigt Hill
#
# Bulk Modulus (GPa) = 52.33929 72.58277 62.46103
# Shear Modulus (GPa) = 17.69617 36.05033 26.87325
#
# Velocity S-wave (km/s) = 2.99606 4.27628 3.69208
# Velocity P-wave (km/s) = 6.20626 7.82302 7.06107
#
# Compressibility (1/GPa) = 0.01910610
#
# Stress axis : x y z
#
# Youngs Moduli (GPa) = 84.75963 123.76196 90.31329
#
# Poissons Ratio (x) = 0.52990 -0.16866
# Poissons Ratio (y) = 0.36291 0.31683
# Poissons Ratio (z) = -0.15829 0.43418
#
# Static dielectric constant tensor:
#      x y z
#    x 1.661080 0.000000 0.025640 
#    y 0.000000 1.695580 0.000000 
#    z 0.025640 0.000000 1.697480 
# 
# From -- ./inp_files/34162.got.cif
#   From: 2010.05.17/outbox.cif.g08.bks.cpg/sg10_18_cif.got.tgz:34162.got - 2010.06.03 11:33:40.
