data_PCOD9154977
_publ_section_title
;
Structure prediction by ZEFSAII (Michael W. Deem and Ramdas Pophale) SiO2 
 PCOD9154977
Probable space group: P 2/M
;
_chemical_formula_sum "Si O2"
_cell_formula_units_Z 24
_cell_length_a 21.203931
_cell_length_b 7.851923
_cell_length_c 7.160315
_cell_angle_alpha 90.000000
_cell_angle_beta 52.887489
_cell_angle_gamma 90.000000
_cell_volume 950.668711
_symmetry_space_group_name_H-M "P 2/M"
_symmetry_group_IT_number 10
_symmetry_cell_setting 'monoclinic'
loop_
_space_group_symop_operation_xyz
x,y,z
-x,y,-z
-x,-y,-z
x,-y,z
loop_
_atom_site_type_symbol
_atom_site_label
_atom_site_fract_x
_atom_site_fract_y
_atom_site_fract_z
Si Si1 0.090876 0.804020 0.133025
Si Si2 0.583727 0.306384 0.324601
Si Si3 0.411659 0.696726 0.127161
Si Si4 0.249904 0.799047 0.959746
Si Si5 0.921734 0.700699 0.413073
Si Si6 0.759910 0.301629 0.591924
O O1 0.083344 0.789584 0.374397
O O2 0.012870 0.718736 0.190522
O O3 0.087597 0.000000 0.083430
O O4 0.179983 0.733970 0.950717
O O5 0.500000 0.217407 0.500000
O O6 0.578424 0.500000 0.405062
O O7 0.593233 0.312522 0.086828
O O8 0.661736 0.226553 0.269560
O O9 0.414955 0.500000 0.191727
O O10 0.500000 0.773211 0.000000
O O11 0.324176 0.773148 0.331146
O O12 0.237133 0.000000 0.010962
O O13 0.244878 0.711336 0.171500
O O14 0.907985 0.500000 0.467329
O O15 0.850366 0.765932 0.407966
O O16 0.758164 0.500000 0.541447
#
# Coordination Sequence:
#
# PCOD9154977 Si02
#       6
#     4   4   4   4   4   4
#     4   9  15  21  29  44  67  93 121 150 180 217
#     4   9  17  28  41  57  77 100 126 156 188 222
#     4   8  13  23  40  58  75  98 127 155 183 219
#     4   9  16  24  35  51  71  97 126 154 186 223
#     4   9  14  19  29  45  66  93 122 149 180 218
#     4   8  14  23  34  50  72  97 125 155 186 222
#
# _framework density 25.245384999999999
#
# number of rings (size 3 to 8) (size 9 to 14) (size 15 to 20)
#    0.000    3.333    0.000    3.500    0.000    3.000 
#    0.000    0.000    0.000    8.000    0.000    0.000 
#    0.000    1.333    0.000   16.667    0.000   12.333 
#
# Total GULP energy -133682.241538 kJ/mol
# GULP energy per Si atom -5570.093397 kJ/mol
# Density = 2.518793 g / cm^3
# Si number density = 25.245385 Si / 1000 Ang^3
#
#
#
# Elastic Constant Matrix: (Units=GPa)
#
#
# Indices 1 2 3 4 5 6 
#
# 1 164.6862 4.6371 88.5166 0.0000 -50.9270 0.0000
# 2 4.6371 58.5573 17.2368 0.0000 -10.9033 0.0000
# 3 88.5166 17.2368 110.2191 0.0000 -82.4766 0.0000
# 4 0.0000 0.0000 0.0000 55.9104 0.0000 -11.2431
# 5 -50.9270 -10.9033 -82.4766 0.0000 98.5835 0.0000
# 6 0.0000 0.0000 0.0000 -11.2431 0.0000 8.1308
#
#
#
# Elastic Compliance Matrix: (Units=1/GPa)
#
#
# Indices 1 2 3 4 5 6 
#
# 1 0.011705 0.002107 -0.013452 0.000000 -0.004975 0.000000
# 2 0.002107 0.018315 -0.005952 0.000000 -0.001866 0.000000
# 3 -0.013452 -0.005952 0.040417 0.000000 0.026206 0.000000
# 4 0.000000 0.000000 0.000000 0.024775 0.000000 0.034258
# 5 -0.004975 -0.001866 0.026206 0.000000 0.029292 0.000000
# 6 0.000000 0.000000 0.000000 0.034258 0.000000 0.170360
#
#
# Mechanical properties :
#
#
# Convention : Reuss Voigt Hill
#
# Bulk Modulus (GPa) = 27.90087 61.58262 44.74175
# Shear Modulus (GPa) = 14.64534 47.39643 31.02088
#
# Velocity S-wave (km/s) = 2.41118 4.33763 3.50919
# Velocity P-wave (km/s) = 4.33908 7.03799 5.84640
#
# Compressibility (1/GPa) = 0.03584117
#
# Stress axis : x y z
#
# Youngs Moduli (GPa) = 85.43532 54.59967 24.74229
#
# Poissons Ratio (x) = -0.11502 0.33283
# Poissons Ratio (y) = -0.17997 0.14727
# Poissons Ratio (z) = 1.14928 0.32499
#
# Static dielectric constant tensor:
#      x y z
#    x 2.245800 0.000000 0.175070 
#    y 0.000000 1.905110 0.000000 
#    z 0.175070 0.000000 2.498780 
# 
# From -- ./inp_files/52465.got.cif
#   From: 2010.05.17/outbox.cif.g08.bks.cpg/sg10_27_cif.got.tgz:52465.got - 2010.06.03 11:33:40.
