data_PCOD9154532
_publ_section_title
;
Structure prediction by ZEFSAII (Michael W. Deem and Ramdas Pophale) SiO2 
 PCOD9154532
Probable space group: P 2/M
;
_chemical_formula_sum "Si O2"
_cell_formula_units_Z 20
_cell_length_a 11.199585
_cell_length_b 11.336157
_cell_length_c 14.417097
_cell_angle_alpha 90.000000
_cell_angle_beta 149.797277
_cell_angle_gamma 90.000000
_cell_volume 920.802035
_symmetry_space_group_name_H-M "P 2/M"
_symmetry_group_IT_number 10
_symmetry_cell_setting 'monoclinic'
loop_
_space_group_symop_operation_xyz
x,y,z
-x,y,-z
-x,-y,-z
x,-y,z
loop_
_atom_site_type_symbol
_atom_site_label
_atom_site_fract_x
_atom_site_fract_y
_atom_site_fract_z
Si Si1 0.752716 0.637972 0.278024
Si Si2 0.478935 0.860884 0.594244
Si Si3 0.323584 0.251269 0.093846
Si Si4 0.013210 0.263307 0.280422
Si Si5 0.766461 0.500000 0.904293
Si Si6 0.326855 0.500000 0.470982
O O1 0.670658 0.500000 0.216394
O O2 0.573377 0.724507 0.211156
O O3 0.000000 0.634168 0.500000
O O4 0.817718 0.692381 0.222309
O O5 0.500000 0.821410 0.500000
O O6 0.647023 0.798661 0.783092
O O7 0.214605 0.826753 0.449390
O O8 0.520928 0.000000 0.624858
O O9 0.222467 0.382693 0.030997
O O10 0.126090 0.195539 0.895330
O O11 0.168538 0.382375 0.365938
O O12 0.511791 0.500000 0.681109
O O13 0.000000 0.500000 0.000000
O O14 0.500000 0.500000 0.500000
#
# Coordination Sequence:
#
# PCOD9154532 Si02
#       6
#     4   4   4   4   2   2
#     4  11  21  40  66 101 145 184 217 264 335 416
#     4  11  27  50  71  93 130 181 236 290 340 397
#     4  12  25  42  68 104 139 178 226 274 340 410
#     4  12  24  41  69 102 139 178 222 278 335 408
#     4  12  24  37  62 102 141 179 214 268 336 414
#     4  12  22  39  60  98 144 178 216 269 340 402
#
# _framework density 21.720195
#
# number of rings (size 3 to 8) (size 9 to 14) (size 15 to 20)
#    0.000    0.400    6.000    3.000    2.800    1.600 
#    0.000    4.000    0.000    2.400    0.000    0.000 
#    0.000    0.000    0.000    0.000    0.000    0.000 
#
# Total GULP energy -111710.995289 kJ/mol
# GULP energy per Si atom -5585.549764 kJ/mol
# Density = 2.167076 g / cm^3
# Si number density = 21.720195 Si / 1000 Ang^3
#
#
#
# Elastic Constant Matrix: (Units=GPa)
#
#
# Indices 1 2 3 4 5 6 
#
# 1 98.7662 9.5584 -0.5748 0.0000 1.7829 0.0000
# 2 9.5584 46.5164 0.0886 0.0000 -4.6788 0.0000
# 3 -0.5748 0.0886 121.6980 0.0000 -19.6643 0.0000
# 4 0.0000 0.0000 0.0000 -7.1524 0.0000 -4.2118
# 5 1.7829 -4.6788 -19.6643 0.0000 39.4350 0.0000
# 6 0.0000 0.0000 0.0000 -4.2118 0.0000 15.4023
#
#
#
# Elastic Compliance Matrix: (Units=1/GPa)
#
#
# Indices 1 2 3 4 5 6 
#
# 1 0.010352 -0.002204 -0.000073 0.000000 -0.000766 0.000000
# 2 -0.002204 0.022248 0.000452 0.000000 0.002965 0.000000
# 3 -0.000073 0.000452 0.008946 0.000000 0.004518 0.000000
# 4 0.000000 0.000000 0.000000 -0.120422 0.000000 -0.032929
# 5 -0.000766 0.002965 0.004518 0.000000 0.027998 0.000000
# 6 0.000000 0.000000 0.000000 -0.032929 0.000000 0.055921
#
#
# Mechanical properties :
#
#
# Convention : Reuss Voigt Hill
#
# Bulk Modulus (GPa) = 26.38768 31.68054 29.03411
# Shear Modulus (GPa) = 234.47251 26.73087 130.60169
#
# Velocity S-wave (km/s) = 10.40124 3.51193 7.76271
# Velocity P-wave (km/s) = 12.50692 5.57335 9.68208
#
# Compressibility (1/GPa) = 0.03789647
#
# Stress axis : x y z
#
# Youngs Moduli (GPa) = 96.60317 44.94775 111.77626
#
# Poissons Ratio (x) = 0.09907 0.00819
# Poissons Ratio (y) = 0.21291 -0.05057
# Poissons Ratio (z) = 0.00708 -0.02034
#
# Static dielectric constant tensor:
#      x y z
#    x 1.874240 0.000000 -0.083530 
#    y 0.000000 1.749220 0.000000 
#    z -0.083530 0.000000 1.958600 
# 
# From -- ./inp_files/45793.got.cif
#   From: 2010.05.17/outbox.cif.g08.bks.cpg/sg10_23_cif.got.tgz:45793.got - 2010.06.03 11:33:40.
