data_PCOD9154811
_publ_section_title
;
Structure prediction by ZEFSAII (Michael W. Deem and Ramdas Pophale) SiO2 
 PCOD9154811
Probable space group: P 2/M
;
_chemical_formula_sum "Si O2"
_cell_formula_units_Z 18
_cell_length_a 8.050100
_cell_length_b 7.465275
_cell_length_c 12.357264
_cell_angle_alpha 90.000000
_cell_angle_beta 98.792064
_cell_angle_gamma 90.000000
_cell_volume 733.898570
_symmetry_space_group_name_H-M "P 2/M"
_symmetry_group_IT_number 10
_symmetry_cell_setting 'monoclinic'
loop_
_space_group_symop_operation_xyz
x,y,z
-x,y,-z
-x,-y,-z
x,-y,z
loop_
_atom_site_type_symbol
_atom_site_label
_atom_site_fract_x
_atom_site_fract_y
_atom_site_fract_z
Si Si1 0.925641 0.500000 0.194087
Si Si2 0.007828 0.198833 0.373315
Si Si3 0.530385 0.786042 0.833041
Si Si4 0.382837 0.706046 0.393365
Si Si5 0.218449 0.215373 0.960199
O O1 0.924190 0.340371 0.100882
O O2 0.926040 0.344578 0.289312
O O3 0.205660 0.197552 0.364381
O O4 0.000000 0.241331 0.500000
O O5 0.934349 0.000000 0.349535
O O6 0.526911 0.709209 0.713243
O O7 0.371422 0.739004 0.891154
O O8 0.530675 0.000000 0.824583
O O9 0.698348 0.736795 0.916110
O O10 0.500000 0.779317 0.500000
O O11 0.342154 0.500000 0.417393
O O12 0.186301 0.000000 0.954541
#
# Coordination Sequence:
#
# PCOD9154811 Si02
#       5
#     2   4   4   4   4
#     4  12  23  39  68  93 129 173 216 266 315 393
#     4  11  26  46  66  93 132 173 215 264 324 389
#     4   9  20  40  63  95 136 166 217 270 317 380
#     4  11  25  41  67  99 129 168 218 270 322 382
#     4   9  21  39  65 100 131 173 214 264 321 380
#
# _framework density 24.526548999999999
#
# number of rings (size 3 to 8) (size 9 to 14) (size 15 to 20)
#    0.000    1.778    1.111    3.000    6.222    2.667 
#    0.000    2.222    0.000    4.000    0.000    0.000 
#    0.000    0.000    0.000    0.000    0.000    0.000 
#
# Total GULP energy -100247.054754 kJ/mol
# GULP energy per Si atom -5569.280820 kJ/mol
# Density = 2.447073 g / cm^3
# Si number density = 24.526549 Si / 1000 Ang^3
#
#
#
# Elastic Constant Matrix: (Units=GPa)
#
#
# Indices 1 2 3 4 5 6 
#
# 1 59.8653 -0.2036 13.9864 0.0000 -8.7810 0.0000
# 2 -0.2036 109.5451 57.8769 0.0000 18.2683 0.0000
# 3 13.9864 57.8769 189.4582 0.0000 3.6418 0.0000
# 4 0.0000 0.0000 0.0000 126.1317 0.0000 57.9392
# 5 -8.7810 18.2683 3.6418 0.0000 20.6352 0.0000
# 6 0.0000 0.0000 0.0000 57.9392 0.0000 48.9336
#
#
#
# Elastic Compliance Matrix: (Units=1/GPa)
#
#
# Indices 1 2 3 4 5 6 
#
# 1 0.018272 -0.000724 -0.001294 0.000000 0.008645 0.000000
# 2 -0.000724 0.012923 -0.003681 0.000000 -0.011099 0.000000
# 3 -0.001294 -0.003681 0.006468 0.000000 0.001567 0.000000
# 4 0.000000 0.000000 0.000000 0.017382 0.000000 -0.020581
# 5 0.008645 -0.011099 0.001567 0.000000 0.061689 0.000000
# 6 0.000000 0.000000 0.000000 -0.020581 0.000000 0.044805
#
#
# Mechanical properties :
#
#
# Convention : Reuss Voigt Hill
#
# Bulk Modulus (GPa) = 38.07310 55.79867 46.93589
# Shear Modulus (GPa) = 27.51893 58.28735 42.90314
#
# Velocity S-wave (km/s) = 3.35327 4.88022 4.18694
# Velocity P-wave (km/s) = 5.52716 7.38615 6.52321
#
# Compressibility (1/GPa) = 0.02626527
#
# Stress axis : x y z
#
# Youngs Moduli (GPa) = 54.72858 77.38064 154.60454
#
# Poissons Ratio (x) = 0.05603 0.20004
# Poissons Ratio (y) = 0.03963 0.56910
# Poissons Ratio (z) = 0.07081 0.28484
#
# Static dielectric constant tensor:
#      x y z
#    x 2.095090 0.000000 -0.025280 
#    y 0.000000 1.898550 0.000000 
#    z -0.025280 0.000000 1.943150 
# 
# From -- ./inp_files/40876.got.cif
#   From: 2010.05.17/outbox.cif.g08.bks.cpg/sg10_21_cif.got.tgz:40876.got - 2010.06.03 11:33:40.
