data_PCOD9154531
_publ_section_title
;
Structure prediction by ZEFSAII (Michael W. Deem and Ramdas Pophale) SiO2 
 PCOD9154531
Probable space group: P 2/M
;
_chemical_formula_sum "Si O2"
_cell_formula_units_Z 26
_cell_length_a 9.009171
_cell_length_b 13.804746
_cell_length_c 14.982633
_cell_angle_alpha 90.000000
_cell_angle_beta 40.333532
_cell_angle_gamma 90.000000
_cell_volume 1206.046542
_symmetry_space_group_name_H-M "P 2/M"
_symmetry_group_IT_number 10
_symmetry_cell_setting 'monoclinic'
loop_
_space_group_symop_operation_xyz
x,y,z
-x,y,-z
-x,-y,-z
x,-y,z
loop_
_atom_site_type_symbol
_atom_site_label
_atom_site_fract_x
_atom_site_fract_y
_atom_site_fract_z
Si Si1 0.194244 0.385267 0.715993
Si Si2 0.422734 0.845504 0.128023
Si Si3 0.547484 0.394161 0.711513
Si Si4 0.078628 0.208022 0.650314
Si Si5 0.000000 0.276362 0.500000
Si Si6 0.667655 0.347296 0.007619
Si Si7 0.270605 0.000000 0.346508
Si Si8 0.276098 0.000000 0.547498
O O1 0.227385 0.500000 0.674360
O O2 0.375698 0.360812 0.711429
O O3 0.206788 0.299081 0.636352
O O4 0.930539 0.374371 0.868890
O O5 0.617624 0.765748 0.056398
O O6 0.351176 0.910926 0.245543
O O7 0.192756 0.785945 0.208173
O O8 0.500000 0.895733 0.000000
O O9 0.625076 0.500000 0.645980
O O10 0.409650 0.398573 0.866433
O O11 0.779326 0.337608 0.628166
O O12 0.099502 0.215827 0.534967
O O13 0.145518 0.097482 0.637077
O O14 0.500000 0.371026 0.000000
O O15 0.000000 0.000000 0.500000
O O16 0.362090 0.000000 0.404967
O O17 0.500000 0.000000 0.500000
#
# Coordination Sequence:
#
# PCOD9154531 Si02
#       8
#     4   4   4   4   2   4   2   2
#     4  11  25  44  69 102 148 196 240 302 374 440
#     4  11  21  41  70 109 138 188 243 306 361 424
#     4  11  25  42  64  99 142 190 242 301 369 438
#     4  12  24  47  70 101 143 184 246 297 368 437
#     4  12  25  41  72 100 136 186 243 311 366 448
#     4  11  21  40  66 101 139 187 242 291 356 437
#     4  12  23  42  75 103 141 191 251 308 373 447
#     4  12  30  46  72 106 142 195 239 302 370 452
#
# _framework density 21.558039999999998
#
# number of rings (size 3 to 8) (size 9 to 14) (size 15 to 20)
#    0.000    0.615    6.154    2.308    2.154    4.923 
#    0.000    1.538    0.000    0.923    0.000    0.000 
#    0.000    0.000    0.000    0.000    0.000    0.000 
#
# Total GULP energy -144926.940617 kJ/mol
# GULP energy per Si atom -5574.113101 kJ/mol
# Density = 2.150897 g / cm^3
# Si number density = 21.558040 Si / 1000 Ang^3
#
#
#
# Elastic Constant Matrix: (Units=GPa)
#
#
# Indices 1 2 3 4 5 6 
#
# 1 129.2437 47.9338 22.8644 0.0000 9.0268 0.0000
# 2 47.9338 145.0390 24.5162 0.0000 7.0043 0.0000
# 3 22.8644 24.5162 89.7939 0.0000 9.5057 0.0000
# 4 0.0000 0.0000 0.0000 53.0636 0.0000 -6.0022
# 5 9.0268 7.0043 9.5057 0.0000 36.5088 0.0000
# 6 0.0000 0.0000 0.0000 -6.0022 0.0000 33.4589
#
#
#
# Elastic Compliance Matrix: (Units=1/GPa)
#
#
# Indices 1 2 3 4 5 6 
#
# 1 0.009085 -0.002695 -0.001434 0.000000 -0.001356 0.000000
# 2 -0.002695 0.008056 -0.001461 0.000000 -0.000499 0.000000
# 3 -0.001434 -0.001461 0.012169 0.000000 -0.002534 0.000000
# 4 0.000000 0.000000 0.000000 0.019236 0.000000 0.003451
# 5 -0.001356 -0.000499 -0.002534 0.000000 0.028481 0.000000
# 6 0.000000 0.000000 0.000000 0.003451 0.000000 0.030506
#
#
# Mechanical properties :
#
#
# Convention : Reuss Voigt Hill
#
# Bulk Modulus (GPa) = 55.15289 61.63393 58.39341
# Shear Modulus (GPa) = 40.07824 42.52375 41.30099
#
# Velocity S-wave (km/s) = 4.31639 4.44613 4.38174
# Velocity P-wave (km/s) = 7.10497 7.41682 7.26257
#
# Compressibility (1/GPa) = 0.01813142
#
# Stress axis : x y z
#
# Youngs Moduli (GPa) = 110.07017 124.12748 82.17758
#
# Poissons Ratio (x) = 0.33448 0.11785
# Poissons Ratio (y) = 0.29660 0.12003
# Poissons Ratio (z) = 0.15785 0.18130
#
# Static dielectric constant tensor:
#      x y z
#    x 1.945640 0.000000 0.058830 
#    y 0.000000 1.840630 0.000000 
#    z 0.058830 0.000000 1.852160 
# 
# From -- ./inp_files/62066.got.cif
#   From: 2010.05.17/outbox.cif.g08.bks.cpg/sg10_32_cif.got.tgz:62066.got - 2010.06.03 11:33:40.
