data_PCOD9154427
_publ_section_title
;
Structure prediction by ZEFSAII (Michael W. Deem and Ramdas Pophale) SiO2 
 PCOD9154427
Probable space group: P 2/M
;
_chemical_formula_sum "Si O2"
_cell_formula_units_Z 32
_cell_length_a 19.964245
_cell_length_b 14.096886
_cell_length_c 19.178061
_cell_angle_alpha 90.000000
_cell_angle_beta 22.139086
_cell_angle_gamma 90.000000
_cell_volume 2034.025899
_symmetry_space_group_name_H-M "P 2/M"
_symmetry_group_IT_number 10
_symmetry_cell_setting 'monoclinic'
loop_
_space_group_symop_operation_xyz
x,y,z
-x,y,-z
-x,-y,-z
x,-y,z
loop_
_atom_site_type_symbol
_atom_site_label
_atom_site_fract_x
_atom_site_fract_y
_atom_site_fract_z
Si Si1 0.478072 0.114344 0.289817
Si Si2 0.523342 0.885101 0.086214
Si Si3 0.830865 0.200777 0.329667
Si Si4 0.292441 0.113216 0.697277
Si Si5 0.794065 0.799758 0.074149
Si Si6 0.289994 0.391463 0.616467
Si Si7 0.203633 0.115498 0.293667
Si Si8 0.280191 0.607648 0.787198
O O1 0.521896 0.142029 0.168266
O O2 0.286730 0.152567 0.497828
O O3 0.617456 0.162287 0.207918
O O4 0.485553 0.000000 0.289742
O O5 0.341623 0.856116 0.221803
O O6 0.523876 0.000000 0.084108
O O7 0.694714 0.854963 0.875520
O O8 0.780150 0.154288 0.304274
O O9 0.783709 0.311456 0.363616
O O10 0.038686 0.181283 0.136002
O O11 0.500000 0.142562 0.500000
O O12 0.197696 0.150417 0.858116
O O13 0.283143 0.000000 0.705044
O O14 0.793669 0.688439 0.092168
O O15 0.241748 0.500000 0.645417
O O16 0.505229 0.386985 0.412431
O O17 0.232141 0.372956 0.752571
O O18 0.000000 0.147925 0.500000
O O19 0.198386 0.000000 0.298623
O O20 0.225145 0.500000 0.856226
#
# Coordination Sequence:
#
# PCOD9154427 Si02
#       8
#     4   4   4   4   4   4   4   4
#     4  11  23  37  48  63  97 136 168 200 230 275
#     4   8  16  29  45  67  92 122 157 190 227 268
#     4  12  23  34  49  68  90 121 161 206 252 292
#     4  11  21  35  50  60  82 121 166 214 248 276
#     4  12  23  34  49  68  90 121 161 206 252 292
#     4   9  17  32  53  71  87 110 146 200 262 312
#     4   8  13  25  48  73  93 114 147 191 231 267
#     4   9  17  32  53  71  87 110 146 200 262 312
#
# _framework density 15.732346
#
# number of rings (size 3 to 8) (size 9 to 14) (size 15 to 20)
#    0.000    2.000    3.750    2.625    0.000    4.000 
#    0.000    3.750    0.000    0.000    0.000    0.000 
#    0.000    0.000    0.000    9.000    0.000   20.500 
#
# Total GULP energy -178499.812920 kJ/mol
# GULP energy per Si atom -5578.119154 kJ/mol
# Density = 1.569654 g / cm^3
# Si number density = 15.732346 Si / 1000 Ang^3
#
#
#
# Elastic Constant Matrix: (Units=GPa)
#
#
# Indices 1 2 3 4 5 6 
#
# 1 32.2457 7.9474 21.8730 0.0000 17.9481 0.0000
# 2 7.9474 48.9714 13.3196 0.0000 5.8883 0.0000
# 3 21.8730 13.3196 89.7005 0.0000 3.4391 0.0000
# 4 0.0000 0.0000 0.0000 -76.4808 0.0000 2.8260
# 5 17.9481 5.8883 3.4391 0.0000 22.0878 0.0000
# 6 0.0000 0.0000 0.0000 2.8260 0.0000 1.6647
#
#
#
# Elastic Compliance Matrix: (Units=1/GPa)
#
#
# Indices 1 2 3 4 5 6 
#
# 1 0.073672 -0.000821 -0.015649 0.000000 -0.057209 0.000000
# 2 -0.000821 0.021902 -0.002871 0.000000 -0.004725 0.000000
# 3 -0.015649 -0.002871 0.014963 0.000000 0.011152 0.000000
# 4 0.000000 0.000000 0.000000 -0.012303 0.000000 0.020886
# 5 -0.057209 -0.004725 0.011152 0.000000 0.091284 0.000000
# 6 0.000000 0.000000 0.000000 0.020886 0.000000 0.565252
#
#
# Mechanical properties :
#
#
# Convention : Reuss Voigt Hill
#
# Bulk Modulus (GPa) = 13.91684 28.57751 21.24717
# Shear Modulus (GPa) = 6.11693 -2.02715 2.04489
#
# Velocity S-wave (km/s) = 1.97397 -1.13636 1.14132
# Velocity P-wave (km/s) = 3.74975 4.05986 3.90788
#
# Compressibility (1/GPa) = 0.07185540
#
# Stress axis : x y z
#
# Youngs Moduli (GPa) = 13.57361 45.65744 66.83161
#
# Poissons Ratio (x) = 0.03747 1.04587
# Poissons Ratio (y) = 0.01114 0.19187
# Poissons Ratio (z) = 0.21242 0.13108
#
# Static dielectric constant tensor:
#      x y z
#    x 1.510220 0.000000 -0.024410 
#    y 0.000000 1.523450 0.000000 
#    z -0.024410 0.000000 1.568980 
# 
# From -- ./inp_files/79702.got.cif
#   From: 2010.05.17/outbox.cif.g08.bks.cpg/sg10_40_cif.got.tgz:79702.got - 2010.06.03 11:33:40.
