data_PCOD9154684
_publ_section_title
;
Structure prediction by ZEFSAII (Michael W. Deem and Ramdas Pophale) SiO2 
 PCOD9154684
Probable space group: P 2/M
;
_chemical_formula_sum "Si O2"
_cell_formula_units_Z 24
_cell_length_a 21.382948
_cell_length_b 9.638439
_cell_length_c 9.521669
_cell_angle_alpha 90.000000
_cell_angle_beta 35.568275
_cell_angle_gamma 90.000000
_cell_volume 1141.473980
_symmetry_space_group_name_H-M "P 2/M"
_symmetry_group_IT_number 10
_symmetry_cell_setting 'monoclinic'
loop_
_space_group_symop_operation_xyz
x,y,z
-x,y,-z
-x,-y,-z
x,-y,z
loop_
_atom_site_type_symbol
_atom_site_label
_atom_site_fract_x
_atom_site_fract_y
_atom_site_fract_z
Si Si1 0.611083 0.159309 0.645979
Si Si2 0.049801 0.159221 0.634786
Si Si3 0.798354 0.335994 0.814154
Si Si4 0.368756 0.830782 0.073444
Si Si5 0.876192 0.646353 0.270361
Si Si6 0.195267 0.244404 0.880974
O O1 0.493297 0.210514 0.817000
O O2 0.699801 0.162865 0.362543
O O3 0.590510 0.000000 0.718202
O O4 0.647742 0.214588 0.732473
O O5 0.090943 0.264131 0.440641
O O6 0.117166 0.216396 0.645946
O O7 0.076258 0.000000 0.554683
O O8 0.921830 0.170284 0.896232
O O9 0.796963 0.500000 0.792690
O O10 0.708219 0.252491 0.890753
O O11 0.786000 0.309972 0.002386
O O12 0.353488 0.000000 0.085439
O O13 0.846522 0.500000 0.396733
O O14 0.816191 0.656609 0.232901
O O15 0.000000 0.635400 0.000000
#
# Coordination Sequence:
#
# PCOD9154684 Si02
#       6
#     4   4   4   4   4   4
#     4   9  19  39  67  95 122 155 199 253 306 360
#     4  11  24  40  61  90 123 162 209 257 304 359
#     4  12  26  42  60  86 125 167 206 251 306 365
#     4   9  20  42  69  94 121 157 202 249 303 366
#     4   9  19  37  59  83 116 159 203 245 294 353
#     4  11  23  37  60  92 127 162 204 251 301 360
#
# _framework density 21.025445999999999
#
# number of rings (size 3 to 8) (size 9 to 14) (size 15 to 20)
#    0.000    1.833    0.000    4.500    0.000   11.667 
#    0.000    6.667    0.000    0.000    0.000    0.000 
#    0.000    0.000    0.000    0.000    0.000    0.000 
#
# Total GULP energy -133708.875785 kJ/mol
# GULP energy per Si atom -5571.203158 kJ/mol
# Density = 2.097759 g / cm^3
# Si number density = 21.025446 Si / 1000 Ang^3
#
#
#
# Elastic Constant Matrix: (Units=GPa)
#
#
# Indices 1 2 3 4 5 6 
#
# 1 140.1496 55.9005 63.2062 0.0000 4.6266 0.0000
# 2 55.9005 135.1909 39.4944 0.0000 7.0975 0.0000
# 3 63.2062 39.4944 143.0472 0.0000 -2.1616 0.0000
# 4 0.0000 0.0000 0.0000 -658.6724 0.0000 172.7454
# 5 4.6266 7.0975 -2.1616 0.0000 43.2151 0.0000
# 6 0.0000 0.0000 0.0000 172.7454 0.0000 -21.0171
#
#
#
# Elastic Compliance Matrix: (Units=1/GPa)
#
#
# Indices 1 2 3 4 5 6 
#
# 1 0.009991 -0.003045 -0.003585 0.000000 -0.000749 0.000000
# 2 -0.003045 0.009063 -0.001176 0.000000 -0.001221 0.000000
# 3 -0.003585 -0.001176 0.008915 0.000000 0.001023 0.000000
# 4 0.000000 0.000000 0.000000 0.001314 0.000000 0.010798
# 5 -0.000749 -0.001221 0.001023 0.000000 0.023472 0.000000
# 6 0.000000 0.000000 0.000000 0.010798 0.000000 0.041173
#
#
# Mechanical properties :
#
#
# Convention : Reuss Voigt Hill
#
# Bulk Modulus (GPa) = 80.91559 81.73222 81.32390
# Shear Modulus (GPa) = 43.99110 -109.97578 -32.99234
#
# Velocity S-wave (km/s) = 4.57911 -7.24014 -3.96556
# Velocity P-wave (km/s) = 8.15633 5.56196 4.21843
#
# Compressibility (1/GPa) = 0.01235856
#
# Stress axis : x y z
#
# Youngs Moduli (GPa) = 100.08669 110.33384 112.17094
#
# Poissons Ratio (x) = 0.33592 0.40218
# Poissons Ratio (y) = 0.30472 0.13186
# Poissons Ratio (z) = 0.35886 0.12970
#
# Static dielectric constant tensor:
#      x y z
#    x 1.796960 0.000000 -0.023980 
#    y 0.000000 1.786930 0.000000 
#    z -0.023980 0.000000 1.810420 
# 
# From -- ./inp_files/34488.got.cif
#   From: 2010.05.17/outbox.cif.g08.bks.cpg/sg10_18_cif.got.tgz:34488.got - 2010.06.03 11:33:40.
