data_PCOD9154200
_publ_section_title
;
Structure prediction by ZEFSAII (Michael W. Deem and Ramdas Pophale) SiO2 
 PCOD9154200
Probable space group: P 2/M
;
_chemical_formula_sum "Si O2"
_cell_formula_units_Z 24
_cell_length_a 11.317765
_cell_length_b 11.648155
_cell_length_c 10.285268
_cell_angle_alpha 90.000000
_cell_angle_beta 89.785724
_cell_angle_gamma 90.000000
_cell_volume 1355.908516
_symmetry_space_group_name_H-M "P 2/M"
_symmetry_group_IT_number 10
_symmetry_cell_setting 'monoclinic'
loop_
_space_group_symop_operation_xyz
x,y,z
-x,y,-z
-x,-y,-z
x,-y,z
loop_
_atom_site_type_symbol
_atom_site_label
_atom_site_fract_x
_atom_site_fract_y
_atom_site_fract_z
Si Si1 0.251133 0.137886 0.256639
Si Si2 0.501448 0.751077 0.659194
Si Si3 0.863937 0.860815 0.014142
Si Si4 0.523282 0.500000 0.306908
Si Si5 0.747108 0.863117 0.287347
Si Si6 0.711506 0.500000 0.515878
Si Si7 0.135130 0.272344 0.477454
O O1 0.376351 0.189045 0.302230
O O2 0.154103 0.191575 0.352945
O O3 0.253741 0.000000 0.266977
O O4 0.214101 0.170981 0.110707
O O5 0.500000 0.730393 0.500000
O O6 0.485957 0.631844 0.739800
O O7 0.389803 0.829627 0.694481
O O8 0.801249 0.826653 0.148421
O O9 0.868492 0.000000 0.015038
O O10 0.000000 0.820493 0.000000
O O11 0.651748 0.500000 0.374630
O O12 0.404444 0.500000 0.394978
O O13 0.816238 0.798063 0.400300
O O14 0.760566 0.000000 0.300560
O O15 0.787174 0.386671 0.538112
O O16 0.000000 0.302946 0.500000
#
# Coordination Sequence:
#
# PCOD9154200 Si02
#       7
#     4   4   4   2   4   2   4
#     4  11  22  36  58  87 119 153 188 234 292 344
#     4  12  20  35  59  88 116 147 191 245 293 334
#     4   9  20  39  57  77 116 163 196 223 271 348
#     4  11  16  36  62  75 110 153 190 233 288 347
#     4  11  22  36  58  87 119 153 188 234 292 344
#     4  11  19  38  56  84 109 149 196 236 292 333
#     4  12  23  35  57  87 116 150 196 242 282 339
#
# _framework density 17.700309000000001
#
# number of rings (size 3 to 8) (size 9 to 14) (size 15 to 20)
#    0.000    1.000    6.667    2.250    0.000    4.000 
#    0.000    2.500    0.000    5.000    0.000    7.000 
#    0.000    0.000    0.000    0.000    0.000    0.000 
#
# Total GULP energy -133815.579468 kJ/mol
# GULP energy per Si atom -5575.649144 kJ/mol
# Density = 1.766002 g / cm^3
# Si number density = 17.700309 Si / 1000 Ang^3
#
#
#
# Elastic Constant Matrix: (Units=GPa)
#
#
# Indices 1 2 3 4 5 6 
#
# 1 64.8527 2.0390 -2.1173 0.0000 0.0528 0.0000
# 2 2.0390 82.9174 14.0598 0.0000 10.1971 0.0000
# 3 -2.1173 14.0598 84.5522 0.0000 -4.7194 0.0000
# 4 0.0000 0.0000 0.0000 -13.1868 0.0000 3.1415
# 5 0.0528 10.1971 -4.7194 0.0000 16.6081 0.0000
# 6 0.0000 0.0000 0.0000 3.1415 0.0000 17.1043
#
#
#
# Elastic Compliance Matrix: (Units=1/GPa)
#
#
# Indices 1 2 3 4 5 6 
#
# 1 0.015452 -0.000514 0.000495 0.000000 0.000407 0.000000
# 2 -0.000514 0.013678 -0.002800 0.000000 -0.009192 0.000000
# 3 0.000495 -0.002800 0.012601 0.000000 0.005299 0.000000
# 4 0.000000 0.000000 0.000000 -0.072654 0.000000 0.013344
# 5 0.000407 -0.009192 0.005299 0.000000 0.067360 0.000000
# 6 0.000000 0.000000 0.000000 0.013344 0.000000 0.056014
#
#
# Mechanical properties :
#
#
# Convention : Reuss Voigt Hill
#
# Bulk Modulus (GPa) = 27.70703 28.92059 28.31381
# Shear Modulus (GPa) = 45.40519 18.66115 32.03317
#
# Velocity S-wave (km/s) = 5.07029 3.25050 4.25873
# Velocity P-wave (km/s) = 7.06856 5.51925 6.34140
#
# Compressibility (1/GPa) = 0.03609193
#
# Stress axis : x y z
#
# Youngs Moduli (GPa) = 64.71837 73.10935 79.35978
#
# Poissons Ratio (x) = 0.03758 -0.03929
# Poissons Ratio (y) = 0.03326 0.22224
# Poissons Ratio (z) = -0.03204 0.20474
#
# Static dielectric constant tensor:
#      x y z
#    x 1.591770 0.000000 -0.003240 
#    y 0.000000 1.608220 0.000000 
#    z -0.003240 0.000000 1.605970 
# 
# From -- ./inp_files/24083.got.cif
#   From: 2010.05.17/outbox.cif.g08.bks.cpg/sg10_13_cif.got.tgz:24083.got - 2010.06.03 11:33:40.
