data_PCOD9154177
_publ_section_title
;
Structure prediction by ZEFSAII (Michael W. Deem and Ramdas Pophale) SiO2 
 PCOD9154177
Probable space group: P 2/M
;
_chemical_formula_sum "Si O2"
_cell_formula_units_Z 18
_cell_length_a 9.875720
_cell_length_b 16.371622
_cell_length_c 4.966829
_cell_angle_alpha 90.000000
_cell_angle_beta 102.310256
_cell_angle_gamma 90.000000
_cell_volume 784.580572
_symmetry_space_group_name_H-M "P 2/M"
_symmetry_group_IT_number 10
_symmetry_cell_setting 'monoclinic'
loop_
_space_group_symop_operation_xyz
x,y,z
-x,y,-z
-x,-y,-z
x,-y,z
loop_
_atom_site_type_symbol
_atom_site_label
_atom_site_fract_x
_atom_site_fract_y
_atom_site_fract_z
Si Si1 0.750899 0.809086 0.207346
Si Si2 0.000000 0.729501 0.000000
Si Si3 0.182608 0.411484 0.248214
Si Si4 0.646701 0.371955 0.185630
Si Si5 0.658777 0.095936 0.659901
O O1 0.662310 0.726022 0.191225
O O2 0.754191 0.852006 0.497500
O O3 0.895644 0.782280 0.134860
O O4 0.679681 0.870718 0.967838
O O5 0.084775 0.667120 0.229801
O O6 0.117712 0.500000 0.271958
O O7 0.313159 0.401218 0.501486
O O8 0.237633 0.406199 0.967632
O O9 0.500000 0.395643 0.000000
O O10 0.500000 0.108397 0.500000
O O11 0.689944 0.000000 0.657648
#
# Coordination Sequence:
#
# PCOD9154177 Si02
#       5
#     4   2   4   4   4
#     4  11  23  41  64  92 127 168 212 259 308 375
#     4  10  25  44  65  92 128 176 224 260 307 376
#     4  11  24  41  63  90 125 168 214 267 318 375
#     4  11  23  39  63  94 125 164 211 264 328 381
#     4  11  23  41  67  97 127 161 205 260 321 379
#
# _framework density 22.942195000000002
#
# number of rings (size 3 to 8) (size 9 to 14) (size 15 to 20)
#    0.000    1.111    0.000    7.000    0.000   12.444 
#    0.000    8.889    0.000    0.000    0.000    0.000 
#    0.000    0.000    0.000    0.000    0.000    0.000 
#
# Total GULP energy -100822.644727 kJ/mol
# GULP energy per Si atom -5601.258040 kJ/mol
# Density = 2.288998 g / cm^3
# Si number density = 22.942195 Si / 1000 Ang^3
#
#
#
# Elastic Constant Matrix: (Units=GPa)
#
#
# Indices 1 2 3 4 5 6 
#
# 1 57.1276 26.1381 -10.2274 0.0000 4.6644 0.0000
# 2 26.1381 120.1736 10.0617 0.0000 -6.0715 0.0000
# 3 -10.2274 10.0617 80.6823 0.0000 -2.1543 0.0000
# 4 0.0000 0.0000 0.0000 -19.4283 0.0000 -42.9219
# 5 4.6644 -6.0715 -2.1543 0.0000 37.8783 0.0000
# 6 0.0000 0.0000 0.0000 -42.9219 0.0000 -40.3520
#
#
#
# Elastic Compliance Matrix: (Units=1/GPa)
#
#
# Indices 1 2 3 4 5 6 
#
# 1 0.020560 -0.004893 0.003133 0.000000 -0.003138 0.000000
# 2 -0.004893 0.009637 -0.001767 0.000000 0.002047 0.000000
# 3 0.003133 -0.001767 0.013014 0.000000 0.000071 0.000000
# 4 0.000000 0.000000 0.000000 0.038129 0.000000 -0.040557
# 5 -0.003138 0.002047 0.000071 0.000000 0.027119 0.000000
# 6 0.000000 0.000000 0.000000 -0.040557 0.000000 0.018358
#
#
# Mechanical properties :
#
#
# Convention : Reuss Voigt Hill
#
# Bulk Modulus (GPa) = 27.65798 34.43649 31.04724
# Shear Modulus (GPa) = 34.26462 11.08699 22.67581
#
# Velocity S-wave (km/s) = 3.86880 2.20070 3.14728
# Velocity P-wave (km/s) = 5.66026 4.63682 5.17391
#
# Compressibility (1/GPa) = 0.03615593
#
# Stress axis : x y z
#
# Youngs Moduli (GPa) = 48.63729 103.76817 76.84218
#
# Poissons Ratio (x) = 0.50771 -0.24072
# Poissons Ratio (y) = 0.23797 0.13581
# Poissons Ratio (z) = -0.15236 0.18340
#
# Static dielectric constant tensor:
#      x y z
#    x 1.866380 0.000000 0.027240 
#    y 0.000000 1.836920 0.000000 
#    z 0.027240 0.000000 1.814790 
# 
# From -- ./inp_files/3795.got.cif
#   From: 2010.05.17/outbox.cif.g08.bks.cpg/sg10_2_cif.got.tgz:3795.got - 2010.06.03 11:33:40.
