data_PCOD9154040
_publ_section_title
;
Structure prediction by ZEFSAII (Michael W. Deem and Ramdas Pophale) SiO2 
 PCOD9154040
Probable space group: P 2/M
;
_chemical_formula_sum "Si O2"
_cell_formula_units_Z 18
_cell_length_a 12.071637
_cell_length_b 8.200981
_cell_length_c 8.119185
_cell_angle_alpha 90.000000
_cell_angle_beta 74.822848
_cell_angle_gamma 90.000000
_cell_volume 775.757822
_symmetry_space_group_name_H-M "P 2/M"
_symmetry_group_IT_number 10
_symmetry_cell_setting 'monoclinic'
loop_
_space_group_symop_operation_xyz
x,y,z
-x,y,-z
-x,-y,-z
x,-y,z
loop_
_atom_site_type_symbol
_atom_site_label
_atom_site_fract_x
_atom_site_fract_y
_atom_site_fract_z
Si Si1 0.910488 0.687242 0.171598
Si Si2 0.000000 0.245853 0.500000
Si Si3 0.702914 0.191768 0.083591
Si Si4 0.225456 0.312986 0.292398
Si Si5 0.535493 0.806131 0.674862
O O1 0.886758 0.500000 0.136769
O O2 0.790675 0.781277 0.200192
O O3 0.964156 0.688068 0.332131
O O4 0.000000 0.753368 0.000000
O O5 0.871973 0.190535 0.602875
O O6 0.574371 0.246964 0.175288
O O7 0.698021 0.000000 0.046899
O O8 0.754582 0.285005 0.908098
O O9 0.186374 0.500000 0.339745
O O10 0.347576 0.283534 0.328469
O O11 0.500000 0.783892 0.500000
O O12 0.552615 0.000000 0.697218
#
# Coordination Sequence:
#
# PCOD9154040 Si02
#       5
#     4   2   4   4   4
#     4  11  22  41  68  94 130 173 217 269 326 385
#     4  12  25  44  67  98 135 174 217 272 333 386
#     4  11  24  43  66  95 133 171 217 272 329 391
#     4  12  24  41  67  96 130 172 222 272 327 392
#     4  10  23  44  66  92 131 173 216 272 334 390
#
# _framework density 23.203116000000001
#
# number of rings (size 3 to 8) (size 9 to 14) (size 15 to 20)
#    0.000    0.889    2.222    5.333    0.000    5.333 
#    0.000    3.889    0.000    0.000    0.000    0.000 
#    0.000    0.000    0.000    0.000    0.000    0.000 
#
# Total GULP energy -100483.666693 kJ/mol
# GULP energy per Si atom -5582.425927 kJ/mol
# Density = 2.315030 g / cm^3
# Si number density = 23.203116 Si / 1000 Ang^3
#
#
#
# Elastic Constant Matrix: (Units=GPa)
#
#
# Indices 1 2 3 4 5 6 
#
# 1 180.7921 30.0763 50.5072 0.0000 -7.8294 0.0000
# 2 30.0763 40.8984 26.9130 0.0000 4.6212 0.0000
# 3 50.5072 26.9130 113.4517 0.0000 -15.3215 0.0000
# 4 0.0000 0.0000 0.0000 12.2615 0.0000 7.9670
# 5 -7.8294 4.6212 -15.3215 0.0000 49.4908 0.0000
# 6 0.0000 0.0000 0.0000 7.9670 0.0000 43.5791
#
#
#
# Elastic Compliance Matrix: (Units=1/GPa)
#
#
# Indices 1 2 3 4 5 6 
#
# 1 0.006748 -0.003727 -0.002013 0.000000 0.000792 0.000000
# 2 -0.003727 0.032291 -0.006771 0.000000 -0.005701 0.000000
# 3 -0.002013 -0.006771 0.011855 0.000000 0.003984 0.000000
# 4 0.000000 0.000000 0.000000 0.092550 0.000000 -0.016920
# 5 0.000792 -0.005701 0.003984 0.000000 0.022097 0.000000
# 6 0.000000 0.000000 0.000000 -0.016920 0.000000 0.026040
#
#
# Mechanical properties :
#
#
# Convention : Reuss Voigt Hill
#
# Bulk Modulus (GPa) = 38.65167 61.12613 49.88890
# Shear Modulus (GPa) = 22.19987 36.24266 29.22126
#
# Velocity S-wave (km/s) = 3.09651 3.95647 3.55261
# Velocity P-wave (km/s) = 5.42942 6.87551 6.19481
#
# Compressibility (1/GPa) = 0.02587211
#
# Stress axis : x y z
#
# Youngs Moduli (GPa) = 148.19356 30.96795 84.35557
#
# Poissons Ratio (x) = 0.11543 0.16980
# Poissons Ratio (y) = 0.55237 0.57115
# Poissons Ratio (z) = 0.29830 0.20968
#
# Static dielectric constant tensor:
#      x y z
#    x 1.848100 0.000000 -0.008270 
#    y 0.000000 1.852250 0.000000 
#    z -0.008270 0.000000 1.849360 
# 
# From -- ./inp_files/22096.got.cif
#   From: 2010.05.17/outbox.cif.g08.bks.cpg/sg10_12_cif.got.tgz:22096.got - 2010.06.03 11:33:40.
