data_PCOD9154545
_publ_section_title
;
Structure prediction by ZEFSAII (Michael W. Deem and Ramdas Pophale) SiO2 
 PCOD9154545
Probable space group: P 2/M
;
_chemical_formula_sum "Si O2"
_cell_formula_units_Z 18
_cell_length_a 10.063573
_cell_length_b 15.433453
_cell_length_c 6.664143
_cell_angle_alpha 90.000000
_cell_angle_beta 127.771828
_cell_angle_gamma 90.000000
_cell_volume 818.158537
_symmetry_space_group_name_H-M "P 2/M"
_symmetry_group_IT_number 10
_symmetry_cell_setting 'monoclinic'
loop_
_space_group_symop_operation_xyz
x,y,z
-x,y,-z
-x,-y,-z
x,-y,z
loop_
_atom_site_type_symbol
_atom_site_label
_atom_site_fract_x
_atom_site_fract_y
_atom_site_fract_z
Si Si1 0.626315 0.500000 0.813951
Si Si2 0.187729 0.362574 0.244851
Si Si3 0.500000 0.140379 0.000000
Si Si4 0.674917 0.177155 0.544791
Si Si5 0.193462 0.500000 0.601378
Si Si6 0.246373 0.000000 0.895717
Si Si7 0.128792 0.000000 0.323213
O O1 0.500000 0.500000 0.500000
O O2 0.707009 0.407591 0.832477
O O3 0.669090 0.500000 0.094163
O O4 0.225710 0.261896 0.298390
O O5 0.217068 0.416595 0.477424
O O6 0.000000 0.377878 0.000000
O O7 0.379289 0.189575 0.737421
O O8 0.375293 0.080628 0.019852
O O9 0.500000 0.171861 0.500000
O O10 0.781800 0.088878 0.665005
O O11 0.000000 0.500000 0.500000
O O12 0.177049 0.000000 0.604674
O O13 0.076239 0.000000 0.871884
#
# Coordination Sequence:
#
# PCOD9154545 Si02
#       7
#     2   4   2   4   2   2   2
#     4  11  23  43  71 101 137 167 213 291 346 413
#     4  11  24  42  65  99 132 170 231 282 335 412
#     4   9  20  40  62  89 132 174 214 285 344 395
#     4  11  24  41  62  94 136 176 226 284 341 396
#     4  11  21  47  75  94 129 183 221 273 358 420
#     4   8  16  37  64  88 122 169 232 285 330 393
#     4   9  19  39  63  93 128 183 231 270 335 413
#
# _framework density 22.000624999999999
#
# number of rings (size 3 to 8) (size 9 to 14) (size 15 to 20)
#    0.000    1.778    2.222    2.333    0.000    7.111 
#    8.000    1.667    0.000    0.000    0.000    0.000 
#    0.000    0.000    0.000    0.000    0.000    0.000 
#
# Total GULP energy -100282.684825 kJ/mol
# GULP energy per Si atom -5571.260268 kJ/mol
# Density = 2.195055 g / cm^3
# Si number density = 22.000625 Si / 1000 Ang^3
#
#
#
# Elastic Constant Matrix: (Units=GPa)
#
#
# Indices 1 2 3 4 5 6 
#
# 1 88.7993 16.4570 8.7991 0.0000 0.4894 0.0000
# 2 16.4570 128.7970 37.8240 0.0000 -7.8412 0.0000
# 3 8.7991 37.8240 168.9599 0.0000 3.0973 0.0000
# 4 0.0000 0.0000 0.0000 30.8738 0.0000 0.9907
# 5 0.4894 -7.8412 3.0973 0.0000 33.0521 0.0000
# 6 0.0000 0.0000 0.0000 0.9907 0.0000 14.9505
#
#
#
# Elastic Compliance Matrix: (Units=1/GPa)
#
#
# Indices 1 2 3 4 5 6 
#
# 1 0.011555 -0.001426 -0.000274 0.000000 -0.000484 0.000000
# 2 -0.001426 0.008642 -0.001902 0.000000 0.002249 0.000000
# 3 -0.000274 -0.001902 0.006378 0.000000 -0.001045 0.000000
# 4 0.000000 0.000000 0.000000 0.032459 0.000000 -0.002151
# 5 -0.000484 0.002249 -0.001045 0.000000 0.030894 0.000000
# 6 0.000000 0.000000 0.000000 -0.002151 0.000000 0.067030
#
#
# Mechanical properties :
#
#
# Convention : Reuss Voigt Hill
#
# Bulk Modulus (GPa) = 51.61837 56.96848 54.29342
# Shear Modulus (GPa) = 29.30544 37.34036 33.32290
#
# Velocity S-wave (km/s) = 3.65365 4.12423 3.89605
# Velocity P-wave (km/s) = 6.42745 6.97347 6.70602
#
# Compressibility (1/GPa) = 0.01937295
#
# Stress axis : x y z
#
# Youngs Moduli (GPa) = 86.54007 115.71822 156.79731
#
# Poissons Ratio (x) = 0.16496 0.04293
# Poissons Ratio (y) = 0.12336 0.29816
# Poissons Ratio (z) = 0.02369 0.22004
#
# Static dielectric constant tensor:
#      x y z
#    x 1.695360 0.000000 0.311850 
#    y 0.000000 1.731610 0.000000 
#    z 0.311850 0.000000 1.304940 
# 
# From -- ./inp_files/7339.got.cif
#   From: 2010.05.17/outbox.cif.g08.bks.cpg/sg10_4_cif.got.tgz:7339.got - 2010.06.03 11:33:40.
