data_PCOD9154457
_publ_section_title
;
Structure prediction by ZEFSAII (Michael W. Deem and Ramdas Pophale) SiO2 
 PCOD9154457
Probable space group: P 2/M
;
_chemical_formula_sum "Si O2"
_cell_formula_units_Z 18
_cell_length_a 21.737874
_cell_length_b 9.718883
_cell_length_c 9.337696
_cell_angle_alpha 90.000000
_cell_angle_beta 28.721168
_cell_angle_gamma 90.000000
_cell_volume 948.002536
_symmetry_space_group_name_H-M "P 2/M"
_symmetry_group_IT_number 10
_symmetry_cell_setting 'monoclinic'
loop_
_space_group_symop_operation_xyz
x,y,z
-x,y,-z
-x,-y,-z
x,-y,z
loop_
_atom_site_type_symbol
_atom_site_label
_atom_site_fract_x
_atom_site_fract_y
_atom_site_fract_z
Si Si1 0.609823 0.000000 0.898422
Si Si2 0.496896 0.788476 0.667193
Si Si3 0.234158 0.731560 0.745687
Si Si4 0.141721 0.500000 0.148325
Si Si5 0.133525 0.000000 0.808661
Si Si6 0.355273 0.500000 0.961145
Si Si7 0.656677 0.500000 0.686699
O O1 0.746133 0.000000 0.545203
O O2 0.500000 0.000000 0.000000
O O3 0.589106 0.129282 0.044807
O O4 0.500000 0.844116 0.500000
O O5 0.639255 0.790807 0.438056
O O6 0.443752 0.633974 0.767178
O O7 0.287168 0.633348 0.509719
O O8 0.150361 0.859299 0.863916
O O9 0.165202 0.632307 0.999772
O O10 0.246824 0.500000 0.061022
O O11 0.000000 0.500000 0.500000
O O12 0.000000 0.000000 0.000000
O O13 0.303210 0.500000 0.229688
O O14 0.500000 0.500000 0.000000
#
# Coordination Sequence:
#
# PCOD9154457 Si02
#       7
#     2   4   4   2   2   2   2
#     4  12  25  42  69  97 131 179 231 284 335 405
#     4  12  22  39  68 103 136 166 224 288 352 394
#     4  11  23  44  69  99 137 183 225 290 345 405
#     4  11  26  46  66  96 143 188 229 277 350 427
#     4  12  28  48  69  99 144 186 235 285 344 418
#     4  12  22  36  66 103 134 170 223 283 341 403
#     4  11  21  35  70 108 136 167 226 292 353 401
#
# _framework density 18.987292
#
# number of rings (size 3 to 8) (size 9 to 14) (size 15 to 20)
#    0.000    0.444    6.667    2.667    0.000    3.556 
#    0.000    2.778    0.000    0.000    0.000    0.000 
#    0.000    0.000    0.000    0.000    0.000    0.000 
#
# Total GULP energy -100681.996105 kJ/mol
# GULP energy per Si atom -5593.444228 kJ/mol
# Density = 1.894408 g / cm^3
# Si number density = 18.987292 Si / 1000 Ang^3
#
#
#
# Elastic Constant Matrix: (Units=GPa)
#
#
# Indices 1 2 3 4 5 6 
#
# 1 167.6847 73.9912 61.3222 0.0000 0.8980 0.0000
# 2 73.9912 127.1361 28.4034 0.0000 -5.0876 0.0000
# 3 61.3222 28.4034 99.8070 0.0000 0.8106 0.0000
# 4 0.0000 0.0000 0.0000 0.5738 0.0000 -1.8001
# 5 0.8980 -5.0876 0.8106 0.0000 47.1245 0.0000
# 6 0.0000 0.0000 0.0000 -1.8001 0.0000 23.7703
#
#
#
# Elastic Compliance Matrix: (Units=1/GPa)
#
#
# Indices 1 2 3 4 5 6 
#
# 1 0.009711 -0.004639 -0.004642 0.000000 -0.000606 0.000000
# 2 -0.004639 0.010658 -0.000193 0.000000 0.001242 0.000000
# 3 -0.004642 -0.000193 0.012927 0.000000 -0.000155 0.000000
# 4 0.000000 0.000000 0.000000 2.285585 0.000000 0.173088
# 5 -0.000606 0.001242 -0.000155 0.000000 0.021369 0.000000
# 6 0.000000 0.000000 0.000000 0.173088 0.000000 0.055177
#
#
# Mechanical properties :
#
#
# Convention : Reuss Voigt Hill
#
# Bulk Modulus (GPa) = 69.68808 80.22903 74.95856
# Shear Modulus (GPa) = 2.06683 29.68778 15.87731
#
# Velocity S-wave (km/s) = 1.04446 3.95848 2.89486
# Velocity P-wave (km/s) = 6.18358 7.95227 7.12303
#
# Compressibility (1/GPa) = 0.01434966
#
# Stress axis : x y z
#
# Youngs Moduli (GPa) = 102.97365 93.82369 77.35571
#
# Poissons Ratio (x) = 0.43525 0.35905
# Poissons Ratio (y) = 0.47770 0.01493
# Poissons Ratio (z) = 0.47795 0.01811
#
# Static dielectric constant tensor:
#      x y z
#    x 1.654230 0.000000 0.029030 
#    y 0.000000 1.705800 0.000000 
#    z 0.029030 0.000000 1.633620 
# 
# From -- ./inp_files/33641.got.cif
#   From: 2010.05.17/outbox.cif.g08.bks.cpg/sg10_17_cif.got.tgz:33641.got - 2010.06.03 11:33:40.
