data_PCOD9154479
_publ_section_title
;
Structure prediction by ZEFSAII (Michael W. Deem and Ramdas Pophale) SiO2 
 PCOD9154479
Probable space group: P 2/M
;
_chemical_formula_sum "Si O2"
_cell_formula_units_Z 24
_cell_length_a 11.064607
_cell_length_b 12.962391
_cell_length_c 13.700260
_cell_angle_alpha 90.000000
_cell_angle_beta 32.672167
_cell_angle_gamma 90.000000
_cell_volume 1060.737977
_symmetry_space_group_name_H-M "P 2/M"
_symmetry_group_IT_number 10
_symmetry_cell_setting 'monoclinic'
loop_
_space_group_symop_operation_xyz
x,y,z
-x,y,-z
-x,-y,-z
x,-y,z
loop_
_atom_site_type_symbol
_atom_site_label
_atom_site_fract_x
_atom_site_fract_y
_atom_site_fract_z
Si Si1 0.753409 0.117337 0.633532
Si Si2 0.235374 0.318538 0.887377
Si Si3 0.648499 0.613119 0.496357
Si Si4 0.704921 0.115896 0.283416
Si Si5 0.925054 0.821897 0.318400
Si Si6 0.621499 0.254031 0.009528
O O1 0.777538 0.120082 0.499566
O O2 0.563445 0.190866 0.804312
O O3 0.000000 0.151993 0.500000
O O4 0.716144 0.000000 0.690997
O O5 0.455717 0.381345 0.708510
O O6 0.276120 0.205919 0.808697
O O7 0.242774 0.314982 0.999151
O O8 0.000000 0.355202 0.000000
O O9 0.500000 0.626837 0.500000
O O10 0.755348 0.500000 0.421775
O O11 0.818130 0.707197 0.391115
O O12 0.500000 0.129318 0.500000
O O13 0.906854 0.130689 0.222950
O O14 0.701502 0.000000 0.245616
O O15 0.186081 0.818738 0.166777
O O16 0.500000 0.307018 0.000000
#
# Coordination Sequence:
#
# PCOD9154479 Si02
#       6
#     4   4   4   4   4   4
#     4  11  24  41  64  96 135 183 229 266 318 393
#     4  12  22  41  64  98 135 173 219 274 327 391
#     4  11  22  41  70 100 131 169 218 279 344 401
#     4  11  21  36  61  91 128 175 217 260 318 386
#     4  12  21  43  66  94 134 174 220 273 336 389
#     4  12  25  41  67  95 131 179 220 271 326 387
#
# _framework density 22.625758000000001
#
# number of rings (size 3 to 8) (size 9 to 14) (size 15 to 20)
#    0.000    0.500    8.333    0.500    0.000    4.333 
#    0.000    0.833    0.000    5.500    0.000    0.000 
#    0.000    0.000    0.000    0.000    0.000    0.000 
#
# Total GULP energy -134107.246192 kJ/mol
# GULP energy per Si atom -5587.801925 kJ/mol
# Density = 2.257426 g / cm^3
# Si number density = 22.625758 Si / 1000 Ang^3
#
#
#
# Elastic Constant Matrix: (Units=GPa)
#
#
# Indices 1 2 3 4 5 6 
#
# 1 120.7302 -4.7071 17.9301 0.0000 3.5924 0.0000
# 2 -4.7071 92.3154 9.0749 0.0000 -6.1979 0.0000
# 3 17.9301 9.0749 94.5087 0.0000 1.2168 0.0000
# 4 0.0000 0.0000 0.0000 9.7807 0.0000 4.0742
# 5 3.5924 -6.1979 1.2168 0.0000 38.7602 0.0000
# 6 0.0000 0.0000 0.0000 4.0742 0.0000 42.7347
#
#
#
# Elastic Compliance Matrix: (Units=1/GPa)
#
#
# Indices 1 2 3 4 5 6 
#
# 1 0.008572 0.000558 -0.001671 0.000000 -0.000653 0.000000
# 2 0.000558 0.011096 -0.001194 0.000000 0.001760 0.000000
# 3 -0.001671 -0.001194 0.011018 0.000000 -0.000382 0.000000
# 4 0.000000 0.000000 0.000000 0.106470 0.000000 -0.010151
# 5 -0.000653 0.001760 -0.000382 0.000000 0.026154 0.000000
# 6 0.000000 0.000000 0.000000 -0.010151 0.000000 0.024368
#
#
# Mechanical properties :
#
#
# Convention : Reuss Voigt Hill
#
# Bulk Modulus (GPa) = 38.35713 39.12778 38.74245
# Shear Modulus (GPa) = 24.87759 37.27221 31.07490
#
# Velocity S-wave (km/s) = 3.31951 4.06314 3.71000
# Velocity P-wave (km/s) = 5.62866 6.27241 5.95924
#
# Compressibility (1/GPa) = 0.02607078
#
# Stress axis : x y z
#
# Youngs Moduli (GPa) = 116.65434 90.11925 90.76302
#
# Poissons Ratio (x) = -0.05025 0.15171
# Poissons Ratio (y) = -0.06504 0.10837
# Poissons Ratio (z) = 0.19498 0.10760
#
# Static dielectric constant tensor:
#      x y z
#    x 1.962150 0.000000 0.022700 
#    y 0.000000 1.821930 0.000000 
#    z 0.022700 0.000000 1.957720 
# 
# From -- ./inp_files/65012.got.cif
#   From: 2010.05.17/outbox.cif.g08.bks.cpg/sg10_33_cif.got.tgz:65012.got - 2010.06.03 11:33:40.
