data_PCOD9154553
_publ_section_title
;
Structure prediction by ZEFSAII (Michael W. Deem and Ramdas Pophale) SiO2 
 PCOD9154553
Probable space group: P 2/M
;
_chemical_formula_sum "Si O2"
_cell_formula_units_Z 28
_cell_length_a 24.165932
_cell_length_b 18.146407
_cell_length_c 26.416249
_cell_angle_alpha 90.000000
_cell_angle_beta 169.015244
_cell_angle_gamma 90.000000
_cell_volume 2207.340481
_symmetry_space_group_name_H-M "P 2/M"
_symmetry_group_IT_number 10
_symmetry_cell_setting 'monoclinic'
loop_
_space_group_symop_operation_xyz
x,y,z
-x,y,-z
-x,-y,-z
x,-y,z
loop_
_atom_site_type_symbol
_atom_site_label
_atom_site_fract_x
_atom_site_fract_y
_atom_site_fract_z
Si Si1 0.178756 0.585297 0.607253
Si Si2 0.664436 0.910197 0.698662
Si Si3 0.676455 0.842287 0.105878
Si Si4 0.678165 0.670382 0.106899
Si Si5 0.344238 0.910447 0.106541
Si Si6 0.686103 0.088669 0.311656
Si Si7 0.674825 0.910109 0.504893
O O1 0.224470 0.500000 0.634684
O O2 0.000000 0.585577 0.500000
O O3 0.976744 0.628050 0.386143
O O4 0.476254 0.628053 0.885653
O O5 0.500000 0.886877 0.500000
O O6 0.494913 0.887006 0.596948
O O7 0.664337 0.000000 0.698602
O O8 0.000000 0.886877 0.000000
O O9 0.719356 0.756056 0.131617
O O10 0.988204 0.880286 0.392947
O O11 0.500000 0.847092 0.000000
O O12 0.488133 0.880289 0.892872
O O13 0.500000 0.668712 0.000000
O O14 0.514638 0.889671 0.208781
O O15 0.510079 0.886218 0.306128
O O16 0.340971 0.000000 0.104581
O O17 0.009665 0.886219 0.805713
O O18 0.695707 0.000000 0.317422
O O19 0.674914 0.000000 0.504946
#
# Coordination Sequence:
#
# PCOD9154553 Si02
#       7
#     4   4   4   4   4   4   4
#     4   9  15  24  40  60  79  97 115 133 151 183
#     4   9  15  21  30  47  69  89 107 125 149 193
#     4  11  22  34  46  58  74  95 115 145 195 246
#     4   9  17  28  40  56  77  97 115 133 163 213
#     4   9  17  28  40  52  64  81 109 146 184 217
#     4  11  22  34  46  58  70  87 120 163 199 236
#     4   9  15  24  37  50  66  87 107 131 168 209
#
# _framework density 12.684946999999999
#
# number of rings (size 3 to 8) (size 9 to 14) (size 15 to 20)
#    0.000    2.429    0.000    3.857    0.000   11.429 
#    0.000    0.000    0.000    0.000    0.000    0.000 
#    0.000    0.000    0.000    0.000    0.000    0.000 
#
# Total GULP energy -156060.605756 kJ/mol
# GULP energy per Si atom -5573.593063 kJ/mol
# Density = 1.265608 g / cm^3
# Si number density = 12.684947 Si / 1000 Ang^3
#
#
#
# Elastic Constant Matrix: (Units=GPa)
#
#
# Indices 1 2 3 4 5 6 
#
# 1 97.4203 29.7413 71.0516 0.0000 -7.7812 0.0000
# 2 29.7413 67.5021 46.4735 0.0000 -9.4625 0.0000
# 3 71.0516 46.4735 143.6272 0.0000 -18.3508 0.0000
# 4 0.0000 0.0000 0.0000 13.0889 0.0000 -6.2661
# 5 -7.7812 -9.4625 -18.3508 0.0000 26.0438 0.0000
# 6 0.0000 0.0000 0.0000 -6.2661 0.0000 2.0146
#
#
#
# Elastic Compliance Matrix: (Units=1/GPa)
#
#
# Indices 1 2 3 4 5 6 
#
# 1 0.016321 -0.002182 -0.007523 0.000000 -0.001218 0.000000
# 2 -0.002182 0.019545 -0.004858 0.000000 0.003026 0.000000
# 3 -0.007523 -0.004858 0.012905 0.000000 0.005080 0.000000
# 4 0.000000 0.000000 0.000000 -0.156233 0.000000 -0.485935
# 5 -0.001218 0.003026 0.005080 0.000000 0.042712 0.000000
# 6 0.000000 0.000000 0.000000 -0.485935 0.000000 -1.015041
#
#
# Mechanical properties :
#
#
# Convention : Reuss Voigt Hill
#
# Bulk Modulus (GPa) = 50.90625 67.00914 58.95770
# Shear Modulus (GPa) = -4.78873 18.98169 7.09648
#
# Velocity S-wave (km/s) = -1.94508 3.87252 2.36782
# Velocity P-wave (km/s) = 5.93076 8.54024 7.35220
#
# Compressibility (1/GPa) = 0.01964395
#
# Stress axis : x y z
#
# Youngs Moduli (GPa) = 61.27214 51.16523 77.48815
#
# Poissons Ratio (x) = 0.11164 0.58297
# Poissons Ratio (y) = 0.13369 0.37644
# Poissons Ratio (z) = 0.46097 0.24856
#
# Static dielectric constant tensor:
#      x y z
#    x 1.402420 0.000000 -0.008830 
#    y 0.000000 1.384320 0.000000 
#    z -0.008830 0.000000 1.418040 
# 
# From -- ./inp_files/81297.got.cif
#   From: 2010.05.17/outbox.cif.g08.bks.cpg/sg10_41_cif.got.tgz:81297.got - 2010.06.03 11:33:40.
