data_PCOD9154708
_publ_section_title
;
Structure prediction by ZEFSAII (Michael W. Deem and Ramdas Pophale) SiO2 
 PCOD9154708
Probable space group: P 2/M
;
_chemical_formula_sum "Si O2"
_cell_formula_units_Z 14
_cell_length_a 9.283087
_cell_length_b 8.437290
_cell_length_c 12.290461
_cell_angle_alpha 90.000000
_cell_angle_beta 143.117085
_cell_angle_gamma 90.000000
_cell_volume 577.758508
_symmetry_space_group_name_H-M "P 2/M"
_symmetry_group_IT_number 10
_symmetry_cell_setting 'monoclinic'
loop_
_space_group_symop_operation_xyz
x,y,z
-x,y,-z
-x,-y,-z
x,-y,z
loop_
_atom_site_type_symbol
_atom_site_label
_atom_site_fract_x
_atom_site_fract_y
_atom_site_fract_z
Si Si1 0.750550 0.677076 0.284354
Si Si2 0.047569 0.821295 0.804996
Si Si3 0.500000 0.246582 0.500000
Si Si4 0.646217 0.185500 0.811829
O O1 0.648698 0.500000 0.231897
O O2 0.820688 0.713549 0.203042
O O3 0.570611 0.796917 0.233308
O O4 0.000000 0.683227 0.500000
O O5 0.760041 0.820563 0.620242
O O6 0.131596 0.000000 0.836081
O O7 0.125642 0.779876 0.974463
O O8 0.587805 0.299094 0.674167
O O9 0.660147 0.000000 0.781152
#
# Coordination Sequence:
#
# PCOD9154708 Si02
#       4
#     4   4   2   4
#     4  11  24  43  66  91 123 166 213 258 309 367
#     4  11  23  40  66  97 125 161 208 254 309 372
#     4  12  23  40  65  94 133 166 197 256 313 364
#     4  11  23  40  66  97 125 161 208 254 309 372
#
# _framework density 24.231577000000001
#
# number of rings (size 3 to 8) (size 9 to 14) (size 15 to 20)
#    0.000    0.857    2.857    5.143    0.000    8.000 
#    0.000    2.857    0.000    3.429    0.000    0.000 
#    0.000    0.000    0.000    0.000    0.000    0.000 
#
# Total GULP energy -78069.740937 kJ/mol
# GULP energy per Si atom -5576.410067 kJ/mol
# Density = 2.417643 g / cm^3
# Si number density = 24.231577 Si / 1000 Ang^3
#
#
#
# Elastic Constant Matrix: (Units=GPa)
#
#
# Indices 1 2 3 4 5 6 
#
# 1 101.8765 13.5450 18.3461 0.0000 -19.7119 0.0000
# 2 13.5450 42.0451 22.0388 0.0000 -6.4179 0.0000
# 3 18.3461 22.0388 160.4110 0.0000 -16.5607 0.0000
# 4 0.0000 0.0000 0.0000 7.9436 0.0000 -2.3414
# 5 -19.7119 -6.4179 -16.5607 0.0000 50.1687 0.0000
# 6 0.0000 0.0000 0.0000 -2.3414 0.0000 -30.9354
#
#
#
# Elastic Compliance Matrix: (Units=1/GPa)
#
#
# Indices 1 2 3 4 5 6 
#
# 1 0.011002 -0.002704 -0.000493 0.000000 0.003814 0.000000
# 2 -0.002704 0.026529 -0.003204 0.000000 0.001274 0.000000
# 3 -0.000493 -0.003204 0.006904 0.000000 0.001675 0.000000
# 4 0.000000 0.000000 0.000000 0.123140 0.000000 -0.009320
# 5 0.003814 0.001274 0.001675 0.000000 0.022147 0.000000
# 6 0.000000 0.000000 0.000000 -0.009320 0.000000 -0.031620
#
#
# Mechanical properties :
#
#
# Convention : Reuss Voigt Hill
#
# Bulk Modulus (GPa) = 31.61270 45.79915 38.70593
# Shear Modulus (GPa) = 27.55610 22.12890 24.84250
#
# Velocity S-wave (km/s) = 3.37589 3.02524 3.20537
# Velocity P-wave (km/s) = 5.31695 5.58072 5.45043
#
# Compressibility (1/GPa) = 0.03163285
#
# Stress axis : x y z
#
# Youngs Moduli (GPa) = 90.89198 37.69468 144.85327
#
# Poissons Ratio (x) = 0.10192 0.07142
# Poissons Ratio (y) = 0.24575 0.46412
# Poissons Ratio (z) = 0.04482 0.12078
#
# Static dielectric constant tensor:
#      x y z
#    x 1.897450 0.000000 -0.008780 
#    y 0.000000 1.878050 0.000000 
#    z -0.008780 0.000000 1.948990 
# 
# From -- ./inp_files/16578.got.cif
#   From: 2010.05.17/outbox.cif.g08.bks.cpg/sg10_9_cif.got.tgz:16578.got - 2010.06.03 11:33:40.
