data_PCOD9154719
_publ_section_title
;
Structure prediction by ZEFSAII (Michael W. Deem and Ramdas Pophale) SiO2 
 PCOD9154719
Probable space group: P 2/M
;
_chemical_formula_sum "Si O2"
_cell_formula_units_Z 17
_cell_length_a 8.896342
_cell_length_b 10.845899
_cell_length_c 10.953817
_cell_angle_alpha 90.000000
_cell_angle_beta 37.636302
_cell_angle_gamma 90.000000
_cell_volume 645.405637
_symmetry_space_group_name_H-M "P 2/M"
_symmetry_group_IT_number 10
_symmetry_cell_setting 'monoclinic'
loop_
_space_group_symop_operation_xyz
x,y,z
-x,y,-z
-x,-y,-z
x,-y,z
loop_
_atom_site_type_symbol
_atom_site_label
_atom_site_fract_x
_atom_site_fract_y
_atom_site_fract_z
Si Si1 0.500000 0.000000 0.500000
Si Si2 0.926351 0.291736 0.407731
Si Si3 0.275912 0.857876 0.061647
Si Si4 0.319820 0.500000 0.735017
Si Si5 0.351932 0.238431 0.748481
Si Si6 0.741886 0.500000 0.928680
O O1 0.358310 0.112210 0.668416
O O2 0.087161 0.386810 0.225864
O O3 0.000000 0.314003 0.500000
O O4 0.634768 0.288502 0.579593
O O5 0.029903 0.159734 0.297946
O O6 0.263719 0.795578 0.939222
O O7 0.329793 0.000000 0.004922
O O8 0.500000 0.807130 0.000000
O O9 0.500000 0.500000 0.500000
O O10 0.218252 0.360431 0.784745
O O11 0.336745 0.500000 0.876668
O O12 0.500000 0.500000 0.000000
#
# Coordination Sequence:
#
# PCOD9154719 Si02
#       6
#     1   4   4   2   4   2
#     4  12  28  50  74  96 140 208 248 298 366 442
#     4  12  24  41  73 114 143 185 242 304 373 447
#     4  11  23  41  68 105 146 187 236 301 375 433
#     4  12  25  47  75 102 144 199 241 304 373 437
#     4  12  25  48  72 104 148 192 246 303 370 443
#     4  12  24  45  77 112 156 192 239 305 384 449
#
# _framework density 26.340024
#
# number of rings (size 3 to 8) (size 9 to 14) (size 15 to 20)
#    0.000    0.235    7.059    3.176    1.647    0.471 
#    0.000    7.059    0.000    0.000    0.000    0.000 
#    0.000    0.000    0.000    0.000    0.000    0.000 
#
# Total GULP energy -94829.185208 kJ/mol
# GULP energy per Si atom -5578.187365 kJ/mol
# Density = 2.628007 g / cm^3
# Si number density = 26.340024 Si / 1000 Ang^3
#
#
#
# Elastic Constant Matrix: (Units=GPa)
#
#
# Indices 1 2 3 4 5 6 
#
# 1 150.9737 43.2428 65.6024 0.0000 12.5533 0.0000
# 2 43.2428 221.5902 46.2780 0.0000 29.0299 0.0000
# 3 65.6024 46.2780 181.1358 0.0000 32.4267 0.0000
# 4 0.0000 0.0000 0.0000 -2.2146 0.0000 48.2134
# 5 12.5533 29.0299 32.4267 0.0000 70.7570 0.0000
# 6 0.0000 0.0000 0.0000 48.2134 0.0000 -3.1271
#
#
#
# Elastic Compliance Matrix: (Units=1/GPa)
#
#
# Indices 1 2 3 4 5 6 
#
# 1 0.008076 -0.001043 -0.002700 0.000000 0.000232 0.000000
# 2 -0.001043 0.005057 -0.000628 0.000000 -0.001602 0.000000
# 3 -0.002700 -0.000628 0.007111 0.000000 -0.002522 0.000000
# 4 0.000000 0.000000 0.000000 0.001349 0.000000 0.020803
# 5 0.000232 -0.001602 -0.002522 0.000000 0.015905 0.000000
# 6 0.000000 0.000000 0.000000 0.020803 0.000000 0.000956
#
#
# Mechanical properties :
#
#
# Convention : Reuss Voigt Hill
#
# Bulk Modulus (GPa) = 86.93256 95.99400 91.46328
# Shear Modulus (GPa) = 97.98322 39.65482 68.81902
#
# Velocity S-wave (km/s) = 6.10574 3.88428 5.11702
# Velocity P-wave (km/s) = 9.09849 7.52596 8.34933
#
# Compressibility (1/GPa) = 0.01150317
#
# Stress axis : x y z
#
# Youngs Moduli (GPa) = 123.81894 197.73468 140.63661
#
# Poissons Ratio (x) = 0.20615 0.37975
# Poissons Ratio (y) = 0.12909 0.08827
# Poissons Ratio (z) = 0.33434 0.12411
#
# Static dielectric constant tensor:
#      x y z
#    x 2.148890 0.000000 -0.070300 
#    y 0.000000 2.364870 0.000000 
#    z -0.070300 0.000000 2.028580 
# 
# From -- ./inp_files/46400.got.cif
#   From: 2010.05.17/outbox.cif.g08.bks.cpg/sg10_24_cif.got.tgz:46400.got - 2010.06.03 11:33:40.
