data_PCOD9154335
_publ_section_title
;
Structure prediction by ZEFSAII (Michael W. Deem and Ramdas Pophale) SiO2 
 PCOD9154335
Probable space group: P 2/M
;
_chemical_formula_sum "Si O2"
_cell_formula_units_Z 26
_cell_length_a 11.848235
_cell_length_b 15.099673
_cell_length_c 7.747985
_cell_angle_alpha 90.000000
_cell_angle_beta 71.179501
_cell_angle_gamma 90.000000
_cell_volume 1312.037192
_symmetry_space_group_name_H-M "P 2/M"
_symmetry_group_IT_number 10
_symmetry_cell_setting 'monoclinic'
loop_
_space_group_symop_operation_xyz
x,y,z
-x,y,-z
-x,-y,-z
x,-y,z
loop_
_atom_site_type_symbol
_atom_site_label
_atom_site_fract_x
_atom_site_fract_y
_atom_site_fract_z
Si Si1 0.024802 0.603086 0.695593
Si Si2 0.210392 0.709405 0.146753
Si Si3 0.876214 0.098070 0.301965
Si Si4 0.847306 0.903096 0.900976
Si Si5 0.406373 0.597195 0.891245
Si Si6 0.757351 0.278940 0.471645
Si Si7 0.500000 0.331400 0.500000
O O1 0.022029 0.500000 0.752860
O O2 0.151734 0.651127 0.662546
O O3 0.000000 0.603206 0.500000
O O4 0.918993 0.664959 0.822045
O O5 0.214735 0.814675 0.128290
O O6 0.244970 0.690719 0.327797
O O7 0.304462 0.668167 0.970789
O O8 0.816074 0.181967 0.421291
O O9 0.019414 0.102181 0.243283
O O10 0.837768 0.000000 0.382717
O O11 0.853968 0.101610 0.106249
O O12 0.797470 0.000000 0.880250
O O13 0.350647 0.500000 0.926786
O O14 0.475462 0.610507 0.680175
O O15 0.500000 0.605099 0.000000
O O16 0.622787 0.278580 0.469225
#
# Coordination Sequence:
#
# PCOD9154335 Si02
#       7
#     4   4   4   4   4   4   2
#     4   9  19  34  55  86 122 158 195 250 315 367
#     4  11  20  38  63  90 125 156 203 258 319 361
#     4   9  18  35  57  87 124 162 202 251 313 373
#     4   9  18  33  59  89 123 161 200 252 313 377
#     4  11  24  43  65  90 122 166 215 259 303 366
#     4  11  22  37  60  89 123 165 204 257 305 370
#     4  12  25  44  63  88 124 172 215 254 307 364
#
# _framework density 19.816510999999998
#
# number of rings (size 3 to 8) (size 9 to 14) (size 15 to 20)
#    0.000    1.846    3.077    2.538    0.000    2.462 
#    0.000    1.923    0.000    4.154    0.000    0.000 
#    0.000    0.000    0.000    0.000    0.000    0.000 
#
# Total GULP energy -145150.683693 kJ/mol
# GULP energy per Si atom -5582.718604 kJ/mol
# Density = 1.977141 g / cm^3
# Si number density = 19.816511 Si / 1000 Ang^3
#
#
#
# Elastic Constant Matrix: (Units=GPa)
#
#
# Indices 1 2 3 4 5 6 
#
# 1 60.9738 38.6299 29.1910 0.0000 -15.1831 0.0000
# 2 38.6299 135.5006 28.7788 0.0000 -19.9823 0.0000
# 3 29.1910 28.7788 82.9025 0.0000 -5.6395 0.0000
# 4 0.0000 0.0000 0.0000 15.4770 0.0000 3.3120
# 5 -15.1831 -19.9823 -5.6395 0.0000 21.1323 0.0000
# 6 0.0000 0.0000 0.0000 3.3120 0.0000 31.8324
#
#
#
# Elastic Compliance Matrix: (Units=1/GPa)
#
#
# Indices 1 2 3 4 5 6 
#
# 1 0.025214 -0.003909 -0.006661 0.000000 0.012642 0.000000
# 2 -0.003909 0.009709 -0.001589 0.000000 0.005948 0.000000
# 3 -0.006661 -0.001589 0.014800 0.000000 -0.002339 0.000000
# 4 0.000000 0.000000 0.000000 0.066083 0.000000 -0.006876
# 5 0.012642 0.005948 -0.002339 0.000000 0.061404 0.000000
# 6 0.000000 0.000000 0.000000 -0.006876 0.000000 0.032130
#
#
# Mechanical properties :
#
#
# Convention : Reuss Voigt Hill
#
# Bulk Modulus (GPa) = 39.36363 52.50850 45.93607
# Shear Modulus (GPa) = 20.65022 25.87350 23.26186
#
# Velocity S-wave (km/s) = 3.23162 3.61730 3.42988
# Velocity P-wave (km/s) = 5.81650 6.63335 6.23831
#
# Compressibility (1/GPa) = 0.02540416
#
# Stress axis : x y z
#
# Youngs Moduli (GPa) = 39.66041 102.99452 67.56548
#
# Poissons Ratio (x) = 0.40263 0.45007
# Poissons Ratio (y) = 0.15504 0.10739
# Poissons Ratio (z) = 0.26418 0.16370
#
# Static dielectric constant tensor:
#      x y z
#    x 1.696950 0.000000 0.035610 
#    y 0.000000 1.691790 0.000000 
#    z 0.035610 0.000000 1.713560 
# 
# From -- ./inp_files/24816.got.cif
#   From: 2010.05.17/outbox.cif.g08.bks.cpg/sg10_13_cif.got.tgz:24816.got - 2010.06.03 11:33:40.
