data_PCOD9154935
_publ_section_title
;
Structure prediction by ZEFSAII (Michael W. Deem and Ramdas Pophale) SiO2 
 PCOD9154935
Probable space group: P 2/M
;
_chemical_formula_sum "Si O2"
_cell_formula_units_Z 20
_cell_length_a 8.294739
_cell_length_b 16.850314
_cell_length_c 14.479973
_cell_angle_alpha 90.000000
_cell_angle_beta 152.275019
_cell_angle_gamma 90.000000
_cell_volume 941.552091
_symmetry_space_group_name_H-M "P 2/M"
_symmetry_group_IT_number 10
_symmetry_cell_setting 'monoclinic'
loop_
_space_group_symop_operation_xyz
x,y,z
-x,y,-z
-x,-y,-z
x,-y,z
loop_
_atom_site_type_symbol
_atom_site_label
_atom_site_fract_x
_atom_site_fract_y
_atom_site_fract_z
Si Si1 0.592432 0.500000 0.941158
Si Si2 0.380077 0.809483 0.144270
Si Si3 0.421646 0.369623 0.205982
Si Si4 0.699150 0.090980 0.459272
Si Si5 0.577867 0.500000 0.647662
Si Si6 0.947385 0.093389 0.178841
O O1 0.005556 0.500000 0.137039
O O2 0.500000 0.500000 0.000000
O O3 0.463310 0.423191 0.821560
O O4 0.517106 0.720349 0.230380
O O5 0.633226 0.865010 0.330831
O O6 0.000000 0.810805 0.000000
O O7 0.297644 0.847420 0.002553
O O8 0.538988 0.420415 0.355808
O O9 0.000000 0.368744 0.000000
O O10 0.320437 0.093275 0.316700
O O11 0.965024 0.120223 0.672423
O O12 0.786785 0.000000 0.487090
O O13 0.500000 0.500000 0.500000
O O14 0.835764 0.000000 0.120152
#
# Coordination Sequence:
#
# PCOD9154935 Si02
#       6
#     2   4   4   4   2   4
#     4   9  17  33  54  68  90 129 157 185 238 294
#     4   9  14  22  34  53  78 115 146 185 226 270
#     4   8  16  30  44  64  94 117 154 193 231 283
#     4   8  13  20  29  47  76 109 146 182 221 268
#     4   9  17  33  50  72  94 123 153 197 238 282
#     4   8  13  20  30  47  75 111 147 181 220 270
#
# _framework density 21.241522
#
# number of rings (size 3 to 8) (size 9 to 14) (size 15 to 20)
#    0.000    3.600    0.000    3.000    0.000    2.400 
#   14.400    2.000    0.000    0.000    0.000    0.000 
#    0.000    3.200    0.000    6.800    0.000   21.600 
#
# Total GULP energy -111446.169362 kJ/mol
# GULP energy per Si atom -5572.308468 kJ/mol
# Density = 2.119318 g / cm^3
# Si number density = 21.241522 Si / 1000 Ang^3
#
#
#
# Elastic Constant Matrix: (Units=GPa)
#
#
# Indices 1 2 3 4 5 6 
#
# 1 59.4744 7.2018 43.7913 0.0000 -2.8469 0.0000
# 2 7.2018 133.1644 115.5681 0.0000 -32.5966 0.0000
# 3 43.7913 115.5681 163.2792 0.0000 -57.4078 0.0000
# 4 0.0000 0.0000 0.0000 13.6356 0.0000 -18.0833
# 5 -2.8469 -32.5966 -57.4078 0.0000 48.8267 0.0000
# 6 0.0000 0.0000 0.0000 -18.0833 0.0000 24.1497
#
#
#
# Elastic Compliance Matrix: (Units=1/GPa)
#
#
# Indices 1 2 3 4 5 6 
#
# 1 0.036984 0.020569 -0.032204 0.000000 -0.021976 0.000000
# 2 0.020569 0.031802 -0.034332 0.000000 -0.017935 0.000000
# 3 -0.032204 -0.034332 0.051726 0.000000 0.036018 0.000000
# 4 0.000000 0.000000 0.000000 10.546449 0.000000 7.897199
# 5 -0.021976 -0.017935 0.036018 0.000000 0.049574 0.000000
# 6 0.000000 0.000000 0.000000 7.897199 0.000000 5.954845
#
#
# Mechanical properties :
#
#
# Convention : Reuss Voigt Hill
#
# Bulk Modulus (GPa) = 34.99293 76.56006 55.77650
# Shear Modulus (GPa) = 0.29810 29.94619 15.12215
#
# Velocity S-wave (km/s) = 0.37502 3.75880 2.67107
# Velocity P-wave (km/s) = 4.08621 7.41343 5.98565
#
# Compressibility (1/GPa) = 0.02857720
#
# Stress axis : x y z
#
# Youngs Moduli (GPa) = 27.03903 31.44426 19.33277
#
# Poissons Ratio (x) = -0.64679 0.62260
# Poissons Ratio (y) = -0.55618 0.66374
# Poissons Ratio (z) = 0.87078 1.07955
#
# Static dielectric constant tensor:
#      x y z
#    x 1.802900 0.000000 0.020160 
#    y 0.000000 1.763210 0.000000 
#    z 0.020160 0.000000 1.770580 
# 
# From -- ./inp_files/18700.got.cif
#   From: 2010.05.17/outbox.cif.g08.bks.cpg/sg10_10_cif.got.tgz:18700.got - 2010.06.03 11:33:40.
