data_PCOD9154687
_publ_section_title
;
Structure prediction by ZEFSAII (Michael W. Deem and Ramdas Pophale) SiO2 
 PCOD9154687
Probable space group: P 2/M
;
_chemical_formula_sum "Si O2"
_cell_formula_units_Z 24
_cell_length_a 12.337298
_cell_length_b 12.083411
_cell_length_c 8.223835
_cell_angle_alpha 90.000000
_cell_angle_beta 84.547682
_cell_angle_gamma 90.000000
_cell_volume 1220.434899
_symmetry_space_group_name_H-M "P 2/M"
_symmetry_group_IT_number 10
_symmetry_cell_setting 'monoclinic'
loop_
_space_group_symop_operation_xyz
x,y,z
-x,y,-z
-x,-y,-z
x,-y,z
loop_
_atom_site_type_symbol
_atom_site_label
_atom_site_fract_x
_atom_site_fract_y
_atom_site_fract_z
Si Si1 0.238060 0.765784 0.673379
Si Si2 0.957910 0.628176 0.190735
Si Si3 0.162914 0.000000 0.818820
Si Si4 0.848951 0.238508 0.678936
Si Si5 0.339010 0.374276 0.142106
Si Si6 0.904640 0.000000 0.797222
Si Si7 0.426036 0.373783 0.759376
O O1 0.220937 0.889620 0.743416
O O2 0.192654 0.753547 0.498301
O O3 0.359197 0.717154 0.670497
O O4 0.159041 0.685611 0.787323
O O5 0.951238 0.500000 0.239573
O O6 0.041683 0.694196 0.293444
O O7 0.000000 0.635042 0.000000
O O8 0.036022 0.000000 0.784065
O O9 0.149700 0.000000 0.015982
O O10 0.755125 0.288997 0.805934
O O11 0.869416 0.111016 0.713952
O O12 0.298710 0.500000 0.176303
O O13 0.444912 0.356026 0.240215
O O14 0.380256 0.368781 0.950930
O O15 0.407696 0.500000 0.701942
#
# Coordination Sequence:
#
# PCOD9154687 Si02
#       7
#     4   4   2   4   4   2   4
#     4  12  24  37  58  88 121 151 188 242 300 349
#     4  11  23  38  57  82 115 155 197 237 280 343
#     4  11  23  41  64  83 109 156 204 240 284 347
#     4  12  24  37  58  88 121 151 188 242 300 349
#     4   9  19  38  63  88 117 157 201 240 282 341
#     4  11  23  41  64  83 109 156 204 240 284 347
#     4   9  19  38  63  88 117 157 201 240 282 341
#
# _framework density 19.665122
#
# number of rings (size 3 to 8) (size 9 to 14) (size 15 to 20)
#    0.000    1.333    1.667    6.000    0.000    7.333 
#    0.000    2.500    0.000    5.000    0.000    0.000 
#    0.000    0.000    0.000    0.000    0.000    0.000 
#
# Total GULP energy -134225.042828 kJ/mol
# GULP energy per Si atom -5592.710118 kJ/mol
# Density = 1.962036 g / cm^3
# Si number density = 19.665122 Si / 1000 Ang^3
#
#
#
# Elastic Constant Matrix: (Units=GPa)
#
#
# Indices 1 2 3 4 5 6 
#
# 1 48.2021 28.8156 -0.9831 0.0000 17.4980 0.0000
# 2 28.8156 126.5815 17.0444 0.0000 18.5670 0.0000
# 3 -0.9831 17.0444 37.4598 0.0000 17.3519 0.0000
# 4 0.0000 0.0000 0.0000 -9.4101 0.0000 30.9744
# 5 17.4980 18.5670 17.3519 0.0000 30.2781 0.0000
# 6 0.0000 0.0000 0.0000 30.9744 0.0000 15.1353
#
#
#
# Elastic Compliance Matrix: (Units=1/GPa)
#
#
# Indices 1 2 3 4 5 6 
#
# 1 0.033407 -0.006066 0.014780 0.000000 -0.024056 0.000000
# 2 -0.006066 0.009896 -0.004731 0.000000 0.000148 0.000000
# 3 0.014780 -0.004731 0.043358 0.000000 -0.030489 0.000000
# 4 0.000000 0.000000 0.000000 -0.013736 0.000000 0.028112
# 5 -0.024056 0.000148 -0.030489 0.000000 0.064311 0.000000
# 6 0.000000 0.000000 0.000000 0.028112 0.000000 0.008540
#
#
# Mechanical properties :
#
#
# Convention : Reuss Voigt Hill
#
# Bulk Modulus (GPa) = 10.56779 33.55527 22.06153
# Shear Modulus (GPa) = 29.52412 18.35843 23.94127
#
# Velocity S-wave (km/s) = 3.87892 3.05872 3.49298
# Velocity P-wave (km/s) = 5.04449 5.43827 5.24508
#
# Compressibility (1/GPa) = 0.09462717
#
# Stress axis : x y z
#
# Youngs Moduli (GPa) = 29.93412 101.04807 23.06356
#
# Poissons Ratio (x) = 0.61300 -0.34088
# Poissons Ratio (y) = 0.18159 0.10911
# Poissons Ratio (z) = -0.44243 0.47804
#
# Static dielectric constant tensor:
#      x y z
#    x 1.677950 0.000000 0.001540 
#    y 0.000000 1.655660 0.000000 
#    z 0.001540 0.000000 1.715690 
# 
# From -- ./inp_files/24079.got.cif
#   From: 2010.05.17/outbox.cif.g08.bks.cpg/sg10_13_cif.got.tgz:24079.got - 2010.06.03 11:33:40.
