data_PCOD9154486
_publ_section_title
;
Structure prediction by ZEFSAII (Michael W. Deem and Ramdas Pophale) SiO2 
 PCOD9154486
Probable space group: P 2/M
;
_chemical_formula_sum "Si O2"
_cell_formula_units_Z 15
_cell_length_a 16.104957
_cell_length_b 10.002171
_cell_length_c 15.624539
_cell_angle_alpha 90.000000
_cell_angle_beta 18.836309
_cell_angle_gamma 90.000000
_cell_volume 812.611085
_symmetry_space_group_name_H-M "P 2/M"
_symmetry_group_IT_number 10
_symmetry_cell_setting 'monoclinic'
loop_
_space_group_symop_operation_xyz
x,y,z
-x,y,-z
-x,-y,-z
x,-y,z
loop_
_atom_site_type_symbol
_atom_site_label
_atom_site_fract_x
_atom_site_fract_y
_atom_site_fract_z
Si Si1 0.762944 0.662926 0.289339
Si Si2 0.778462 0.657052 0.470513
Si Si3 0.500000 0.500000 0.000000
Si Si4 0.236935 0.000000 0.204270
Si Si5 0.308615 0.281108 0.046363
O O1 0.500000 0.702759 0.500000
O O2 0.770325 0.500000 0.283824
O O3 0.777728 0.706174 0.373466
O O4 0.000000 0.708109 0.000000
O O5 0.706068 0.500000 0.541020
O O6 0.562443 0.725411 0.739631
O O7 0.061406 0.668612 0.234655
O O8 0.625295 0.382693 0.940840
O O9 0.000000 0.000000 0.500000
O O10 0.500000 0.000000 0.000000
O O11 0.235814 0.135333 0.151251
#
# Coordination Sequence:
#
# PCOD9154486 Si02
#       5
#     4   4   1   2   4
#     4   9  17  30  52  82 120 153 181 229 299 356
#     4  11  21  37  58  91 121 151 197 248 293 349
#     4  12  24  40  64  86 120 152 204 238 312 336
#     4  12  26  44  60  82 116 160 210 240 288 350
#     4  12  25  39  61  86 119 160 197 245 293 347
#
# _framework density 18.459015000000001
#
# number of rings (size 3 to 8) (size 9 to 14) (size 15 to 20)
#    0.000    1.067    4.000    3.200    0.000    5.333 
#    0.000    0.000    0.000    0.000    0.000   18.667 
#    0.000    0.000    0.000    0.000    0.000    0.000 
#
# Total GULP energy -83518.387748 kJ/mol
# GULP energy per Si atom -5567.892517 kJ/mol
# Density = 1.841700 g / cm^3
# Si number density = 18.459015 Si / 1000 Ang^3
#
#
#
# Elastic Constant Matrix: (Units=GPa)
#
#
# Indices 1 2 3 4 5 6 
#
# 1 172.0301 42.9564 80.7264 0.0000 -9.9397 0.0000
# 2 42.9564 83.8900 11.9168 0.0000 14.9235 0.0000
# 3 80.7264 11.9168 147.3617 0.0000 -6.6202 0.0000
# 4 0.0000 0.0000 0.0000 22.2909 0.0000 1.6093
# 5 -9.9397 14.9235 -6.6202 0.0000 25.3968 0.0000
# 6 0.0000 0.0000 0.0000 1.6093 0.0000 3.9837
#
#
#
# Elastic Compliance Matrix: (Units=1/GPa)
#
#
# Indices 1 2 3 4 5 6 
#
# 1 0.009608 -0.005277 -0.004582 0.000000 0.005667 0.000000
# 2 -0.005277 0.016521 0.001038 0.000000 -0.011503 0.000000
# 3 -0.004582 0.001038 0.009212 0.000000 -0.000002 0.000000
# 4 0.000000 0.000000 0.000000 0.046209 0.000000 -0.018667
# 5 0.005667 -0.011503 -0.000002 0.000000 0.048352 0.000000
# 6 0.000000 0.000000 0.000000 -0.018667 0.000000 0.258561
#
#
# Mechanical properties :
#
#
# Convention : Reuss Voigt Hill
#
# Bulk Modulus (GPa) = 56.49938 74.94232 65.72085
# Shear Modulus (GPa) = 12.13575 28.17977 20.15776
#
# Velocity S-wave (km/s) = 2.56685 3.91143 3.30817
# Velocity P-wave (km/s) = 6.28167 7.81578 7.09034
#
# Compressibility (1/GPa) = 0.01769931
#
# Stress axis : x y z
#
# Youngs Moduli (GPa) = 104.07620 60.52728 108.55207
#
# Poissons Ratio (x) = 0.31942 0.49741
# Poissons Ratio (y) = 0.54923 -0.11269
# Poissons Ratio (z) = 0.47690 -0.06283
#
# Static dielectric constant tensor:
#      x y z
#    x 1.633700 0.000000 0.018320 
#    y 0.000000 1.655290 0.000000 
#    z 0.018320 0.000000 1.620700 
# 
# From -- ./inp_files/8502.got.cif
#   From: 2010.05.17/outbox.cif.g08.bks.cpg/sg10_5_cif.got.tgz:8502.got - 2010.06.03 11:33:40.
