data_PCOD9154677
_publ_section_title
;
Structure prediction by ZEFSAII (Michael W. Deem and Ramdas Pophale) SiO2 
 PCOD9154677
Probable space group: P 2/M
;
_chemical_formula_sum "Si O2"
_cell_formula_units_Z 24
_cell_length_a 10.437764
_cell_length_b 12.866438
_cell_length_c 9.956751
_cell_angle_alpha 90.000000
_cell_angle_beta 96.780436
_cell_angle_gamma 90.000000
_cell_volume 1327.807970
_symmetry_space_group_name_H-M "P 2/M"
_symmetry_group_IT_number 10
_symmetry_cell_setting 'monoclinic'
loop_
_space_group_symop_operation_xyz
x,y,z
-x,y,-z
-x,-y,-z
x,-y,z
loop_
_atom_site_type_symbol
_atom_site_label
_atom_site_fract_x
_atom_site_fract_y
_atom_site_fract_z
Si Si1 0.874640 0.196593 0.078913
Si Si2 0.923606 0.000000 0.276814
Si Si3 0.096213 0.378256 0.714228
Si Si4 0.797845 0.000000 0.552430
Si Si5 0.385810 0.875549 0.091134
Si Si6 0.378673 0.194385 0.387107
Si Si7 0.806836 0.378356 0.573142
O O1 0.861675 0.300969 0.164388
O O2 0.894698 0.101145 0.184480
O O3 0.747684 0.173283 0.976700
O O4 0.000000 0.203033 0.000000
O O5 0.839132 0.000000 0.401819
O O6 0.072001 0.000000 0.343100
O O7 0.112593 0.500000 0.749648
O O8 0.169461 0.358260 0.582579
O O9 0.944717 0.360727 0.662241
O O10 0.715437 0.898341 0.576757
O O11 0.419840 0.831575 0.241018
O O12 0.368238 0.000000 0.099219
O O13 0.500000 0.855535 0.000000
O O14 0.500000 0.198638 0.500000
O O15 0.299147 0.300935 0.384370
O O16 0.774418 0.500000 0.584820
#
# Coordination Sequence:
#
# PCOD9154677 Si02
#       7
#     4   2   4   2   4   4   4
#     4  12  23  37  63  88 124 165 205 246 311 372
#     4  11  23  36  62  89 122 157 194 260 316 359
#     4   9  19  37  65  93 120 155 200 259 312 360
#     4  11  23  38  58  94 122 146 208 266 301 350
#     4  11  26  43  60  86 130 170 205 247 306 376
#     4  12  25  39  64  88 121 165 211 252 296 364
#     4   9  19  39  64  92 122 154 202 259 310 356
#
# _framework density 18.074902999999999
#
# number of rings (size 3 to 8) (size 9 to 14) (size 15 to 20)
#    0.000    1.333    1.667    5.500    4.667    3.333 
#    0.000    0.833    0.000    1.000    0.000    0.000 
#    0.000    0.000    0.000    0.000    0.000    0.000 
#
# Total GULP energy -134204.656186 kJ/mol
# GULP energy per Si atom -5591.860674 kJ/mol
# Density = 1.803376 g / cm^3
# Si number density = 18.074903 Si / 1000 Ang^3
#
#
#
# Elastic Constant Matrix: (Units=GPa)
#
#
# Indices 1 2 3 4 5 6 
#
# 1 71.4292 40.8511 37.8954 0.0000 -7.7363 0.0000
# 2 40.8511 77.7139 59.3205 0.0000 -5.1569 0.0000
# 3 37.8954 59.3205 103.2783 0.0000 0.2124 0.0000
# 4 0.0000 0.0000 0.0000 21.7726 0.0000 -19.3652
# 5 -7.7363 -5.1569 0.2124 0.0000 21.4959 0.0000
# 6 0.0000 0.0000 0.0000 -19.3652 0.0000 19.3087
#
#
#
# Elastic Compliance Matrix: (Units=1/GPa)
#
#
# Indices 1 2 3 4 5 6 
#
# 1 0.020953 -0.008494 -0.002821 0.000000 0.005531 0.000000
# 2 -0.008494 0.027059 -0.012432 0.000000 0.003557 0.000000
# 3 -0.002821 -0.012432 0.017867 0.000000 -0.004174 0.000000
# 4 0.000000 0.000000 0.000000 0.425393 0.000000 0.426639
# 5 0.005531 0.003557 -0.004174 0.000000 0.049406 0.000000
# 6 0.000000 0.000000 0.000000 0.426639 0.000000 0.479678
#
#
# Mechanical properties :
#
#
# Convention : Reuss Voigt Hill
#
# Bulk Modulus (GPa) = 54.39425 58.72838 56.56132
# Shear Modulus (GPa) = 4.65558 20.13907 12.39733
#
# Velocity S-wave (km/s) = 1.60665 3.34159 2.62178
# Velocity P-wave (km/s) = 5.79663 6.88843 6.36598
#
# Compressibility (1/GPa) = 0.01838430
#
# Stress axis : x y z
#
# Youngs Moduli (GPa) = 47.72501 36.95679 55.96875
#
# Poissons Ratio (x) = 0.31391 0.15788
# Poissons Ratio (y) = 0.40538 0.69583
# Poissons Ratio (z) = 0.13463 0.45946
#
# Static dielectric constant tensor:
#      x y z
#    x 1.599840 0.000000 -0.003140 
#    y 0.000000 1.596420 0.000000 
#    z -0.003140 0.000000 1.607500 
# 
# From -- ./inp_files/24102.got.cif
#   From: 2010.05.17/outbox.cif.g08.bks.cpg/sg10_13_cif.got.tgz:24102.got - 2010.06.03 11:33:40.
