data_PCOD9154190
_publ_section_title
;
Structure prediction by ZEFSAII (Michael W. Deem and Ramdas Pophale) SiO2 
 PCOD9154190
Probable space group: P 2/M
;
_chemical_formula_sum "Si O2"
_cell_formula_units_Z 13
_cell_length_a 7.326789
_cell_length_b 14.270521
_cell_length_c 9.604601
_cell_angle_alpha 90.000000
_cell_angle_beta 41.677641
_cell_angle_gamma 90.000000
_cell_volume 667.751091
_symmetry_space_group_name_H-M "P 2/M"
_symmetry_group_IT_number 10
_symmetry_cell_setting 'monoclinic'
loop_
_space_group_symop_operation_xyz
x,y,z
-x,y,-z
-x,-y,-z
x,-y,z
loop_
_atom_site_type_symbol
_atom_site_label
_atom_site_fract_x
_atom_site_fract_y
_atom_site_fract_z
Si Si1 0.000000 0.000000 0.500000
Si Si2 0.000000 0.670840 0.500000
Si Si3 0.000000 0.761464 0.000000
Si Si4 0.554273 0.602850 0.304309
Si Si5 0.169608 0.167679 0.194831
O O1 0.055745 0.082026 0.349692
O O2 0.735589 0.612731 0.607116
O O3 0.915602 0.737695 0.676218
O O4 0.955611 0.823811 0.888251
O O5 0.257659 0.690865 0.842055
O O6 0.500000 0.607202 0.500000
O O7 0.673722 0.500000 0.203486
O O8 0.500000 0.160568 0.000000
#
# Coordination Sequence:
#
# PCOD9154190 Si02
#       5
#     1   2   2   4   4
#     4  10  26  46  68  96 122 166 206 272 326 398
#     4  11  21  41  65  92 130 182 209 261 319 367
#     4  12  23  41  68  96 128 178 208 263 321 374
#     4  11  23  39  61  98 137 172 221 262 304 367
#     4  11  23  43  68  93 130 160 215 265 326 387
#
# _framework density 19.468332
#
# number of rings (size 3 to 8) (size 9 to 14) (size 15 to 20)
#    0.000    0.923    6.154    1.385    0.000    0.615 
#    0.000    3.077    0.000    0.000    0.000    0.000 
#    0.000    0.000    0.000    0.000    0.000    0.000 
#
# Total GULP energy -72372.991744 kJ/mol
# GULP energy per Si atom -5567.153211 kJ/mol
# Density = 1.942402 g / cm^3
# Si number density = 19.468332 Si / 1000 Ang^3
#
#
#
# Elastic Constant Matrix: (Units=GPa)
#
#
# Indices 1 2 3 4 5 6 
#
# 1 148.3386 47.5292 66.0296 0.0000 13.0426 0.0000
# 2 47.5292 120.2959 54.9476 0.0000 13.7357 0.0000
# 3 66.0296 54.9476 86.7068 0.0000 16.7519 0.0000
# 4 0.0000 0.0000 0.0000 -1.6427 0.0000 5.3681
# 5 13.0426 13.7357 16.7519 0.0000 41.5328 0.0000
# 6 0.0000 0.0000 0.0000 5.3681 0.0000 5.6014
#
#
#
# Elastic Compliance Matrix: (Units=1/GPa)
#
#
# Indices 1 2 3 4 5 6 
#
# 1 0.010238 -0.000680 -0.007361 0.000000 -0.000021 0.000000
# 2 -0.000680 0.011779 -0.006762 0.000000 -0.000955 0.000000
# 3 -0.007361 -0.006762 0.022282 0.000000 -0.004439 0.000000
# 4 0.000000 0.000000 0.000000 -0.147336 0.000000 0.141199
# 5 -0.000021 -0.000955 -0.004439 0.000000 0.026190 0.000000
# 6 0.000000 0.000000 0.000000 0.141199 0.000000 0.043209
#
#
# Mechanical properties :
#
#
# Convention : Reuss Voigt Hill
#
# Bulk Modulus (GPa) = 68.06656 76.92823 72.49740
# Shear Modulus (GPa) = 5764.45545 21.55395 2893.00470
#
# Velocity S-wave (km/s) = 54.47355 3.33096 38.59056
# Velocity P-wave (km/s) = 63.17855 7.37523 44.97734
#
# Compressibility (1/GPa) = 0.01469150
#
# Stress axis : x y z
#
# Youngs Moduli (GPa) = 97.67684 84.89358 44.87906
#
# Poissons Ratio (x) = 0.05774 0.33037
# Poissons Ratio (y) = 0.06644 0.30349
# Poissons Ratio (z) = 0.71903 0.57409
#
# Static dielectric constant tensor:
#      x y z
#    x 1.690230 0.000000 -0.005740 
#    y 0.000000 1.634090 0.000000 
#    z -0.005740 0.000000 1.680780 
# 
# From -- ./inp_files/3150.got.cif
#   From: 2010.05.17/outbox.cif.g08.bks.cpg/sg10_2_cif.got.tgz:3150.got - 2010.06.03 11:33:40.
