data_PCOD9154526
_publ_section_title
;
Structure prediction by ZEFSAII (Michael W. Deem and Ramdas Pophale) SiO2 
 PCOD9154526
Probable space group: P 2/M
;
_chemical_formula_sum "Si O2"
_cell_formula_units_Z 32
_cell_length_a 13.260982
_cell_length_b 17.709221
_cell_length_c 11.464413
_cell_angle_alpha 90.000000
_cell_angle_beta 146.398557
_cell_angle_gamma 90.000000
_cell_volume 1489.964604
_symmetry_space_group_name_H-M "P 2/M"
_symmetry_group_IT_number 10
_symmetry_cell_setting 'monoclinic'
loop_
_space_group_symop_operation_xyz
x,y,z
-x,y,-z
-x,-y,-z
x,-y,z
loop_
_atom_site_type_symbol
_atom_site_label
_atom_site_fract_x
_atom_site_fract_y
_atom_site_fract_z
Si Si1 0.886122 0.695810 0.636476
Si Si2 0.411455 0.162232 0.293292
Si Si3 0.497741 0.334033 0.369871
Si Si4 0.715169 0.855747 0.184473
Si Si5 0.716488 0.320501 0.215850
Si Si6 0.796288 0.589116 0.070263
Si Si7 0.936111 0.136604 0.169506
Si Si8 0.707548 0.084701 0.423242
O O1 0.703103 0.687641 0.534359
O O2 0.811110 0.679704 0.432954
O O3 0.032453 0.633890 0.817463
O O4 0.981602 0.777897 0.737322
O O5 0.500000 0.137425 0.500000
O O6 0.398531 0.252898 0.280697
O O7 0.549311 0.137140 0.322877
O O8 0.210836 0.132806 0.074434
O O9 0.500000 0.369971 0.500000
O O10 0.388927 0.383363 0.171253
O O11 0.738381 0.765751 0.194183
O O12 0.817427 0.886811 0.170016
O O13 0.787889 0.884475 0.378266
O O14 0.500000 0.871589 0.000000
O O15 0.795861 0.380414 0.202422
O O16 0.500000 0.333839 0.000000
O O17 0.814257 0.500000 0.081191
O O18 0.115788 0.087665 0.325165
O O19 0.638230 0.000000 0.341789
#
# Coordination Sequence:
#
# PCOD9154526 Si02
#       8
#     4   4   4   4   4   4   4   4
#     4  12  23  42  72 102 136 180 228 282 341 412
#     4  11  24  47  74  99 132 186 243 286 335 406
#     4  11  24  47  74  99 132 186 243 286 335 406
#     4  11  21  39  70  98 137 182 221 273 345 418
#     4  11  21  39  70  98 137 182 221 273 345 418
#     4  12  27  44  67 106 145 181 227 286 351 410
#     4  12  23  42  72 102 136 180 228 282 341 412
#     4  12  27  44  67 106 145 181 227 286 351 410
#
# _framework density 21.47702
#
# number of rings (size 3 to 8) (size 9 to 14) (size 15 to 20)
#    0.000    0.500    7.500    0.750    0.000    5.000 
#    0.000    1.250    0.000    0.000    0.000    0.000 
#    0.000    0.000    0.000    0.000    0.000    0.000 
#
# Total GULP energy -178788.376980 kJ/mol
# GULP energy per Si atom -5587.136781 kJ/mol
# Density = 2.142814 g / cm^3
# Si number density = 21.477020 Si / 1000 Ang^3
#
#
#
# Elastic Constant Matrix: (Units=GPa)
#
#
# Indices 1 2 3 4 5 6 
#
# 1 44.1412 -13.0695 25.8418 0.0000 -6.1464 0.0000
# 2 -13.0695 58.2126 20.4654 0.0000 -3.5583 0.0000
# 3 25.8418 20.4654 117.3797 0.0000 3.7479 0.0000
# 4 0.0000 0.0000 0.0000 19.3990 0.0000 10.1440
# 5 -6.1464 -3.5583 3.7479 0.0000 33.7556 0.0000
# 6 0.0000 0.0000 0.0000 10.1440 0.0000 26.7053
#
#
#
# Elastic Compliance Matrix: (Units=1/GPa)
#
#
# Indices 1 2 3 4 5 6 
#
# 1 0.032554 0.011097 -0.009362 0.000000 0.008137 0.000000
# 2 0.011097 0.022261 -0.006487 0.000000 0.005088 0.000000
# 3 -0.009362 -0.006487 0.011830 0.000000 -0.003702 0.000000
# 4 0.000000 0.000000 0.000000 0.064326 0.000000 -0.024434
# 5 0.008137 0.005088 -0.003702 0.000000 0.032054 0.000000
# 6 0.000000 0.000000 0.000000 -0.024434 0.000000 0.046727
#
#
# Mechanical properties :
#
#
# Convention : Reuss Voigt Hill
#
# Bulk Modulus (GPa) = 17.50007 31.80098 24.65052
# Shear Modulus (GPa) = 20.98184 28.40504 24.69344
#
# Velocity S-wave (km/s) = 3.12900 3.64067 3.39449
# Velocity P-wave (km/s) = 4.60653 5.70191 5.18324
#
# Compressibility (1/GPa) = 0.05714264
#
# Stress axis : x y z
#
# Youngs Moduli (GPa) = 30.71825 44.92073 84.53397
#
# Poissons Ratio (x) = -0.49850 0.79137
# Poissons Ratio (y) = -0.34089 0.54836
# Poissons Ratio (z) = 0.28757 0.29140
#
# Static dielectric constant tensor:
#      x y z
#    x 1.822750 0.000000 -0.029520 
#    y 0.000000 1.738550 0.000000 
#    z -0.029520 0.000000 1.857040 
# 
# From -- ./inp_files/51979.got.cif
#   From: 2010.05.17/outbox.cif.g08.bks.cpg/sg10_26_cif.got.tgz:51979.got - 2010.06.03 11:33:40.
