data_PCOD9154047
_publ_section_title
;
Structure prediction by ZEFSAII (Michael W. Deem and Ramdas Pophale) SiO2 
 PCOD9154047
Probable space group: P 2/M
;
_chemical_formula_sum "Si O2"
_cell_formula_units_Z 32
_cell_length_a 30.763347
_cell_length_b 8.500227
_cell_length_c 13.104709
_cell_angle_alpha 90.000000
_cell_angle_beta 27.836932
_cell_angle_gamma 90.000000
_cell_volume 1600.177389
_symmetry_space_group_name_H-M "P 2/M"
_symmetry_group_IT_number 10
_symmetry_cell_setting 'monoclinic'
loop_
_space_group_symop_operation_xyz
x,y,z
-x,y,-z
-x,-y,-z
x,-y,z
loop_
_atom_site_type_symbol
_atom_site_label
_atom_site_fract_x
_atom_site_fract_y
_atom_site_fract_z
Si Si1 0.907153 0.686166 0.442430
Si Si2 0.726362 0.687570 0.137205
Si Si3 0.104321 0.186104 0.755985
Si Si4 0.292567 0.684201 0.439510
Si Si5 0.060580 0.308503 0.276584
Si Si6 0.269993 0.813337 0.087298
Si Si7 0.607637 0.810559 0.969281
Si Si8 0.392190 0.186409 0.430351
O O1 0.910443 0.500000 0.413787
O O2 0.883075 0.777916 0.389759
O O3 0.004202 0.737716 0.292127
O O4 0.825508 0.720592 0.692563
O O5 0.728590 0.500000 0.118743
O O6 0.694750 0.766512 0.097339
O O7 0.660694 0.730527 0.367349
O O8 0.832593 0.742429 0.939533
O O9 0.184096 0.273433 0.652898
O O10 0.112926 0.000000 0.756298
O O11 0.000000 0.237515 0.000000
O O12 0.303842 0.500000 0.434789
O O13 0.340026 0.776531 0.433291
O O14 0.341009 0.731499 0.232501
O O15 0.060045 0.500000 0.279212
O O16 0.000000 0.255866 0.500000
O O17 0.340610 0.773358 0.032171
O O18 0.251984 0.000000 0.128864
O O19 0.499780 0.763480 0.197869
O O20 0.612540 0.000000 0.944591
O O21 0.391257 0.000000 0.451168
#
# Coordination Sequence:
#
# PCOD9154047 Si02
#       8
#     4   4   4   4   4   4   4   4
#     4  11  21  37  62  91 122 163 210 259 312 372
#     4  11  23  41  63  92 129 169 212 265 320 374
#     4  11  25  43  62  91 130 169 209 256 310 373
#     4  12  25  42  68  98 128 164 210 264 319 380
#     4   9  18  35  58  85 120 160 199 242 303 368
#     4  11  22  39  64  93 126 167 214 264 316 377
#     4  10  23  44  69  92 123 167 213 263 322 385
#     4  11  25  45  66  91 126 169 212 262 326 386
#
# _framework density 19.997781
#
# number of rings (size 3 to 8) (size 9 to 14) (size 15 to 20)
#    0.000    1.250    2.500    3.375    1.750    4.500 
#    0.000    5.000    0.000    0.000    0.000    0.000 
#    0.000    0.000    0.000    0.000    0.000    0.000 
#
# Total GULP energy -178965.277015 kJ/mol
# GULP energy per Si atom -5592.664907 kJ/mol
# Density = 1.995227 g / cm^3
# Si number density = 19.997781 Si / 1000 Ang^3
#
#
#
# Elastic Constant Matrix: (Units=GPa)
#
#
# Indices 1 2 3 4 5 6 
#
# 1 75.5924 -4.5548 18.1474 0.0000 3.8300 0.0000
# 2 -4.5548 20.7844 6.6274 0.0000 -3.6728 0.0000
# 3 18.1474 6.6274 87.8424 0.0000 -11.1241 0.0000
# 4 0.0000 0.0000 0.0000 30.3491 0.0000 16.2589
# 5 3.8300 -3.6728 -11.1241 0.0000 21.5152 0.0000
# 6 0.0000 0.0000 0.0000 16.2589 0.0000 97.9588
#
#
#
# Elastic Compliance Matrix: (Units=1/GPa)
#
#
# Indices 1 2 3 4 5 6 
#
# 1 0.014559 0.003705 -0.003783 0.000000 -0.003915 0.000000
# 2 0.003705 0.051232 -0.003859 0.000000 0.006091 0.000000
# 3 -0.003783 -0.003859 0.013331 0.000000 0.006907 0.000000
# 4 0.000000 0.000000 0.000000 0.036166 0.000000 -0.006003
# 5 -0.003915 0.006091 0.006907 0.000000 0.051787 0.000000
# 6 0.000000 0.000000 0.000000 -0.006003 0.000000 0.011205
#
#
# Mechanical properties :
#
#
# Convention : Reuss Voigt Hill
#
# Bulk Modulus (GPa) = 14.03568 24.96215 19.49892
# Shear Modulus (GPa) = 23.82051 40.89789 32.35920
#
# Velocity S-wave (km/s) = 3.45506 4.52721 4.02697
# Velocity P-wave (km/s) = 4.79066 6.31166 5.60301
#
# Compressibility (1/GPa) = 0.07124697
#
# Stress axis : x y z
#
# Youngs Moduli (GPa) = 68.68784 19.51912 75.01055
#
# Poissons Ratio (x) = -0.07232 0.28376
# Poissons Ratio (y) = -0.25448 0.28949
# Poissons Ratio (z) = 0.25985 0.07533
#
# Static dielectric constant tensor:
#      x y z
#    x 1.690590 0.000000 -0.005740 
#    y 0.000000 1.672710 0.000000 
#    z -0.005740 0.000000 1.702540 
# 
# From -- ./inp_files/58085.got.cif
#   From: 2010.05.17/outbox.cif.g08.bks.cpg/sg10_30_cif.got.tgz:58085.got - 2010.06.03 11:33:40.
