data_PCOD9154613
_publ_section_title
;
Structure prediction by ZEFSAII (Michael W. Deem and Ramdas Pophale) SiO2 
 PCOD9154613
Probable space group: P 2/M
;
_chemical_formula_sum "Si O2"
_cell_formula_units_Z 24
_cell_length_a 13.175088
_cell_length_b 14.111609
_cell_length_c 11.033546
_cell_angle_alpha 90.000000
_cell_angle_beta 145.625489
_cell_angle_gamma 90.000000
_cell_volume 1158.206378
_symmetry_space_group_name_H-M "P 2/M"
_symmetry_group_IT_number 10
_symmetry_cell_setting 'monoclinic'
loop_
_space_group_symop_operation_xyz
x,y,z
-x,y,-z
-x,-y,-z
x,-y,z
loop_
_atom_site_type_symbol
_atom_site_label
_atom_site_fract_x
_atom_site_fract_y
_atom_site_fract_z
Si Si1 0.292249 0.609036 0.253172
Si Si2 0.597059 0.293422 0.881498
Si Si3 0.798024 0.294391 0.591577
Si Si4 0.840287 0.891526 0.511688
Si Si5 0.906746 0.393145 0.279078
Si Si6 0.735695 0.109521 0.137131
O O1 0.500000 0.602638 0.500000
O O2 0.229791 0.500000 0.173935
O O3 0.301758 0.672938 0.142157
O O4 0.194955 0.662115 0.267798
O O5 0.391654 0.321936 0.658117
O O6 0.627284 0.184399 0.949299
O O7 0.707847 0.350772 0.090998
O O8 0.799057 0.181101 0.578085
O O9 0.963410 0.332579 0.677730
O O10 0.741885 0.866101 0.287084
O O11 0.054336 0.886734 0.695196
O O12 0.795533 0.000000 0.495575
O O13 0.897327 0.500000 0.223949
O O14 0.000000 0.392324 0.500000
O O15 0.675831 0.000000 0.065899
#
# Coordination Sequence:
#
# PCOD9154613 Si02
#       6
#     4   4   4   4   4   4
#     4   9  20  39  60  83 113 154 204 247 285 341
#     4  11  22  38  61  86 116 154 196 244 293 342
#     4  11  22  38  61  86 116 154 196 244 293 342
#     4   9  18  35  59  86 119 156 192 235 289 351
#     4  11  24  39  56  84 119 151 191 242 296 358
#     4   9  18  35  59  86 119 156 192 235 289 351
#
# _framework density 20.721696000000001
#
# number of rings (size 3 to 8) (size 9 to 14) (size 15 to 20)
#    0.000    2.000    1.667    3.000    0.000    6.000 
#    0.000    5.833    0.000    5.000    0.000    0.000 
#    0.000    0.000    0.000    0.000    0.000    0.000 
#
# Total GULP energy -134027.818190 kJ/mol
# GULP energy per Si atom -5584.492425 kJ/mol
# Density = 2.067453 g / cm^3
# Si number density = 20.721696 Si / 1000 Ang^3
#
#
#
# Elastic Constant Matrix: (Units=GPa)
#
#
# Indices 1 2 3 4 5 6 
#
# 1 51.9256 37.0625 9.5234 0.0000 -2.6266 0.0000
# 2 37.0625 126.7234 29.4445 0.0000 -13.8196 0.0000
# 3 9.5234 29.4445 102.9716 0.0000 6.2187 0.0000
# 4 0.0000 0.0000 0.0000 -253.2254 0.0000 85.0498
# 5 -2.6266 -13.8196 6.2187 0.0000 24.0676 0.0000
# 6 0.0000 0.0000 0.0000 85.0498 0.0000 -1.3419
#
#
#
# Elastic Compliance Matrix: (Units=1/GPa)
#
#
# Indices 1 2 3 4 5 6 
#
# 1 0.024393 -0.007277 -0.000085 0.000000 -0.001495 0.000000
# 2 -0.007277 0.011427 -0.002990 0.000000 0.006540 0.000000
# 3 -0.000085 -0.002990 0.010848 0.000000 -0.004529 0.000000
# 4 0.000000 0.000000 0.000000 0.000195 0.000000 0.012337
# 5 -0.001495 0.006540 -0.004529 0.000000 0.046312 0.000000
# 6 0.000000 0.000000 0.000000 0.012337 0.000000 0.036733
#
#
# Mechanical properties :
#
#
# Convention : Reuss Voigt Hill
#
# Bulk Modulus (GPa) = 38.51444 48.18682 43.35063
# Shear Modulus (GPa) = 31.39417 -32.39393 -0.49988
#
# Velocity S-wave (km/s) = 3.89657 -3.95813 -0.49169
# Velocity P-wave (km/s) = 6.23468 1.55426 4.54351
#
# Compressibility (1/GPa) = 0.02596429
#
# Stress axis : x y z
#
# Youngs Moduli (GPa) = 40.99609 87.50887 92.18628
#
# Poissons Ratio (x) = 0.63683 0.00781
# Poissons Ratio (y) = 0.29834 0.27560
# Poissons Ratio (z) = 0.00347 0.26161
#
# Static dielectric constant tensor:
#      x y z
#    x 1.733830 0.000000 0.014200 
#    y 0.000000 1.761390 0.000000 
#    z 0.014200 0.000000 1.799720 
# 
# From -- ./inp_files/51499.got.cif
#   From: 2010.05.17/outbox.cif.g08.bks.cpg/sg10_26_cif.got.tgz:51499.got - 2010.06.03 11:33:40.
