data_PCOD9154712
_publ_section_title
;
Structure prediction by ZEFSAII (Michael W. Deem and Ramdas Pophale) SiO2 
 PCOD9154712
Probable space group: P 2/M
;
_chemical_formula_sum "Si O2"
_cell_formula_units_Z 17
_cell_length_a 5.421555
_cell_length_b 23.323490
_cell_length_c 5.490283
_cell_angle_alpha 90.000000
_cell_angle_beta 93.038518
_cell_angle_gamma 90.000000
_cell_volume 693.267980
_symmetry_space_group_name_H-M "P 2/M"
_symmetry_group_IT_number 10
_symmetry_cell_setting 'monoclinic'
loop_
_space_group_symop_operation_xyz
x,y,z
-x,y,-z
-x,-y,-z
x,-y,z
loop_
_atom_site_type_symbol
_atom_site_label
_atom_site_fract_x
_atom_site_fract_y
_atom_site_fract_z
Si Si1 0.839320 0.061771 0.239927
Si Si2 0.758363 0.692029 0.137420
Si Si3 0.737289 0.185221 0.347711
Si Si4 0.254632 0.580123 0.632636
Si Si5 0.500000 0.500000 0.000000
O O1 0.695698 0.121768 0.236519
O O2 0.000000 0.061515 0.500000
O O3 0.702916 0.000000 0.234158
O O4 0.000000 0.062945 0.000000
O O5 0.764834 0.760073 0.178208
O O6 0.754778 0.649232 0.363954
O O7 0.500000 0.679574 0.000000
O O8 0.000000 0.675743 0.000000
O O9 0.500000 0.197637 0.500000
O O10 0.000000 0.182758 0.500000
O O11 0.500000 0.561910 0.500000
O O12 0.305495 0.550399 0.893352
O O13 0.000000 0.561201 0.500000
#
# Coordination Sequence:
#
# PCOD9154712 Si02
#       5
#     4   4   4   4   1
#     4   9  19  38  64  97 140 188 241 300 366 440
#     4  12  24  44  71 102 142 184 235 295 359 431
#     4  11  23  41  66 100 139 183 237 294 361 431
#     4  12  27  48  74 106 145 189 236 296 364 431
#     4  12  28  50  76 108 146 184 248 286 358 442
#
# _framework density 24.521540000000002
#
# number of rings (size 3 to 8) (size 9 to 14) (size 15 to 20)
#    0.000    0.941    1.176    5.647    0.000    3.294 
#    0.000    0.000    0.000   13.412    0.000    0.000 
#    0.000    0.000    0.000    0.000    0.000    0.000 
#
# Total GULP energy -94752.760374 kJ/mol
# GULP energy per Si atom -5573.691787 kJ/mol
# Density = 2.446573 g / cm^3
# Si number density = 24.521540 Si / 1000 Ang^3
#
#
#
# Elastic Constant Matrix: (Units=GPa)
#
#
# Indices 1 2 3 4 5 6 
#
# 1 199.3519 19.0583 54.1146 0.0000 16.5997 0.0000
# 2 19.0583 171.2652 5.9766 0.0000 8.4290 0.0000
# 3 54.1146 5.9766 74.6685 0.0000 11.9697 0.0000
# 4 0.0000 0.0000 0.0000 68.8379 0.0000 -45.0546
# 5 16.5997 8.4290 11.9697 0.0000 61.6771 0.0000
# 6 0.0000 0.0000 0.0000 -45.0546 0.0000 51.1562
#
#
#
# Elastic Compliance Matrix: (Units=1/GPa)
#
#
# Indices 1 2 3 4 5 6 
#
# 1 0.006330 -0.000512 -0.004422 0.000000 -0.000775 0.000000
# 2 -0.000512 0.005929 0.000004 0.000000 -0.000673 0.000000
# 3 -0.004422 0.000004 0.016933 0.000000 -0.002097 0.000000
# 4 0.000000 0.000000 0.000000 0.034297 0.000000 0.030206
# 5 -0.000775 -0.000673 -0.002097 0.000000 0.016921 0.000000
# 6 0.000000 0.000000 0.000000 0.030206 0.000000 0.046152
#
#
# Mechanical properties :
#
#
# Convention : Reuss Voigt Hill
#
# Bulk Modulus (GPa) = 51.72632 67.06494 59.39563
# Shear Modulus (GPa) = 34.99778 60.74331 47.87054
#
# Velocity S-wave (km/s) = 3.78196 4.98249 4.42315
# Velocity P-wave (km/s) = 6.34122 7.77875 7.09648
#
# Compressibility (1/GPa) = 0.01933252
#
# Stress axis : x y z
#
# Youngs Moduli (GPa) = 157.97147 168.66672 59.05499
#
# Poissons Ratio (x) = 0.08635 0.26117
# Poissons Ratio (y) = 0.08087 -0.00026
# Poissons Ratio (z) = 0.69862 -0.00074
#
# Static dielectric constant tensor:
#      x y z
#    x 1.848590 0.000000 -0.045470 
#    y 0.000000 1.997410 0.000000 
#    z -0.045470 0.000000 2.074650 
# 
# From -- ./inp_files/1703.got.cif
#   From: 2010.05.17/outbox.cif.g08.bks.cpg/sg10_1_cif.got.tgz:1703.got - 2010.06.03 11:33:40.
