data_PCOD9154265
_publ_section_title
;
Structure prediction by ZEFSAII (Michael W. Deem and Ramdas Pophale) SiO2 
 PCOD9154265
Probable space group: P 2/M
;
_chemical_formula_sum "Si O2"
_cell_formula_units_Z 28
_cell_length_a 19.900957
_cell_length_b 8.489020
_cell_length_c 14.785664
_cell_angle_alpha 90.000000
_cell_angle_beta 137.984359
_cell_angle_gamma 90.000000
_cell_volume 1671.917642
_symmetry_space_group_name_H-M "P 2/M"
_symmetry_group_IT_number 10
_symmetry_cell_setting 'monoclinic'
loop_
_space_group_symop_operation_xyz
x,y,z
-x,y,-z
-x,-y,-z
x,-y,z
loop_
_atom_site_type_symbol
_atom_site_label
_atom_site_fract_x
_atom_site_fract_y
_atom_site_fract_z
Si Si1 0.000000 0.811088 0.895278
Si Si2 0.882645 0.810025 0.484404
Si Si3 0.612814 0.691939 0.717270
Si Si4 0.117355 0.189976 0.719113
Si Si5 0.387186 0.691939 0.491642
Si Si6 0.806580 0.688556 0.593512
Si Si7 0.193420 0.688556 0.980351
O O1 0.098810 0.752030 0.942411
O O2 0.901190 0.752030 0.744791
O O3 0.000000 0.000000 0.893250
O O4 0.000000 0.758394 0.000000
O O5 0.852815 0.761880 0.352815
O O6 0.819631 0.740416 0.503110
O O7 1.000000 0.765435 0.614399
O O8 0.878485 0.000000 0.484423
O O9 0.612756 0.500000 0.718816
O O10 0.500000 0.742928 0.629991
O O11 0.631078 0.738099 0.631079
O O12 0.702870 0.745992 0.871057
O O13 0.180369 0.259584 0.863848
O O14 0.121515 0.000000 0.727452
O O15 0.387244 0.500000 0.493304
O O16 0.297130 0.745992 0.465316
O O17 0.808591 0.500000 0.600329
O O18 0.191409 0.500000 0.983147
#
# Coordination Sequence:
#
# PCOD9154265 Si02
#       7
#     4   4   4   4   4   4   4
#     4  11  23  35  46  65 100 141 167 188 234 297
#     4   9  18  33  51  69  95 133 168 196 236 295
#     4   8  15  29  48  70  98 131 163 196 239 289
#     4   9  18  33  51  69  95 133 168 196 236 295
#     4   8  15  29  48  70  98 131 163 196 239 289
#     4  11  20  30  50  78 101 123 159 208 250 286
#     4  11  20  30  50  78 101 123 159 208 250 286
#
# _framework density 16.747235
#
# number of rings (size 3 to 8) (size 9 to 14) (size 15 to 20)
#    0.000    2.429    1.429    3.857    0.000    2.857 
#    0.000    1.429    0.000    4.286    0.000   16.000 
#    0.000    0.000    0.000    0.000    0.000    0.000 
#
# Total GULP energy -156165.707468 kJ/mol
# GULP energy per Si atom -5577.346695 kJ/mol
# Density = 1.670912 g / cm^3
# Si number density = 16.747235 Si / 1000 Ang^3
#
#
#
# Elastic Constant Matrix: (Units=GPa)
#
#
# Indices 1 2 3 4 5 6 
#
# 1 148.0925 24.8159 108.2101 0.0000 -2.9641 0.0000
# 2 24.8159 18.8538 23.5257 0.0000 -2.3218 0.0000
# 3 108.2101 23.5257 146.0387 0.0000 -0.7369 0.0000
# 4 0.0000 0.0000 0.0000 5.9810 0.0000 -15.4686
# 5 -2.9641 -2.3218 -0.7369 0.0000 23.1243 0.0000
# 6 0.0000 0.0000 0.0000 -15.4686 0.0000 14.5774
#
#
#
# Elastic Compliance Matrix: (Units=1/GPa)
#
#
# Indices 1 2 3 4 5 6 
#
# 1 0.015573 -0.007500 -0.010326 0.000000 0.000914 0.000000
# 2 -0.007500 0.070934 -0.005840 0.000000 0.005975 0.000000
# 3 -0.010326 -0.005840 0.015432 0.000000 -0.001418 0.000000
# 4 0.000000 0.000000 0.000000 -0.095848 0.000000 -0.101708
# 5 0.000914 0.005975 -0.001418 0.000000 0.043916 0.000000
# 6 0.000000 0.000000 0.000000 -0.101708 0.000000 -0.039326
#
#
# Mechanical properties :
#
#
# Convention : Reuss Voigt Hill
#
# Bulk Modulus (GPa) = 18.31241 69.56537 43.93889
# Shear Modulus (GPa) = 65.60356 19.16544 42.38450
#
# Velocity S-wave (km/s) = 6.26561 3.38656 5.03620
# Velocity P-wave (km/s) = 7.95626 7.54456 7.75314
#
# Compressibility (1/GPa) = 0.05460778
#
# Stress axis : x y z
#
# Youngs Moduli (GPa) = 64.21420 14.09766 64.79843
#
# Poissons Ratio (x) = 0.10573 0.66912
# Poissons Ratio (y) = 0.48160 0.37840
# Poissons Ratio (z) = 0.66309 0.08232
#
# Static dielectric constant tensor:
#      x y z
#    x 1.559480 0.000000 -0.004500 
#    y 0.000000 1.575520 0.000000 
#    z -0.004500 0.000000 1.556980 
# 
# From -- ./inp_files/28948.got.cif
#   From: 2010.05.17/outbox.cif.g08.bks.cpg/sg10_15_cif.got.tgz:28948.got - 2010.06.03 11:33:40.
