data_PCOD9154864
_publ_section_title
;
Structure prediction by ZEFSAII (Michael W. Deem and Ramdas Pophale) SiO2 
 PCOD9154864
Probable space group: P 2/M
;
_chemical_formula_sum "Si O2"
_cell_formula_units_Z 15
_cell_length_a 6.459847
_cell_length_b 20.061434
_cell_length_c 5.258681
_cell_angle_alpha 90.000000
_cell_angle_beta 94.132287
_cell_angle_gamma 90.000000
_cell_volume 679.720771
_symmetry_space_group_name_H-M "P 2/M"
_symmetry_group_IT_number 10
_symmetry_cell_setting 'monoclinic'
loop_
_space_group_symop_operation_xyz
x,y,z
-x,y,-z
-x,-y,-z
x,-y,z
loop_
_atom_site_type_symbol
_atom_site_label
_atom_site_fract_x
_atom_site_fract_y
_atom_site_fract_z
Si Si1 0.865200 0.094139 0.741224
Si Si2 0.864095 0.641149 0.741813
Si Si3 0.368821 0.775913 0.244121
Si Si4 0.500000 0.000000 0.500000
Si Si5 0.640575 0.500000 0.761761
O O1 0.820134 0.172387 0.776489
O O2 0.646213 0.057180 0.663019
O O3 0.000000 0.082636 0.500000
O O4 0.000000 0.072314 0.000000
O O5 0.695558 0.699376 0.723782
O O6 0.773137 0.567333 0.765077
O O7 0.000000 0.644278 0.500000
O O8 0.000000 0.655720 0.000000
O O9 0.500000 0.795296 0.500000
O O10 0.500000 0.783304 0.000000
O O11 0.500000 0.500000 0.500000
O O12 0.500000 0.500000 0.000000
#
# Coordination Sequence:
#
# PCOD9154864 Si02
#       5
#     4   4   4   1   2
#     4  12  27  48  74 107 143 188 237 293 356 428
#     4  12  24  42  66  99 136 179 230 288 347 413
#     4  12  24  45  71 101 139 183 233 289 348 419
#     4  12  28  50  76 108 146 186 238 290 366 418
#     4  12  24  42  64  96 134 182 230 282 350 414
#
# _framework density 22.067885
#
# number of rings (size 3 to 8) (size 9 to 14) (size 15 to 20)
#    0.000    0.000    1.333    9.600    0.000    1.067 
#    0.000    0.000    0.000    0.000    0.000    0.000 
#    0.000    0.000    0.000    0.000    0.000    0.000 
#
# Total GULP energy -83708.380115 kJ/mol
# GULP energy per Si atom -5580.558674 kJ/mol
# Density = 2.201766 g / cm^3
# Si number density = 22.067885 Si / 1000 Ang^3
#
#
#
# Elastic Constant Matrix: (Units=GPa)
#
#
# Indices 1 2 3 4 5 6 
#
# 1 73.6113 18.1224 78.7599 0.0000 27.0910 0.0000
# 2 18.1224 142.5693 21.0535 0.0000 8.9920 0.0000
# 3 78.7599 21.0535 226.1605 0.0000 -0.7667 0.0000
# 4 0.0000 0.0000 0.0000 764.3345 0.0000 -904.6773
# 5 27.0910 8.9920 -0.7667 0.0000 56.5286 0.0000
# 6 0.0000 0.0000 0.0000 -904.6773 0.0000 1148.5839
#
#
#
# Elastic Compliance Matrix: (Units=1/GPa)
#
#
# Indices 1 2 3 4 5 6 
#
# 1 0.030630 -0.001410 -0.010585 0.000000 -0.014599 0.000000
# 2 -0.001410 0.007251 -0.000186 0.000000 -0.000480 0.000000
# 3 -0.010585 -0.000186 0.008143 0.000000 0.005213 0.000000
# 4 0.000000 0.000000 0.000000 0.019316 0.000000 0.015215
# 5 -0.014599 -0.000480 0.005213 0.000000 0.024834 0.000000
# 6 0.000000 0.000000 0.000000 0.015215 0.000000 0.012854
#
#
# Mechanical properties :
#
#
# Convention : Reuss Voigt Hill
#
# Bulk Modulus (GPa) = 46.16164 75.35696 60.75930
# Shear Modulus (GPa) = 37.14431 415.51644 226.33038
#
# Velocity S-wave (km/s) = 4.10711 13.73677 10.13823
# Velocity P-wave (km/s) = 6.59201 16.90622 12.83111
#
# Compressibility (1/GPa) = 0.02166301
#
# Stress axis : x y z
#
# Youngs Moduli (GPa) = 32.64770 137.91130 122.80725
#
# Poissons Ratio (x) = 0.19440 1.29993
# Poissons Ratio (y) = 0.04602 0.02281
# Poissons Ratio (z) = 0.34558 0.02562
#
# Static dielectric constant tensor:
#      x y z
#    x 1.812360 0.000000 0.010390 
#    y 0.000000 1.584900 0.000000 
#    z 0.010390 0.000000 1.742260 
# 
# From -- ./inp_files/1300.got.cif
#   From: 2010.05.17/outbox.cif.g08.bks.cpg/sg10_1_cif.got.tgz:1300.got - 2010.06.03 11:33:40.
