data_PCOD9154540
_publ_section_title
;
Structure prediction by ZEFSAII (Michael W. Deem and Ramdas Pophale) SiO2 
 PCOD9154540
Probable space group: P 2/M
;
_chemical_formula_sum "Si O2"
_cell_formula_units_Z 20
_cell_length_a 10.054586
_cell_length_b 20.467509
_cell_length_c 5.278080
_cell_angle_alpha 90.000000
_cell_angle_beta 60.887726
_cell_angle_gamma 90.000000
_cell_volume 948.968049
_symmetry_space_group_name_H-M "P 2/M"
_symmetry_group_IT_number 10
_symmetry_cell_setting 'monoclinic'
loop_
_space_group_symop_operation_xyz
x,y,z
-x,y,-z
-x,-y,-z
x,-y,z
loop_
_atom_site_type_symbol
_atom_site_label
_atom_site_fract_x
_atom_site_fract_y
_atom_site_fract_z
Si Si1 0.825910 0.619337 0.119982
Si Si2 0.350295 0.500000 0.473060
Si Si3 0.830622 0.500000 0.758072
Si Si4 0.834078 0.077080 0.251321
Si Si5 0.401753 0.731714 0.843162
Si Si6 0.324436 0.872982 0.095704
O O1 0.749953 0.566435 0.385161
O O2 0.713846 0.677582 0.153539
O O3 0.835615 0.569512 0.884108
O O4 0.000000 0.641606 0.000000
O O5 0.500000 0.500000 0.500000
O O6 0.342356 0.500000 0.183054
O O7 0.000000 0.500000 0.500000
O O8 0.774791 0.111660 0.562061
O O9 0.843783 0.000000 0.300646
O O10 0.726601 0.088368 0.107569
O O11 0.000000 0.099762 0.000000
O O12 0.500000 0.749521 0.500000
O O13 0.680297 0.796747 0.977951
O O14 0.500000 0.708804 0.000000
O O15 0.500000 0.887801 0.000000
#
# Coordination Sequence:
#
# PCOD9154540 Si02
#       6
#     4   2   2   4   4   4
#     4  11  24  40  64  94 125 172 222 280 343 414
#     4  11  23  39  63  93 129 164 219 277 346 404
#     4  11  21  41  63  90 132 167 217 289 342 411
#     4  11  24  43  70 105 143 181 227 283 342 406
#     4  11  26  46  68  96 135 178 229 286 341 407
#     4  11  23  44  69  99 140 184 231 284 341 405
#
# _framework density 21.075524000000001
#
# number of rings (size 3 to 8) (size 9 to 14) (size 15 to 20)
#    0.000    1.000    2.000    5.400    5.600    5.600 
#    0.000    6.000    0.000    0.000    0.000    0.000 
#    0.000    0.000    0.000    0.000    0.000    0.000 
#
# Total GULP energy -111360.299590 kJ/mol
# GULP energy per Si atom -5568.014980 kJ/mol
# Density = 2.102756 g / cm^3
# Si number density = 21.075524 Si / 1000 Ang^3
#
#
#
# Elastic Constant Matrix: (Units=GPa)
#
#
# Indices 1 2 3 4 5 6 
#
# 1 84.6696 34.2615 34.1070 0.0000 8.9074 0.0000
# 2 34.2615 96.8886 68.7406 0.0000 -11.9716 0.0000
# 3 34.1070 68.7406 147.1947 0.0000 4.2037 0.0000
# 4 0.0000 0.0000 0.0000 52.8183 0.0000 34.4412
# 5 8.9074 -11.9716 4.2037 0.0000 28.0710 0.0000
# 6 0.0000 0.0000 0.0000 34.4412 0.0000 82.1199
#
#
#
# Elastic Compliance Matrix: (Units=1/GPa)
#
#
# Indices 1 2 3 4 5 6 
#
# 1 0.015169 -0.005845 -0.000579 0.000000 -0.007219 0.000000
# 2 -0.005845 0.019542 -0.008097 0.000000 0.011401 0.000000
# 3 -0.000579 -0.008097 0.010849 0.000000 -0.004894 0.000000
# 4 0.000000 0.000000 0.000000 0.026060 0.000000 -0.010929
# 5 -0.007219 0.011401 -0.004894 0.000000 0.043510 0.000000
# 6 0.000000 0.000000 0.000000 -0.010929 0.000000 0.016761
#
#
# Mechanical properties :
#
#
# Convention : Reuss Voigt Hill
#
# Bulk Modulus (GPa) = 60.54477 66.99677 63.77077
# Shear Modulus (GPa) = 30.04115 45.37810 37.70963
#
# Velocity S-wave (km/s) = 3.77955 4.64520 4.23456
# Velocity P-wave (km/s) = 6.91640 7.78643 7.36427
#
# Compressibility (1/GPa) = 0.01651670
#
# Stress axis : x y z
#
# Youngs Moduli (GPa) = 65.92593 51.17254 92.17375
#
# Poissons Ratio (x) = 0.29912 0.05335
# Poissons Ratio (y) = 0.38535 0.74636
# Poissons Ratio (z) = 0.03816 0.41436
#
# Static dielectric constant tensor:
#      x y z
#    x 1.804960 0.000000 0.055480 
#    y 0.000000 1.714790 0.000000 
#    z 0.055480 0.000000 1.966940 
# 
# From -- ./inp_files/4642.got.cif
#   From: 2010.05.17/outbox.cif.g08.bks.cpg/sg10_3_cif.got.tgz:4642.got - 2010.06.03 11:33:40.
