data_PCOD9154578
_publ_section_title
;
Structure prediction by ZEFSAII (Michael W. Deem and Ramdas Pophale) SiO2 
 PCOD9154578
Probable space group: P 2/M
;
_chemical_formula_sum "Si O2"
_cell_formula_units_Z 32
_cell_length_a 12.306640
_cell_length_b 20.518324
_cell_length_c 7.799413
_cell_angle_alpha 90.000000
_cell_angle_beta 130.693422
_cell_angle_gamma 90.000000
_cell_volume 1493.249390
_symmetry_space_group_name_H-M "P 2/M"
_symmetry_group_IT_number 10
_symmetry_cell_setting 'monoclinic'
loop_
_space_group_symop_operation_xyz
x,y,z
-x,y,-z
-x,-y,-z
x,-y,z
loop_
_atom_site_type_symbol
_atom_site_label
_atom_site_fract_x
_atom_site_fract_y
_atom_site_fract_z
Si Si1 0.568863 0.210937 0.380649
Si Si2 0.551094 0.345619 0.748655
Si Si3 0.949009 0.352169 0.752285
Si Si4 0.797798 0.427038 0.104273
Si Si5 0.691563 0.427494 0.383796
Si Si6 0.426264 0.929988 0.611284
Si Si7 0.915712 0.211549 0.730773
Si Si8 0.917573 0.929763 0.733153
O O1 0.500000 0.208009 0.500000
O O2 0.494957 0.275130 0.225845
O O3 0.536654 0.139768 0.266916
O O4 0.742082 0.217410 0.572798
O O5 0.500000 0.347277 0.500000
O O6 0.469054 0.402713 0.764205
O O7 0.714486 0.367498 0.928321
O O8 0.785841 0.374813 0.579325
O O9 0.963464 0.279146 0.693925
O O10 0.037805 0.406842 0.744165
O O11 0.000000 0.352040 0.000000
O O12 0.773935 0.500000 0.008103
O O13 0.746227 0.427476 0.246287
O O14 0.706556 0.500000 0.470750
O O15 0.500000 0.930419 0.500000
O O16 0.253820 0.929308 0.411439
O O17 0.464308 0.000000 0.733401
O O18 0.948544 0.140860 0.681872
O O19 0.000000 0.210349 0.000000
O O20 0.952181 0.000000 0.684112
O O21 0.000000 0.929962 0.000000
#
# Coordination Sequence:
#
# PCOD9154578 Si02
#       8
#     4   4   4   4   4   4   4   4
#     4   9  17  28  45  71 103 136 170 214 263 308
#     4  11  22  36  57  83 108 137 173 221 264 314
#     4  11  22  36  57  83 108 137 173 221 264 314
#     4  11  25  41  57  77 104 139 178 218 269 321
#     4  11  23  41  59  77 106 139 172 216 267 319
#     4   8  13  22  37  60  94 134 169 200 246 307
#     4   9  17  28  45  71 103 136 170 214 263 308
#     4   8  13  22  37  60  94 134 169 200 246 307
#
# _framework density 21.429777000000001
#
# number of rings (size 3 to 8) (size 9 to 14) (size 15 to 20)
#    0.000    2.250    1.250    2.250    5.250    5.000 
#    0.000    0.000    0.000    0.000    0.000    0.000 
#    0.000    6.000    0.000    0.000    0.000    0.000 
#
# Total GULP energy -178238.631841 kJ/mol
# GULP energy per Si atom -5569.957245 kJ/mol
# Density = 2.138100 g / cm^3
# Si number density = 21.429777 Si / 1000 Ang^3
#
#
#
# Elastic Constant Matrix: (Units=GPa)
#
#
# Indices 1 2 3 4 5 6 
#
# 1 40.5706 3.5194 -1.5040 0.0000 0.2275 0.0000
# 2 3.5194 207.6115 19.6302 0.0000 -0.6473 0.0000
# 3 -1.5040 19.6302 42.3433 0.0000 7.3870 0.0000
# 4 0.0000 0.0000 0.0000 17.2519 0.0000 9.8619
# 5 0.2275 -0.6473 7.3870 0.0000 18.2157 0.0000
# 6 0.0000 0.0000 0.0000 9.8619 0.0000 21.7515
#
#
#
# Elastic Compliance Matrix: (Units=1/GPa)
#
#
# Indices 1 2 3 4 5 6 
#
# 1 0.024748 -0.000543 0.001279 0.000000 -0.000847 0.000000
# 2 -0.000543 0.005074 -0.002587 0.000000 0.001236 0.000000
# 3 0.001279 -0.002587 0.026774 0.000000 -0.010966 0.000000
# 4 0.000000 0.000000 0.000000 0.078244 0.000000 -0.035475
# 5 -0.000847 0.001236 -0.010966 0.000000 0.059399 0.000000
# 6 0.000000 0.000000 0.000000 -0.035475 0.000000 0.062058
#
#
# Mechanical properties :
#
#
# Convention : Reuss Voigt Hill
#
# Bulk Modulus (GPa) = 18.90625 37.09073 27.99849
# Shear Modulus (GPa) = 18.00944 29.36913 23.68929
#
# Velocity S-wave (km/s) = 2.90210 3.70602 3.32842
# Velocity P-wave (km/s) = 4.48008 5.97146 5.27871
#
# Compressibility (1/GPa) = 0.05289256
#
# Stress axis : x y z
#
# Youngs Moduli (GPa) = 40.40785 197.06763 37.34905
#
# Poissons Ratio (x) = 0.10702 -0.04775
# Poissons Ratio (y) = 0.02194 0.09664
# Poissons Ratio (z) = -0.05166 0.50990
#
# Static dielectric constant tensor:
#      x y z
#    x 1.747890 0.000000 -0.018810 
#    y 0.000000 1.868230 0.000000 
#    z -0.018810 0.000000 1.747870 
# 
# From -- ./inp_files/26095.got.cif
#   From: 2010.05.17/outbox.cif.g08.bks.cpg/sg10_14_cif.got.tgz:26095.got - 2010.06.03 11:33:40.
