data_PCOD9154117
_publ_section_title
;
Structure prediction by ZEFSAII (Michael W. Deem and Ramdas Pophale) SiO2 
 PCOD9154117
Probable space group: P 2/M
;
_chemical_formula_sum "Si O2"
_cell_formula_units_Z 32
_cell_length_a 11.172677
_cell_length_b 8.679504
_cell_length_c 20.263451
_cell_angle_alpha 90.000000
_cell_angle_beta 134.454318
_cell_angle_gamma 90.000000
_cell_volume 1402.644511
_symmetry_space_group_name_H-M "P 2/M"
_symmetry_group_IT_number 10
_symmetry_cell_setting 'monoclinic'
loop_
_space_group_symop_operation_xyz
x,y,z
-x,y,-z
-x,-y,-z
x,-y,z
loop_
_atom_site_type_symbol
_atom_site_label
_atom_site_fract_x
_atom_site_fract_y
_atom_site_fract_z
Si Si1 0.292002 0.817589 0.692855
Si Si2 0.201376 0.180932 0.803400
Si Si3 0.767685 0.683203 0.048221
Si Si4 0.765126 0.320178 0.465971
Si Si5 0.177111 0.177336 0.377751
Si Si6 0.122571 0.819735 0.141699
Si Si7 0.369045 0.681788 0.141110
Si Si8 0.369464 0.678105 0.341287
O O1 0.244385 0.758086 0.747257
O O2 0.206850 0.738114 0.597357
O O3 0.489584 0.779479 0.767466
O O4 0.260963 0.000000 0.677962
O O5 0.278123 0.264692 0.895992
O O6 0.999365 0.192313 0.728118
O O7 0.246292 0.000000 0.823096
O O8 0.791836 0.500000 0.056546
O O9 0.941910 0.763979 0.095939
O O10 0.639683 0.720948 0.939720
O O11 0.806454 0.500000 0.487331
O O12 0.851488 0.225190 0.557609
O O13 0.565854 0.300168 0.404176
O O14 0.312012 0.283433 0.393306
O O15 0.231664 0.000000 0.396131
O O16 0.193090 0.724669 0.106787
O O17 0.256264 0.785156 0.251261
O O18 0.118163 0.000000 0.124473
O O19 0.403068 0.500000 0.162566
O O20 0.329263 0.500000 0.310457
#
# Coordination Sequence:
#
# PCOD9154117 Si02
#       8
#     4   4   4   4   4   4   4   4
#     4  11  24  43  66  90 121 164 212 262 312 366
#     4  10  24  44  64  90 124 163 210 262 313 364
#     4  11  24  41  65  93 126 166 205 253 312 371
#     4  11  24  41  63  92 128 165 204 257 311 371
#     4  11  23  40  64  93 126 164 208 257 306 369
#     4  12  23  37  63  95 127 164 205 250 307 372
#     4  11  24  42  63  93 128 163 206 255 311 373
#     4  11  22  38  62  92 128 164 201 250 310 372
#
# _framework density 22.814050000000002
#
# number of rings (size 3 to 8) (size 9 to 14) (size 15 to 20)
#    0.000    1.000    2.500    4.125    0.000    9.000 
#    0.000    5.000    0.000    0.000    0.000    0.000 
#    0.000    0.000    0.000    0.000    0.000    0.000 
#
# Total GULP energy -179150.652571 kJ/mol
# GULP energy per Si atom -5598.457893 kJ/mol
# Density = 2.276212 g / cm^3
# Si number density = 22.814050 Si / 1000 Ang^3
#
#
#
# Elastic Constant Matrix: (Units=GPa)
#
#
# Indices 1 2 3 4 5 6 
#
# 1 74.5573 -8.1832 2.5950 0.0000 -28.3743 0.0000
# 2 -8.1832 44.2489 17.1241 0.0000 -6.3073 0.0000
# 3 2.5950 17.1241 90.0970 0.0000 -32.1059 0.0000
# 4 0.0000 0.0000 0.0000 -32.1924 0.0000 -50.6777
# 5 -28.3743 -6.3073 -32.1059 0.0000 41.8453 0.0000
# 6 0.0000 0.0000 0.0000 -50.6777 0.0000 6.7225
#
#
#
# Elastic Compliance Matrix: (Units=1/GPa)
#
#
# Indices 1 2 3 4 5 6 
#
# 1 0.020927 0.004524 0.005281 0.000000 0.018924 0.000000
# 2 0.004524 0.025372 -0.003436 0.000000 0.004255 0.000000
# 3 0.005281 -0.003436 0.017467 0.000000 0.016465 0.000000
# 4 0.000000 0.000000 0.000000 -0.002414 0.000000 -0.018199
# 5 0.018924 0.004255 0.016465 0.000000 0.050004 0.000000
# 6 0.000000 0.000000 0.000000 -0.018199 0.000000 0.011561
#
#
# Mechanical properties :
#
#
# Convention : Reuss Voigt Hill
#
# Bulk Modulus (GPa) = 13.07117 25.77498 19.42308
# Shear Modulus (GPa) = 36.85108 16.43290 26.64199
#
# Velocity S-wave (km/s) = 4.02341 2.68675 3.42100
# Velocity P-wave (km/s) = 5.22740 4.57681 4.91289
#
# Compressibility (1/GPa) = 0.07650426
#
# Stress axis : x y z
#
# Youngs Moduli (GPa) = 47.78485 39.41287 57.24957
#
# Poissons Ratio (x) = -0.17830 -0.30233
# Poissons Ratio (y) = -0.21618 0.19672
# Poissons Ratio (z) = -0.25235 0.13543
#
# Static dielectric constant tensor:
#      x y z
#    x 1.900970 0.000000 -0.015980 
#    y 0.000000 1.756160 0.000000 
#    z -0.015980 0.000000 1.865880 
# 
# From -- ./inp_files/49907.got.cif
#   From: 2010.05.17/outbox.cif.g08.bks.cpg/sg10_25_cif.got.tgz:49907.got - 2010.06.03 11:33:40.
