data_PCOD9154481
_publ_section_title
;
Structure prediction by ZEFSAII (Michael W. Deem and Ramdas Pophale) SiO2 
 PCOD9154481
Probable space group: P 2/M
;
_chemical_formula_sum "Si O2"
_cell_formula_units_Z 13
_cell_length_a 7.948218
_cell_length_b 10.041634
_cell_length_c 11.189020
_cell_angle_alpha 90.000000
_cell_angle_beta 39.304732
_cell_angle_gamma 90.000000
_cell_volume 565.685401
_symmetry_space_group_name_H-M "P 2/M"
_symmetry_group_IT_number 10
_symmetry_cell_setting 'monoclinic'
loop_
_space_group_symop_operation_xyz
x,y,z
-x,y,-z
-x,-y,-z
x,-y,z
loop_
_atom_site_type_symbol
_atom_site_label
_atom_site_fract_x
_atom_site_fract_y
_atom_site_fract_z
Si Si1 0.163397 0.218616 0.566760
Si Si2 0.742547 0.776229 0.202262
Si Si3 0.914047 0.500000 0.705490
Si Si4 0.659483 0.500000 0.105994
Si Si5 0.000000 0.000000 0.500000
O O1 0.196477 0.220657 0.690866
O O2 0.444196 0.167848 0.357349
O O3 0.082139 0.369112 0.583816
O O4 0.956547 0.117027 0.626153
O O5 0.710230 0.630303 0.158840
O O6 0.000000 0.839946 0.000000
O O7 0.634828 0.500000 0.789344
O O8 0.846167 0.500000 0.885180
#
# Coordination Sequence:
#
# PCOD9154481 Si02
#       5
#     4   4   2   2   1
#     4  11  25  45  73  96 141 181 225 280 343 393
#     4  11  22  42  69 105 135 178 224 281 333 412
#     4  11  22  41  72 108 135 182 220 283 341 391
#     4  11  21  36  71 107 148 163 230 283 334 404
#     4  12  28  52  66 100 136 180 234 284 334 412
#
# _framework density 22.980969999999999
#
# number of rings (size 3 to 8) (size 9 to 14) (size 15 to 20)
#    0.000    0.923    3.077    4.154    0.000    6.769 
#    0.000    4.615    0.000    0.000    0.000    0.000 
#    0.000    0.000    0.000    0.000    0.000    0.000 
#
# Total GULP energy -72382.744427 kJ/mol
# GULP energy per Si atom -5567.903417 kJ/mol
# Density = 2.292866 g / cm^3
# Si number density = 22.980970 Si / 1000 Ang^3
#
#
#
# Elastic Constant Matrix: (Units=GPa)
#
#
# Indices 1 2 3 4 5 6 
#
# 1 141.1429 25.0883 36.8683 0.0000 21.0887 0.0000
# 2 25.0883 136.3909 12.4901 0.0000 13.3163 0.0000
# 3 36.8683 12.4901 144.2927 0.0000 -1.4246 0.0000
# 4 0.0000 0.0000 0.0000 -53.3880 0.0000 2.6053
# 5 21.0887 13.3163 -1.4246 0.0000 47.4419 0.0000
# 6 0.0000 0.0000 0.0000 2.6053 0.0000 -6.2807
#
#
#
# Elastic Compliance Matrix: (Units=1/GPa)
#
#
# Indices 1 2 3 4 5 6 
#
# 1 0.008325 -0.001001 -0.002075 0.000000 -0.003482 0.000000
# 2 -0.001001 0.007725 -0.000430 0.000000 -0.001736 0.000000
# 3 -0.002075 -0.000430 0.007510 0.000000 0.001269 0.000000
# 4 0.000000 0.000000 0.000000 -0.019118 0.000000 -0.007930
# 5 -0.003482 -0.001736 0.001269 0.000000 0.023152 0.000000
# 6 0.000000 0.000000 0.000000 -0.007930 0.000000 -0.162508
#
#
# Mechanical properties :
#
#
# Convention : Reuss Voigt Hill
#
# Bulk Modulus (GPa) = 60.43043 63.41333 61.92188
# Shear Modulus (GPa) = -40.85468 20.71330 -10.07069
#
# Velocity S-wave (km/s) = -4.22092 3.00546 -2.09564
# Velocity P-wave (km/s) = 1.61183 6.30059 4.59867
#
# Compressibility (1/GPa) = 0.01654795
#
# Stress axis : x y z
#
# Youngs Moduli (GPa) = 120.11641 129.45083 133.15132
#
# Poissons Ratio (x) = 0.12963 0.27627
# Poissons Ratio (y) = 0.12029 0.05725
# Poissons Ratio (z) = 0.24923 0.05566
#
# Static dielectric constant tensor:
#      x y z
#    x 1.963720 0.000000 -0.062060 
#    y 0.000000 1.744330 0.000000 
#    z -0.062060 0.000000 1.912540 
# 
# From -- ./inp_files/22615.got.cif
#   From: 2010.05.17/outbox.cif.g08.bks.cpg/sg10_12_cif.got.tgz:22615.got - 2010.06.03 11:33:40.
