data_PCOD9154189
_publ_section_title
;
Structure prediction by ZEFSAII (Michael W. Deem and Ramdas Pophale) SiO2 
 PCOD9154189
Probable space group: P 2/M
;
_chemical_formula_sum "Si O2"
_cell_formula_units_Z 21
_cell_length_a 10.566656
_cell_length_b 19.106482
_cell_length_c 5.035463
_cell_angle_alpha 90.000000
_cell_angle_beta 106.976924
_cell_angle_gamma 90.000000
_cell_volume 972.316065
_symmetry_space_group_name_H-M "P 2/M"
_symmetry_group_IT_number 10
_symmetry_cell_setting 'monoclinic'
loop_
_space_group_symop_operation_xyz
x,y,z
-x,y,-z
-x,-y,-z
x,-y,z
loop_
_atom_site_type_symbol
_atom_site_label
_atom_site_fract_x
_atom_site_fract_y
_atom_site_fract_z
Si Si1 0.877975 0.880575 0.623160
Si Si2 0.368262 0.309883 0.563644
Si Si3 0.904938 0.500000 0.190987
Si Si4 0.000000 0.000000 0.000000
Si Si5 0.411527 0.854444 0.681937
Si Si6 0.786281 0.650233 0.031893
Si Si7 0.000000 0.247278 0.000000
O O1 0.736463 0.884805 0.394249
O O2 0.907885 0.804993 0.771844
O O3 0.000000 0.896674 0.500000
O O4 0.892244 0.938630 0.856707
O O5 0.500000 0.337775 0.500000
O O6 0.383299 0.226294 0.583756
O O7 0.331368 0.329454 0.840828
O O8 0.254546 0.338093 0.298701
O O9 0.822946 0.571244 0.122442
O O10 0.000000 0.500000 0.500000
O O11 0.000000 0.500000 0.000000
O O12 0.500000 0.886128 0.500000
O O13 0.500000 0.856380 0.000000
O O14 0.910241 0.703434 0.132388
#
# Coordination Sequence:
#
# PCOD9154189 Si02
#       7
#     4   4   2   1   4   4   2
#     4  11  24  44  73 104 142 188 236 293 350 428
#     4  11  23  42  66  96 135 179 227 289 355 413
#     4  12  26  44  63  94 141 184 226 291 369 427
#     4  10  26  44  72 102 152 190 240 278 360 410
#     4  11  24  42  69 106 143 180 232 297 358 412
#     4  12  24  42  65 100 133 176 233 293 352 426
#     4  11  24  38  72 105 132 170 244 299 358 416
#
# _framework density 21.597916000000001
#
# number of rings (size 3 to 8) (size 9 to 14) (size 15 to 20)
#    0.000    0.762    2.857    5.429    5.333    0.000 
#    0.000    3.810    0.000    0.000    0.000    0.000 
#    0.000    0.000    0.000    0.000    0.000    0.000 
#
# Total GULP energy -117081.731018 kJ/mol
# GULP energy per Si atom -5575.320525 kJ/mol
# Density = 2.154876 g / cm^3
# Si number density = 21.597916 Si / 1000 Ang^3
#
#
#
# Elastic Constant Matrix: (Units=GPa)
#
#
# Indices 1 2 3 4 5 6 
#
# 1 127.1168 17.7099 22.4232 0.0000 9.0868 0.0000
# 2 17.7099 88.9247 5.9843 0.0000 18.0661 0.0000
# 3 22.4232 5.9843 121.5432 0.0000 28.1175 0.0000
# 4 0.0000 0.0000 0.0000 12.1987 0.0000 -2.1286
# 5 9.0868 18.0661 28.1175 0.0000 52.2016 0.0000
# 6 0.0000 0.0000 0.0000 -2.1286 0.0000 9.7843
#
#
#
# Elastic Compliance Matrix: (Units=1/GPa)
#
#
# Indices 1 2 3 4 5 6 
#
# 1 0.008343 -0.001535 -0.001429 0.000000 -0.000152 0.000000
# 2 -0.001535 0.012398 0.000689 0.000000 -0.004395 0.000000
# 3 -0.001429 0.000689 0.009658 0.000000 -0.005192 0.000000
# 4 0.000000 0.000000 0.000000 0.085211 0.000000 0.018538
# 5 -0.000152 -0.004395 -0.005192 0.000000 0.023501 0.000000
# 6 0.000000 0.000000 0.000000 0.018538 0.000000 0.106238
#
#
# Mechanical properties :
#
#
# Convention : Reuss Voigt Hill
#
# Bulk Modulus (GPa) = 38.68243 47.75775 43.22009
# Shear Modulus (GPa) = 19.34137 34.26807 26.80472
#
# Velocity S-wave (km/s) = 2.99577 3.98758 3.52672
# Velocity P-wave (km/s) = 5.46949 6.58493 6.05296
#
# Compressibility (1/GPa) = 0.02585153
#
# Stress axis : x y z
#
# Youngs Moduli (GPa) = 119.85459 80.66097 103.53799
#
# Poissons Ratio (x) = 0.12379 0.14791
# Poissons Ratio (y) = 0.18394 -0.07138
# Poissons Ratio (z) = 0.17122 -0.05561
#
# Static dielectric constant tensor:
#      x y z
#    x 1.841480 0.000000 0.017850 
#    y 0.000000 1.488360 0.000000 
#    z 0.017850 0.000000 1.824330 
# 
# From -- ./inp_files/4859.got.cif
#   From: 2010.05.17/outbox.cif.g08.bks.cpg/sg10_3_cif.got.tgz:4859.got - 2010.06.03 11:33:40.
