data_PCOD9154845
_publ_section_title
;
Structure prediction by ZEFSAII (Michael W. Deem and Ramdas Pophale) SiO2 
 PCOD9154845
Probable space group: P 2/M
;
_chemical_formula_sum "Si O2"
_cell_formula_units_Z 20
_cell_length_a 17.869013
_cell_length_b 7.468786
_cell_length_c 8.822483
_cell_angle_alpha 90.000000
_cell_angle_beta 87.797374
_cell_angle_gamma 90.000000
_cell_volume 1176.577168
_symmetry_space_group_name_H-M "P 2/M"
_symmetry_group_IT_number 10
_symmetry_cell_setting 'monoclinic'
loop_
_space_group_symop_operation_xyz
x,y,z
-x,y,-z
-x,-y,-z
x,-y,z
loop_
_atom_site_type_symbol
_atom_site_label
_atom_site_fract_x
_atom_site_fract_y
_atom_site_fract_z
Si Si1 0.510993 0.000000 0.181109
Si Si2 0.575189 0.293068 0.390918
Si Si3 0.638335 0.000000 0.599014
Si Si4 0.889560 0.711258 0.889606
Si Si5 0.202274 0.000000 0.259121
Si Si6 0.055210 0.710711 0.774977
Si Si7 0.086619 0.000000 0.541989
O O1 0.554683 0.175249 0.243647
O O2 0.431861 0.000000 0.278647
O O3 0.500000 0.000000 0.000000
O O4 0.500000 0.298092 0.500000
O O5 0.597295 0.500000 0.360141
O O6 0.630890 0.173282 0.489441
O O7 0.714103 0.000000 0.687439
O O8 0.877596 0.500000 0.870036
O O9 0.967092 0.759524 0.796961
O O10 0.821339 0.827725 0.836802
O O11 0.908321 0.743940 0.064046
O O12 0.145914 0.000000 0.405133
O O13 0.058689 0.500000 0.743680
O O14 0.094902 0.825884 0.645622
O O15 0.000000 0.000000 0.500000
#
# Coordination Sequence:
#
# PCOD9154845 Si02
#       7
#     2   4   2   4   2   4   2
#     4   9  17  32  56  85 105 122 164 209 241 277
#     4   8  15  32  56  76 100 136 168 191 229 293
#     4   9  20  34  49  73 107 139 161 196 247 302
#     4   9  18  33  52  69  90 129 170 208 256 304
#     4  12  22  32  48  74 105 132 163 207 259 300
#     4   9  18  34  52  68  90 122 170 222 257 293
#     4  12  21  30  47  74  96 124 167 214 253 292
#
# _framework density 16.998460999999999
#
# number of rings (size 3 to 8) (size 9 to 14) (size 15 to 20)
#    0.000    2.600    2.000    3.000    0.000    4.000 
#    0.000    4.000    0.000    2.400    0.000    0.000 
#    0.000    0.000    0.000    0.000    0.000    0.000 
#
# Total GULP energy -111458.804873 kJ/mol
# GULP energy per Si atom -5572.940244 kJ/mol
# Density = 1.695977 g / cm^3
# Si number density = 16.998461 Si / 1000 Ang^3
#
#
#
# Elastic Constant Matrix: (Units=GPa)
#
#
# Indices 1 2 3 4 5 6 
#
# 1 78.6537 43.5902 21.4420 0.0000 34.3624 0.0000
# 2 43.5902 115.5518 54.5322 0.0000 26.9383 0.0000
# 3 21.4420 54.5322 73.7458 0.0000 16.8448 0.0000
# 4 0.0000 0.0000 0.0000 32.0345 0.0000 5.9203
# 5 34.3624 26.9383 16.8448 0.0000 28.8859 0.0000
# 6 0.0000 0.0000 0.0000 5.9203 0.0000 13.3891
#
#
#
# Elastic Compliance Matrix: (Units=1/GPa)
#
#
# Indices 1 2 3 4 5 6 
#
# 1 0.027750 -0.004438 0.002086 0.000000 -0.030089 0.000000
# 2 -0.004438 0.015669 -0.009419 0.000000 -0.003840 0.000000
# 3 0.002086 -0.009419 0.021319 0.000000 -0.006130 0.000000
# 4 0.000000 0.000000 0.000000 0.033994 0.000000 -0.015031
# 5 -0.030089 -0.003840 -0.006130 0.000000 0.077568 0.000000
# 6 0.000000 0.000000 0.000000 -0.015031 0.000000 0.081334
#
#
# Mechanical properties :
#
#
# Convention : Reuss Voigt Hill
#
# Bulk Modulus (GPa) = 24.27430 56.34221 40.30826
# Shear Modulus (GPa) = 16.95446 24.75437 20.85442
#
# Velocity S-wave (km/s) = 3.16161 3.82025 3.50643
# Velocity P-wave (km/s) = 5.25728 7.25786 6.33702
#
# Compressibility (1/GPa) = 0.04119583
#
# Stress axis : x y z
#
# Youngs Moduli (GPa) = 36.03546 63.82203 46.90760
#
# Poissons Ratio (x) = 0.28327 -0.09786
# Poissons Ratio (y) = 0.15994 0.44181
# Poissons Ratio (z) = -0.07518 0.60112
#
# Static dielectric constant tensor:
#      x y z
#    x 1.552340 0.000000 0.006390 
#    y 0.000000 1.596570 0.000000 
#    z 0.006390 0.000000 1.578350 
# 
# From -- ./inp_files/30983.got.cif
#   From: 2010.05.17/outbox.cif.g08.bks.cpg/sg10_16_cif.got.tgz:30983.got - 2010.06.03 11:33:40.
