data_PCOD9154911
_publ_section_title
;
Structure prediction by ZEFSAII (Michael W. Deem and Ramdas Pophale) SiO2 
 PCOD9154911
Probable space group: P 2/M
;
_chemical_formula_sum "Si O2"
_cell_formula_units_Z 18
_cell_length_a 5.118864
_cell_length_b 25.766000
_cell_length_c 5.213617
_cell_angle_alpha 90.000000
_cell_angle_beta 92.506027
_cell_angle_gamma 90.000000
_cell_volume 686.980124
_symmetry_space_group_name_H-M "P 2/M"
_symmetry_group_IT_number 10
_symmetry_cell_setting 'monoclinic'
loop_
_space_group_symop_operation_xyz
x,y,z
-x,y,-z
-x,-y,-z
x,-y,z
loop_
_atom_site_type_symbol
_atom_site_label
_atom_site_fract_x
_atom_site_fract_y
_atom_site_fract_z
Si Si1 0.757167 0.000000 0.687919
Si Si2 0.685950 0.555329 0.757167
Si Si3 0.678976 0.224165 0.761530
Si Si4 0.238214 0.890190 0.319393
Si Si5 0.686475 0.334042 0.757018
O O1 0.500000 0.000000 0.500000
O O2 0.754334 0.055326 0.834785
O O3 0.000000 0.000000 0.500000
O O4 0.500000 0.555457 0.500000
O O5 0.833460 0.500000 0.759012
O O6 0.833917 0.610641 0.758639
O O7 0.500000 0.555152 0.000000
O O8 0.500000 0.222382 0.500000
O O9 0.797243 0.166930 0.797905
O O10 0.835980 0.278661 0.754681
O O11 0.500000 0.229605 0.000000
O O12 0.500000 0.888625 0.500000
O O13 0.000000 0.895194 0.500000
O O14 0.500000 0.333531 0.500000
O O15 0.500000 0.335110 0.000000
#
# Coordination Sequence:
#
# PCOD9154911 Si02
#       5
#     2   4   4   4   4
#     4   8  14  26  47  72 100 132 168 210 256 306
#     4   8  12  17  26  43  69 103 142 184 230 280
#     4   9  17  30  47  69  96 129 167 208 254 304
#     4   9  17  31  51  76 104 136 173 214 260 310
#     4   8  13  21  34  52  78 112 150 192 238 288
#
# _framework density 26.201629000000001
#
# number of rings (size 3 to 8) (size 9 to 14) (size 15 to 20)
#    0.000    3.556    0.000    0.000    0.000    0.000 
#    0.000    5.000    0.000    0.000    0.000   23.333 
#    0.000    0.889    0.000    0.667    0.000  338.444 
#
# Total GULP energy -100370.827692 kJ/mol
# GULP energy per Si atom -5576.157094 kJ/mol
# Density = 2.614199 g / cm^3
# Si number density = 26.201629 Si / 1000 Ang^3
#
#
#
# Elastic Constant Matrix: (Units=GPa)
#
#
# Indices 1 2 3 4 5 6 
#
# 1 101.1185 -1.0365 38.6990 0.0000 17.8496 0.0000
# 2 -1.0365 430.8946 -11.5566 0.0000 -2.3000 0.0000
# 3 38.6990 -11.5566 168.0008 0.0000 14.8284 0.0000
# 4 0.0000 0.0000 0.0000 -24.7175 0.0000 -40.5531
# 5 17.8496 -2.3000 14.8284 0.0000 59.2069 0.0000
# 6 0.0000 0.0000 0.0000 -40.5531 0.0000 -65.0174
#
#
#
# Elastic Compliance Matrix: (Units=1/GPa)
#
#
# Indices 1 2 3 4 5 6 
#
# 1 0.011287 -0.000051 -0.002355 0.000000 -0.002815 0.000000
# 2 -0.000051 0.002325 0.000166 0.000000 0.000064 0.000000
# 3 -0.002355 0.000166 0.006589 0.000000 -0.000934 0.000000
# 4 0.000000 0.000000 0.000000 1.734434 0.000000 -1.081812
# 5 -0.002815 0.000064 -0.000934 0.000000 0.017975 0.000000
# 6 0.000000 0.000000 0.000000 -1.081812 0.000000 0.659374
#
#
# Mechanical properties :
#
#
# Convention : Reuss Voigt Hill
#
# Bulk Modulus (GPa) = 63.60862 83.58063 73.59462
# Shear Modulus (GPa) = 2.04775 38.82160 20.43468
#
# Velocity S-wave (km/s) = 0.88500 3.85339 2.79570
# Velocity P-wave (km/s) = 5.03722 7.19489 6.21048
#
# Compressibility (1/GPa) = 0.01572114
#
# Stress axis : x y z
#
# Youngs Moduli (GPa) = 88.59710 430.02861 151.77577
#
# Poissons Ratio (x) = 0.02195 0.35744
# Poissons Ratio (y) = 0.00452 -0.02520
# Poissons Ratio (z) = 0.20865 -0.07141
#
# Static dielectric constant tensor:
#      x y z
#    x 2.200300 0.000000 -0.325000 
#    y 0.000000 2.348480 0.000000 
#    z -0.325000 0.000000 2.333700 
# 
# From -- ./inp_files/2015.got.cif
#   From: 2010.05.17/outbox.cif.g08.bks.cpg/sg10_2_cif.got.tgz:2015.got - 2010.06.03 11:33:40.
