data_PCOD9154038
_publ_section_title
;
Structure prediction by ZEFSAII (Michael W. Deem and Ramdas Pophale) SiO2 
 PCOD9154038
Probable space group: P 2/M
;
_chemical_formula_sum "Si O2"
_cell_formula_units_Z 28
_cell_length_a 15.278916
_cell_length_b 8.727410
_cell_length_c 11.909491
_cell_angle_alpha 90.000000
_cell_angle_beta 62.395899
_cell_angle_gamma 90.000000
_cell_volume 1407.305452
_symmetry_space_group_name_H-M "P 2/M"
_symmetry_group_IT_number 10
_symmetry_cell_setting 'monoclinic'
loop_
_space_group_symop_operation_xyz
x,y,z
-x,y,-z
-x,-y,-z
x,-y,z
loop_
_atom_site_type_symbol
_atom_site_label
_atom_site_fract_x
_atom_site_fract_y
_atom_site_fract_z
Si Si1 0.615883 0.681051 0.432074
Si Si2 0.681925 0.679292 0.137143
Si Si3 0.181389 0.818421 0.113226
Si Si4 0.295539 0.675863 0.240504
Si Si5 0.997296 0.815325 0.370799
Si Si6 0.507080 0.171725 0.861487
Si Si7 0.221856 0.819085 0.502438
O O1 0.500000 0.729426 0.500000
O O2 0.616292 0.500000 0.462453
O O3 0.664327 0.696800 0.280150
O O4 0.687244 0.771073 0.473708
O O5 0.670332 0.500000 0.116352
O O6 0.594221 0.774793 0.132146
O O7 0.783860 0.738314 0.022115
O O8 0.267216 0.781970 0.152769
O O9 0.083286 0.759553 0.236109
O O10 0.173765 0.000000 0.099363
O O11 0.283984 0.500000 0.215298
O O12 0.405888 0.710673 0.216354
O O13 0.228457 0.724673 0.383798
O O14 0.888121 0.787587 0.386264
O O15 0.000000 0.761718 0.500000
O O16 0.011863 0.000000 0.368521
O O17 0.533166 0.000000 0.807654
O O18 0.500000 0.170239 0.000000
O O19 0.227147 0.000000 0.473624
#
# Coordination Sequence:
#
# PCOD9154038 Si02
#       7
#     4   4   4   4   4   4   4
#     4  10  23  44  65  87 120 163 205 248 304 367
#     4  11  23  39  60  87 123 161 199 251 312 366
#     4  11  21  37  60  86 120 159 201 248 299 360
#     4  12  23  35  55  86 124 159 195 243 305 367
#     4   9  18  36  61  89 123 159 200 252 307 356
#     4  11  22  35  55  84 117 154 198 246 296 357
#     4  11  22  39  65  92 118 156 207 257 304 356
#
# _framework density 19.896177000000002
#
# number of rings (size 3 to 8) (size 9 to 14) (size 15 to 20)
#    0.000    1.286    2.857    3.857    0.000    3.143 
#    0.000    4.286    0.000    4.286    0.000    0.000 
#    0.000    0.000    0.000    0.000    0.000    0.000 
#
# Total GULP energy -156339.344090 kJ/mol
# GULP energy per Si atom -5583.548003 kJ/mol
# Density = 1.985089 g / cm^3
# Si number density = 19.896177 Si / 1000 Ang^3
#
#
#
# Elastic Constant Matrix: (Units=GPa)
#
#
# Indices 1 2 3 4 5 6 
#
# 1 63.8779 3.7091 19.5032 0.0000 -19.2828 0.0000
# 2 3.7091 41.7309 15.9484 0.0000 1.2503 0.0000
# 3 19.5032 15.9484 98.5608 0.0000 -25.6528 0.0000
# 4 0.0000 0.0000 0.0000 30.9166 0.0000 -2.4302
# 5 -19.2828 1.2503 -25.6528 0.0000 33.3813 0.0000
# 6 0.0000 0.0000 0.0000 -2.4302 0.0000 -11.4566
#
#
#
# Elastic Compliance Matrix: (Units=1/GPa)
#
#
# Indices 1 2 3 4 5 6 
#
# 1 0.019175 -0.001726 -0.000769 0.000000 0.010550 0.000000
# 2 -0.001726 0.026431 -0.005566 0.000000 -0.006264 0.000000
# 3 -0.000769 -0.005566 0.013922 0.000000 0.010463 0.000000
# 4 0.000000 0.000000 0.000000 0.031815 0.000000 -0.006749
# 5 0.010550 -0.006264 0.010463 0.000000 0.044326 0.000000
# 6 0.000000 0.000000 0.000000 -0.006749 0.000000 -0.085855
#
#
# Mechanical properties :
#
#
# Convention : Reuss Voigt Hill
#
# Bulk Modulus (GPa) = 23.03857 31.38788 27.21323
# Shear Modulus (GPa) = 62.18494 21.56887 41.87690
#
# Velocity S-wave (km/s) = 5.59666 3.29610 4.59276
# Velocity P-wave (km/s) = 7.30534 5.50416 6.46775
#
# Compressibility (1/GPa) = 0.04340547
#
# Stress axis : x y z
#
# Youngs Moduli (GPa) = 52.15225 37.83393 71.82844
#
# Poissons Ratio (x) = 0.06532 0.05524
# Poissons Ratio (y) = 0.09004 0.39978
# Poissons Ratio (z) = 0.04011 0.21057
#
# Static dielectric constant tensor:
#      x y z
#    x 1.703430 0.000000 -0.039680 
#    y 0.000000 1.679210 0.000000 
#    z -0.039680 0.000000 1.760110 
# 
# From -- ./inp_files/49633.got.cif
#   From: 2010.05.17/outbox.cif.g08.bks.cpg/sg10_25_cif.got.tgz:49633.got - 2010.06.03 11:33:40.
