data_PCOD9154476
_publ_section_title
;
Structure prediction by ZEFSAII (Michael W. Deem and Ramdas Pophale) SiO2 
 PCOD9154476
Probable space group: P 2/M
;
_chemical_formula_sum "Si O2"
_cell_formula_units_Z 24
_cell_length_a 12.363800
_cell_length_b 7.508939
_cell_length_c 18.832656
_cell_angle_alpha 90.000000
_cell_angle_beta 48.965930
_cell_angle_gamma 90.000000
_cell_volume 1318.855939
_symmetry_space_group_name_H-M "P 2/M"
_symmetry_group_IT_number 10
_symmetry_cell_setting 'monoclinic'
loop_
_space_group_symop_operation_xyz
x,y,z
-x,y,-z
-x,-y,-z
x,-y,z
loop_
_atom_site_type_symbol
_atom_site_label
_atom_site_fract_x
_atom_site_fract_y
_atom_site_fract_z
Si Si1 0.516918 0.284645 0.107280
Si Si2 0.517512 0.500000 0.611484
Si Si3 0.425779 0.794551 0.298456
Si Si4 0.740480 0.500000 0.388510
Si Si5 0.891879 0.783579 0.608125
Si Si6 0.268520 0.284644 0.107280
Si Si7 0.022698 0.205448 0.701544
O O1 0.514764 0.500000 0.110394
O O2 0.518469 0.216861 0.186576
O O3 0.372118 0.227255 0.127881
O O4 0.649087 0.231145 0.000000
O O5 0.520860 0.670551 0.661531
O O6 0.655542 0.500000 0.499996
O O7 0.378901 0.500000 0.621103
O O8 0.268502 0.727196 0.341534
O O9 0.414173 0.000000 0.326096
O O10 0.843920 0.329449 0.338461
O O11 0.000000 0.727242 0.500000
O O12 0.951584 0.727194 0.658462
O O13 0.888913 0.000000 0.611092
O O14 0.264441 0.500000 0.110395
O O15 0.108379 0.216856 0.186576
O O16 0.066373 0.000000 0.673904
#
# Coordination Sequence:
#
# PCOD9154476 Si02
#       7
#     4   2   4   2   4   4   4
#     4   9  17  31  54  87 126 162 193 226 275 347
#     4  11  26  45  62  81 108 151 205 250 290 338
#     4  11  21  36  60  88 119 152 188 236 290 348
#     4  11  26  45  62  81 108 151 205 250 290 338
#     4   9  18  31  50  83 119 148 180 223 285 353
#     4   9  17  31  54  87 126 162 193 226 275 347
#     4  11  21  36  60  88 119 152 188 236 290 348
#
# _framework density 18.197590000000002
#
# number of rings (size 3 to 8) (size 9 to 14) (size 15 to 20)
#    0.000    2.000    3.333    2.000    0.000    4.000 
#    0.000    5.000    0.000    2.000    0.000    2.333 
#    0.000    0.000    0.000    0.000    0.000    0.000 
#
# Total GULP energy -134044.393716 kJ/mol
# GULP energy per Si atom -5585.183072 kJ/mol
# Density = 1.815617 g / cm^3
# Si number density = 18.197590 Si / 1000 Ang^3
#
#
#
# Elastic Constant Matrix: (Units=GPa)
#
#
# Indices 1 2 3 4 5 6 
#
# 1 90.5319 43.2214 58.7830 0.0000 -0.2297 0.0000
# 2 43.2214 95.8696 28.8868 0.0000 0.2209 0.0000
# 3 58.7830 28.8868 126.3432 0.0000 -0.3375 0.0000
# 4 0.0000 0.0000 0.0000 15.5629 0.0000 1.1046
# 5 -0.2297 0.2209 -0.3375 0.0000 23.0519 0.0000
# 6 0.0000 0.0000 0.0000 1.1046 0.0000 87.0849
#
#
#
# Elastic Compliance Matrix: (Units=1/GPa)
#
#
# Indices 1 2 3 4 5 6 
#
# 1 0.018781 -0.006266 -0.007305 0.000000 0.000140 0.000000
# 2 -0.006266 0.013294 -0.000124 0.000000 -0.000192 0.000000
# 3 -0.007305 -0.000124 0.011342 0.000000 0.000094 0.000000
# 4 0.000000 0.000000 0.000000 0.064313 0.000000 -0.000816
# 5 0.000140 -0.000192 0.000094 0.000000 0.043385 0.000000
# 6 0.000000 0.000000 0.000000 -0.000816 0.000000 0.011493
#
#
# Mechanical properties :
#
#
# Convention : Reuss Voigt Hill
#
# Bulk Modulus (GPa) = 62.40022 63.83636 63.11829
# Shear Modulus (GPa) = 25.59606 37.26353 31.42979
#
# Velocity S-wave (km/s) = 3.75449 4.53008 4.16040
# Velocity P-wave (km/s) = 7.29107 7.90683 7.60518
#
# Compressibility (1/GPa) = 0.01602558
#
# Stress axis : x y z
#
# Youngs Moduli (GPa) = 53.24507 75.22254 88.16435
#
# Poissons Ratio (x) = 0.47137 0.64405
# Poissons Ratio (y) = 0.33365 0.01097
# Poissons Ratio (z) = 0.38896 0.00936
#
# Static dielectric constant tensor:
#      x y z
#    x 1.576590 0.000000 -0.001100 
#    y 0.000000 1.665690 0.000000 
#    z -0.001100 0.000000 1.647380 
# 
# From -- ./inp_files/51497.got.cif
#   From: 2010.05.17/outbox.cif.g08.bks.cpg/sg10_26_cif.got.tgz:51497.got - 2010.06.03 11:33:40.
