data_PCOD9154903
_publ_section_title
;
Structure prediction by ZEFSAII (Michael W. Deem and Ramdas Pophale) SiO2 
 PCOD9154903
Probable space group: P 2/M
;
_chemical_formula_sum "Si O2"
_cell_formula_units_Z 28
_cell_length_a 18.022323
_cell_length_b 7.288856
_cell_length_c 7.889999
_cell_angle_alpha 90.000000
_cell_angle_beta 109.409034
_cell_angle_gamma 90.000000
_cell_volume 977.545975
_symmetry_space_group_name_H-M "P 2/M"
_symmetry_group_IT_number 10
_symmetry_cell_setting 'monoclinic'
loop_
_space_group_symop_operation_xyz
x,y,z
-x,y,-z
-x,-y,-z
x,-y,z
loop_
_atom_site_type_symbol
_atom_site_label
_atom_site_fract_x
_atom_site_fract_y
_atom_site_fract_z
Si Si1 0.662195 0.774922 0.605898
Si Si2 0.762804 0.222947 0.356247
Si Si3 0.805377 0.790613 0.911515
Si Si4 0.087217 0.220543 0.697794
Si Si5 0.482962 0.778728 0.709086
Si Si6 0.622157 0.220817 0.032665
Si Si7 0.055827 0.714630 0.195251
O O1 0.714515 0.719815 0.482962
O O2 0.719898 0.714264 0.800673
O O3 0.573765 0.717478 0.487945
O O4 0.659945 0.000000 0.613047
O O5 0.852456 0.285614 0.401853
O O6 0.762657 0.000000 0.358722
O O7 0.708921 0.280585 0.154724
O O8 0.859082 0.796767 0.781292
O O9 0.791926 0.000000 0.955145
O O10 0.863183 0.713672 0.098270
O O11 0.996973 0.263431 0.676046
O O12 0.086963 0.000000 0.687710
O O13 0.569080 0.712812 0.834868
O O14 0.489495 0.000000 0.694762
O O15 0.430001 0.746233 0.837439
O O16 0.625742 0.000000 0.015605
O O17 0.066443 0.500000 0.178219
O O18 0.000000 0.788711 0.000000
#
# Coordination Sequence:
#
# PCOD9154903 Si02
#       7
#     4   4   4   4   4   4   4
#     4   8  13  21  34  53  76 101 128 155 183 219
#     4   8  13  21  34  53  76 101 128 155 183 219
#     4   9  16  26  41  59  77  97 123 156 191 223
#     4   9  16  26  41  59  77  97 123 156 191 223
#     4   7   9  14  26  45  69  97 127 154 177 206
#     4   7   9  14  26  45  69  97 127 154 177 206
#     4   9  17  29  44  59  74  96 128 159 184 220
#
# _framework density 28.643153999999999
#
# number of rings (size 3 to 8) (size 9 to 14) (size 15 to 20)
#    0.000    3.857    0.000    3.000    0.000    1.714 
#    0.000    0.714    0.000    6.000    0.000    6.000 
#    0.000    1.143    0.000   14.286    0.000   13.143 
#
# Total GULP energy -156464.271757 kJ/mol
# GULP energy per Si atom -5588.009706 kJ/mol
# Density = 2.857796 g / cm^3
# Si number density = 28.643154 Si / 1000 Ang^3
#
#
#
# Elastic Constant Matrix: (Units=GPa)
#
#
# Indices 1 2 3 4 5 6 
#
# 1 185.7911 -10.6180 35.7855 0.0000 52.3947 0.0000
# 2 -10.6180 123.4794 -8.5531 0.0000 6.9560 0.0000
# 3 35.7855 -8.5531 142.2564 0.0000 41.6425 0.0000
# 4 0.0000 0.0000 0.0000 -22.0992 0.0000 -18.6048
# 5 52.3947 6.9560 41.6425 0.0000 82.9543 0.0000
# 6 0.0000 0.0000 0.0000 -18.6048 0.0000 -40.7281
#
#
#
# Elastic Compliance Matrix: (Units=1/GPa)
#
#
# Indices 1 2 3 4 5 6 
#
# 1 0.006652 0.000769 -0.000444 0.000000 -0.004043 0.000000
# 2 0.000769 0.008306 0.000764 0.000000 -0.001566 0.000000
# 3 -0.000444 0.000764 0.008351 0.000000 -0.003976 0.000000
# 4 0.000000 0.000000 0.000000 -0.073527 0.000000 0.033588
# 5 -0.004043 -0.001566 -0.003976 0.000000 0.016736 0.000000
# 6 0.000000 0.000000 0.000000 0.033588 0.000000 -0.039896
#
#
# Mechanical properties :
#
#
# Convention : Reuss Voigt Hill
#
# Bulk Modulus (GPa) = 39.23338 53.86175 46.54756
# Shear Modulus (GPa) = -74.55767 33.01957 -20.76905
#
# Velocity S-wave (km/s) = -5.10748 3.39896 -2.69568
# Velocity P-wave (km/s) = 4.58855 5.85228 2.56850
#
# Compressibility (1/GPa) = 0.02548850
#
# Stress axis : x y z
#
# Youngs Moduli (GPa) = 150.33029 120.39774 119.74605
#
# Poissons Ratio (x) = -0.09259 0.05311
# Poissons Ratio (y) = -0.11561 -0.09152
# Poissons Ratio (z) = 0.06668 -0.09202
#
# Static dielectric constant tensor:
#      x y z
#    x 2.275880 0.000000 -0.082970 
#    y 0.000000 2.120460 0.000000 
#    z -0.082970 0.000000 2.291810 
# 
# From -- ./inp_files/35925.got.cif
#   From: 2010.05.17/outbox.cif.g08.bks.cpg/sg10_18_cif.got.tgz:35925.got - 2010.06.03 11:33:40.
