data_PCOD9154198
_publ_section_title
;
Structure prediction by ZEFSAII (Michael W. Deem and Ramdas Pophale) SiO2 
 PCOD9154198
Probable space group: P 2/M
;
_chemical_formula_sum "Si O2"
_cell_formula_units_Z 28
_cell_length_a 28.383868
_cell_length_b 11.671514
_cell_length_c 23.279617
_cell_angle_alpha 90.000000
_cell_angle_beta 167.810153
_cell_angle_gamma 90.000000
_cell_volume 1628.429512
_symmetry_space_group_name_H-M "P 2/M"
_symmetry_group_IT_number 10
_symmetry_cell_setting 'monoclinic'
loop_
_space_group_symop_operation_xyz
x,y,z
-x,y,-z
-x,-y,-z
x,-y,z
loop_
_atom_site_type_symbol
_atom_site_label
_atom_site_fract_x
_atom_site_fract_y
_atom_site_fract_z
Si Si1 0.292636 0.138929 0.291536
Si Si2 0.427997 0.365540 0.791530
Si Si3 0.783479 0.861204 0.667588
Si Si4 0.223789 0.000000 0.704644
Si Si5 0.973145 0.366980 0.314817
Si Si6 0.310794 0.000000 0.937626
Si Si7 0.809401 0.246990 0.320739
Si Si8 0.455310 0.225644 0.179227
O O1 0.500000 0.180044 0.500000
O O2 0.299999 0.170483 0.367724
O O3 0.297966 0.000000 0.296605
O O4 0.045153 0.171223 0.974685
O O5 0.481230 0.500000 0.857084
O O6 0.456963 0.316110 0.762684
O O7 0.176127 0.349654 0.512908
O O8 0.600271 0.300740 0.038764
O O9 0.632044 0.805551 0.438521
O O10 0.769772 0.000000 0.646567
O O11 0.260122 0.868899 0.728318
O O12 0.356288 0.000000 0.923626
O O13 0.955798 0.000000 0.381353
O O14 0.903548 0.500000 0.230563
O O15 0.077551 0.335836 0.501290
O O16 0.769173 0.280768 0.062447
O O17 0.396818 0.111593 0.073100
O O18 0.000000 0.217703 0.500000
#
# Coordination Sequence:
#
# PCOD9154198 Si02
#       8
#     4   4   4   2   4   2   4   4
#     4   8  15  31  52  79 113 148 180 206 242 310
#     4  11  24  39  54  75 103 140 190 241 283 322
#     4   9  18  30  53  82 113 149 176 207 258 320
#     4  11  16  32  53  76 103 147 188 215 265 338
#     4  11  24  39  54  75 103 140 190 241 283 322
#     4  11  18  34  52  75 108 148 176 223 270 328
#     4  12  19  34  58  76 101 139 185 233 286 330
#     4  12  21  36  57  78 112 145 180 221 279 326
#
# _framework density 17.194479999999999
#
# number of rings (size 3 to 8) (size 9 to 14) (size 15 to 20)
#    0.000    1.429    6.429    2.143    0.000    2.857 
#    0.000    3.571    0.000    0.000    0.000    8.000 
#    0.000   13.714    0.000    0.000    0.000    0.000 
#
# Total GULP energy -156109.527090 kJ/mol
# GULP energy per Si atom -5575.340253 kJ/mol
# Density = 1.715535 g / cm^3
# Si number density = 17.194480 Si / 1000 Ang^3
#
#
#
# Elastic Constant Matrix: (Units=GPa)
#
#
# Indices 1 2 3 4 5 6 
#
# 1 46.5818 8.9903 51.2101 0.0000 2.6731 0.0000
# 2 8.9903 60.4971 22.4722 0.0000 2.6464 0.0000
# 3 51.2101 22.4722 104.7962 0.0000 -12.4496 0.0000
# 4 0.0000 0.0000 0.0000 20.2912 0.0000 20.3395
# 5 2.6731 2.6464 -12.4496 0.0000 34.3379 0.0000
# 6 0.0000 0.0000 0.0000 20.3395 0.0000 50.6671
#
#
#
# Elastic Compliance Matrix: (Units=1/GPa)
#
#
# Indices 1 2 3 4 5 6 
#
# 1 0.052599 0.003270 -0.028132 0.000000 -0.014546 0.000000
# 2 0.003270 0.018445 -0.006011 0.000000 -0.003856 0.000000
# 3 -0.028132 -0.006011 0.026014 0.000000 0.012085 0.000000
# 4 0.000000 0.000000 0.000000 0.082466 0.000000 -0.033105
# 5 -0.014546 -0.003856 0.012085 0.000000 0.034933 0.000000
# 6 0.000000 0.000000 0.000000 -0.033105 0.000000 0.033026
#
#
# Mechanical properties :
#
#
# Convention : Reuss Voigt Hill
#
# Bulk Modulus (GPa) = 28.31983 41.91334 35.11659
# Shear Modulus (GPa) = 15.57620 29.67273 22.62446
#
# Velocity S-wave (km/s) = 3.01306 4.15868 3.63133
# Velocity P-wave (km/s) = 5.34890 6.89118 6.16843
#
# Compressibility (1/GPa) = 0.03531094
#
# Stress axis : x y z
#
# Youngs Moduli (GPa) = 19.01178 54.21403 38.44029
#
# Poissons Ratio (x) = -0.17727 1.08142
# Poissons Ratio (y) = -0.06217 0.23107
# Poissons Ratio (z) = 0.53485 0.32589
#
# Static dielectric constant tensor:
#      x y z
#    x 1.614340 0.000000 0.045810 
#    y 0.000000 1.594420 0.000000 
#    z 0.045810 0.000000 1.575040 
# 
# From -- ./inp_files/91457.got.cif
#   From: 2010.05.17/outbox.cif.g08.bks.cpg/sg10_46_cif.got.tgz:91457.got - 2010.06.03 11:33:40.
