data_PCOD9154566
_publ_section_title
;
Structure prediction by ZEFSAII (Michael W. Deem and Ramdas Pophale) SiO2 
 PCOD9154566
Probable space group: P 2/M
;
_chemical_formula_sum "Si O2"
_cell_formula_units_Z 28
_cell_length_a 12.401188
_cell_length_b 13.925110
_cell_length_c 9.989566
_cell_angle_alpha 90.000000
_cell_angle_beta 65.232114
_cell_angle_gamma 90.000000
_cell_volume 1566.391593
_symmetry_space_group_name_H-M "P 2/M"
_symmetry_group_IT_number 10
_symmetry_cell_setting 'monoclinic'
loop_
_space_group_symop_operation_xyz
x,y,z
-x,y,-z
-x,-y,-z
x,-y,z
loop_
_atom_site_type_symbol
_atom_site_label
_atom_site_fract_x
_atom_site_fract_y
_atom_site_fract_z
Si Si1 0.628889 0.114174 0.220299
Si Si2 0.839634 0.389008 0.449555
Si Si3 0.882634 0.389267 0.744529
Si Si4 0.773559 0.203131 0.906142
Si Si5 0.015441 0.114166 0.836706
Si Si6 0.256097 0.804775 0.587299
Si Si7 0.358275 0.887948 0.266236
O O1 0.646847 0.159746 0.356633
O O2 0.495760 0.123988 0.234703
O O3 0.658097 0.000000 0.209248
O O4 0.717082 0.169276 0.074525
O O5 0.806925 0.500000 0.440892
O O6 0.846869 0.375615 0.606912
O O7 0.754511 0.308996 0.431804
O O8 0.974728 0.374610 0.326198
O O9 0.858935 0.500000 0.792216
O O10 0.812780 0.313348 0.870715
O O11 0.681180 0.174439 0.839253
O O12 0.895646 0.144221 0.823560
O O13 0.130187 0.161246 0.711659
O O14 0.030126 0.000000 0.827051
O O15 0.000000 0.144504 0.000000
O O16 0.281834 0.856050 0.433587
O O17 0.339098 0.000000 0.244281
#
# Coordination Sequence:
#
# PCOD9154566 Si02
#       7
#     4   4   4   4   4   4   4
#     4  11  24  41  58  79 120 169 199 228 288 352
#     4   9  18  35  58  86 118 151 188 236 299 357
#     4   9  18  35  58  86 118 151 188 236 299 357
#     4  12  21  37  61  86 117 153 195 242 289 346
#     4  11  22  35  54  85 126 160 179 225 308 367
#     4  12  21  37  61  86 117 153 195 242 289 346
#     4  11  24  39  58  85 114 155 211 248 270 332
#
# _framework density 17.875478000000001
#
# number of rings (size 3 to 8) (size 9 to 14) (size 15 to 20)
#    0.000    1.286    4.286    4.286    0.000    2.857 
#    0.000    2.143    0.000    7.714    0.000    0.000 
#    0.000    0.000    0.000    0.000    0.000    0.000 
#
# Total GULP energy -156390.618527 kJ/mol
# GULP energy per Si atom -5585.379233 kJ/mol
# Density = 1.783479 g / cm^3
# Si number density = 17.875478 Si / 1000 Ang^3
#
#
#
# Elastic Constant Matrix: (Units=GPa)
#
#
# Indices 1 2 3 4 5 6 
#
# 1 45.8469 21.7270 -6.9902 0.0000 4.1387 0.0000
# 2 21.7270 96.0873 13.3342 0.0000 -5.5459 0.0000
# 3 -6.9902 13.3342 40.7760 0.0000 -4.9259 0.0000
# 4 0.0000 0.0000 0.0000 14.7666 0.0000 6.5532
# 5 4.1387 -5.5459 -4.9259 0.0000 26.7167 0.0000
# 6 0.0000 0.0000 0.0000 6.5532 0.0000 19.3921
#
#
#
# Elastic Compliance Matrix: (Units=1/GPa)
#
#
# Indices 1 2 3 4 5 6 
#
# 1 0.026566 -0.007145 0.006356 0.000000 -0.004427 0.000000
# 2 -0.007145 0.012894 -0.005098 0.000000 0.002843 0.000000
# 3 0.006356 -0.005098 0.027650 0.000000 0.003055 0.000000
# 4 0.000000 0.000000 0.000000 0.079668 0.000000 -0.026922
# 5 -0.004427 0.002843 0.003055 0.000000 0.039269 0.000000
# 6 0.000000 0.000000 0.000000 -0.026922 0.000000 0.060665
#
#
# Mechanical properties :
#
#
# Convention : Reuss Voigt Hill
#
# Bulk Modulus (GPa) = 18.07101 26.53911 22.30506
# Shear Modulus (GPa) = 18.05500 22.48436 20.26968
#
# Velocity S-wave (km/s) = 3.18157 3.55044 3.37105
# Velocity P-wave (km/s) = 4.86084 5.62907 5.25900
#
# Compressibility (1/GPa) = 0.05533725
#
# Stress axis : x y z
#
# Youngs Moduli (GPa) = 37.64183 77.55389 36.16644
#
# Poissons Ratio (x) = 0.55409 -0.22987
# Poissons Ratio (y) = 0.26893 0.18437
# Poissons Ratio (z) = -0.23925 0.39536
#
# Static dielectric constant tensor:
#      x y z
#    x 1.619730 0.000000 0.011920 
#    y 0.000000 1.596580 0.000000 
#    z 0.011920 0.000000 1.612640 
# 
# From -- ./inp_files/25057.got.cif
#   From: 2010.05.17/outbox.cif.g08.bks.cpg/sg10_13_cif.got.tgz:25057.got - 2010.06.03 11:33:40.
