data_PCOD9154152
_publ_section_title
;
Structure prediction by ZEFSAII (Michael W. Deem and Ramdas Pophale) SiO2 
 PCOD9154152
Probable space group: P 2/M
;
_chemical_formula_sum "Si O2"
_cell_formula_units_Z 32
_cell_length_a 7.398008
_cell_length_b 16.947782
_cell_length_c 11.363971
_cell_angle_alpha 90.000000
_cell_angle_beta 112.397593
_cell_angle_gamma 90.000000
_cell_volume 1317.327754
_symmetry_space_group_name_H-M "P 2/M"
_symmetry_group_IT_number 10
_symmetry_cell_setting 'monoclinic'
loop_
_space_group_symop_operation_xyz
x,y,z
-x,y,-z
-x,-y,-z
x,-y,z
loop_
_atom_site_type_symbol
_atom_site_label
_atom_site_fract_x
_atom_site_fract_y
_atom_site_fract_z
Si Si1 0.154560 0.674793 0.943766
Si Si2 0.920157 0.409345 0.300702
Si Si3 0.388588 0.909888 0.357449
Si Si4 0.984802 0.146667 0.136044
Si Si5 0.334495 0.333896 0.387943
Si Si6 0.597401 0.910518 0.171883
Si Si7 0.197264 0.738044 0.582842
Si Si8 0.459374 0.753105 0.176129
O O1 0.190702 0.617187 0.844851
O O2 0.057792 0.758592 0.878340
O O3 0.353412 0.697264 0.058342
O O4 0.000000 0.641519 0.000000
O O5 0.896276 0.500000 0.323851
O O6 0.850371 0.351349 0.386037
O O7 0.143030 0.386168 0.325322
O O8 0.500000 0.879377 0.500000
O O9 0.563682 0.910711 0.304893
O O10 0.194089 0.869161 0.253380
O O11 0.327288 0.000000 0.365555
O O12 0.808107 0.104827 0.163609
O O13 0.000000 0.123066 0.000000
O O14 0.500000 0.382578 0.500000
O O15 0.292646 0.270497 0.479880
O O16 0.387014 0.287660 0.281511
O O17 0.441383 0.839397 0.109128
O O18 0.535964 0.000000 0.125949
O O19 0.317082 0.764332 0.725841
O O20 0.000000 0.782953 0.500000
#
# Coordination Sequence:
#
# PCOD9154152 Si02
#       8
#     4   4   4   4   4   4   4   4
#     4  11  23  43  69  97 135 184 243 294 359 431
#     4  11  23  41  67 103 147 181 225 298 366 433
#     4  10  24  46  70 104 148 193 242 308 388 453
#     4  11  25  46  75 105 144 197 257 316 368 452
#     4   9  20  40  69 100 131 182 237 282 349 428
#     4  11  25  45  72 108 147 191 247 315 388 440
#     4   9  21  41  68 102 133 180 236 283 351 431
#     4  11  22  45  70  99 138 185 243 302 348 434
#
# _framework density 24.291598
#
# number of rings (size 3 to 8) (size 9 to 14) (size 15 to 20)
#    0.000    1.625    1.250    2.625    0.000    9.250 
#    4.500    9.375    0.000    0.375    0.000    0.000 
#    0.000    0.000    0.000    0.000    0.000    0.000 
#
# Total GULP energy -178248.752365 kJ/mol
# GULP energy per Si atom -5570.273511 kJ/mol
# Density = 2.423631 g / cm^3
# Si number density = 24.291598 Si / 1000 Ang^3
#
#
#
# Elastic Constant Matrix: (Units=GPa)
#
#
# Indices 1 2 3 4 5 6 
#
# 1 111.9401 12.2262 73.0336 0.0000 -13.3823 0.0000
# 2 12.2262 101.4280 32.8617 0.0000 -0.5053 0.0000
# 3 73.0336 32.8617 190.9052 0.0000 11.4790 0.0000
# 4 0.0000 0.0000 0.0000 14.4237 0.0000 0.1411
# 5 -13.3823 -0.5053 11.4790 0.0000 58.3368 0.0000
# 6 0.0000 0.0000 0.0000 0.1411 0.0000 18.2243
#
#
#
# Elastic Compliance Matrix: (Units=1/GPa)
#
#
# Indices 1 2 3 4 5 6 
#
# 1 0.012738 0.000148 -0.005135 0.000000 0.003934 0.000000
# 2 0.000148 0.010455 -0.001886 0.000000 0.000496 0.000000
# 3 -0.005135 -0.001886 0.007690 0.000000 -0.002707 0.000000
# 4 0.000000 0.000000 0.000000 0.069335 0.000000 -0.000537
# 5 0.003934 0.000496 -0.002707 0.000000 0.018581 0.000000
# 6 0.000000 0.000000 0.000000 -0.000537 0.000000 0.054876
#
#
# Mechanical properties :
#
#
# Convention : Reuss Voigt Hill
#
# Bulk Modulus (GPa) = 58.35518 71.16848 64.76183
# Shear Modulus (GPa) = 25.88880 37.27377 31.58128
#
# Velocity S-wave (km/s) = 3.26813 3.92143 3.60959
# Velocity P-wave (km/s) = 6.18998 7.06149 6.64005
#
# Compressibility (1/GPa) = 0.01713644
#
# Stress axis : x y z
#
# Youngs Moduli (GPa) = 78.50705 95.64880 130.03696
#
# Poissons Ratio (x) = -0.01414 0.66774
# Poissons Ratio (y) = -0.01161 0.24525
# Poissons Ratio (z) = 0.40313 0.18040
#
# Static dielectric constant tensor:
#      x y z
#    x 2.187580 0.000000 0.075500 
#    y 0.000000 1.983590 0.000000 
#    z 0.075500 0.000000 2.032680 
# 
# From -- ./inp_files/43424.got.cif
#   From: 2010.05.17/outbox.cif.g08.bks.cpg/sg10_22_cif.got.tgz:43424.got - 2010.06.03 11:33:40.
