data_PCOD9154258
_publ_section_title
;
Structure prediction by ZEFSAII (Michael W. Deem and Ramdas Pophale) SiO2 
 PCOD9154258
Probable space group: P 2/M
;
_chemical_formula_sum "Si O2"
_cell_formula_units_Z 32
_cell_length_a 7.528452
_cell_length_b 14.945371
_cell_length_c 28.573389
_cell_angle_alpha 90.000000
_cell_angle_beta 146.740717
_cell_angle_gamma 90.000000
_cell_volume 1763.170564
_symmetry_space_group_name_H-M "P 2/M"
_symmetry_group_IT_number 10
_symmetry_cell_setting 'monoclinic'
loop_
_space_group_symop_operation_xyz
x,y,z
-x,y,-z
-x,-y,-z
x,-y,z
loop_
_atom_site_type_symbol
_atom_site_label
_atom_site_fract_x
_atom_site_fract_y
_atom_site_fract_z
Si Si1 0.203558 0.397350 0.971229
Si Si2 0.249310 0.600570 0.293313
Si Si3 0.505425 0.098648 0.920377
Si Si4 0.424384 0.284626 0.190583
Si Si5 0.342301 0.287030 0.864115
Si Si6 0.156851 0.601752 0.648473
Si Si7 0.711065 0.391178 0.470854
Si Si8 0.188715 0.098858 0.117738
O O1 0.126583 0.500000 0.967414
O O2 0.891186 0.348461 0.881222
O O3 0.500000 0.399887 0.000000
O O4 0.355895 0.338416 0.046147
O O5 0.118312 0.500000 0.270771
O O6 0.566781 0.594774 0.330831
O O7 0.377265 0.636016 0.371910
O O8 0.986684 0.657591 0.208057
O O9 0.303338 0.189389 0.878372
O O10 0.651433 0.099616 0.899420
O O11 0.357140 0.000000 0.894961
O O12 0.807384 0.107746 0.022302
O O13 0.569367 0.280898 0.170646
O O14 0.692761 0.328787 0.282468
O O15 0.315063 0.182436 0.175178
O O16 0.112795 0.500000 0.657668
O O17 0.832301 0.630919 0.549570
O O18 0.706444 0.500000 0.468493
O O19 0.000000 0.360345 0.500000
O O20 0.251135 0.000000 0.151318
#
# Coordination Sequence:
#
# PCOD9154258 Si02
#       8
#     4   4   4   4   4   4   4   4
#     4  11  23  35  44  57  86 128 161 179 204 253
#     4   9  17  30  47  66  90 121 153 182 215 260
#     4   8  14  27  46  64  83 111 147 183 220 264
#     4  11  20  30  46  69  91 114 146 186 227 263
#     4  11  20  30  46  69  91 114 146 186 227 263
#     4   9  17  30  47  66  90 121 153 182 215 260
#     4   7  12  26  47  65  82 113 156 188 209 249
#     4   8  14  27  46  64  83 111 147 183 220 264
#
# _framework density 18.149122999999999
#
# number of rings (size 3 to 8) (size 9 to 14) (size 15 to 20)
#    0.000    2.750    1.250    4.125    0.000    4.500 
#    0.000    0.625    0.000    6.000    0.000    0.875 
#    0.000    7.000    0.000    0.000    0.000    0.000 
#
# Total GULP energy -178393.100869 kJ/mol
# GULP energy per Si atom -5574.784402 kJ/mol
# Density = 1.810782 g / cm^3
# Si number density = 18.149123 Si / 1000 Ang^3
#
#
#
# Elastic Constant Matrix: (Units=GPa)
#
#
# Indices 1 2 3 4 5 6 
#
# 1 28.7959 8.3495 11.2805 0.0000 1.9957 0.0000
# 2 8.3495 133.0082 62.1326 0.0000 -10.8891 0.0000
# 3 11.2805 62.1326 103.5779 0.0000 -13.6983 0.0000
# 4 0.0000 0.0000 0.0000 2.1294 0.0000 -7.0965
# 5 1.9957 -10.8891 -13.6983 0.0000 27.2085 0.0000
# 6 0.0000 0.0000 0.0000 -7.0965 0.0000 7.8196
#
#
#
# Elastic Compliance Matrix: (Units=1/GPa)
#
#
# Indices 1 2 3 4 5 6 
#
# 1 0.036970 -0.000755 -0.004255 0.000000 -0.005156 0.000000
# 2 -0.000755 0.010491 -0.006052 0.000000 0.001207 0.000000
# 3 -0.004255 -0.006052 0.014430 0.000000 0.005155 0.000000
# 4 0.000000 0.000000 0.000000 -0.231970 0.000000 -0.210519
# 5 -0.005156 0.001207 0.005155 0.000000 0.040210 0.000000
# 6 0.000000 0.000000 0.000000 -0.210519 0.000000 -0.063169
#
#
# Mechanical properties :
#
#
# Convention : Reuss Voigt Hill
#
# Bulk Modulus (GPa) = 25.14596 47.65635 36.40116
# Shear Modulus (GPa) = -31.71433 19.67279 -6.02077
#
# Velocity S-wave (km/s) = -4.18476 3.29592 -1.82335
# Velocity P-wave (km/s) = 3.07642 6.38743 3.95821
#
# Compressibility (1/GPa) = 0.03976782
#
# Stress axis : x y z
#
# Youngs Moduli (GPa) = 27.04861 95.31568 69.30082
#
# Poissons Ratio (x) = 0.07197 0.29490
# Poissons Ratio (y) = 0.02042 0.41937
# Poissons Ratio (z) = 0.11510 0.57680
#
# Static dielectric constant tensor:
#      x y z
#    x 1.728460 0.000000 -0.012140 
#    y 0.000000 1.635850 0.000000 
#    z -0.012140 0.000000 1.647980 
# 
# From -- ./inp_files/29100.got.cif
#   From: 2010.05.17/outbox.cif.g08.bks.cpg/sg10_15_cif.got.tgz:29100.got - 2010.06.03 11:33:40.
