data_PCOD9154220
_publ_section_title
;
Structure prediction by ZEFSAII (Michael W. Deem and Ramdas Pophale) SiO2 
 PCOD9154220
Probable space group: P 2/M
;
_chemical_formula_sum "Si O2"
_cell_formula_units_Z 32
_cell_length_a 31.739267
_cell_length_b 8.513755
_cell_length_c 15.381821
_cell_angle_alpha 90.000000
_cell_angle_beta 151.232003
_cell_angle_gamma 90.000000
_cell_volume 2000.365192
_symmetry_space_group_name_H-M "P 2/M"
_symmetry_group_IT_number 10
_symmetry_cell_setting 'monoclinic'
loop_
_space_group_symop_operation_xyz
x,y,z
-x,y,-z
-x,-y,-z
x,-y,z
loop_
_atom_site_type_symbol
_atom_site_label
_atom_site_fract_x
_atom_site_fract_y
_atom_site_fract_z
Si Si1 0.943430 0.814865 0.276071
Si Si2 0.078192 0.688078 0.950186
Si Si3 0.877996 0.688646 0.633986
Si Si4 0.802629 0.189119 0.679554
Si Si5 0.755306 0.188412 0.257064
Si Si6 0.417930 0.191213 0.965360
Si Si7 0.610501 0.808957 0.286354
Si Si8 0.874584 0.314774 0.325400
O O1 0.906825 0.760084 0.117719
O O2 0.882263 0.771324 0.246877
O O3 0.035752 0.728385 0.461334
O O4 0.960340 0.000000 0.306275
O O5 0.082656 0.500000 0.953098
O O6 0.979164 0.731048 0.799798
O O7 0.145511 0.749158 0.143562
O O8 0.870390 0.500000 0.616128
O O9 0.847312 0.748168 0.672343
O O10 0.817475 0.762592 0.449824
O O11 0.700928 0.241469 0.493232
O O12 0.805095 0.000000 0.682595
O O13 0.657221 0.242067 0.104399
O O14 0.795128 0.261217 0.242098
O O15 0.756559 0.000000 0.252142
O O16 0.391259 0.237263 0.818690
O O17 0.417957 0.000000 0.966391
O O18 0.518126 0.243164 0.160288
O O19 0.609972 0.000000 0.286332
O O20 0.872666 0.500000 0.307510
#
# Coordination Sequence:
#
# PCOD9154220 Si02
#       8
#     4   4   4   4   4   4   4   4
#     4  11  21  35  54  75  96 126 171 214 241 284
#     4  11  23  37  50  68  99 138 171 205 253 300
#     4  11  22  34  47  66 100 139 172 205 247 296
#     4  11  21  33  51  73  97 131 176 216 243 287
#     4  11  19  30  51  77 100 130 170 208 242 291
#     4   8  14  26  47  72  99 127 160 206 253 293
#     4   8  14  27  46  71  98 127 163 206 254 291
#     4  11  21  34  51  73 104 135 159 197 255 306
#
# _framework density 15.997078
#
# number of rings (size 3 to 8) (size 9 to 14) (size 15 to 20)
#    0.000    1.750    2.500    5.625    0.000    3.000 
#    0.000    0.000    0.000    3.750    0.000    0.875 
#    0.000    7.000    0.000    0.000    0.000    0.000 
#
# Total GULP energy -178618.746318 kJ/mol
# GULP energy per Si atom -5581.835822 kJ/mol
# Density = 1.596067 g / cm^3
# Si number density = 15.997078 Si / 1000 Ang^3
#
#
#
# Elastic Constant Matrix: (Units=GPa)
#
#
# Indices 1 2 3 4 5 6 
#
# 1 100.4351 -1.4952 46.8571 0.0000 11.7829 0.0000
# 2 -1.4952 27.4133 4.9479 0.0000 1.3003 0.0000
# 3 46.8571 4.9479 75.4108 0.0000 6.6241 0.0000
# 4 0.0000 0.0000 0.0000 23.1798 0.0000 -11.8460
# 5 11.7829 1.3003 6.6241 0.0000 24.1528 0.0000
# 6 0.0000 0.0000 0.0000 -11.8460 0.0000 17.7562
#
#
#
# Elastic Compliance Matrix: (Units=1/GPa)
#
#
# Indices 1 2 3 4 5 6 
#
# 1 0.014715 0.002638 -0.008888 0.000000 -0.004883 0.000000
# 2 0.002638 0.037432 -0.003899 0.000000 -0.002233 0.000000
# 3 -0.008888 -0.003899 0.019100 0.000000 -0.000692 0.000000
# 4 0.000000 0.000000 0.000000 0.065459 0.000000 0.043670
# 5 -0.004883 -0.002233 -0.000692 0.000000 0.044096 0.000000
# 6 0.000000 0.000000 0.000000 0.043670 0.000000 0.085453
#
#
# Mechanical properties :
#
#
# Convention : Reuss Voigt Hill
#
# Bulk Modulus (GPa) = 19.62696 33.76433 26.69565
# Shear Modulus (GPa) = 16.47257 23.21438 19.84347
#
# Velocity S-wave (km/s) = 3.21241 3.81355 3.52581
# Velocity P-wave (km/s) = 5.10443 6.36736 5.77055
#
# Compressibility (1/GPa) = 0.05095032
#
# Stress axis : x y z
#
# Youngs Moduli (GPa) = 67.95636 26.71492 52.35657
#
# Poissons Ratio (x) = -0.07049 0.46533
# Poissons Ratio (y) = -0.17930 0.20415
# Poissons Ratio (z) = 0.60397 0.10417
#
# Static dielectric constant tensor:
#      x y z
#    x 1.533390 0.000000 0.023670 
#    y 0.000000 1.541890 0.000000 
#    z 0.023670 0.000000 1.524050 
# 
# From -- ./inp_files/72562.got.cif
#   From: 2010.05.17/outbox.cif.g08.bks.cpg/sg10_37_cif.got.tgz:72562.got - 2010.06.03 11:33:40.
