data_PCOD9154041
_publ_section_title
;
Structure prediction by ZEFSAII (Michael W. Deem and Ramdas Pophale) SiO2 
 PCOD9154041
Probable space group: P 2/M
;
_chemical_formula_sum "Si O2"
_cell_formula_units_Z 28
_cell_length_a 11.408323
_cell_length_b 8.656090
_cell_length_c 15.219135
_cell_angle_alpha 90.000000
_cell_angle_beta 113.064745
_cell_angle_gamma 90.000000
_cell_volume 1382.773290
_symmetry_space_group_name_H-M "P 2/M"
_symmetry_group_IT_number 10
_symmetry_cell_setting 'monoclinic'
loop_
_space_group_symop_operation_xyz
x,y,z
-x,y,-z
-x,-y,-z
x,-y,z
loop_
_atom_site_type_symbol
_atom_site_label
_atom_site_fract_x
_atom_site_fract_y
_atom_site_fract_z
Si Si1 0.560542 0.319948 0.377490
Si Si2 0.701266 0.681228 0.592670
Si Si3 0.046016 0.821389 0.276050
Si Si4 0.335180 0.177730 0.750509
Si Si5 0.647751 0.316427 0.054408
Si Si6 0.091301 0.679383 0.606058
Si Si7 0.905315 0.183446 0.049958
O O1 0.584463 0.500000 0.363568
O O2 0.427665 0.311005 0.389359
O O3 0.664945 0.272601 0.482089
O O4 0.555492 0.228318 0.284941
O O5 0.740838 0.500000 0.601563
O O6 0.805397 0.786354 0.669745
O O7 0.984091 0.704098 0.326250
O O8 0.985741 0.795931 0.163164
O O9 0.018571 0.000000 0.292293
O O10 0.322651 0.275116 0.835546
O O11 0.213051 0.214660 0.654936
O O12 0.343206 0.000000 0.777648
O O13 0.646973 0.500000 0.041270
O O14 0.763053 0.250700 0.027409
O O15 0.500000 0.260178 0.000000
O O16 0.126135 0.500000 0.603945
O O17 0.000000 0.725949 0.500000
O O18 0.887508 0.000000 0.029552
O O19 0.000000 0.242365 0.000000
#
# Coordination Sequence:
#
# PCOD9154041 Si02
#       7
#     4   4   4   4   4   4   4
#     4   9  19  37  58  83 119 164 211 254 301 368
#     4   9  19  36  58  83 118 165 209 253 307 366
#     4  11  22  36  58  89 122 157 201 253 308 371
#     4  12  24  38  60  90 123 160 201 253 317 376
#     4  11  25  45  69  96 125 163 216 274 327 390
#     4  11  23  38  59  87 122 164 204 247 303 365
#     4  10  23  44  67  93 128 168 210 264 331 396
#
# _framework density 20.249161000000001
#
# number of rings (size 3 to 8) (size 9 to 14) (size 15 to 20)
#    0.000    1.571    1.429    4.286    0.000    8.857 
#    0.000    4.286    0.000    0.000    0.000    0.000 
#    0.000    0.000    0.000    0.000    0.000    0.000 
#
# Total GULP energy -156231.440522 kJ/mol
# GULP energy per Si atom -5579.694304 kJ/mol
# Density = 2.020307 g / cm^3
# Si number density = 20.249161 Si / 1000 Ang^3
#
#
#
# Elastic Constant Matrix: (Units=GPa)
#
#
# Indices 1 2 3 4 5 6 
#
# 1 121.9767 25.1440 44.5276 0.0000 -8.4025 0.0000
# 2 25.1440 23.7755 13.6277 0.0000 2.5398 0.0000
# 3 44.5276 13.6277 51.7461 0.0000 -4.9306 0.0000
# 4 0.0000 0.0000 0.0000 -60.2399 0.0000 -36.3370
# 5 -8.4025 2.5398 -4.9306 0.0000 31.7858 0.0000
# 6 0.0000 0.0000 0.0000 -36.3370 0.0000 8.6276
#
#
#
# Elastic Compliance Matrix: (Units=1/GPa)
#
#
# Indices 1 2 3 4 5 6 
#
# 1 0.013648 -0.009641 -0.008920 0.000000 0.002995 0.000000
# 2 -0.009641 0.057530 -0.007649 0.000000 -0.008332 0.000000
# 3 -0.008920 -0.007649 0.029281 0.000000 0.002795 0.000000
# 4 0.000000 0.000000 0.000000 -0.004689 0.000000 -0.019747
# 5 0.002995 -0.008332 0.002795 0.000000 0.033352 0.000000
# 6 0.000000 0.000000 0.000000 -0.019747 0.000000 0.032737
#
#
# Mechanical properties :
#
#
# Convention : Reuss Voigt Hill
#
# Bulk Modulus (GPa) = 20.81582 40.45519 30.63550
# Shear Modulus (GPa) = 21.71152 3.64797 12.67974
#
# Velocity S-wave (km/s) = 3.27803 1.34367 2.50509
# Velocity P-wave (km/s) = 4.96280 4.73596 4.85071
#
# Compressibility (1/GPa) = 0.04804040
#
# Stress axis : x y z
#
# Youngs Moduli (GPa) = 73.27019 17.38221 34.15126
#
# Poissons Ratio (x) = 0.16758 0.30463
# Poissons Ratio (y) = 0.70638 0.26122
# Poissons Ratio (z) = 0.65356 0.13295
#
# Static dielectric constant tensor:
#      x y z
#    x 1.691760 0.000000 -0.055120 
#    y 0.000000 1.702070 0.000000 
#    z -0.055120 0.000000 1.668960 
# 
# From -- ./inp_files/63889.got.cif
#   From: 2010.05.17/outbox.cif.g08.bks.cpg/sg10_32_cif.got.tgz:63889.got - 2010.06.03 11:33:40.
