data_PCOD9154947
_publ_section_title
;
Structure prediction by ZEFSAII (Michael W. Deem and Ramdas Pophale) SiO2 
 PCOD9154947
Probable space group: P 2/M
;
_chemical_formula_sum "Si O2"
_cell_formula_units_Z 24
_cell_length_a 12.280245
_cell_length_b 19.558274
_cell_length_c 8.079642
_cell_angle_alpha 90.000000
_cell_angle_beta 146.078097
_cell_angle_gamma 90.000000
_cell_volume 1082.959987
_symmetry_space_group_name_H-M "P 2/M"
_symmetry_group_IT_number 10
_symmetry_cell_setting 'monoclinic'
loop_
_space_group_symop_operation_xyz
x,y,z
-x,y,-z
-x,-y,-z
x,-y,z
loop_
_atom_site_type_symbol
_atom_site_label
_atom_site_fract_x
_atom_site_fract_y
_atom_site_fract_z
Si Si1 0.262308 0.922017 0.526753
Si Si2 0.263436 0.831191 0.219118
Si Si3 0.559569 0.578246 0.255651
Si Si4 0.882736 0.423170 0.182686
Si Si5 0.263649 0.078984 0.904761
Si Si6 0.271524 0.326214 0.271106
O O1 0.201563 0.872690 0.303502
O O2 0.203115 0.903674 0.640099
O O3 0.200086 0.000000 0.417896
O O4 0.499503 0.921281 0.811605
O O5 0.500000 0.832867 0.500000
O O6 0.210851 0.752524 0.184151
O O7 0.201882 0.869533 0.972199
O O8 0.635167 0.500000 0.341021
O O9 0.700946 0.630238 0.526246
O O10 0.500000 0.603448 0.000000
O O11 0.349076 0.572989 0.075492
O O12 0.943179 0.500000 0.209294
O O13 0.000000 0.406586 0.500000
O O14 0.877719 0.367200 0.033964
O O15 0.208141 0.000000 0.871919
O O16 0.500000 0.325687 0.500000
#
# Coordination Sequence:
#
# PCOD9154947 Si02
#       6
#     4   4   4   4   4   4
#     4   8  13  21  32  49  74 109 148 184 226 272
#     4   9  15  23  33  54  81 114 149 185 229 280
#     4   9  17  31  49  70  94 122 157 197 238 279
#     4   9  17  31  51  70  90 123 162 195 231 281
#     4   8  13  21  33  49  74 110 148 185 225 271
#     4   9  17  29  42  65  92 121 154 190 238 284
#
# _framework density 22.161483
#
# number of rings (size 3 to 8) (size 9 to 14) (size 15 to 20)
#    0.000    3.333    0.000    2.000    0.000    4.000 
#   12.000    0.833    0.000    4.000    0.000    0.000 
#    0.000    2.667    0.000    5.667    0.000   18.000 
#
# Total GULP energy -133858.289200 kJ/mol
# GULP energy per Si atom -5577.428717 kJ/mol
# Density = 2.211104 g / cm^3
# Si number density = 22.161483 Si / 1000 Ang^3
#
#
#
# Elastic Constant Matrix: (Units=GPa)
#
#
# Indices 1 2 3 4 5 6 
#
# 1 74.8655 65.2141 65.2171 0.0000 -11.8513 0.0000
# 2 65.2141 195.1076 144.7020 0.0000 -63.0187 0.0000
# 3 65.2171 144.7020 162.7335 0.0000 -30.7410 0.0000
# 4 0.0000 0.0000 0.0000 1.3255 0.0000 -0.1992
# 5 -11.8513 -63.0187 -30.7410 0.0000 61.2124 0.0000
# 6 0.0000 0.0000 0.0000 -0.1992 0.0000 -10.0904
#
#
#
# Elastic Compliance Matrix: (Units=1/GPa)
#
#
# Indices 1 2 3 4 5 6 
#
# 1 0.021087 -0.003651 -0.005682 0.000000 -0.002530 0.000000
# 2 -0.003651 0.023644 -0.016678 0.000000 0.015259 0.000000
# 3 -0.005682 -0.016678 0.021876 0.000000 -0.007284 0.000000
# 4 0.000000 0.000000 0.000000 0.752216 0.000000 -0.014852
# 5 -0.002530 0.015259 -0.007284 0.000000 0.027898 0.000000
# 6 0.000000 0.000000 0.000000 -0.014852 0.000000 -0.098811
#
#
# Mechanical properties :
#
#
# Convention : Reuss Voigt Hill
#
# Bulk Modulus (GPa) = 68.56804 109.21922 88.89363
# Shear Modulus (GPa) = 6.21276 20.99438 13.60357
#
# Velocity S-wave (km/s) = 1.67615 3.08122 2.48026
# Velocity P-wave (km/s) = 5.89520 7.87711 6.95709
#
# Compressibility (1/GPa) = 0.01458405
#
# Stress axis : x y z
#
# Youngs Moduli (GPa) = 47.42208 42.29456 45.71166
#
# Poissons Ratio (x) = 0.15444 0.25973
# Poissons Ratio (y) = 0.17316 0.76238
# Poissons Ratio (z) = 0.26945 0.70539
#
# Static dielectric constant tensor:
#      x y z
#    x 2.009730 0.000000 0.034930 
#    y 0.000000 1.773380 0.000000 
#    z 0.034930 0.000000 1.807010 
# 
# From -- ./inp_files/33012.got.cif
#   From: 2010.05.17/outbox.cif.g08.bks.cpg/sg10_17_cif.got.tgz:33012.got - 2010.06.03 11:33:40.
