data_PCOD9154952
_publ_section_title
;
Structure prediction by ZEFSAII (Michael W. Deem and Ramdas Pophale) SiO2 
 PCOD9154952
Probable space group: P 2/M
;
_chemical_formula_sum "Si O2"
_cell_formula_units_Z 24
_cell_length_a 17.058395
_cell_length_b 10.173316
_cell_length_c 7.871300
_cell_angle_alpha 90.000000
_cell_angle_beta 120.108313
_cell_angle_gamma 90.000000
_cell_volume 1181.687819
_symmetry_space_group_name_H-M "P 2/M"
_symmetry_group_IT_number 10
_symmetry_cell_setting 'monoclinic'
loop_
_space_group_symop_operation_xyz
x,y,z
-x,y,-z
-x,-y,-z
x,-y,z
loop_
_atom_site_type_symbol
_atom_site_label
_atom_site_fract_x
_atom_site_fract_y
_atom_site_fract_z
Si Si1 0.789384 0.341253 0.792318
Si Si2 0.077708 0.340533 0.355858
Si Si3 0.458250 0.642106 0.269329
Si Si4 0.871728 0.340498 0.219823
Si Si5 0.396825 0.148862 0.965049
Si Si6 0.656397 0.352688 0.352370
O O1 0.794720 0.500000 0.807815
O O2 0.871452 0.296038 0.758458
O O3 0.700422 0.316105 0.581690
O O4 0.802499 0.293515 0.999120
O O5 0.079100 0.500000 0.353612
O O6 0.129545 0.298184 0.584755
O O7 0.972551 0.305380 0.261300
O O8 0.500000 0.655805 0.500000
O O9 0.409329 0.500000 0.204706
O O10 0.548543 0.633489 0.253817
O O11 0.404646 0.766456 0.145005
O O12 0.866820 0.500000 0.220424
O O13 0.335371 0.236968 0.773717
O O14 0.365324 0.000000 0.952280
O O15 0.500000 0.140793 0.000000
O O16 0.691337 0.500000 0.342762
#
# Coordination Sequence:
#
# PCOD9154952 Si02
#       6
#     4   4   4   4   4   4
#     4   9  15  23  35  54  81 113 143 174 215 260
#     4   8  13  21  33  51  75 110 146 174 210 253
#     4   9  17  30  46  65  88 115 146 181 221 262
#     4   8  13  21  33  50  77 109 144 178 206 252
#     4   9  17  30  48  65  82 111 148 182 217 260
#     4   9  17  29  43  63  89 114 144 181 222 264
#
# _framework density 20.309932
#
# number of rings (size 3 to 8) (size 9 to 14) (size 15 to 20)
#    0.000    3.333    0.000    2.000    0.000    4.333 
#    3.000    0.000    0.000    0.000    0.000    0.000 
#    0.000    2.667    0.000    3.667    0.000    3.333 
#
# Total GULP energy -133646.872720 kJ/mol
# GULP energy per Si atom -5568.619697 kJ/mol
# Density = 2.026371 g / cm^3
# Si number density = 20.309932 Si / 1000 Ang^3
#
#
#
# Elastic Constant Matrix: (Units=GPa)
#
#
# Indices 1 2 3 4 5 6 
#
# 1 45.6174 3.9806 -1.9075 0.0000 10.0516 0.0000
# 2 3.9806 105.6365 60.5411 0.0000 -7.7403 0.0000
# 3 -1.9075 60.5411 134.0055 0.0000 -10.4738 0.0000
# 4 0.0000 0.0000 0.0000 -5.0723 0.0000 -1.7652
# 5 10.0516 -7.7403 -10.4738 0.0000 25.3134 0.0000
# 6 0.0000 0.0000 0.0000 -1.7652 0.0000 4.6860
#
#
#
# Elastic Compliance Matrix: (Units=1/GPa)
#
#
# Indices 1 2 3 4 5 6 
#
# 1 0.024322 -0.001891 0.000414 0.000000 -0.010065 0.000000
# 2 -0.001891 0.012981 -0.005707 0.000000 0.002359 0.000000
# 3 0.000414 -0.005707 0.010228 0.000000 0.002323 0.000000
# 4 0.000000 0.000000 0.000000 -0.174300 0.000000 -0.065660
# 5 -0.010065 0.002359 0.002323 0.000000 0.045184 0.000000
# 6 0.000000 0.000000 0.000000 -0.065660 0.000000 0.188669
#
#
# Mechanical properties :
#
#
# Convention : Reuss Voigt Hill
#
# Bulk Modulus (GPa) = 30.15490 45.60976 37.88233
# Shear Modulus (GPa) = 37.73362 19.82842 28.78102
#
# Velocity S-wave (km/s) = 4.31500 3.12796 3.76851
# Velocity P-wave (km/s) = 6.30121 5.96247 6.13418
#
# Compressibility (1/GPa) = 0.03316211
#
# Stress axis : x y z
#
# Youngs Moduli (GPa) = 41.11582 77.03300 97.76835
#
# Poissons Ratio (x) = 0.14568 -0.04047
# Poissons Ratio (y) = 0.07776 0.55800
# Poissons Ratio (z) = -0.01702 0.43965
#
# Static dielectric constant tensor:
#      x y z
#    x 1.815880 0.000000 0.000060 
#    y 0.000000 1.685420 0.000000 
#    z 0.000060 0.000000 1.756520 
# 
# From -- ./inp_files/33513.got.cif
#   From: 2010.05.17/outbox.cif.g08.bks.cpg/sg10_17_cif.got.tgz:33513.got - 2010.06.03 11:33:40.
