data_PCOD9154173
_publ_section_title
;
Structure prediction by ZEFSAII (Michael W. Deem and Ramdas Pophale) SiO2 
 PCOD9154173
Probable space group: P 2/M
;
_chemical_formula_sum "Si O2"
_cell_formula_units_Z 21
_cell_length_a 12.262302
_cell_length_b 11.478352
_cell_length_c 14.492698
_cell_angle_alpha 90.000000
_cell_angle_beta 147.842350
_cell_angle_gamma 90.000000
_cell_volume 1085.717919
_symmetry_space_group_name_H-M "P 2/M"
_symmetry_group_IT_number 10
_symmetry_cell_setting 'monoclinic'
loop_
_space_group_symop_operation_xyz
x,y,z
-x,y,-z
-x,-y,-z
x,-y,z
loop_
_atom_site_type_symbol
_atom_site_label
_atom_site_fract_x
_atom_site_fract_y
_atom_site_fract_z
Si Si1 0.465382 0.744314 0.196448
Si Si2 0.072659 0.255753 0.803016
Si Si3 0.013385 0.000000 0.201978
Si Si4 0.624039 0.360382 0.499733
Si Si5 0.500000 0.000000 0.500000
Si Si6 0.387859 0.000000 0.200488
Si Si7 0.790739 0.364459 0.291093
O O1 0.520764 0.684066 0.332325
O O2 0.617919 0.698410 0.227306
O O3 0.479236 0.882765 0.221435
O O4 0.235642 0.716766 0.999545
O O5 0.164392 0.302146 0.773174
O O6 0.855536 0.315498 0.666371
O O7 0.037327 0.117228 0.778209
O O8 0.251802 0.000000 0.347662
O O9 0.854367 0.000000 0.001119
O O10 0.500000 0.314651 0.500000
O O11 0.622763 0.500000 0.500191
O O12 0.438760 0.000000 0.344801
O O13 0.735939 0.500000 0.236681
O O14 0.000000 0.361972 0.500000
#
# Coordination Sequence:
#
# PCOD9154173 Si02
#       7
#     4   4   2   4   1   2   4
#     4  11  24  43  67  98 133 172 217 269 331 392
#     4  11  24  43  67  98 133 172 217 269 331 392
#     4  10  25  42  64 101 134 171 219 269 324 394
#     4  11  25  43  63  93 129 170 222 274 326 388
#     4  12  22  40  68  88 130 180 218 264 318 384
#     4  10  25  42  64 101 134 171 219 269 324 394
#     4  11  23  42  69  97 132 174 221 274 326 390
#
# _framework density 19.342040999999998
#
# number of rings (size 3 to 8) (size 9 to 14) (size 15 to 20)
#    0.000    1.143    1.905    3.143    5.333    5.333 
#    0.000    5.714    0.000    0.000    0.000    0.000 
#    0.000    0.000    0.000    0.000    0.000    0.000 
#
# Total GULP energy -117168.110373 kJ/mol
# GULP energy per Si atom -5579.433827 kJ/mol
# Density = 1.929802 g / cm^3
# Si number density = 19.342041 Si / 1000 Ang^3
#
#
#
# Elastic Constant Matrix: (Units=GPa)
#
#
# Indices 1 2 3 4 5 6 
#
# 1 183.0612 84.3169 91.6969 0.0000 0.6452 0.0000
# 2 84.3169 121.9869 77.5147 0.0000 -3.5420 0.0000
# 3 91.6969 77.5147 157.3878 0.0000 -8.5417 0.0000
# 4 0.0000 0.0000 0.0000 28.3512 0.0000 0.7096
# 5 0.6452 -3.5420 -8.5417 0.0000 2.5752 0.0000
# 6 0.0000 0.0000 0.0000 0.7096 0.0000 39.5937
#
#
#
# Elastic Compliance Matrix: (Units=1/GPa)
#
#
# Indices 1 2 3 4 5 6 
#
# 1 0.010209 -0.004565 -0.005096 0.000000 -0.025741 0.000000
# 2 -0.004565 0.014003 -0.003816 0.000000 0.007745 0.000000
# 3 -0.005096 -0.003816 0.013399 0.000000 0.040470 0.000000
# 4 0.000000 0.000000 0.000000 0.035288 0.000000 -0.000632
# 5 -0.025741 0.007745 0.040470 0.000000 0.539650 0.000000
# 6 0.000000 0.000000 0.000000 -0.000632 0.000000 0.025268
#
#
# Mechanical properties :
#
#
# Convention : Reuss Voigt Hill
#
# Bulk Modulus (GPa) = 93.85617 107.72143 100.78880
# Shear Modulus (GPa) = 7.48139 28.03119 17.75629
#
# Velocity S-wave (km/s) = 1.96884 3.81101 3.03316
# Velocity P-wave (km/s) = 7.33473 8.67058 8.03048
#
# Compressibility (1/GPa) = 0.01065460
#
# Stress axis : x y z
#
# Youngs Moduli (GPa) = 97.95249 71.41237 74.63215
#
# Poissons Ratio (x) = 0.32602 0.38036
# Poissons Ratio (y) = 0.44719 0.28483
# Poissons Ratio (z) = 0.49921 0.27254
#
# Static dielectric constant tensor:
#      x y z
#    x 1.626780 0.000000 -0.003590 
#    y 0.000000 1.813270 0.000000 
#    z -0.003590 0.000000 1.675650 
# 
# From -- ./inp_files/64750.got.cif
#   From: 2010.05.17/outbox.cif.g08.bks.cpg/sg10_33_cif.got.tgz:64750.got - 2010.06.03 11:33:40.
