data_PCOD9154102
_publ_section_title
;
Structure prediction by ZEFSAII (Michael W. Deem and Ramdas Pophale) SiO2 
 PCOD9154102
Probable space group: P 2/M
;
_chemical_formula_sum "Si O2"
_cell_formula_units_Z 15
_cell_length_a 8.654314
_cell_length_b 16.122520
_cell_length_c 5.259344
_cell_angle_alpha 90.000000
_cell_angle_beta 116.238679
_cell_angle_gamma 90.000000
_cell_volume 658.218800
_symmetry_space_group_name_H-M "P 2/M"
_symmetry_group_IT_number 10
_symmetry_cell_setting 'monoclinic'
loop_
_space_group_symop_operation_xyz
x,y,z
-x,y,-z
-x,-y,-z
x,-y,z
loop_
_atom_site_type_symbol
_atom_site_label
_atom_site_fract_x
_atom_site_fract_y
_atom_site_fract_z
Si Si1 0.663680 0.272979 0.250601
Si Si2 0.500000 0.860673 0.500000
Si Si3 0.000000 0.000000 0.500000
Si Si4 0.116380 0.407549 0.331423
Si Si5 0.172052 0.863274 0.954364
O O1 0.584882 0.196868 0.348227
O O2 0.753119 0.334432 0.510985
O O3 0.784808 0.227344 0.131451
O O4 0.500000 0.316212 0.000000
O O5 0.666304 0.897929 0.763298
O O6 0.870567 0.927512 0.297261
O O7 0.194153 0.500000 0.355398
O O8 0.000000 0.410334 0.500000
O O9 0.000000 0.391836 0.000000
O O10 0.000000 0.859873 0.000000
#
# Coordination Sequence:
#
# PCOD9154102 Si02
#       5
#     4   2   1   4   4
#     4  10  24  42  68 100 134 182 232 288 352 413
#     4  10  24  43  65 100 134 180 230 288 347 419
#     4  12  26  42  70 104 128 186 228 282 360 420
#     4  10  24  42  66 102 141 185 237 293 352 415
#     4  11  25  45  68 101 136 177 233 286 354 421
#
# _framework density 22.788775000000001
#
# number of rings (size 3 to 8) (size 9 to 14) (size 15 to 20)
#    0.000    1.600    0.000    2.000   13.067    1.067 
#    0.000   13.333    0.000    0.000    0.000    0.000 
#    0.000    0.000    0.000    0.000    0.000    0.000 
#
# Total GULP energy -83560.682060 kJ/mol
# GULP energy per Si atom -5570.712137 kJ/mol
# Density = 2.273691 g / cm^3
# Si number density = 22.788775 Si / 1000 Ang^3
#
#
#
# Elastic Constant Matrix: (Units=GPa)
#
#
# Indices 1 2 3 4 5 6 
#
# 1 72.4726 27.9506 22.8531 0.0000 11.2046 0.0000
# 2 27.9506 102.5752 69.6042 0.0000 25.4972 0.0000
# 3 22.8531 69.6042 223.9166 0.0000 37.6913 0.0000
# 4 0.0000 0.0000 0.0000 -26.9671 0.0000 -75.1963
# 5 11.2046 25.4972 37.6913 0.0000 41.0433 0.0000
# 6 0.0000 0.0000 0.0000 -75.1963 0.0000 -71.6712
#
#
#
# Elastic Compliance Matrix: (Units=1/GPa)
#
#
# Indices 1 2 3 4 5 6 
#
# 1 0.015547 -0.003693 -0.000131 0.000000 -0.001830 0.000000
# 2 -0.003693 0.014128 -0.003202 0.000000 -0.004828 0.000000
# 3 -0.000131 -0.003202 0.006073 0.000000 -0.003552 0.000000
# 4 0.000000 0.000000 0.000000 0.019258 0.000000 -0.020205
# 5 -0.001830 -0.004828 -0.003552 0.000000 0.031125 0.000000
# 6 0.000000 0.000000 0.000000 -0.020205 0.000000 0.007246
#
#
# Mechanical properties :
#
#
# Convention : Reuss Voigt Hill
#
# Bulk Modulus (GPa) = 46.09113 71.08667 58.58890
# Shear Modulus (GPa) = 43.60765 7.05145 25.32955
#
# Velocity S-wave (km/s) = 4.37917 1.76096 3.33752
# Velocity P-wave (km/s) = 6.77043 5.94946 6.37318
#
# Compressibility (1/GPa) = 0.02169615
#
# Stress axis : x y z
#
# Youngs Moduli (GPa) = 64.32262 70.78082 164.67640
#
# Poissons Ratio (x) = 0.26137 0.02154
# Poissons Ratio (y) = 0.23752 0.52732
# Poissons Ratio (z) = 0.00841 0.22665
#
# Static dielectric constant tensor:
#      x y z
#    x 1.904550 0.000000 0.037590 
#    y 0.000000 1.729530 0.000000 
#    z 0.037590 0.000000 1.829430 
# 
# From -- ./inp_files/4318.got.cif
#   From: 2010.05.17/outbox.cif.g08.bks.cpg/sg10_3_cif.got.tgz:4318.got - 2010.06.03 11:33:40.
