data_PCOD9154564
_publ_section_title
;
Structure prediction by ZEFSAII (Michael W. Deem and Ramdas Pophale) SiO2 
 PCOD9154564
Probable space group: P 2/M
;
_chemical_formula_sum "Si O2"
_cell_formula_units_Z 32
_cell_length_a 20.556364
_cell_length_b 9.031619
_cell_length_c 11.541788
_cell_angle_alpha 90.000000
_cell_angle_beta 52.725078
_cell_angle_gamma 90.000000
_cell_volume 1705.121966
_symmetry_space_group_name_H-M "P 2/M"
_symmetry_group_IT_number 10
_symmetry_cell_setting 'monoclinic'
loop_
_space_group_symop_operation_xyz
x,y,z
-x,y,-z
-x,-y,-z
x,-y,z
loop_
_atom_site_type_symbol
_atom_site_label
_atom_site_fract_x
_atom_site_fract_y
_atom_site_fract_z
Si Si1 0.014810 0.831229 0.345673
Si Si2 0.327238 0.671679 0.870920
Si Si3 0.435776 0.160356 0.899475
Si Si4 0.816949 0.678703 0.794919
Si Si5 0.695572 0.670271 0.519418
Si Si6 0.845849 0.320808 0.495917
Si Si7 0.405017 0.176696 0.573520
Si Si8 0.621192 0.838907 0.784613
O O1 0.099812 0.744830 0.241984
O O2 0.000000 0.836879 0.500000
O O3 0.935772 0.746280 0.383377
O O4 0.020123 0.000000 0.297206
O O5 0.315607 0.500000 0.855071
O O6 0.411376 0.702393 0.848768
O O7 0.342613 0.766373 0.739664
O O8 0.256732 0.719516 0.037845
O O9 0.528639 0.159304 0.838559
O O10 0.419807 0.000000 0.857620
O O11 0.383715 0.166322 0.072823
O O12 0.820086 0.500000 0.789961
O O13 0.814446 0.725692 0.660497
O O14 0.696551 0.500000 0.482573
O O15 0.787571 0.722789 0.450641
O O16 0.635446 0.759162 0.499934
O O17 0.659499 0.695484 0.686697
O O18 0.848674 0.500000 0.494371
O O19 0.500000 0.222919 0.500000
O O20 0.406314 0.000000 0.564533
O O21 0.658479 0.000000 0.710586
#
# Coordination Sequence:
#
# PCOD9154564 Si02
#       8
#     4   4   4   4   4   4   4   4
#     4   9  17  29  49  80 113 144 179 213 247 299
#     4  11  22  35  54  79 104 133 176 226 270 314
#     4   9  18  32  49  71 102 138 171 206 257 319
#     4   9  18  33  53  79 113 147 173 205 259 321
#     4  11  22  35  54  79 104 133 176 226 270 314
#     4   9  18  33  53  79 113 147 173 205 259 321
#     4  11  25  43  59  74  99 140 185 227 276 329
#     4   9  18  32  49  71 102 138 171 206 257 319
#
# _framework density 18.766984999999998
#
# number of rings (size 3 to 8) (size 9 to 14) (size 15 to 20)
#    0.000    2.250    0.000    3.750    0.000    9.500 
#    0.000    3.750    0.000    0.750    0.000    5.250 
#    0.000    0.000    0.000    0.000    0.000    0.000 
#
# Total GULP energy -178164.479657 kJ/mol
# GULP energy per Si atom -5567.639989 kJ/mol
# Density = 1.872427 g / cm^3
# Si number density = 18.766985 Si / 1000 Ang^3
#
#
#
# Elastic Constant Matrix: (Units=GPa)
#
#
# Indices 1 2 3 4 5 6 
#
# 1 114.9838 38.6440 27.9134 0.0000 -8.8793 0.0000
# 2 38.6440 32.6319 23.3238 0.0000 -2.2237 0.0000
# 3 27.9134 23.3238 55.3318 0.0000 -6.2211 0.0000
# 4 0.0000 0.0000 0.0000 21.9158 0.0000 -2.1891
# 5 -8.8793 -2.2237 -6.2211 0.0000 19.4977 0.0000
# 6 0.0000 0.0000 0.0000 -2.1891 0.0000 -9.5680
#
#
#
# Elastic Compliance Matrix: (Units=1/GPa)
#
#
# Indices 1 2 3 4 5 6 
#
# 1 0.014889 -0.017637 0.000477 0.000000 0.004921 0.000000
# 2 -0.017637 0.064769 -0.019164 0.000000 -0.006760 0.000000
# 3 0.000477 -0.019164 0.026645 0.000000 0.006533 0.000000
# 4 0.000000 0.000000 0.000000 0.044610 0.000000 -0.010206
# 5 0.004921 -0.006760 0.006533 0.000000 0.054843 0.000000
# 6 0.000000 0.000000 0.000000 -0.010206 0.000000 -0.102180
#
#
# Mechanical properties :
#
#
# Convention : Reuss Voigt Hill
#
# Bulk Modulus (GPa) = 29.71488 42.52332 36.11910
# Shear Modulus (GPa) = 26.67489 13.90686 20.29087
#
# Velocity S-wave (km/s) = 3.77420 2.72514 3.29173
# Velocity P-wave (km/s) = 5.90430 5.71048 5.80820
#
# Compressibility (1/GPa) = 0.03365318
#
# Stress axis : x y z
#
# Youngs Moduli (GPa) = 67.16498 15.43951 37.53054
#
# Poissons Ratio (x) = 0.27231 -0.01790
# Poissons Ratio (y) = 1.18461 0.71925
# Poissons Ratio (z) = -0.03203 0.29589
#
# Static dielectric constant tensor:
#      x y z
#    x 1.680890 0.000000 0.001460 
#    y 0.000000 1.681710 0.000000 
#    z 0.001460 0.000000 1.682000 
# 
# From -- ./inp_files/55258.got.cif
#   From: 2010.05.17/outbox.cif.g08.bks.cpg/sg10_28_cif.got.tgz:55258.got - 2010.06.03 11:33:40.
