data_PCOD9154031
_publ_section_title
;
Structure prediction by ZEFSAII (Michael W. Deem and Ramdas Pophale) SiO2 
 PCOD9154031
Probable space group: P 2/M
;
_chemical_formula_sum "Si O2"
_cell_formula_units_Z 14
_cell_length_a 5.393410
_cell_length_b 23.141404
_cell_length_c 5.107706
_cell_angle_alpha 90.000000
_cell_angle_beta 82.719540
_cell_angle_gamma 90.000000
_cell_volume 632.358610
_symmetry_space_group_name_H-M "P 2/M"
_symmetry_group_IT_number 10
_symmetry_cell_setting 'monoclinic'
loop_
_space_group_symop_operation_xyz
x,y,z
-x,y,-z
-x,-y,-z
x,-y,z
loop_
_atom_site_type_symbol
_atom_site_label
_atom_site_fract_x
_atom_site_fract_y
_atom_site_fract_z
Si Si1 0.670326 0.500000 0.726575
Si Si2 0.500000 0.242145 0.000000
Si Si3 0.733693 0.065424 0.173065
Si Si4 0.000000 0.395695 0.500000
Si Si5 0.000000 0.317815 0.000000
Si Si6 0.500000 0.160485 0.500000
O O1 0.500000 0.500000 0.500000
O O2 0.823375 0.441132 0.676435
O O3 0.500000 0.500000 0.000000
O O4 0.531189 0.201520 0.743710
O O5 0.247807 0.280245 0.022453
O O6 0.714254 0.115007 0.392300
O O7 0.718809 0.000000 0.281400
O O8 0.500000 0.072275 0.000000
O O9 0.000000 0.070943 0.000000
O O10 0.923399 0.354933 0.268304
#
# Coordination Sequence:
#
# PCOD9154031 Si02
#       6
#     2   2   4   2   2   2
#     4  11  24  43  76 115 147 184 236 287 368 423
#     4  12  30  46  75 101 142 192 254 298 350 420
#     4  10  23  43  71 105 140 182 230 293 374 447
#     4  11  26  46  76 106 150 190 235 300 352 428
#     4  12  28  51  72 106 143 198 248 292 356 414
#     4  12  25  50  72 104 142 187 240 310 360 422
#
# _framework density 22.139334999999999
#
# number of rings (size 3 to 8) (size 9 to 14) (size 15 to 20)
#    0.000    0.857    1.429    3.857    8.000    5.714 
#    0.000    4.286    0.000    0.000    0.000    0.000 
#    0.000    0.000    0.000    0.000    0.000    0.000 
#
# Total GULP energy -78234.821981 kJ/mol
# GULP energy per Si atom -5588.201570 kJ/mol
# Density = 2.208894 g / cm^3
# Si number density = 22.139335 Si / 1000 Ang^3
#
#
#
# Elastic Constant Matrix: (Units=GPa)
#
#
# Indices 1 2 3 4 5 6 
#
# 1 130.4616 72.6981 57.1314 0.0000 -24.6043 0.0000
# 2 72.6981 185.2767 101.8299 0.0000 -2.8460 0.0000
# 3 57.1314 101.8299 207.4215 0.0000 -13.4971 0.0000
# 4 0.0000 0.0000 0.0000 120.0269 0.0000 59.7595
# 5 -24.6043 -2.8460 -13.4971 0.0000 41.7961 0.0000
# 6 0.0000 0.0000 0.0000 59.7595 0.0000 225.6586
#
#
#
# Elastic Compliance Matrix: (Units=1/GPa)
#
#
# Indices 1 2 3 4 5 6 
#
# 1 0.011366 -0.003923 -0.000803 0.000000 0.006164 0.000000
# 2 -0.003923 0.008765 -0.003406 0.000000 -0.002813 0.000000
# 3 -0.000803 -0.003406 0.006812 0.000000 0.001495 0.000000
# 4 0.000000 0.000000 0.000000 0.009597 0.000000 -0.002541
# 5 0.006164 -0.002813 0.001495 0.000000 0.027846 0.000000
# 6 0.000000 0.000000 0.000000 -0.002541 0.000000 0.005105
#
#
# Mechanical properties :
#
#
# Convention : Reuss Voigt Hill
#
# Bulk Modulus (GPa) = 93.65047 109.60873 101.62960
# Shear Modulus (GPa) = 55.98280 96.92968 76.45624
#
# Velocity S-wave (km/s) = 5.03403 6.62395 5.88295
# Velocity P-wave (km/s) = 8.72817 10.39800 9.59946
#
# Compressibility (1/GPa) = 0.01067800
#
# Stress axis : x y z
#
# Youngs Moduli (GPa) = 87.98427 114.08614 146.81044
#
# Poissons Ratio (x) = 0.44761 0.11793
# Poissons Ratio (y) = 0.34520 0.49997
# Poissons Ratio (z) = 0.07067 0.38852
#
# Static dielectric constant tensor:
#      x y z
#    x 1.847810 0.000000 0.012030 
#    y 0.000000 1.641540 0.000000 
#    z 0.012030 0.000000 1.813750 
# 
# From -- ./inp_files/1039.got.cif
#   From: 2010.05.17/outbox.cif.g08.bks.cpg/sg10_1_cif.got.tgz:1039.got - 2010.06.03 11:33:40.
