data_PCOD9154483
_publ_section_title
;
Structure prediction by ZEFSAII (Michael W. Deem and Ramdas Pophale) SiO2 
 PCOD9154483
Probable space group: P 2/M
;
_chemical_formula_sum "Si O2"
_cell_formula_units_Z 24
_cell_length_a 14.331183
_cell_length_b 12.904577
_cell_length_c 14.331182
_cell_angle_alpha 90.000000
_cell_angle_beta 30.960843
_cell_angle_gamma 90.000000
_cell_volume 1363.492689
_symmetry_space_group_name_H-M "P 2/M"
_symmetry_group_IT_number 10
_symmetry_cell_setting 'monoclinic'
loop_
_space_group_symop_operation_xyz
x,y,z
-x,y,-z
-x,-y,-z
x,-y,z
loop_
_atom_site_type_symbol
_atom_site_label
_atom_site_fract_x
_atom_site_fract_y
_atom_site_fract_z
Si Si1 0.056667 0.875202 0.056667
Si Si2 0.424681 0.195460 0.832081
Si Si3 0.514648 0.382749 0.095480
Si Si4 0.167919 0.804540 0.575319
Si Si5 0.015325 0.000000 0.598156
Si Si6 0.598156 0.000000 0.015325
Si Si7 0.904520 0.617251 0.485352
O O1 0.913758 0.832168 0.254477
O O2 0.061621 0.000000 0.061621
O O3 0.254476 0.832168 0.913758
O O4 0.000000 0.849571 0.000000
O O5 0.387784 0.298504 0.924482
O O6 0.614407 0.207093 0.614408
O O7 0.449084 0.101384 0.884352
O O8 0.589645 0.500000 0.034054
O O9 0.309016 0.386431 0.309016
O O10 0.500000 0.350374 0.000000
O O11 0.075518 0.701497 0.612215
O O12 0.115648 0.898617 0.550916
O O13 0.000000 0.000000 0.500000
O O14 0.813324 0.000000 0.813324
O O15 0.500000 0.000000 0.000000
O O16 0.965946 0.500000 0.410354
O O17 0.000000 0.649625 0.500000
#
# Coordination Sequence:
#
# PCOD9154483 Si02
#       7
#     4   4   4   4   2   2   4
#     4  11  24  42  61  83 113 147 194 249 293 342
#     4  11  21  37  58  82 114 148 187 234 289 338
#     4   9  19  33  52  82 116 153 191 224 270 335
#     4  11  21  37  58  82 114 148 187 234 289 338
#     4  12  22  34  52  82 119 151 186 226 276 345
#     4  12  22  34  52  82 119 151 186 226 276 345
#     4   9  19  33  52  82 116 153 191 224 270 335
#
# _framework density 17.601855
#
# number of rings (size 3 to 8) (size 9 to 14) (size 15 to 20)
#    0.000    1.500    3.333    2.500    2.333    3.333 
#    0.000    1.667    0.000    2.000    0.000    4.667 
#    0.000    0.000    0.000    0.000    0.000    0.000 
#
# Total GULP energy -134051.195943 kJ/mol
# GULP energy per Si atom -5585.466498 kJ/mol
# Density = 1.756179 g / cm^3
# Si number density = 17.601855 Si / 1000 Ang^3
#
#
#
# Elastic Constant Matrix: (Units=GPa)
#
#
# Indices 1 2 3 4 5 6 
#
# 1 153.7252 70.9808 57.1714 0.0000 13.1184 0.0000
# 2 70.9808 93.8827 32.9245 0.0000 10.9858 0.0000
# 3 57.1714 32.9245 97.8648 0.0000 3.0070 0.0000
# 4 0.0000 0.0000 0.0000 39.9342 0.0000 -4.7464
# 5 13.1184 10.9858 3.0070 0.0000 28.4740 0.0000
# 6 0.0000 0.0000 0.0000 -4.7464 0.0000 23.4912
#
#
#
# Elastic Compliance Matrix: (Units=1/GPa)
#
#
# Indices 1 2 3 4 5 6 
#
# 1 0.011491 -0.006920 -0.004318 0.000000 -0.002168 0.000000
# 2 -0.006920 0.016777 -0.001506 0.000000 -0.003126 0.000000
# 3 -0.004318 -0.001506 0.013211 0.000000 0.001175 0.000000
# 4 0.000000 0.000000 0.000000 0.025657 0.000000 0.005184
# 5 -0.002168 -0.003126 0.001175 0.000000 0.037201 0.000000
# 6 0.000000 0.000000 0.000000 0.005184 0.000000 0.043616
#
#
# Mechanical properties :
#
#
# Convention : Reuss Voigt Hill
#
# Bulk Modulus (GPa) = 62.53197 74.18070 68.35634
# Shear Modulus (GPa) = 27.96830 30.67293 29.32062
#
# Velocity S-wave (km/s) = 3.99048 4.17897 4.08581
# Velocity P-wave (km/s) = 7.53888 8.09446 7.82161
#
# Compressibility (1/GPa) = 0.01599182
#
# Stress axis : x y z
#
# Youngs Moduli (GPa) = 87.02124 59.60415 75.69200
#
# Poissons Ratio (x) = 0.41246 0.32687
# Poissons Ratio (y) = 0.60219 0.11397
# Poissons Ratio (z) = 0.37580 0.08975
#
# Static dielectric constant tensor:
#      x y z
#    x 1.565470 0.000000 -0.016380 
#    y 0.000000 1.618980 0.000000 
#    z -0.016380 0.000000 1.622230 
# 
# From -- ./inp_files/37481.got.cif
#   From: 2010.05.17/outbox.cif.g08.bks.cpg/sg10_19_cif.got.tgz:37481.got - 2010.06.03 11:33:40.
