data_PCOD9154048
_publ_section_title
;
Structure prediction by ZEFSAII (Michael W. Deem and Ramdas Pophale) SiO2 
 PCOD9154048
Probable space group: P 2/M
;
_chemical_formula_sum "Si O2"
_cell_formula_units_Z 24
_cell_length_a 13.884838
_cell_length_b 11.636731
_cell_length_c 19.145191
_cell_angle_alpha 90.000000
_cell_angle_beta 22.191543
_cell_angle_gamma 90.000000
_cell_volume 1168.377648
_symmetry_space_group_name_H-M "P 2/M"
_symmetry_group_IT_number 10
_symmetry_cell_setting 'monoclinic'
loop_
_space_group_symop_operation_xyz
x,y,z
-x,y,-z
-x,-y,-z
x,-y,z
loop_
_atom_site_type_symbol
_atom_site_label
_atom_site_fract_x
_atom_site_fract_y
_atom_site_fract_z
Si Si1 0.638133 0.500000 0.023435
Si Si2 0.172506 0.253206 0.056656
Si Si3 0.102470 0.500000 0.302209
Si Si4 0.573878 0.861767 0.233081
Si Si5 0.397028 0.122956 0.145999
Si Si6 0.915629 0.725248 0.479894
Si Si7 0.680018 0.131595 0.446467
O O1 0.736135 0.385888 0.997883
O O2 0.769044 0.500000 0.859509
O O3 0.335634 0.500000 0.203708
O O4 0.908721 0.219018 0.272916
O O5 0.190736 0.201006 0.965222
O O6 0.387262 0.185818 0.955760
O O7 0.926069 0.611115 0.428077
O O8 0.335382 0.800369 0.355184
O O9 0.493256 0.842398 0.368595
O O10 0.594770 0.000000 0.209762
O O11 0.143496 0.193375 0.305177
O O12 0.338281 0.000000 0.218503
O O13 0.500000 0.109414 0.000000
O O14 0.000000 0.688368 0.500000
O O15 0.500000 0.129476 0.500000
O O16 0.783776 0.000000 0.387240
#
# Coordination Sequence:
#
# PCOD9154048 Si02
#       7
#     2   4   2   4   4   4   4
#     4  11  22  38  59  87 121 167 219 250 294 355
#     4  12  23  40  62  89 122 164 208 256 306 366
#     4  11  21  36  56  80 124 178 214 251 287 348
#     4  11  23  39  63  94 127 163 203 253 311 370
#     4  11  21  33  53  81 118 162 201 243 297 358
#     4  12  22  34  54  86 128 163 206 245 295 358
#     4  10  23  44  69  95 121 153 201 261 322 379
#
# _framework density 20.541302000000002
#
# number of rings (size 3 to 8) (size 9 to 14) (size 15 to 20)
#    0.000    0.833    3.333    5.250    0.000    4.667 
#    0.000    3.750    0.000    1.000    0.000    0.000 
#    0.000    0.000    0.000    0.000    0.000    0.000 
#
# Total GULP energy -133876.611823 kJ/mol
# GULP energy per Si atom -5578.192159 kJ/mol
# Density = 2.049455 g / cm^3
# Si number density = 20.541302 Si / 1000 Ang^3
#
#
#
# Elastic Constant Matrix: (Units=GPa)
#
#
# Indices 1 2 3 4 5 6 
#
# 1 82.6781 25.0729 25.2569 0.0000 30.7705 0.0000
# 2 25.0729 151.3335 41.4785 0.0000 12.2902 0.0000
# 3 25.2569 41.4785 64.7068 0.0000 29.6469 0.0000
# 4 0.0000 0.0000 0.0000 36.3658 0.0000 7.7559
# 5 30.7705 12.2902 29.6469 0.0000 34.6569 0.0000
# 6 0.0000 0.0000 0.0000 7.7559 0.0000 21.3061
#
#
#
# Elastic Compliance Matrix: (Units=1/GPa)
#
#
# Indices 1 2 3 4 5 6 
#
# 1 0.018694 -0.002287 0.002306 0.000000 -0.017759 0.000000
# 2 -0.002287 0.008436 -0.006701 0.000000 0.004771 0.000000
# 3 0.002306 -0.006701 0.030752 0.000000 -0.025977 0.000000
# 4 0.000000 0.000000 0.000000 0.029813 0.000000 -0.010853
# 5 -0.017759 0.004771 -0.025977 0.000000 0.065152 0.000000
# 6 0.000000 0.000000 0.000000 -0.010853 0.000000 0.050886
#
#
# Mechanical properties :
#
#
# Convention : Reuss Voigt Hill
#
# Bulk Modulus (GPa) = 22.46306 53.59277 38.02792
# Shear Modulus (GPa) = 21.55777 32.25977 26.90877
#
# Velocity S-wave (km/s) = 3.24309 3.96723 3.62330
# Velocity P-wave (km/s) = 4.99828 6.86528 6.00479
#
# Compressibility (1/GPa) = 0.04451752
#
# Stress axis : x y z
#
# Youngs Moduli (GPa) = 53.49441 118.53960 32.51831
#
# Poissons Ratio (x) = 0.27109 -0.07499
# Poissons Ratio (y) = 0.12234 0.21791
# Poissons Ratio (z) = -0.12336 0.79434
#
# Static dielectric constant tensor:
#      x y z
#    x 1.755040 0.000000 0.071410 
#    y 0.000000 1.729810 0.000000 
#    z 0.071410 0.000000 1.789810 
# 
# From -- ./inp_files/82543.got.cif
#   From: 2010.05.17/outbox.cif.g08.bks.cpg/sg10_42_cif.got.tgz:82543.got - 2010.06.03 11:33:40.
