data_PCOD9154030
_publ_section_title
;
Structure prediction by ZEFSAII (Michael W. Deem and Ramdas Pophale) SiO2 
 PCOD9154030
Probable space group: P 2/M
;
_chemical_formula_sum "Si O2"
_cell_formula_units_Z 24
_cell_length_a 7.561054
_cell_length_b 13.770092
_cell_length_c 14.653928
_cell_angle_alpha 90.000000
_cell_angle_beta 37.490656
_cell_angle_gamma 90.000000
_cell_volume 928.598643
_symmetry_space_group_name_H-M "P 2/M"
_symmetry_group_IT_number 10
_symmetry_cell_setting 'monoclinic'
loop_
_space_group_symop_operation_xyz
x,y,z
-x,y,-z
-x,-y,-z
x,-y,z
loop_
_atom_site_type_symbol
_atom_site_label
_atom_site_fract_x
_atom_site_fract_y
_atom_site_fract_z
Si Si1 0.289859 0.111379 0.441947
Si Si2 0.104731 0.812162 0.858220
Si Si3 0.321753 0.614171 0.361088
Si Si4 0.121920 0.612307 0.763470
Si Si5 0.125616 0.890699 0.228855
Si Si6 0.648860 0.315507 0.843793
O O1 0.551085 0.175996 0.299335
O O2 0.169222 0.127774 0.592895
O O3 0.000000 0.119459 0.500000
O O4 0.392477 0.000000 0.394234
O O5 0.017740 0.700837 0.871264
O O6 0.954632 0.878578 0.843352
O O7 0.000000 0.839713 0.000000
O O8 0.285939 0.500000 0.360767
O O9 0.532473 0.621076 0.362064
O O10 0.460375 0.649764 0.208933
O O11 0.000000 0.659208 0.500000
O O12 0.046973 0.500000 0.816331
O O13 0.974196 0.640868 0.728116
O O14 0.335159 0.801276 0.165506
O O15 0.226457 0.000000 0.209261
O O16 0.500000 0.347964 0.000000
#
# Coordination Sequence:
#
# PCOD9154030 Si02
#       6
#     4   4   4   4   4   4
#     4  10  23  43  70 100 132 179 232 283 347 421
#     4  11  25  42  69 102 136 180 228 290 351 413
#     4  10  24  45  72 103 137 180 233 294 354 416
#     4  10  25  45  68 101 141 183 231 284 348 419
#     4  10  24  45  68  97 135 182 230 283 347 417
#     4  11  26  44  70 103 141 184 234 290 351 417
#
# _framework density 25.845396000000001
#
# number of rings (size 3 to 8) (size 9 to 14) (size 15 to 20)
#    0.000    1.667    0.000    1.500    9.333    5.333 
#    0.000    4.167    0.000    0.000    0.000    0.000 
#    0.000    0.000    0.000    0.000    0.000    0.000 
#
# Total GULP energy -134298.248003 kJ/mol
# GULP energy per Si atom -5595.760333 kJ/mol
# Density = 2.578657 g / cm^3
# Si number density = 25.845396 Si / 1000 Ang^3
#
#
#
# Elastic Constant Matrix: (Units=GPa)
#
#
# Indices 1 2 3 4 5 6 
#
# 1 97.9898 3.6907 18.5289 0.0000 5.2144 0.0000
# 2 3.6907 127.0237 24.5213 0.0000 2.2216 0.0000
# 3 18.5289 24.5213 110.7739 0.0000 10.4154 0.0000
# 4 0.0000 0.0000 0.0000 13.3210 0.0000 6.1868
# 5 5.2144 2.2216 10.4154 0.0000 34.2696 0.0000
# 6 0.0000 0.0000 0.0000 6.1868 0.0000 17.8535
#
#
#
# Elastic Compliance Matrix: (Units=1/GPa)
#
#
# Indices 1 2 3 4 5 6 
#
# 1 0.010579 0.000035 -0.001674 0.000000 -0.001103 0.000000
# 2 0.000035 0.008224 -0.001828 0.000000 0.000017 0.000000
# 3 -0.001674 -0.001828 0.009962 0.000000 -0.002654 0.000000
# 4 0.000000 0.000000 0.000000 0.089469 0.000000 -0.031004
# 5 -0.001103 0.000017 -0.002654 0.000000 0.030154 0.000000
# 6 0.000000 0.000000 0.000000 -0.031004 0.000000 0.066755
#
#
# Mechanical properties :
#
#
# Convention : Reuss Voigt Hill
#
# Bulk Modulus (GPa) = 45.80513 47.69657 46.75085
# Shear Modulus (GPa) = 21.80046 32.35858 27.07952
#
# Velocity S-wave (km/s) = 2.90745 3.54221 3.24041
# Velocity P-wave (km/s) = 5.38816 5.93500 5.66818
#
# Compressibility (1/GPa) = 0.02183162
#
# Stress axis : x y z
#
# Youngs Moduli (GPa) = 94.52705 121.59361 100.38597
#
# Poissons Ratio (x) = -0.00425 0.16800
# Poissons Ratio (y) = -0.00331 0.18350
# Poissons Ratio (z) = 0.15819 0.22227
#
# Static dielectric constant tensor:
#      x y z
#    x 2.085180 0.000000 -0.108770 
#    y 0.000000 1.992460 0.000000 
#    z -0.108770 0.000000 2.070520 
# 
# From -- ./inp_files/61656.got.cif
#   From: 2010.05.17/outbox.cif.g08.bks.cpg/sg10_31_cif.got.tgz:61656.got - 2010.06.03 11:33:40.
