data_PCOD9154739
_publ_section_title
;
Structure prediction by ZEFSAII (Michael W. Deem and Ramdas Pophale) SiO2 
 PCOD9154739
Probable space group: P 2/M
;
_chemical_formula_sum "Si O2"
_cell_formula_units_Z 16
_cell_length_a 7.450777
_cell_length_b 9.753085
_cell_length_c 10.862183
_cell_angle_alpha 90.000000
_cell_angle_beta 63.048293
_cell_angle_gamma 90.000000
_cell_volume 703.603342
_symmetry_space_group_name_H-M "P 2/M"
_symmetry_group_IT_number 10
_symmetry_cell_setting 'monoclinic'
loop_
_space_group_symop_operation_xyz
x,y,z
-x,y,-z
-x,-y,-z
x,-y,z
loop_
_atom_site_type_symbol
_atom_site_label
_atom_site_fract_x
_atom_site_fract_y
_atom_site_fract_z
Si Si1 0.287145 0.349594 0.494171
Si Si2 0.306284 0.341949 0.902859
Si Si3 0.678524 0.844831 0.743795
Si Si4 0.999006 0.724435 0.797689
O O1 0.500000 0.335658 0.500000
O O2 0.284605 0.500000 0.434178
O O3 0.268181 0.228560 0.401767
O O4 0.109407 0.346455 0.649106
O O5 0.337804 0.500000 0.852055
O O6 0.508576 0.255546 0.852377
O O7 0.177848 0.258693 0.840417
O O8 0.169486 0.349543 0.066983
O O9 0.871466 0.843672 0.773360
O O10 0.606641 0.000000 0.749595
#
# Coordination Sequence:
#
# PCOD9154739 Si02
#       4
#     4   4   4   4
#     4  11  23  44  73 103 135 176 231 291 344 399
#     4  11  24  45  74 106 137 175 230 292 345 399
#     4  12  28  46  68 102 144 188 228 274 341 419
#     4  11  24  43  72 104 137 177 228 285 345 405
#
# _framework density 22.740082999999998
#
# number of rings (size 3 to 8) (size 9 to 14) (size 15 to 20)
#    0.000    0.750    2.500    5.250    0.000   13.500 
#    0.000    2.500    0.000    0.000    0.000    0.000 
#    0.000    0.000    0.000    0.000    0.000    0.000 
#
# Total GULP energy -89327.781264 kJ/mol
# GULP energy per Si atom -5582.986329 kJ/mol
# Density = 2.268833 g / cm^3
# Si number density = 22.740083 Si / 1000 Ang^3
#
#
#
# Elastic Constant Matrix: (Units=GPa)
#
#
# Indices 1 2 3 4 5 6 
#
# 1 130.8002 62.8671 26.5206 0.0000 5.2245 0.0000
# 2 62.8671 109.2752 32.1369 0.0000 5.0958 0.0000
# 3 26.5206 32.1369 152.2557 0.0000 -20.9299 0.0000
# 4 0.0000 0.0000 0.0000 -74.8599 0.0000 -13.8470
# 5 5.2245 5.0958 -20.9299 0.0000 37.3527 0.0000
# 6 0.0000 0.0000 0.0000 -13.8470 0.0000 21.5422
#
#
#
# Elastic Compliance Matrix: (Units=1/GPa)
#
#
# Indices 1 2 3 4 5 6 
#
# 1 0.010660 -0.005852 -0.000777 0.000000 -0.001128 0.000000
# 2 -0.005852 0.013226 -0.002067 0.000000 -0.002144 0.000000
# 3 -0.000777 -0.002067 0.007793 0.000000 0.004758 0.000000
# 4 0.000000 0.000000 0.000000 -0.011939 0.000000 -0.007674
# 5 -0.001128 -0.002144 0.004758 0.000000 0.029888 0.000000
# 6 0.000000 0.000000 0.000000 -0.007674 0.000000 0.041488
#
#
# Mechanical properties :
#
#
# Convention : Reuss Voigt Hill
#
# Bulk Modulus (GPa) = 69.98774 70.59782 70.29278
# Shear Modulus (GPa) = 44.14198 14.86078 29.50138
#
# Velocity S-wave (km/s) = 4.41063 2.55915 3.60575
# Velocity P-wave (km/s) = 7.53540 6.31231 6.95081
#
# Compressibility (1/GPa) = 0.01428822
#
# Stress axis : x y z
#
# Youngs Moduli (GPa) = 93.80424 75.60967 128.31246
#
# Poissons Ratio (x) = 0.44247 0.09967
# Poissons Ratio (y) = 0.54895 0.26522
# Poissons Ratio (z) = 0.07286 0.15628
#
# Static dielectric constant tensor:
#      x y z
#    x 1.877380 0.000000 0.008210 
#    y 0.000000 1.747100 0.000000 
#    z 0.008210 0.000000 1.870510 
# 
# From -- ./inp_files/40392.got.cif
#   From: 2010.05.17/outbox.cif.g08.bks.cpg/sg10_21_cif.got.tgz:40392.got - 2010.06.03 11:33:40.
