data_PCOD9154368
_publ_section_title
;
Structure prediction by ZEFSAII (Michael W. Deem and Ramdas Pophale) SiO2 
 PCOD9154368
Probable space group: P 2/M
;
_chemical_formula_sum "Si O2"
_cell_formula_units_Z 20
_cell_length_a 28.362981
_cell_length_b 8.820186
_cell_length_c 16.572977
_cell_angle_alpha 90.000000
_cell_angle_beta 163.608750
_cell_angle_gamma 90.000000
_cell_volume 1169.982549
_symmetry_space_group_name_H-M "P 2/M"
_symmetry_group_IT_number 10
_symmetry_cell_setting 'monoclinic'
loop_
_space_group_symop_operation_xyz
x,y,z
-x,y,-z
-x,-y,-z
x,-y,z
loop_
_atom_site_type_symbol
_atom_site_label
_atom_site_fract_x
_atom_site_fract_y
_atom_site_fract_z
Si Si1 0.657783 0.174261 0.820776
Si Si2 0.439944 0.320301 0.593031
Si Si3 0.465405 0.183496 0.811929
Si Si4 0.139414 0.184250 0.994929
Si Si5 0.233992 0.183994 0.577452
O O1 0.500000 0.174305 0.500000
O O2 0.599373 0.270663 0.800854
O O3 0.685856 0.000000 0.892087
O O4 0.809029 0.227217 0.012051
O O5 0.425781 0.500000 0.570459
O O6 0.453506 0.255528 0.705005
O O7 0.277874 0.249746 0.282625
O O8 0.313782 0.229077 0.622718
O O9 0.463241 0.000000 0.801208
O O10 0.634849 0.227406 0.137498
O O11 0.953960 0.234485 0.714279
O O12 0.149140 0.000000 0.014258
O O13 0.231654 0.000000 0.573372
#
# Coordination Sequence:
#
# PCOD9154368 Si02
#       5
#     4   4   4   4   4
#     4   8  15  29  49  70  93 123 158 197 239 279
#     4  11  21  31  46  71 101 131 161 192 232 283
#     4   9  17  33  54  73  95 124 159 197 238 283
#     4   9  17  32  53  75  96 120 157 202 242 279
#     4   8  16  32  55  76  92 119 160 202 241 281
#
# _framework density 17.094270999999999
#
# number of rings (size 3 to 8) (size 9 to 14) (size 15 to 20)
#    0.000    3.000    0.000    4.200    0.000    4.400 
#    0.000    9.000    0.000    6.000    0.000    0.000 
#    0.000    0.000    0.000    0.000    0.000    0.000 
#
# Total GULP energy -111418.632120 kJ/mol
# GULP energy per Si atom -5570.931606 kJ/mol
# Density = 1.705536 g / cm^3
# Si number density = 17.094271 Si / 1000 Ang^3
#
#
#
# Elastic Constant Matrix: (Units=GPa)
#
#
# Indices 1 2 3 4 5 6 
#
# 1 178.5683 52.3031 105.0757 0.0000 24.4946 0.0000
# 2 52.3031 39.9910 37.5044 0.0000 8.5988 0.0000
# 3 105.0757 37.5044 25.9875 0.0000 -15.9802 0.0000
# 4 0.0000 0.0000 0.0000 0.7658 0.0000 4.3049
# 5 24.4946 8.5988 -15.9802 0.0000 -4.1695 0.0000
# 6 0.0000 0.0000 0.0000 4.3049 0.0000 -18.7807
#
#
#
# Elastic Compliance Matrix: (Units=1/GPa)
#
#
# Indices 1 2 3 4 5 6 
#
# 1 0.007183 -0.012774 -0.000256 0.000000 0.016835 0.000000
# 2 -0.012774 0.040113 -0.000452 0.000000 0.009412 0.000000
# 3 -0.000256 -0.000452 0.011520 0.000000 -0.046587 0.000000
# 4 0.000000 0.000000 0.000000 0.570582 0.000000 0.130789
# 5 0.016835 0.009412 -0.046587 0.000000 0.057022 0.000000
# 6 0.000000 0.000000 0.000000 0.130789 0.000000 -0.023267
#
#
# Mechanical properties :
#
#
# Convention : Reuss Voigt Hill
#
# Bulk Modulus (GPa) = 31.39555 70.47926 50.93741
# Shear Modulus (GPa) = 7.13537 -1.12597 3.00470
#
# Velocity S-wave (km/s) = 2.04529 -0.81247 1.32723
# Velocity P-wave (km/s) = 4.89730 6.35918 5.67550
#
# Compressibility (1/GPa) = 0.03185164
#
# Stress axis : x y z
#
# Youngs Moduli (GPa) = 139.21656 24.92971 86.80656
#
# Poissons Ratio (x) = 0.31846 0.02222
# Poissons Ratio (y) = 1.77839 0.03922
# Poissons Ratio (z) = 0.03563 0.01126
#
# Static dielectric constant tensor:
#      x y z
#    x 1.578320 0.000000 0.032080 
#    y 0.000000 1.563700 0.000000 
#    z 0.032080 0.000000 1.577820 
# 
# From -- ./inp_files/22283.got.cif
#   From: 2010.05.17/outbox.cif.g08.bks.cpg/sg10_12_cif.got.tgz:22283.got - 2010.06.03 11:33:40.
