data_PCOD9154205
_publ_section_title
;
Structure prediction by ZEFSAII (Michael W. Deem and Ramdas Pophale) SiO2 
 PCOD9154205
Probable space group: P 2/M
;
_chemical_formula_sum "Si O2"
_cell_formula_units_Z 20
_cell_length_a 10.001921
_cell_length_b 11.494935
_cell_length_c 19.360161
_cell_angle_alpha 90.000000
_cell_angle_beta 29.416308
_cell_angle_gamma 90.000000
_cell_volume 1093.237603
_symmetry_space_group_name_H-M "P 2/M"
_symmetry_group_IT_number 10
_symmetry_cell_setting 'monoclinic'
loop_
_space_group_symop_operation_xyz
x,y,z
-x,y,-z
-x,-y,-z
x,-y,z
loop_
_atom_site_type_symbol
_atom_site_label
_atom_site_fract_x
_atom_site_fract_y
_atom_site_fract_z
Si Si1 0.034132 0.861623 0.063911
Si Si2 0.721368 0.500000 0.031540
Si Si3 0.640355 0.500000 0.222532
Si Si4 0.512529 0.265958 0.915575
Si Si5 0.890311 0.638947 0.355958
Si Si6 0.628174 0.299422 0.331137
O O1 0.808863 0.801606 0.214929
O O2 0.002987 0.000000 0.080610
O O3 0.000000 0.820622 0.000000
O O4 0.337441 0.823837 0.949847
O O5 0.034719 0.500000 0.911389
O O6 0.569680 0.500000 0.173940
O O7 0.646976 0.387130 0.022163
O O8 0.552232 0.386407 0.303290
O O9 0.821456 0.300574 0.759650
O O10 0.500000 0.226329 0.000000
O O11 0.886936 0.500000 0.375519
O O12 0.659080 0.712592 0.500088
O O13 0.813742 0.645809 0.308939
#
# Coordination Sequence:
#
# PCOD9154205 Si02
#       6
#     4   2   2   4   4   4
#     4  11  25  45  65  85 116 162 212 255 297 349
#     4  11  21  29  55  90 121 154 196 243 304 353
#     4  11  18  32  55  85 120 161 197 238 290 379
#     4  12  22  37  61  91 124 154 200 252 303 358
#     4  11  21  36  59  96 132 157 190 242 310 367
#     4  11  20  38  60  88 124 164 198 242 300 361
#
# _framework density 18.294284999999999
#
# number of rings (size 3 to 8) (size 9 to 14) (size 15 to 20)
#    0.000    0.800    7.000    2.100    0.000    0.400 
#    0.000    8.000    0.000    2.400    0.000    0.000 
#    0.000    0.000    0.000    0.000    0.000    0.000 
#
# Total GULP energy -111523.438117 kJ/mol
# GULP energy per Si atom -5576.171906 kJ/mol
# Density = 1.825265 g / cm^3
# Si number density = 18.294285 Si / 1000 Ang^3
#
#
#
# Elastic Constant Matrix: (Units=GPa)
#
#
# Indices 1 2 3 4 5 6 
#
# 1 100.5600 14.1418 39.3283 0.0000 0.7395 0.0000
# 2 14.1418 51.5438 32.0468 0.0000 1.7112 0.0000
# 3 39.3283 32.0468 137.0038 0.0000 -10.6468 0.0000
# 4 0.0000 0.0000 0.0000 11.0523 0.0000 -6.3789
# 5 0.7395 1.7112 -10.6468 0.0000 29.8808 0.0000
# 6 0.0000 0.0000 0.0000 -6.3789 0.0000 15.2981
#
#
#
# Elastic Compliance Matrix: (Units=1/GPa)
#
#
# Indices 1 2 3 4 5 6 
#
# 1 0.011321 -0.001145 -0.003084 0.000000 -0.001314 0.000000
# 2 -0.001145 0.023136 -0.005331 0.000000 -0.003196 0.000000
# 3 -0.003084 -0.005331 0.009731 0.000000 0.003849 0.000000
# 4 0.000000 0.000000 0.000000 0.119154 0.000000 0.049685
# 5 -0.001314 -0.003196 0.003849 0.000000 0.035053 0.000000
# 6 0.000000 0.000000 0.000000 0.049685 0.000000 0.086085
#
#
# Mechanical properties :
#
#
# Convention : Reuss Voigt Hill
#
# Bulk Modulus (GPa) = 39.89378 51.12682 45.51030
# Shear Modulus (GPa) = 16.02785 24.81896 20.42340
#
# Velocity S-wave (km/s) = 2.96313 3.68727 3.34485
# Velocity P-wave (km/s) = 5.79318 6.79231 6.31254
#
# Compressibility (1/GPa) = 0.02506656
#
# Stress axis : x y z
#
# Youngs Moduli (GPa) = 88.33013 43.22264 102.76882
#
# Poissons Ratio (x) = 0.04949 0.31695
# Poissons Ratio (y) = 0.10114 0.54791
# Poissons Ratio (z) = 0.27242 0.23044
#
# Static dielectric constant tensor:
#      x y z
#    x 1.638620 0.000000 0.019690 
#    y 0.000000 1.609710 0.000000 
#    z 0.019690 0.000000 1.689580 
# 
# From -- ./inp_files/74964.got.cif
#   From: 2010.05.17/outbox.cif.g08.bks.cpg/sg10_38_cif.got.tgz:74964.got - 2010.06.03 11:33:40.
