data_PCOD9154904
_publ_section_title
;
Structure prediction by ZEFSAII (Michael W. Deem and Ramdas Pophale) SiO2 
 PCOD9154904
Probable space group: P 2/M
;
_chemical_formula_sum "Si O2"
_cell_formula_units_Z 28
_cell_length_a 21.256965
_cell_length_b 7.357105
_cell_length_c 22.841609
_cell_angle_alpha 90.000000
_cell_angle_beta 162.244271
_cell_angle_gamma 90.000000
_cell_volume 1089.374264
_symmetry_space_group_name_H-M "P 2/M"
_symmetry_group_IT_number 10
_symmetry_cell_setting 'monoclinic'
loop_
_space_group_symop_operation_xyz
x,y,z
-x,y,-z
-x,-y,-z
x,-y,z
loop_
_atom_site_type_symbol
_atom_site_label
_atom_site_fract_x
_atom_site_fract_y
_atom_site_fract_z
Si Si1 0.847437 0.779824 0.130071
Si Si2 0.288487 0.217012 0.738673
Si Si3 0.783200 0.217411 0.199263
Si Si4 0.546984 0.281831 0.364904
Si Si5 0.911151 0.711159 0.058747
Si Si6 0.627610 0.784237 0.310295
Si Si7 0.334032 0.722778 0.400323
O O1 0.890443 0.716235 0.234582
O O2 0.964880 0.719462 0.175728
O O3 0.853920 0.000000 0.136367
O O4 0.609649 0.719829 0.906879
O O5 0.184911 0.288366 0.706518
O O6 0.251280 0.285744 0.639609
O O7 0.247153 0.000000 0.702447
O O8 0.536373 0.237744 0.968350
O O9 0.824013 0.000000 0.237307
O O10 0.542881 0.500000 0.363252
O O11 0.679635 0.240270 0.424471
O O12 0.607728 0.218293 0.482730
O O13 0.315093 0.208495 0.148822
O O14 0.891664 0.500000 0.025966
O O15 0.097169 0.783550 0.184482
O O16 0.624232 0.000000 0.298854
O O17 0.500000 0.782645 0.500000
O O18 0.334299 0.500000 0.399454
#
# Coordination Sequence:
#
# PCOD9154904 Si02
#       7
#     4   4   4   4   4   4   4
#     4   8  13  22  38  60  86 116 147 178 213 253
#     4   7   9  14  27  50  79 109 142 178 211 243
#     4   7   9  14  27  50  79 109 142 178 211 243
#     4   9  17  29  46  67  89 113 141 175 214 253
#     4   9  17  29  46  67  89 113 141 175 214 253
#     4   8  13  22  38  60  86 116 147 178 213 253
#     4   9  18  32  49  69  90 111 140 176 211 253
#
# _framework density 25.702826999999999
#
# number of rings (size 3 to 8) (size 9 to 14) (size 15 to 20)
#    0.000    3.857    0.000    2.571    0.000    0.571 
#    0.000    3.571    0.000    2.571    0.000   11.000 
#    0.000    8.000    0.000    0.857    0.000    0.000 
#
# Total GULP energy -156255.100948 kJ/mol
# GULP energy per Si atom -5580.539320 kJ/mol
# Density = 2.564433 g / cm^3
# Si number density = 25.702827 Si / 1000 Ang^3
#
#
#
# Elastic Constant Matrix: (Units=GPa)
#
#
# Indices 1 2 3 4 5 6 
#
# 1 161.1750 -4.6300 57.9445 0.0000 38.2819 0.0000
# 2 -4.6300 93.4085 -5.9265 0.0000 3.0028 0.0000
# 3 57.9445 -5.9265 81.7738 0.0000 22.4886 0.0000
# 4 0.0000 0.0000 0.0000 16.3359 0.0000 20.8987
# 5 38.2819 3.0028 22.4886 0.0000 54.5686 0.0000
# 6 0.0000 0.0000 0.0000 20.8987 0.0000 46.3458
#
#
#
# Elastic Compliance Matrix: (Units=1/GPa)
#
#
# Indices 1 2 3 4 5 6 
#
# 1 0.009114 0.000253 -0.005275 0.000000 -0.004234 0.000000
# 2 0.000253 0.010814 0.000921 0.000000 -0.001152 0.000000
# 3 -0.005275 0.000921 0.016951 0.000000 -0.003336 0.000000
# 4 0.000000 0.000000 0.000000 0.144676 0.000000 -0.065239
# 5 -0.004234 -0.001152 -0.003336 0.000000 0.022734 0.000000
# 6 0.000000 0.000000 0.000000 -0.065239 0.000000 0.050995
#
#
# Mechanical properties :
#
#
# Convention : Reuss Voigt Hill
#
# Bulk Modulus (GPa) = 34.87171 47.90371 41.38771
# Shear Modulus (GPa) = 18.31207 42.71467 30.51337
#
# Velocity S-wave (km/s) = 2.67208 4.08102 3.44926
# Velocity P-wave (km/s) = 4.80799 6.39408 5.65690
#
# Compressibility (1/GPa) = 0.02867654
#
# Stress axis : x y z
#
# Youngs Moduli (GPa) = 109.72348 92.47528 58.99335
#
# Poissons Ratio (x) = -0.02341 0.31121
# Poissons Ratio (y) = -0.02777 -0.05435
# Poissons Ratio (z) = 0.57883 -0.08519
#
# Static dielectric constant tensor:
#      x y z
#    x 2.007360 0.000000 -0.015080 
#    y 0.000000 2.002520 0.000000 
#    z -0.015080 0.000000 2.102690 
# 
# From -- ./inp_files/35924.got.cif
#   From: 2010.05.17/outbox.cif.g08.bks.cpg/sg10_18_cif.got.tgz:35924.got - 2010.06.03 11:33:40.
