data_PCOD9154116
_publ_section_title
;
Structure prediction by ZEFSAII (Michael W. Deem and Ramdas Pophale) SiO2 
 PCOD9154116
Probable space group: P 2/M
;
_chemical_formula_sum "Si O2"
_cell_formula_units_Z 11
_cell_length_a 10.862916
_cell_length_b 5.150239
_cell_length_c 17.187106
_cell_angle_alpha 90.000000
_cell_angle_beta 148.727302
_cell_angle_gamma 90.000000
_cell_volume 499.157430
_symmetry_space_group_name_H-M "P 2/M"
_symmetry_group_IT_number 10
_symmetry_cell_setting 'monoclinic'
loop_
_space_group_symop_operation_xyz
x,y,z
-x,y,-z
-x,-y,-z
x,-y,z
loop_
_atom_site_type_symbol
_atom_site_label
_atom_site_fract_x
_atom_site_fract_y
_atom_site_fract_z
Si Si1 0.071236 0.000000 0.879757
Si Si2 0.214299 0.500000 0.856731
Si Si3 0.500000 0.500000 0.500000
Si Si4 0.513016 0.000000 0.611407
Si Si5 0.514829 0.000000 0.220806
Si Si6 0.801677 0.500000 0.326739
O O1 0.130960 0.749012 0.860193
O O2 0.799403 0.000000 0.757760
O O3 0.242475 0.000000 0.046867
O O4 0.109128 0.500000 0.713356
O O5 0.500000 0.500000 0.000000
O O6 0.432521 0.265259 0.526296
O O7 0.451670 0.000000 0.668892
O O8 0.639639 0.249227 0.251674
O O9 0.000000 0.500000 0.500000
#
# Coordination Sequence:
#
# PCOD9154116 Si02
#       6
#     2   2   1   2   2   2
#     4  12  24  42  73 101 128 182 224 279 335 404
#     4  12  23  44  69  94 141 175 228 277 327 394
#     4  10  24  44  62  94 140 174 214 266 330 412
#     4  11  25  44  71  99 135 174 224 271 350 398
#     4  12  24  45  68  97 140 167 224 291 326 401
#     4  12  27  43  67 100 133 184 224 275 343 389
#
# _framework density 22.037133000000001
#
# number of rings (size 3 to 8) (size 9 to 14) (size 15 to 20)
#    0.000    0.364    3.636    4.909    0.000    8.727 
#    0.000    5.455    0.000    0.000    0.000    0.000 
#    0.000    0.000    0.000    0.000    0.000    0.000 
#
# Total GULP energy -61381.719811 kJ/mol
# GULP energy per Si atom -5580.156346 kJ/mol
# Density = 2.198698 g / cm^3
# Si number density = 22.037133 Si / 1000 Ang^3
#
#
#
# Elastic Constant Matrix: (Units=GPa)
#
#
# Indices 1 2 3 4 5 6 
#
# 1 85.4561 42.0381 -5.5689 0.0000 -29.7852 0.0000
# 2 42.0381 240.0211 4.1290 0.0000 -14.2950 0.0000
# 3 -5.5689 4.1290 74.9823 0.0000 -12.8997 0.0000
# 4 0.0000 0.0000 0.0000 23.0583 0.0000 -12.9427
# 5 -29.7852 -14.2950 -12.8997 0.0000 66.0489 0.0000
# 6 0.0000 0.0000 0.0000 -12.9427 0.0000 23.8879
#
#
#
# Elastic Compliance Matrix: (Units=1/GPa)
#
#
# Indices 1 2 3 4 5 6 
#
# 1 0.015426 -0.002331 0.002467 0.000000 0.006934 0.000000
# 2 -0.002331 0.004573 -0.000451 0.000000 -0.000150 0.000000
# 3 0.002467 -0.000451 0.014196 0.000000 0.003788 0.000000
# 4 0.000000 0.000000 0.000000 0.062321 0.000000 0.033766
# 5 0.006934 -0.000150 0.003788 0.000000 0.018975 0.000000
# 6 0.000000 0.000000 0.000000 0.033766 0.000000 0.060157
#
#
# Mechanical properties :
#
#
# Convention : Reuss Voigt Hill
#
# Bulk Modulus (GPa) = 29.79231 53.51734 41.65482
# Shear Modulus (GPa) = 26.67130 46.58977 36.63054
#
# Velocity S-wave (km/s) = 3.48270 4.60298 4.08145
# Velocity P-wave (km/s) = 5.45167 7.25173 6.41515
#
# Compressibility (1/GPa) = 0.03356571
#
# Stress axis : x y z
#
# Youngs Moduli (GPa) = 64.82459 218.65293 70.44184
#
# Poissons Ratio (x) = 0.50974 -0.17378
# Poissons Ratio (y) = 0.15112 0.03175
# Poissons Ratio (z) = -0.15992 0.09855
#
# Static dielectric constant tensor:
#      x y z
#    x 1.748760 0.000000 0.012260 
#    y 0.000000 1.732800 0.000000 
#    z 0.012260 0.000000 1.878780 
# 
# From -- ./inp_files/59866.got.cif
#   From: 2010.05.17/outbox.cif.g08.bks.cpg/sg10_30_cif.got.tgz:59866.got - 2010.06.03 11:33:40.
