data_PCOD9154538
_publ_section_title
;
Structure prediction by ZEFSAII (Michael W. Deem and Ramdas Pophale) SiO2 
 PCOD9154538
Probable space group: P 2/M
;
_chemical_formula_sum "Si O2"
_cell_formula_units_Z 16
_cell_length_a 8.180141
_cell_length_b 12.638003
_cell_length_c 10.871969
_cell_angle_alpha 90.000000
_cell_angle_beta 140.098041
_cell_angle_gamma 90.000000
_cell_volume 720.987554
_symmetry_space_group_name_H-M "P 2/M"
_symmetry_group_IT_number 10
_symmetry_cell_setting 'monoclinic'
loop_
_space_group_symop_operation_xyz
x,y,z
-x,y,-z
-x,-y,-z
x,-y,z
loop_
_atom_site_type_symbol
_atom_site_label
_atom_site_fract_x
_atom_site_fract_y
_atom_site_fract_z
Si Si1 0.844529 0.879204 0.612335
Si Si2 0.745637 0.216939 0.305849
Si Si3 0.762993 0.327968 0.710024
Si Si4 0.685197 0.380999 0.951110
O O1 0.133656 0.857305 0.729593
O O2 0.686864 0.849769 0.396311
O O3 0.783494 0.795441 0.683142
O O4 0.808914 0.000000 0.626608
O O5 0.524445 0.293789 0.139917
O O6 0.000000 0.279865 0.500000
O O7 0.500000 0.368295 0.500000
O O8 0.737152 0.356110 0.837422
O O9 0.037623 0.371658 0.825546
O O10 0.589497 0.500000 0.910543
#
# Coordination Sequence:
#
# PCOD9154538 Si02
#       4
#     4   4   4   4
#     4   9  19  39  65  87 120 159 191 246 305 347
#     4   8  18  40  61  90 122 150 196 249 285 365
#     4  11  21  41  60  89 122 155 205 245 286 361
#     4  11  24  40  60  89 123 158 201 247 293 351
#
# _framework density 22.191784999999999
#
# number of rings (size 3 to 8) (size 9 to 14) (size 15 to 20)
#    1.500    0.500    2.500    3.000    0.000    4.000 
#    0.000   10.000    0.000    0.000    0.000    0.000 
#    0.000    0.000    0.000    0.000    0.000    0.000 
#
# Total GULP energy -89117.409866 kJ/mol
# GULP energy per Si atom -5569.838117 kJ/mol
# Density = 2.214128 g / cm^3
# Si number density = 22.191785 Si / 1000 Ang^3
#
#
#
# Elastic Constant Matrix: (Units=GPa)
#
#
# Indices 1 2 3 4 5 6 
#
# 1 61.0982 14.5489 18.6605 0.0000 0.8175 0.0000
# 2 14.5489 137.6559 23.1182 0.0000 -1.5704 0.0000
# 3 18.6605 23.1182 107.2157 0.0000 22.2000 0.0000
# 4 0.0000 0.0000 0.0000 55.5971 0.0000 -59.0857
# 5 0.8175 -1.5704 22.2000 0.0000 34.9619 0.0000
# 6 0.0000 0.0000 0.0000 -59.0857 0.0000 96.5613
#
#
#
# Elastic Compliance Matrix: (Units=1/GPa)
#
#
# Indices 1 2 3 4 5 6 
#
# 1 0.017605 -0.001325 -0.003087 0.000000 0.001489 0.000000
# 2 -0.001325 0.007714 -0.001739 0.000000 0.001482 0.000000
# 3 -0.003087 -0.001739 0.011791 0.000000 -0.007493 0.000000
# 4 0.000000 0.000000 0.000000 0.051433 0.000000 0.031472
# 5 0.001489 0.001482 -0.007493 0.000000 0.033392 0.000000
# 6 0.000000 0.000000 0.000000 0.031472 0.000000 0.029614
#
#
# Mechanical properties :
#
#
# Convention : Reuss Voigt Hill
#
# Bulk Modulus (GPa) = 40.31126 46.51386 43.41256
# Shear Modulus (GPa) = 29.04934 54.06687 41.55810
#
# Velocity S-wave (km/s) = 3.62195 4.94129 4.33214
# Velocity P-wave (km/s) = 5.97459 7.31851 6.68043
#
# Compressibility (1/GPa) = 0.02480697
#
# Stress axis : x y z
#
# Youngs Moduli (GPa) = 56.80045 129.64125 84.81249
#
# Poissons Ratio (x) = 0.17182 0.26179
# Poissons Ratio (y) = 0.07528 0.14752
# Poissons Ratio (z) = 0.17532 0.22550
#
# Static dielectric constant tensor:
#      x y z
#    x 1.993990 0.000000 -0.019430 
#    y 0.000000 1.767340 0.000000 
#    z -0.019430 0.000000 1.903050 
# 
# From -- ./inp_files/64202.got.cif
#   From: 2010.05.17/outbox.cif.g08.bks.cpg/sg10_33_cif.got.tgz:64202.got - 2010.06.03 11:33:40.
