data_PCOD9154950
_publ_section_title
;
Structure prediction by ZEFSAII (Michael W. Deem and Ramdas Pophale) SiO2 
 PCOD9154950
Probable space group: P 2/M
;
_chemical_formula_sum "Si O2"
_cell_formula_units_Z 32
_cell_length_a 7.664397
_cell_length_b 9.665155
_cell_length_c 20.649428
_cell_angle_alpha 90.000000
_cell_angle_beta 80.113090
_cell_angle_gamma 90.000000
_cell_volume 1506.942138
_symmetry_space_group_name_H-M "P 2/M"
_symmetry_group_IT_number 10
_symmetry_cell_setting 'monoclinic'
loop_
_space_group_symop_operation_xyz
x,y,z
-x,y,-z
-x,-y,-z
x,-y,z
loop_
_atom_site_type_symbol
_atom_site_label
_atom_site_fract_x
_atom_site_fract_y
_atom_site_fract_z
Si Si1 0.322578 0.835404 0.094721
Si Si2 0.968333 0.657920 0.347437
Si Si3 0.422190 0.157630 0.401351
Si Si4 0.598754 0.657461 0.288441
Si Si5 0.142535 0.841764 0.232616
Si Si6 0.221813 0.158445 0.824424
Si Si7 0.210573 0.842160 0.539757
Si Si8 0.740768 0.162895 0.039269
O O1 0.268600 0.781200 0.168397
O O2 0.531496 0.825788 0.068519
O O3 0.278676 0.000000 0.100726
O O4 0.232627 0.778238 0.034494
O O5 0.024502 0.500000 0.353721
O O6 0.784189 0.655137 0.317408
O O7 0.917329 0.736050 0.416606
O O8 0.105574 0.747078 0.296623
O O9 0.457717 0.264034 0.342038
O O10 0.606286 0.157069 0.430644
O O11 0.270481 0.191677 0.463051
O O12 0.395658 0.000000 0.379967
O O13 0.549184 0.500000 0.277721
O O14 0.641086 0.745928 0.222045
O O15 0.953911 0.848592 0.207341
O O16 0.192717 0.000000 0.246899
O O17 0.174494 0.212358 0.899207
O O18 0.290312 0.000000 0.826016
O O19 0.142100 0.000000 0.546805
O O20 0.785714 0.000000 0.031086
#
# Coordination Sequence:
#
# PCOD9154950 Si02
#       8
#     4   4   4   4   4   4   4   4
#     4   8  14  25  41  61  83 104 128 163 205 242
#     4   9  16  24  34  50  75 106 136 166 200 237
#     4   8  13  21  33  49  71 101 135 168 201 237
#     4   9  16  24  34  50  75 106 136 166 200 237
#     4   9  16  25  39  59  81 105 133 165 200 238
#     4   9  16  25  39  59  81 105 133 165 200 238
#     4   8  13  21  33  49  71 101 135 168 201 237
#     4   8  14  25  41  61  83 104 128 163 205 242
#
# _framework density 21.235056
#
# number of rings (size 3 to 8) (size 9 to 14) (size 15 to 20)
#    0.000    3.500    0.000    2.250    0.000    4.000 
#    0.000    5.000    0.000    1.500    0.000    5.250 
#    0.000    1.000    0.000   11.500    0.000   14.750 
#
# Total GULP energy -178461.181087 kJ/mol
# GULP energy per Si atom -5576.911909 kJ/mol
# Density = 2.118672 g / cm^3
# Si number density = 21.235056 Si / 1000 Ang^3
#
#
#
# Elastic Constant Matrix: (Units=GPa)
#
#
# Indices 1 2 3 4 5 6 
#
# 1 29.6006 47.6154 73.4225 0.0000 19.3914 0.0000
# 2 47.6154 72.8756 47.2304 0.0000 -32.1060 0.0000
# 3 73.4225 47.2304 84.3864 0.0000 -57.5096 0.0000
# 4 0.0000 0.0000 0.0000 -11.5418 0.0000 7.2569
# 5 19.3914 -32.1060 -57.5096 0.0000 19.1584 0.0000
# 6 0.0000 0.0000 0.0000 7.2569 0.0000 -4.9112
#
#
#
# Elastic Compliance Matrix: (Units=1/GPa)
#
#
# Indices 1 2 3 4 5 6 
#
# 1 0.004870 -0.000714 0.007662 0.000000 0.016875 0.000000
# 2 -0.000714 0.021637 -0.013114 0.000000 -0.002385 0.000000
# 3 0.007662 -0.013114 0.007401 0.000000 -0.007517 0.000000
# 4 0.000000 0.000000 0.000000 -1.221249 0.000000 -1.804552
# 5 0.016875 -0.002385 -0.007517 0.000000 0.008556 0.000000
# 6 0.000000 0.000000 0.000000 -1.804552 0.000000 -2.870074
#
#
# Mechanical properties :
#
#
# Convention : Reuss Voigt Hill
#
# Bulk Modulus (GPa) = 46.34589 58.15544 52.25067
# Shear Modulus (GPa) = -1.24090 1.78070 0.26990
#
# Velocity S-wave (km/s) = -0.76527 0.91673 0.35690
# Velocity P-wave (km/s) = 4.59257 5.34476 4.98288
#
# Compressibility (1/GPa) = 0.02157689
#
# Stress axis : x y z
#
# Youngs Moduli (GPa) = 205.32487 46.21703 135.11751
#
# Poissons Ratio (x) = 0.03298 -1.03530
# Poissons Ratio (y) = 0.14652 1.77198
# Poissons Ratio (z) = -1.57325 0.60611
#
# Static dielectric constant tensor:
#      x y z
#    x 1.857970 0.000000 0.015150 
#    y 0.000000 1.707190 0.000000 
#    z 0.015150 0.000000 1.784690 
# 
# From -- ./inp_files/82359.got.cif
#   From: 2010.05.17/outbox.cif.g08.bks.cpg/sg10_42_cif.got.tgz:82359.got - 2010.06.03 11:33:40.
