data_PCOD9154313
_publ_section_title
;
Structure prediction by ZEFSAII (Michael W. Deem and Ramdas Pophale) SiO2 
 PCOD9154313
Probable space group: P 2/M
;
_chemical_formula_sum "Si O2"
_cell_formula_units_Z 28
_cell_length_a 10.258851
_cell_length_b 7.849263
_cell_length_c 30.724136
_cell_angle_alpha 90.000000
_cell_angle_beta 34.564171
_cell_angle_gamma 90.000000
_cell_volume 1403.596215
_symmetry_space_group_name_H-M "P 2/M"
_symmetry_group_IT_number 10
_symmetry_cell_setting 'monoclinic'
loop_
_space_group_symop_operation_xyz
x,y,z
-x,y,-z
-x,-y,-z
x,-y,z
loop_
_atom_site_type_symbol
_atom_site_label
_atom_site_fract_x
_atom_site_fract_y
_atom_site_fract_z
Si Si1 0.137037 0.302462 0.235925
Si Si2 0.925258 0.707176 0.088611
Si Si3 0.131673 0.198109 0.335660
Si Si4 0.360279 0.291998 0.918844
Si Si5 0.593072 0.698683 0.253244
Si Si6 0.356464 0.792078 0.496902
Si Si7 0.349451 0.802338 0.664780
O O1 0.114039 0.500000 0.229353
O O2 0.155432 0.291742 0.283132
O O3 0.377759 0.232879 0.151050
O O4 0.907703 0.211323 0.283189
O O5 0.936238 0.500000 0.085787
O O6 0.755832 0.755493 0.095406
O O7 0.809128 0.763496 0.165331
O O8 0.180840 0.764767 0.005176
O O9 0.360638 0.214012 0.300873
O O10 0.906985 0.258927 0.423551
O O11 0.091811 0.000000 0.335544
O O12 0.368136 0.500000 0.916975
O O13 0.564571 0.500000 0.250092
O O14 0.631865 0.716750 0.293605
O O15 0.500000 0.738906 0.500000
O O16 0.479375 0.731098 0.419235
O O17 0.365667 0.000000 0.492998
O O18 0.407718 0.000000 0.655552
#
# Coordination Sequence:
#
# PCOD9154313 Si02
#       7
#     4   4   4   4   4   4   4
#     4  11  20  34  57  88 115 141 182 235 281 322
#     4   8  14  28  52  80 110 144 180 222 266 321
#     4  11  21  36  60  84 110 147 189 228 271 330
#     4   8  14  27  52  83 109 139 183 225 265 319
#     4  11  22  38  57  84 117 146 182 231 282 327
#     4   9  18  36  59  81 105 143 192 228 261 327
#     4  11  23  40  59  79 110 151 189 226 275 337
#
# _framework density 19.948755999999999
#
# number of rings (size 3 to 8) (size 9 to 14) (size 15 to 20)
#    0.000    2.143    2.857    2.571    0.000    0.571 
#    0.000    7.143    0.000    8.571    0.000    0.000 
#    0.000    0.000    0.000    0.000    0.000    0.000 
#
# Total GULP energy -156281.754764 kJ/mol
# GULP energy per Si atom -5581.491242 kJ/mol
# Density = 1.990335 g / cm^3
# Si number density = 19.948756 Si / 1000 Ang^3
#
#
#
# Elastic Constant Matrix: (Units=GPa)
#
#
# Indices 1 2 3 4 5 6 
#
# 1 75.5642 -10.0497 60.3848 0.0000 6.9433 0.0000
# 2 -10.0497 27.8544 0.9056 0.0000 0.3394 0.0000
# 3 60.3848 0.9056 198.5026 0.0000 0.2937 0.0000
# 4 0.0000 0.0000 0.0000 4.6812 0.0000 1.7334
# 5 6.9433 0.3394 0.2937 0.0000 31.2629 0.0000
# 6 0.0000 0.0000 0.0000 1.7334 0.0000 27.0755
#
#
#
# Elastic Compliance Matrix: (Units=1/GPa)
#
#
# Indices 1 2 3 4 5 6 
#
# 1 0.019302 0.007208 -0.005898 0.000000 -0.004310 0.000000
# 2 0.007208 0.038603 -0.002366 0.000000 -0.001998 0.000000
# 3 -0.005898 -0.002366 0.006841 0.000000 0.001271 0.000000
# 4 0.000000 0.000000 0.000000 0.218810 0.000000 -0.014008
# 5 -0.004310 -0.001998 0.001271 0.000000 0.032954 0.000000
# 6 0.000000 0.000000 0.000000 -0.014008 0.000000 0.037831
#
#
# Mechanical properties :
#
#
# Convention : Reuss Voigt Hill
#
# Bulk Modulus (GPa) = 15.96580 44.93362 30.44971
# Shear Modulus (GPa) = 13.25103 29.31595 21.28349
#
# Velocity S-wave (km/s) = 2.58011 3.83765 3.26990
# Velocity P-wave (km/s) = 4.11056 6.49693 5.43631
#
# Compressibility (1/GPa) = 0.06263388
#
# Stress axis : x y z
#
# Youngs Moduli (GPa) = 51.80884 25.90477 146.18071
#
# Poissons Ratio (x) = -0.18673 0.86219
# Poissons Ratio (y) = -0.37345 0.34585
# Poissons Ratio (z) = 0.30557 0.06129
#
# Static dielectric constant tensor:
#      x y z
#    x 1.635260 0.000000 -0.005650 
#    y 0.000000 1.730400 0.000000 
#    z -0.005650 0.000000 1.733170 
# 
# From -- ./inp_files/37349.got.cif
#   From: 2010.05.17/outbox.cif.g08.bks.cpg/sg10_19_cif.got.tgz:37349.got - 2010.06.03 11:33:40.
