data_PCOD9154139
_publ_section_title
;
Structure prediction by ZEFSAII (Michael W. Deem and Ramdas Pophale) SiO2 
 PCOD9154139
Probable space group: P 2/M
;
_chemical_formula_sum "Si O2"
_cell_formula_units_Z 14
_cell_length_a 4.982065
_cell_length_b 19.614195
_cell_length_c 5.186922
_cell_angle_alpha 90.000000
_cell_angle_beta 93.454476
_cell_angle_gamma 90.000000
_cell_volume 505.940866
_symmetry_space_group_name_H-M "P 2/M"
_symmetry_group_IT_number 10
_symmetry_cell_setting 'monoclinic'
loop_
_space_group_symop_operation_xyz
x,y,z
-x,y,-z
-x,-y,-z
x,-y,z
loop_
_atom_site_type_symbol
_atom_site_label
_atom_site_fract_x
_atom_site_fract_y
_atom_site_fract_z
Si Si1 0.310515 0.926638 0.739863
Si Si2 0.500000 0.681073 0.500000
Si Si3 0.812484 0.578890 0.235266
Si Si4 0.779967 0.221691 0.179177
O O1 0.500000 0.922504 0.500000
O O2 0.149049 0.856635 0.753228
O O3 0.164967 0.000000 0.731335
O O4 0.500000 0.927477 0.000000
O O5 0.558943 0.627793 0.272660
O O6 0.272743 0.735760 0.565877
O O7 0.725636 0.500000 0.223140
O O8 0.000000 0.588209 0.500000
O O9 0.000000 0.591723 0.000000
O O10 0.500000 0.222322 0.000000
O O11 0.000000 0.251360 0.000000
#
# Coordination Sequence:
#
# PCOD9154139 Si02
#       4
#     4   2   4   4
#     4   9  18  39  66  96 134 182 234 289 345 408
#     4  12  25  40  69  98 142 184 224 294 343 430
#     4  10  24  45  70 100 135 179 232 285 344 415
#     4  11  26  44  67 102 143 186 236 289 352 419
#
# _framework density 27.671218
#
# number of rings (size 3 to 8) (size 9 to 14) (size 15 to 20)
#    0.000    1.714    1.429    1.286    8.000    0.571 
#    0.000    4.286    0.000    8.571    0.000    0.000 
#    0.000    0.000    0.000    0.000    0.000    0.000 
#
# Total GULP energy -78358.600082 kJ/mol
# GULP energy per Si atom -5597.042863 kJ/mol
# Density = 2.760824 g / cm^3
# Si number density = 27.671218 Si / 1000 Ang^3
#
#
#
# Elastic Constant Matrix: (Units=GPa)
#
#
# Indices 1 2 3 4 5 6 
#
# 1 119.1700 20.4646 63.2541 0.0000 -3.7268 0.0000
# 2 20.4646 274.6214 52.9715 0.0000 -44.2279 0.0000
# 3 63.2541 52.9715 255.7308 0.0000 -29.0755 0.0000
# 4 0.0000 0.0000 0.0000 49.0570 0.0000 -35.6381
# 5 -3.7268 -44.2279 -29.0755 0.0000 76.1668 0.0000
# 6 0.0000 0.0000 0.0000 -35.6381 0.0000 5.6799
#
#
#
# Elastic Compliance Matrix: (Units=1/GPa)
#
#
# Indices 1 2 3 4 5 6 
#
# 1 0.009707 -0.000366 -0.002400 0.000000 -0.000653 0.000000
# 2 -0.000366 0.004119 -0.000515 0.000000 0.002177 0.000000
# 3 -0.002400 -0.000515 0.004770 0.000000 0.001404 0.000000
# 4 0.000000 0.000000 0.000000 -0.005729 0.000000 -0.035946
# 5 -0.000653 0.002177 0.001404 0.000000 0.014897 0.000000
# 6 0.000000 0.000000 0.000000 -0.035946 0.000000 -0.049481
#
#
# Mechanical properties :
#
#
# Convention : Reuss Voigt Hill
#
# Bulk Modulus (GPa) = 83.08904 102.54474 92.81689
# Shear Modulus (GPa) = -448.71216 60.36955 -194.17131
#
# Velocity S-wave (km/s) = -12.74796 4.67591 -8.38589
# Velocity P-wave (km/s) = 13.65973 8.14192 7.75556
#
# Compressibility (1/GPa) = 0.01203528
#
# Stress axis : x y z
#
# Youngs Moduli (GPa) = 103.01368 242.80066 209.63108
#
# Poissons Ratio (x) = 0.08881 0.50304
# Poissons Ratio (y) = 0.03768 0.10799
# Poissons Ratio (z) = 0.24719 0.12507
#
# Static dielectric constant tensor:
#      x y z
#    x 0.262140 0.000000 1.253550 
#    y 0.000000 2.155430 0.000000 
#    z 1.253550 0.000000 1.460170 
# 
# From -- ./inp_files/919.got.cif
#   From: 2010.05.17/outbox.cif.g08.bks.cpg/sg10_1_cif.got.tgz:919.got - 2010.06.03 11:33:40.
