data_PCOD9154088
_publ_section_title
;
Structure prediction by ZEFSAII (Michael W. Deem and Ramdas Pophale) SiO2 
 PCOD9154088
Probable space group: P 2/M
;
_chemical_formula_sum "Si O2"
_cell_formula_units_Z 26
_cell_length_a 18.207857
_cell_length_b 10.417985
_cell_length_c 9.480863
_cell_angle_alpha 90.000000
_cell_angle_beta 53.559881
_cell_angle_gamma 90.000000
_cell_volume 1446.787172
_symmetry_space_group_name_H-M "P 2/M"
_symmetry_group_IT_number 10
_symmetry_cell_setting 'monoclinic'
loop_
_space_group_symop_operation_xyz
x,y,z
-x,y,-z
-x,-y,-z
x,-y,z
loop_
_atom_site_type_symbol
_atom_site_label
_atom_site_fract_x
_atom_site_fract_y
_atom_site_fract_z
Si Si1 0.739658 0.741970 0.598877
Si Si2 0.500000 0.207251 0.500000
Si Si3 0.104142 0.344644 0.397166
Si Si4 0.645033 0.000000 0.803945
Si Si5 0.685948 0.345981 0.362177
Si Si6 0.258461 0.655289 0.004506
Si Si7 0.590656 0.644863 0.961740
Si Si8 0.475526 0.000000 0.777306
O O1 0.841240 0.707255 0.530491
O O2 0.725188 0.728149 0.450722
O O3 0.706000 0.875711 0.702203
O O4 0.667551 0.643690 0.753318
O O5 0.584350 0.296584 0.447230
O O6 0.478127 0.118484 0.662392
O O7 0.104193 0.500000 0.403128
O O8 0.000000 0.302115 0.500000
O O9 0.169937 0.304039 0.192794
O O10 0.565258 0.000000 0.775647
O O11 0.603431 0.000000 0.010834
O O12 0.687533 0.500000 0.382136
O O13 0.742379 0.312906 0.157381
O O14 0.262281 0.500000 0.011170
O O15 0.352277 0.700542 0.972752
O O16 0.562683 0.500000 0.034441
O O17 0.500000 0.710042 0.000000
#
# Coordination Sequence:
#
# PCOD9154088 Si02
#       8
#     4   2   4   2   4   4   4   2
#     4  11  22  36  55  80 112 151 192 239 281 333
#     4  11  23  38  56  80 115 161 198 236 272 337
#     4   9  18  37  64  89 112 140 182 240 303 358
#     4  11  24  40  57  78 107 158 210 248 269 315
#     4  11  22  34  53  84 122 154 185 232 289 349
#     4   8  17  31  48  77 113 144 177 218 276 344
#     4   9  18  30  48  74 106 142 182 227 279 332
#     4  10  24  42  56  76 110 161 213 239 272 314
#
# _framework density 17.970853999999999
#
# number of rings (size 3 to 8) (size 9 to 14) (size 15 to 20)
#    0.000    2.154    1.538    2.538    8.615    0.000 
#    0.000    1.154    0.000    3.692    0.000    1.077 
#    0.000    0.000    0.000    0.000    0.000    0.000 
#
# Total GULP energy -144944.383125 kJ/mol
# GULP energy per Si atom -5574.783966 kJ/mol
# Density = 1.792995 g / cm^3
# Si number density = 17.970854 Si / 1000 Ang^3
#
#
#
# Elastic Constant Matrix: (Units=GPa)
#
#
# Indices 1 2 3 4 5 6 
#
# 1 140.0031 18.5563 70.4946 0.0000 -7.4855 0.0000
# 2 18.5563 60.7864 27.0341 0.0000 -1.7002 0.0000
# 3 70.4946 27.0341 103.3826 0.0000 19.3930 0.0000
# 4 0.0000 0.0000 0.0000 42.7753 0.0000 18.3944
# 5 -7.4855 -1.7002 19.3930 0.0000 35.3679 0.0000
# 6 0.0000 0.0000 0.0000 18.3944 0.0000 24.4706
#
#
#
# Elastic Compliance Matrix: (Units=1/GPa)
#
#
# Indices 1 2 3 4 5 6 
#
# 1 0.012810 0.001053 -0.010621 0.000000 0.008585 0.000000
# 2 0.001053 0.019217 -0.006642 0.000000 0.004788 0.000000
# 3 -0.010621 -0.006642 0.021327 0.000000 -0.014261 0.000000
# 4 0.000000 0.000000 0.000000 0.034544 0.000000 -0.025967
# 5 0.008585 0.004788 -0.014261 0.000000 0.038141 0.000000
# 6 0.000000 0.000000 0.000000 -0.025967 0.000000 0.060384
#
#
# Mechanical properties :
#
#
# Convention : Reuss Voigt Hill
#
# Bulk Modulus (GPa) = 47.76550 59.59356 53.67953
# Shear Modulus (GPa) = 22.14150 33.06189 27.60170
#
# Velocity S-wave (km/s) = 3.51391 4.29388 3.92333
# Velocity P-wave (km/s) = 6.56510 7.60371 7.10341
#
# Compressibility (1/GPa) = 0.02093561
#
# Stress axis : x y z
#
# Youngs Moduli (GPa) = 78.06469 52.03659 46.88955
#
# Poissons Ratio (x) = -0.05480 0.49800
# Poissons Ratio (y) = -0.08221 0.31142
# Poissons Ratio (z) = 0.82910 0.34560
#
# Static dielectric constant tensor:
#      x y z
#    x 1.633000 0.000000 0.030960 
#    y 0.000000 1.665640 0.000000 
#    z 0.030960 0.000000 1.635370 
# 
# From -- ./inp_files/28172.got.cif
#   From: 2010.05.17/outbox.cif.g08.bks.cpg/sg10_15_cif.got.tgz:28172.got - 2010.06.03 11:33:40.
