data_PCOD9154642
_publ_section_title
;
Structure prediction by ZEFSAII (Michael W. Deem and Ramdas Pophale) SiO2 
 PCOD9154642
Probable space group: P 2/M
;
_chemical_formula_sum "Si O2"
_cell_formula_units_Z 32
_cell_length_a 9.159692
_cell_length_b 23.677981
_cell_length_c 14.620713
_cell_angle_alpha 90.000000
_cell_angle_beta 150.332916
_cell_angle_gamma 90.000000
_cell_volume 1569.509003
_symmetry_space_group_name_H-M "P 2/M"
_symmetry_group_IT_number 10
_symmetry_cell_setting 'monoclinic'
loop_
_space_group_symop_operation_xyz
x,y,z
-x,y,-z
-x,-y,-z
x,-y,z
loop_
_atom_site_type_symbol
_atom_site_label
_atom_site_fract_x
_atom_site_fract_y
_atom_site_fract_z
Si Si1 0.334619 0.362593 0.650975
Si Si2 0.709802 0.131762 0.033924
Si Si3 0.682167 0.131761 0.358045
Si Si4 0.790873 0.435886 0.596957
Si Si5 0.028126 0.752732 0.214160
Si Si6 0.283688 0.637407 0.967332
Si Si7 0.413772 0.247268 0.599806
Si Si8 0.300858 0.934966 0.300859
O O1 0.299707 0.404056 0.545610
O O2 0.456618 0.302326 0.684011
O O3 0.000000 0.352192 0.500000
O O4 0.534071 0.383319 0.844690
O O5 0.826776 0.193659 0.125459
O O6 0.994402 0.095145 0.160607
O O7 0.500000 0.108245 0.000000
O O8 0.512355 0.138563 0.837452
O O9 0.722828 0.193659 0.424144
O O10 0.493017 0.095145 0.326812
O O11 0.000000 0.108244 0.500000
O O12 0.500000 0.437311 0.500000
O O13 0.887795 0.500000 0.629264
O O14 0.037415 0.404056 0.791512
O O15 0.275439 0.770682 0.275439
O O16 0.200552 0.735931 0.400184
O O17 0.861203 0.697673 0.088596
O O18 0.500000 0.647809 0.000000
O O19 0.500000 0.933067 0.500000
O O20 0.244985 0.000000 0.244985
#
# Coordination Sequence:
#
# PCOD9154642 Si02
#       8
#     4   4   4   4   4   4   4   4
#     4  12  24  43  68 101 136 177 228 281 345 411
#     4  12  25  42  67 100 136 178 229 279 341 409
#     4  12  25  42  67 100 136 178 229 279 341 409
#     4  11  26  48  70  98 137 179 227 285 341 406
#     4  11  22  39  66  98 139 179 217 279 347 408
#     4  12  24  43  68 101 136 177 228 281 345 411
#     4  11  22  39  66  98 139 179 217 279 347 408
#     4  11  25  47  71  97 135 179 229 284 341 404
#
# _framework density 20.388542999999999
#
# number of rings (size 3 to 8) (size 9 to 14) (size 15 to 20)
#    0.000    0.500    3.750    4.875    0.000    5.500 
#    0.000    1.250    0.000    0.000    0.000    0.000 
#    0.000    0.000    0.000    0.000    0.000    0.000 
#
# Total GULP energy -178961.262576 kJ/mol
# GULP energy per Si atom -5592.539456 kJ/mol
# Density = 2.034214 g / cm^3
# Si number density = 20.388543 Si / 1000 Ang^3
#
#
#
# Elastic Constant Matrix: (Units=GPa)
#
#
# Indices 1 2 3 4 5 6 
#
# 1 119.9455 30.8034 39.9406 0.0000 3.0098 0.0000
# 2 30.8034 96.7628 31.2762 0.0000 -0.3529 0.0000
# 3 39.9406 31.2762 125.6516 0.0000 -7.2675 0.0000
# 4 0.0000 0.0000 0.0000 7.3522 0.0000 1.5412
# 5 3.0098 -0.3529 -7.2675 0.0000 45.6529 0.0000
# 6 0.0000 0.0000 0.0000 1.5412 0.0000 9.4174
#
#
#
# Elastic Compliance Matrix: (Units=1/GPa)
#
#
# Indices 1 2 3 4 5 6 
#
# 1 0.009822 -0.002285 -0.002616 0.000000 -0.001082 0.000000
# 2 -0.002285 0.011776 -0.002211 0.000000 -0.000110 0.000000
# 3 -0.002616 -0.002211 0.009436 0.000000 0.001658 0.000000
# 4 0.000000 0.000000 0.000000 0.140845 0.000000 -0.023051
# 5 -0.001082 -0.000110 0.001658 0.000000 0.022239 0.000000
# 6 0.000000 0.000000 0.000000 -0.023051 0.000000 0.109959
#
#
# Mechanical properties :
#
#
# Convention : Reuss Voigt Hill
#
# Bulk Modulus (GPa) = 59.48804 60.71115 60.09960
# Shear Modulus (GPa) = 15.43660 28.50717 21.97188
#
# Velocity S-wave (km/s) = 2.75457 3.74330 3.28633
# Velocity P-wave (km/s) = 6.27355 6.96598 6.62881
#
# Compressibility (1/GPa) = 0.01681010
#
# Stress axis : x y z
#
# Youngs Moduli (GPa) = 101.81024 84.91595 105.97367
#
# Poissons Ratio (x) = 0.19405 0.27722
# Poissons Ratio (y) = 0.23266 0.23434
# Poissons Ratio (z) = 0.26633 0.18777
#
# Static dielectric constant tensor:
#      x y z
#    x 1.743240 0.000000 0.012690 
#    y 0.000000 1.721260 0.000000 
#    z 0.012690 0.000000 1.726230 
# 
# From -- ./inp_files/62710.got.cif
#   From: 2010.05.17/outbox.cif.g08.bks.cpg/sg10_32_cif.got.tgz:62710.got - 2010.06.03 11:33:40.
