data_PCOD9154600
_publ_section_title
;
Structure prediction by ZEFSAII (Michael W. Deem and Ramdas Pophale) SiO2 
 PCOD9154600
Probable space group: P 2/M
;
_chemical_formula_sum "Si O2"
_cell_formula_units_Z 24
_cell_length_a 26.005168
_cell_length_b 7.359904
_cell_length_c 5.015294
_cell_angle_alpha 90.000000
_cell_angle_beta 90.255419
_cell_angle_gamma 90.000000
_cell_volume 959.895365
_symmetry_space_group_name_H-M "P 2/M"
_symmetry_group_IT_number 10
_symmetry_cell_setting 'monoclinic'
loop_
_space_group_symop_operation_xyz
x,y,z
-x,y,-z
-x,-y,-z
x,-y,z
loop_
_atom_site_type_symbol
_atom_site_label
_atom_site_fract_x
_atom_site_fract_y
_atom_site_fract_z
Si Si1 0.445682 0.778563 0.615688
Si Si2 0.113276 0.206543 0.649516
Si Si3 0.216124 0.221323 0.373028
Si Si4 0.723565 0.221252 0.124241
Si Si5 0.384889 0.221435 0.114325
Si Si6 0.049580 0.706666 0.147588
O O1 0.500000 0.717090 0.500000
O O2 0.429890 0.723937 0.911088
O O3 0.447512 0.000000 0.618507
O O4 0.400715 0.723778 0.410311
O O5 0.163094 0.285490 0.501973
O O6 0.093184 0.293456 0.920113
O O7 0.125946 0.000000 0.726809
O O8 0.069680 0.207128 0.419735
O O9 0.261656 0.273216 0.577082
O O10 0.213148 0.000000 0.365056
O O11 0.231333 0.278269 0.077643
O O12 0.669377 0.282873 0.004625
O O13 0.722003 0.000000 0.124404
O O14 0.382986 0.000000 0.117204
O O15 0.036184 0.500000 0.218777
O O16 0.000000 0.789880 0.000000
#
# Coordination Sequence:
#
# PCOD9154600 Si02
#       6
#     4   4   4   4   4   4
#     4   9  15  21  27  37  56  84 125 179 232 277
#     4  11  22  37  59  85 110 139 179 223 268 317
#     4   9  17  28  43  65  91 116 145 191 248 297
#     4   9  15  24  37  54  79 108 139 180 238 303
#     4   9  15  21  30  43  60  90 130 171 226 291
#     4  11  24  41  59  81 112 147 179 215 264 317
#
# _framework density 25.002724000000001
#
# number of rings (size 3 to 8) (size 9 to 14) (size 15 to 20)
#    0.000    2.333    0.000    4.000    0.000   12.000 
#    0.000    0.000    0.000    0.000    0.000    0.000 
#    0.000    0.000    0.000    0.000    0.000    0.000 
#
# Total GULP energy -134260.374096 kJ/mol
# GULP energy per Si atom -5594.182254 kJ/mol
# Density = 2.494582 g / cm^3
# Si number density = 25.002724 Si / 1000 Ang^3
#
#
#
# Elastic Constant Matrix: (Units=GPa)
#
#
# Indices 1 2 3 4 5 6 
#
# 1 61.1239 -6.6576 -16.3518 0.0000 -0.9090 0.0000
# 2 -6.6576 89.6846 -7.0089 0.0000 -1.5779 0.0000
# 3 -16.3518 -7.0089 100.1864 0.0000 -3.8304 0.0000
# 4 0.0000 0.0000 0.0000 6.0510 0.0000 6.5843
# 5 -0.9090 -1.5779 -3.8304 0.0000 39.8251 0.0000
# 6 0.0000 0.0000 0.0000 6.5843 0.0000 11.6900
#
#
#
# Elastic Compliance Matrix: (Units=1/GPa)
#
#
# Indices 1 2 3 4 5 6 
#
# 1 0.017331 0.001531 0.002964 0.000000 0.000741 0.000000
# 2 0.001531 0.011358 0.001067 0.000000 0.000588 0.000000
# 3 0.002964 0.001067 0.010583 0.000000 0.001128 0.000000
# 4 0.000000 0.000000 0.000000 0.426898 0.000000 -0.240446
# 5 0.000741 0.000588 0.001128 0.000000 0.025258 0.000000
# 6 0.000000 0.000000 0.000000 -0.240446 0.000000 0.220972
#
#
# Mechanical properties :
#
#
# Convention : Reuss Voigt Hill
#
# Bulk Modulus (GPa) = 19.84280 21.21757 20.53019
# Shear Modulus (GPa) = 6.96308 30.24744 18.60526
#
# Velocity S-wave (km/s) = 1.67062 3.48194 2.73083
# Velocity P-wave (km/s) = 3.41684 4.96687 4.26289
#
# Compressibility (1/GPa) = 0.05039611
#
# Stress axis : x y z
#
# Youngs Moduli (GPa) = 57.70015 88.04695 94.49172
#
# Poissons Ratio (x) = -0.13482 -0.28008
# Poissons Ratio (y) = -0.08835 -0.10082
# Poissons Ratio (z) = -0.17103 -0.09394
#
# Static dielectric constant tensor:
#      x y z
#    x 1.985010 0.000000 0.002020 
#    y 0.000000 1.981030 0.000000 
#    z 0.002020 0.000000 1.865460 
# 
# From -- ./inp_files/13002.got.cif
#   From: 2010.05.17/outbox.cif.g08.bks.cpg/sg10_7_cif.got.tgz:13002.got - 2010.06.03 11:33:40.
