data_PCOD9154044
_publ_section_title
;
Structure prediction by ZEFSAII (Michael W. Deem and Ramdas Pophale) SiO2 
 PCOD9154044
Probable space group: P 2/M
;
_chemical_formula_sum "Si O2"
_cell_formula_units_Z 28
_cell_length_a 8.224896
_cell_length_b 15.522266
_cell_length_c 12.137268
_cell_angle_alpha 90.000000
_cell_angle_beta 118.090118
_cell_angle_gamma 90.000000
_cell_volume 1367.028328
_symmetry_space_group_name_H-M "P 2/M"
_symmetry_group_IT_number 10
_symmetry_cell_setting 'monoclinic'
loop_
_space_group_symop_operation_xyz
x,y,z
-x,y,-z
-x,-y,-z
x,-y,z
loop_
_atom_site_type_symbol
_atom_site_label
_atom_site_fract_x
_atom_site_fract_y
_atom_site_fract_z
Si Si1 0.283783 0.599682 0.456020
Si Si2 0.153480 0.404003 0.953772
Si Si3 0.462530 0.095677 0.619127
Si Si4 0.574106 0.281394 0.905438
Si Si5 0.018668 0.275409 0.262898
Si Si6 0.752005 0.739675 0.369466
Si Si7 0.165997 0.148639 0.131159
O O1 0.500000 0.598447 0.500000
O O2 0.218744 0.500000 0.438738
O O3 0.188577 0.659155 0.333287
O O4 0.243532 0.655174 0.552566
O O5 0.144844 0.500000 0.907458
O O6 0.122699 0.334343 0.849557
O O7 0.349360 0.378277 0.065634
O O8 0.000000 0.395149 0.000000
O O9 0.500000 0.100570 0.500000
O O10 0.318438 0.172675 0.595663
O O11 0.652181 0.104176 0.753689
O O12 0.387419 0.000000 0.619199
O O13 0.411754 0.275897 0.768289
O O14 0.740427 0.221458 0.915939
O O15 0.500000 0.252176 0.000000
O O16 0.070705 0.194936 0.204777
O O17 0.934510 0.250028 0.353752
O O18 0.000000 0.109315 0.000000
#
# Coordination Sequence:
#
# PCOD9154044 Si02
#       7
#     4   4   4   4   4   4   4
#     4  11  25  41  59  86 122 166 216 262 308 370
#     4  11  22  35  54  83 120 165 209 258 304 359
#     4  10  23  44  68  96 128 164 209 264 326 395
#     4  11  19  37  57  86 117 160 204 254 309 374
#     4  12  21  40  60  87 123 166 208 254 313 371
#     4  11  23  38  65  88 121 164 206 257 320 376
#     4  11  20  37  66  93 125 164 213 257 318 387
#
# _framework density 20.482385000000001
#
# number of rings (size 3 to 8) (size 9 to 14) (size 15 to 20)
#    0.000    1.000    4.286    3.857    0.000    2.857 
#    0.000    0.714    0.000   18.000    0.000    0.000 
#    0.000    0.000    0.000    0.000    0.000    0.000 
#
# Total GULP energy -156164.211799 kJ/mol
# GULP energy per Si atom -5577.293279 kJ/mol
# Density = 2.043577 g / cm^3
# Si number density = 20.482385 Si / 1000 Ang^3
#
#
#
# Elastic Constant Matrix: (Units=GPa)
#
#
# Indices 1 2 3 4 5 6 
#
# 1 76.8018 23.7778 5.3679 0.0000 -12.0228 0.0000
# 2 23.7778 91.6913 15.8925 0.0000 -8.7491 0.0000
# 3 5.3679 15.8925 72.9356 0.0000 0.0687 0.0000
# 4 0.0000 0.0000 0.0000 15.7354 0.0000 -2.2069
# 5 -12.0228 -8.7491 0.0687 0.0000 40.9657 0.0000
# 6 0.0000 0.0000 0.0000 -2.2069 0.0000 2.6117
#
#
#
# Elastic Compliance Matrix: (Units=1/GPa)
#
#
# Indices 1 2 3 4 5 6 
#
# 1 0.014657 -0.003401 -0.000341 0.000000 0.003576 0.000000
# 2 -0.003401 0.012369 -0.002447 0.000000 0.001648 0.000000
# 3 -0.000341 -0.002447 0.014270 0.000000 -0.000647 0.000000
# 4 0.000000 0.000000 0.000000 0.072095 0.000000 0.060920
# 5 0.003576 0.001648 -0.000647 0.000000 0.025813 0.000000
# 6 0.000000 0.000000 0.000000 0.060920 0.000000 0.434369
#
#
# Mechanical properties :
#
#
# Convention : Reuss Voigt Hill
#
# Bulk Modulus (GPa) = 34.57888 36.83388 35.70638
# Shear Modulus (GPa) = 8.39506 24.95527 16.67516
#
# Velocity S-wave (km/s) = 2.02671 3.49431 2.85638
# Velocity P-wave (km/s) = 4.73241 5.85684 5.32439
#
# Compressibility (1/GPa) = 0.02891939
#
# Stress axis : x y z
#
# Youngs Moduli (GPa) = 68.22698 80.84537 70.07945
#
# Poissons Ratio (x) = 0.27492 0.02390
# Poissons Ratio (y) = 0.23201 0.17145
# Poissons Ratio (z) = 0.02327 0.19779
#
# Static dielectric constant tensor:
#      x y z
#    x 1.779170 0.000000 0.077140 
#    y 0.000000 1.700880 0.000000 
#    z 0.077140 0.000000 1.848470 
# 
# From -- ./inp_files/43050.got.cif
#   From: 2010.05.17/outbox.cif.g08.bks.cpg/sg10_22_cif.got.tgz:43050.got - 2010.06.03 11:33:40.
