data_PCOD9154893
_publ_section_title
;
Structure prediction by ZEFSAII (Michael W. Deem and Ramdas Pophale) SiO2 
 PCOD9154893
Probable space group: P 2/M
;
_chemical_formula_sum "Si O2"
_cell_formula_units_Z 28
_cell_length_a 13.859475
_cell_length_b 14.974801
_cell_length_c 7.924565
_cell_angle_alpha 90.000000
_cell_angle_beta 123.426411
_cell_angle_gamma 90.000000
_cell_volume 1372.645980
_symmetry_space_group_name_H-M "P 2/M"
_symmetry_group_IT_number 10
_symmetry_cell_setting 'monoclinic'
loop_
_space_group_symop_operation_xyz
x,y,z
-x,y,-z
-x,-y,-z
x,-y,z
loop_
_atom_site_type_symbol
_atom_site_label
_atom_site_fract_x
_atom_site_fract_y
_atom_site_fract_z
Si Si1 0.259090 0.105886 0.734447
Si Si2 0.474106 0.105199 0.748060
Si Si3 0.156618 0.597340 0.319817
Si Si4 0.685517 0.105422 0.743968
Si Si5 0.915982 0.780324 0.255452
Si Si6 0.851028 0.203297 0.682930
Si Si7 0.884651 0.404955 0.121146
O O1 0.389143 0.138898 0.814452
O O2 0.179768 0.144966 0.805917
O O3 0.187763 0.134289 0.498684
O O4 0.264475 0.000000 0.754482
O O5 0.599696 0.138498 0.809436
O O6 0.394702 0.109879 0.502545
O O7 0.492623 0.000000 0.797598
O O8 0.209636 0.500000 0.417814
O O9 0.198465 0.696984 0.405962
O O10 0.024568 0.594357 0.258737
O O11 0.149161 0.599031 0.108394
O O12 0.793935 0.166581 0.798696
O O13 0.714353 0.000000 0.795554
O O14 0.851130 0.685696 0.178879
O O15 0.000000 0.776370 0.500000
O O16 0.010277 0.790660 0.197763
O O17 0.843685 0.500000 0.152660
#
# Coordination Sequence:
#
# PCOD9154893 Si02
#       7
#     4   4   4   4   4   4   4
#     4   9  16  25  36  52  78 109 131 146 173 216
#     4   7  11  20  33  49  69  95 128 157 177 206
#     4   8  14  25  40  55  72  96 125 157 190 221
#     4   8  12  19  33  53  74  94 120 155 187 212
#     4   9  17  24  34  57  81 102 123 145 177 225
#     4   9  15  22  35  57  78  97 122 151 185 221
#     4   8  14  26  41  54  72  98 125 155 189 220
#
# _framework density 20.398558999999999
#
# number of rings (size 3 to 8) (size 9 to 14) (size 15 to 20)
#    0.000    3.714    0.000    3.000    0.000    3.429 
#    0.000    2.143    0.000    1.714    0.000   25.000 
#    0.000    5.714    0.000    0.000    0.000    0.000 
#
# Total GULP energy -155895.199526 kJ/mol
# GULP energy per Si atom -5567.685697 kJ/mol
# Density = 2.035213 g / cm^3
# Si number density = 20.398559 Si / 1000 Ang^3
#
#
#
# Elastic Constant Matrix: (Units=GPa)
#
#
# Indices 1 2 3 4 5 6 
#
# 1 148.6710 66.4017 20.7831 0.0000 -15.7329 0.0000
# 2 66.4017 116.6765 11.8153 0.0000 0.8199 0.0000
# 3 20.7831 11.8153 45.3126 0.0000 -4.7415 0.0000
# 4 0.0000 0.0000 0.0000 12.1748 0.0000 -12.2124
# 5 -15.7329 0.8199 -4.7415 0.0000 31.0155 0.0000
# 6 0.0000 0.0000 0.0000 -12.2124 0.0000 8.4117
#
#
#
# Elastic Compliance Matrix: (Units=1/GPa)
#
#
# Indices 1 2 3 4 5 6 
#
# 1 0.010066 -0.005491 -0.002678 0.000000 0.004842 0.000000
# 2 -0.005491 0.011810 -0.000899 0.000000 -0.003235 0.000000
# 3 -0.002678 -0.000899 0.023772 0.000000 0.002299 0.000000
# 4 0.000000 0.000000 0.000000 -0.179999 0.000000 -0.261329
# 5 0.004842 -0.003235 0.002299 0.000000 0.035135 0.000000
# 6 0.000000 0.000000 0.000000 -0.261329 0.000000 -0.260524
#
#
# Mechanical properties :
#
#
# Convention : Reuss Voigt Hill
#
# Bulk Modulus (GPa) = 36.35022 56.51781 46.43402
# Shear Modulus (GPa) = -15.04063 24.43106 4.69521
#
# Velocity S-wave (km/s) = -2.71834 3.46451 1.51879
# Velocity P-wave (km/s) = 2.82952 6.61594 5.08807
#
# Compressibility (1/GPa) = 0.02751015
#
# Stress axis : x y z
#
# Youngs Moduli (GPa) = 99.34835 84.67675 42.06557
#
# Poissons Ratio (x) = 0.46498 0.11266
# Poissons Ratio (y) = 0.54555 0.03783
# Poissons Ratio (z) = 0.26608 0.07615
#
# Static dielectric constant tensor:
#      x y z
#    x 1.766470 0.000000 -0.050590 
#    y 0.000000 1.767250 0.000000 
#    z -0.050590 0.000000 1.842210 
# 
# From -- ./inp_files/28971.got.cif
#   From: 2010.05.17/outbox.cif.g08.bks.cpg/sg10_15_cif.got.tgz:28971.got - 2010.06.03 11:33:40.
