data_PCOD9154327
_publ_section_title
;
Structure prediction by ZEFSAII (Michael W. Deem and Ramdas Pophale) SiO2 
 PCOD9154327
Probable space group: P 2/M
;
_chemical_formula_sum "Si O2"
_cell_formula_units_Z 16
_cell_length_a 10.234466
_cell_length_b 11.895341
_cell_length_c 10.364471
_cell_angle_alpha 90.000000
_cell_angle_beta 43.236080
_cell_angle_gamma 90.000000
_cell_volume 864.338002
_symmetry_space_group_name_H-M "P 2/M"
_symmetry_group_IT_number 10
_symmetry_cell_setting 'monoclinic'
loop_
_space_group_symop_operation_xyz
x,y,z
-x,y,-z
-x,-y,-z
x,-y,z
loop_
_atom_site_type_symbol
_atom_site_label
_atom_site_fract_x
_atom_site_fract_y
_atom_site_fract_z
Si Si1 0.789426 0.500000 0.818346
Si Si2 0.975391 0.865612 0.367369
Si Si3 0.408890 0.260597 0.425838
Si Si4 0.344803 0.743759 0.001641
Si Si5 0.244073 0.500000 0.465760
O O1 0.739334 0.500000 0.701989
O O2 0.018998 0.500000 0.659996
O O3 0.707789 0.612544 0.940900
O O4 0.000000 0.830785 0.500000
O O5 0.776926 0.816341 0.459998
O O6 0.977201 0.000000 0.359406
O O7 0.153361 0.813582 0.163460
O O8 0.500000 0.246935 0.500000
O O9 0.560623 0.235395 0.204197
O O10 0.339418 0.388389 0.452833
O O11 0.500000 0.773011 0.000000
#
# Coordination Sequence:
#
# PCOD9154327 Si02
#       5
#     2   4   4   4   2
#     4  11  20  36  70  97 124 165 218 262 311 376
#     4  11  24  44  69  97 125 165 223 271 307 372
#     4  12  26  43  64  97 136 169 206 263 328 382
#     4  12  22  40  69  97 125 170 216 258 318 381
#     4  11  20  39  66  94 133 168 202 265 323 374
#
# _framework density 18.511275999999999
#
# number of rings (size 3 to 8) (size 9 to 14) (size 15 to 20)
#    0.000    0.500    7.500    1.500    0.000    3.000 
#    0.000    2.500    0.000    0.000    0.000    0.000 
#    0.000    0.000    0.000    0.000    0.000    0.000 
#
# Total GULP energy -89542.533529 kJ/mol
# GULP energy per Si atom -5596.408346 kJ/mol
# Density = 1.846914 g / cm^3
# Si number density = 18.511276 Si / 1000 Ang^3
#
#
#
# Elastic Constant Matrix: (Units=GPa)
#
#
# Indices 1 2 3 4 5 6 
#
# 1 166.6531 57.8518 107.6672 0.0000 6.2570 0.0000
# 2 57.8518 75.7566 53.7170 0.0000 -8.8737 0.0000
# 3 107.6672 53.7170 193.3124 0.0000 -9.1002 0.0000
# 4 0.0000 0.0000 0.0000 -5.4641 0.0000 7.3198
# 5 6.2570 -8.8737 -9.1002 0.0000 35.2107 0.0000
# 6 0.0000 0.0000 0.0000 7.3198 0.0000 -11.4889
#
#
#
# Elastic Compliance Matrix: (Units=1/GPa)
#
#
# Indices 1 2 3 4 5 6 
#
# 1 0.011374 -0.005718 -0.004970 0.000000 -0.004747 0.000000
# 2 -0.005718 0.019633 -0.002014 0.000000 0.005443 0.000000
# 3 -0.004970 -0.002014 0.008623 0.000000 0.002604 0.000000
# 4 0.000000 0.000000 0.000000 -1.249141 0.000000 -0.795849
# 5 -0.004747 0.005443 0.002604 0.000000 0.031289 0.000000
# 6 0.000000 0.000000 0.000000 -0.795849 0.000000 -0.594090
#
#
# Mechanical properties :
#
#
# Convention : Reuss Voigt Hill
#
# Bulk Modulus (GPa) = 70.29415 97.13269 83.71342
# Shear Modulus (GPa) = -2.86999 18.08396 7.60698
#
# Velocity S-wave (km/s) = -1.24650 3.12896 2.02936
# Velocity P-wave (km/s) = 5.99870 8.10185 7.12827
#
# Compressibility (1/GPa) = 0.01422594
#
# Stress axis : x y z
#
# Youngs Moduli (GPa) = 87.91736 50.93481 115.96700
#
# Poissons Ratio (x) = 0.29126 0.57630
# Poissons Ratio (y) = 0.50274 0.23361
# Poissons Ratio (z) = 0.43691 0.10261
#
# Static dielectric constant tensor:
#      x y z
#    x 1.606100 0.000000 -0.007360 
#    y 0.000000 1.621910 0.000000 
#    z -0.007360 0.000000 1.625650 
# 
# From -- ./inp_files/17592.got.cif
#   From: 2010.05.17/outbox.cif.g08.bks.cpg/sg10_9_cif.got.tgz:17592.got - 2010.06.03 11:33:40.
