data_PCOD9154580
_publ_section_title
;
Structure prediction by ZEFSAII (Michael W. Deem and Ramdas Pophale) SiO2 
 PCOD9154580
Probable space group: P 2/M
;
_chemical_formula_sum "Si O2"
_cell_formula_units_Z 28
_cell_length_a 14.625082
_cell_length_b 8.889951
_cell_length_c 22.022135
_cell_angle_alpha 90.000000
_cell_angle_beta 149.174857
_cell_angle_gamma 90.000000
_cell_volume 1467.178516
_symmetry_space_group_name_H-M "P 2/M"
_symmetry_group_IT_number 10
_symmetry_cell_setting 'monoclinic'
loop_
_space_group_symop_operation_xyz
x,y,z
-x,y,-z
-x,-y,-z
x,-y,z
loop_
_atom_site_type_symbol
_atom_site_label
_atom_site_fract_x
_atom_site_fract_y
_atom_site_fract_z
Si Si1 0.541831 0.178464 0.623270
Si Si2 0.514333 0.678516 0.284602
Si Si3 0.823543 0.677628 0.128960
Si Si4 0.435315 0.821149 0.114695
Si Si5 0.769473 0.320842 0.236109
Si Si6 0.905801 0.824165 0.512174
Si Si7 0.208246 0.821168 0.350291
O O1 0.572233 0.270815 0.701393
O O2 0.686597 0.203289 0.652982
O O3 0.349346 0.216318 0.483864
O O4 0.540356 0.000000 0.636041
O O5 0.519565 0.500000 0.281858
O O6 0.418999 0.750305 0.172007
O O7 0.715397 0.744384 0.400547
O O8 0.806988 0.500000 0.107201
O O9 0.740736 0.706638 0.148302
O O10 0.029015 0.726697 0.250010
O O11 0.722289 0.769560 0.019572
O O12 0.617315 0.757802 0.188867
O O13 0.445681 0.000000 0.125000
O O14 0.765898 0.500000 0.244642
O O15 0.959994 0.254718 0.364626
O O16 0.000000 0.815241 0.500000
O O17 0.882294 0.000000 0.514240
O O18 0.168799 0.000000 0.332399
#
# Coordination Sequence:
#
# PCOD9154580 Si02
#       7
#     4   4   4   4   4   4   4
#     4   9  19  38  64  92 122 153 191 237 288 347
#     4  12  24  38  59  87 121 157 193 240 298 349
#     4  11  24  40  59  86 119 154 194 243 294 345
#     4  12  25  41  60  82 113 157 203 244 287 345
#     4  11  23  39  60  87 119 155 194 241 296 347
#     4  11  22  36  57  85 117 154 195 237 283 339
#     4   9  19  38  64  92 120 153 192 239 288 340
#
# _framework density 19.084250000000001
#
# number of rings (size 3 to 8) (size 9 to 14) (size 15 to 20)
#    0.000    1.286    1.429    6.000    0.000    8.000 
#    0.000    2.143    0.000    4.286    0.000    0.000 
#    0.000    0.000    0.000    0.000    0.000    0.000 
#
# Total GULP energy -156642.568717 kJ/mol
# GULP energy per Si atom -5594.377454 kJ/mol
# Density = 1.904081 g / cm^3
# Si number density = 19.084250 Si / 1000 Ang^3
#
#
#
# Elastic Constant Matrix: (Units=GPa)
#
#
# Indices 1 2 3 4 5 6 
#
# 1 63.3747 49.0807 22.7304 0.0000 -28.0506 0.0000
# 2 49.0807 120.7953 43.0246 0.0000 -30.8716 0.0000
# 3 22.7304 43.0246 68.4610 0.0000 -26.9860 0.0000
# 4 0.0000 0.0000 0.0000 37.3157 0.0000 4.6411
# 5 -28.0506 -30.8716 -26.9860 0.0000 30.5194 0.0000
# 6 0.0000 0.0000 0.0000 4.6411 0.0000 34.7625
#
#
#
# Elastic Compliance Matrix: (Units=1/GPa)
#
#
# Indices 1 2 3 4 5 6 
#
# 1 0.031223 -0.007966 0.004260 0.000000 0.024406 0.000000
# 2 -0.007966 0.013934 -0.005284 0.000000 0.002101 0.000000
# 3 0.004260 -0.005284 0.024483 0.000000 0.020219 0.000000
# 4 0.000000 0.000000 0.000000 0.027251 0.000000 -0.003638
# 5 0.024406 0.002101 0.020219 0.000000 0.075202 0.000000
# 6 0.000000 0.000000 0.000000 -0.003638 0.000000 0.029252
#
#
# Mechanical properties :
#
#
# Convention : Reuss Voigt Hill
#
# Bulk Modulus (GPa) = 19.35712 53.58918 36.47315
# Shear Modulus (GPa) = 21.13757 29.70587 25.42172
#
# Velocity S-wave (km/s) = 3.33166 3.94961 3.65372
# Velocity P-wave (km/s) = 4.99649 6.99575 6.07888
#
# Compressibility (1/GPa) = 0.05166057
#
# Stress axis : x y z
#
# Youngs Moduli (GPa) = 32.02744 71.76566 40.84448
#
# Poissons Ratio (x) = 0.57171 -0.17400
# Poissons Ratio (y) = 0.25514 0.21582
# Poissons Ratio (z) = -0.13644 0.37920
#
# Static dielectric constant tensor:
#      x y z
#    x 1.668110 0.000000 -0.012430 
#    y 0.000000 1.632320 0.000000 
#    z -0.012430 0.000000 1.643320 
# 
# From -- ./inp_files/49091.got.cif
#   From: 2010.05.17/outbox.cif.g08.bks.cpg/sg10_25_cif.got.tgz:49091.got - 2010.06.03 11:33:40.
