data_PCOD9154453
_publ_section_title
;
Structure prediction by ZEFSAII (Michael W. Deem and Ramdas Pophale) SiO2 
 PCOD9154453
Probable space group: P 2/M
;
_chemical_formula_sum "Si O2"
_cell_formula_units_Z 20
_cell_length_a 8.157117
_cell_length_b 15.545818
_cell_length_c 7.909741
_cell_angle_alpha 90.000000
_cell_angle_beta 68.521611
_cell_angle_gamma 90.000000
_cell_volume 933.372338
_symmetry_space_group_name_H-M "P 2/M"
_symmetry_group_IT_number 10
_symmetry_cell_setting 'monoclinic'
loop_
_space_group_symop_operation_xyz
x,y,z
-x,y,-z
-x,-y,-z
x,-y,z
loop_
_atom_site_type_symbol
_atom_site_label
_atom_site_fract_x
_atom_site_fract_y
_atom_site_fract_z
Si Si1 0.545418 0.904214 0.185071
Si Si2 0.818313 0.171983 0.612797
Si Si3 0.193616 0.762121 0.000839
Si Si4 0.324959 0.332911 0.494288
Si Si5 0.622095 0.404097 0.181528
O O1 0.361901 0.880041 0.343799
O O2 0.694003 0.831647 0.148942
O O3 0.604802 0.000000 0.208580
O O4 0.500000 0.904290 0.000000
O O5 0.808257 0.260972 0.511061
O O6 0.000000 0.125763 0.500000
O O7 0.819991 0.200634 0.806855
O O8 0.302634 0.673297 0.956872
O O9 0.000000 0.749016 0.000000
O O10 0.500000 0.284991 0.500000
O O11 0.416886 0.386885 0.309168
O O12 0.280337 0.392277 0.671404
O O13 0.646625 0.500000 0.107709
#
# Coordination Sequence:
#
# PCOD9154453 Si02
#       5
#     4   4   4   4   4
#     4   9  19  38  61  84 114 151 190 236 289 343
#     4  11  21  35  60  87 118 153 192 235 288 341
#     4  11  22  37  59  87 118 154 194 235 286 342
#     4   8  17  34  58  81 113 149 191 234 285 335
#     4   9  18  35  60  83 115 153 192 237 287 339
#
# _framework density 21.427675000000001
#
# number of rings (size 3 to 8) (size 9 to 14) (size 15 to 20)
#    1.200    1.000    2.000    2.400    0.000    1.200 
#    0.000    3.000    0.000   18.000    0.000    0.000 
#    0.000    0.000    0.000    0.000    0.000    0.000 
#
# Total GULP energy -111437.408240 kJ/mol
# GULP energy per Si atom -5571.870412 kJ/mol
# Density = 2.137890 g / cm^3
# Si number density = 21.427675 Si / 1000 Ang^3
#
#
#
# Elastic Constant Matrix: (Units=GPa)
#
#
# Indices 1 2 3 4 5 6 
#
# 1 48.9058 16.2083 10.9197 0.0000 -14.5484 0.0000
# 2 16.2083 112.5233 30.0073 0.0000 -20.4131 0.0000
# 3 10.9197 30.0073 69.7794 0.0000 -22.6552 0.0000
# 4 0.0000 0.0000 0.0000 4.0088 0.0000 3.1580
# 5 -14.5484 -20.4131 -22.6552 0.0000 31.7163 0.0000
# 6 0.0000 0.0000 0.0000 3.1580 0.0000 8.1953
#
#
#
# Elastic Compliance Matrix: (Units=1/GPa)
#
#
# Indices 1 2 3 4 5 6 
#
# 1 0.023949 -0.001688 0.000250 0.000000 0.010078 0.000000
# 2 -0.001688 0.010651 -0.003049 0.000000 0.003903 0.000000
# 3 0.000250 -0.003049 0.019533 0.000000 0.012105 0.000000
# 4 0.000000 0.000000 0.000000 0.358179 0.000000 -0.138020
# 5 0.010078 0.003903 0.012105 0.000000 0.047311 0.000000
# 6 0.000000 0.000000 0.000000 -0.138020 0.000000 0.175206
#
#
# Mechanical properties :
#
#
# Convention : Reuss Voigt Hill
#
# Bulk Modulus (GPa) = 22.14392 38.38657 30.26525
# Shear Modulus (GPa) = 7.58891 20.38895 13.98893
#
# Velocity S-wave (km/s) = 1.88397 3.08803 2.55785
# Velocity P-wave (km/s) = 3.88447 5.53786 4.78315
#
# Compressibility (1/GPa) = 0.04515912
#
# Stress axis : x y z
#
# Youngs Moduli (GPa) = 41.75545 93.88438 51.19539
#
# Poissons Ratio (x) = 0.15850 -0.01280
# Poissons Ratio (y) = 0.07049 0.15610
# Poissons Ratio (z) = -0.01044 0.28626
#
# Static dielectric constant tensor:
#      x y z
#    x 1.757950 0.000000 0.016680 
#    y 0.000000 1.745970 0.000000 
#    z 0.016680 0.000000 1.872780 
# 
# From -- ./inp_files/19234.got.cif
#   From: 2010.05.17/outbox.cif.g08.bks.cpg/sg10_10_cif.got.tgz:19234.got - 2010.06.03 11:33:40.
