data_PCOD9154609
_publ_section_title
;
Structure prediction by ZEFSAII (Michael W. Deem and Ramdas Pophale) SiO2 
 PCOD9154609
Probable space group: P 2/M
;
_chemical_formula_sum "Si O2"
_cell_formula_units_Z 28
_cell_length_a 17.878453
_cell_length_b 11.067184
_cell_length_c 21.081043
_cell_angle_alpha 90.000000
_cell_angle_beta 159.895276
_cell_angle_gamma 90.000000
_cell_volume 1433.790165
_symmetry_space_group_name_H-M "P 2/M"
_symmetry_group_IT_number 10
_symmetry_cell_setting 'monoclinic'
loop_
_space_group_symop_operation_xyz
x,y,z
-x,y,-z
-x,-y,-z
x,-y,z
loop_
_atom_site_type_symbol
_atom_site_label
_atom_site_fract_x
_atom_site_fract_y
_atom_site_fract_z
Si Si1 0.355173 0.258117 0.514485
Si Si2 0.814845 0.642872 0.491565
Si Si3 0.669242 0.000000 0.575823
Si Si4 0.204557 0.263084 0.079406
Si Si5 0.633684 0.357825 0.925597
Si Si6 0.910778 0.000000 0.000604
Si Si7 0.704652 0.646414 0.122761
Si Si8 0.748097 0.359679 0.692354
O O1 0.249430 0.275732 0.499173
O O2 0.351812 0.122399 0.482709
O O3 0.603616 0.308430 0.721475
O O4 0.222314 0.340173 0.359313
O O5 0.810728 0.500000 0.508025
O O6 0.625912 0.656473 0.289542
O O7 0.056075 0.671181 0.659793
O O8 0.500000 0.000000 0.500000
O O9 0.899522 0.000000 0.795907
O O10 0.261770 0.303571 0.054143
O O11 0.224609 0.120154 0.099034
O O12 0.951735 0.296761 0.888847
O O13 0.684436 0.500000 0.963959
O O14 0.703182 0.308935 0.048957
O O15 0.000000 0.000000 0.000000
O O16 0.682253 0.500000 0.101860
O O17 0.500000 0.691648 0.000000
O O18 0.500000 0.310091 0.500000
O O19 0.748053 0.500000 0.709540
#
# Coordination Sequence:
#
# PCOD9154609 Si02
#       8
#     4   4   2   4   4   2   4   4
#     4  11  22  38  60  81 110 146 189 238 287 340
#     4   9  18  32  52  80 112 147 184 224 273 333
#     4  12  24  42  60  85 112 143 188 245 303 341
#     4  11  23  39  60  82 110 149 192 236 290 342
#     4   9  18  33  54  80 112 148 185 226 275 334
#     4  12  26  40  62  85 109 146 189 241 298 342
#     4   9  17  29  49  79 115 151 184 222 269 327
#     4  11  24  38  54  79 110 145 185 231 285 344
#
# _framework density 19.528659999999999
#
# number of rings (size 3 to 8) (size 9 to 14) (size 15 to 20)
#    0.000    1.714    1.429    3.429    2.000    3.429 
#    0.000    4.286    0.000    0.000    0.000    2.000 
#    0.000    4.571    0.000    0.000    0.000    0.000 
#
# Total GULP energy -156231.247440 kJ/mol
# GULP energy per Si atom -5579.687409 kJ/mol
# Density = 1.948421 g / cm^3
# Si number density = 19.528660 Si / 1000 Ang^3
#
#
#
# Elastic Constant Matrix: (Units=GPa)
#
#
# Indices 1 2 3 4 5 6 
#
# 1 31.2128 5.4278 20.2316 0.0000 6.5323 0.0000
# 2 5.4278 56.2886 15.5318 0.0000 4.2984 0.0000
# 3 20.2316 15.5318 129.1653 0.0000 3.5496 0.0000
# 4 0.0000 0.0000 0.0000 13.8533 0.0000 -8.7251
# 5 6.5323 4.2984 3.5496 0.0000 30.9460 0.0000
# 6 0.0000 0.0000 0.0000 -8.7251 0.0000 -5.0875
#
#
#
# Elastic Compliance Matrix: (Units=1/GPa)
#
#
# Indices 1 2 3 4 5 6 
#
# 1 0.037324 -0.001554 -0.005466 0.000000 -0.007036 0.000000
# 2 -0.001554 0.018605 -0.001938 0.000000 -0.002034 0.000000
# 3 -0.005466 -0.001938 0.008820 0.000000 0.000411 0.000000
# 4 0.000000 0.000000 0.000000 0.034702 0.000000 -0.059514
# 5 -0.007036 -0.002034 0.000411 0.000000 0.034035 0.000000
# 6 0.000000 0.000000 0.000000 -0.059514 0.000000 -0.094493
#
#
# Mechanical properties :
#
#
# Convention : Reuss Voigt Hill
#
# Bulk Modulus (GPa) = 21.35199 33.22766 27.28982
# Shear Modulus (GPa) = 68.94710 19.64073 44.29391
#
# Velocity S-wave (km/s) = 5.94830 3.17478 4.76768
# Velocity P-wave (km/s) = 7.62455 5.52184 6.65674
#
# Compressibility (1/GPa) = 0.04683405
#
# Stress axis : x y z
#
# Youngs Moduli (GPa) = 26.79264 53.74760 113.37983
#
# Poissons Ratio (x) = 0.08350 0.61973
# Poissons Ratio (y) = 0.04162 0.21973
# Poissons Ratio (z) = 0.14645 0.10416
#
# Static dielectric constant tensor:
#      x y z
#    x 1.715960 0.000000 0.009420 
#    y 0.000000 1.640310 0.000000 
#    z 0.009420 0.000000 1.755290 
# 
# From -- ./inp_files/85864.got.cif
#   From: 2010.05.17/outbox.cif.g08.bks.cpg/sg10_43_cif.got.tgz:85864.got - 2010.06.03 11:33:40.
