data_PCOD9154443
_publ_section_title
;
Structure prediction by ZEFSAII (Michael W. Deem and Ramdas Pophale) SiO2 
 PCOD9154443
Probable space group: P 2/M
;
_chemical_formula_sum "Si O2"
_cell_formula_units_Z 20
_cell_length_a 12.095189
_cell_length_b 13.428890
_cell_length_c 17.284699
_cell_angle_alpha 90.000000
_cell_angle_beta 159.065639
_cell_angle_gamma 90.000000
_cell_volume 1003.102729
_symmetry_space_group_name_H-M "P 2/M"
_symmetry_group_IT_number 10
_symmetry_cell_setting 'monoclinic'
loop_
_space_group_symop_operation_xyz
x,y,z
-x,y,-z
-x,-y,-z
x,-y,z
loop_
_atom_site_type_symbol
_atom_site_label
_atom_site_fract_x
_atom_site_fract_y
_atom_site_fract_z
Si Si1 0.702335 0.274332 0.477817
Si Si2 0.254087 0.387524 0.769241
Si Si3 0.607510 0.748039 0.884476
Si Si4 0.148589 0.385720 0.183995
Si Si5 0.202207 0.884403 0.861386
O O1 0.509101 0.234523 0.278164
O O2 0.464794 0.324164 0.382139
O O3 0.923813 0.360532 0.588901
O O4 0.926129 0.188352 0.655223
O O5 0.264019 0.500000 0.745601
O O6 0.350616 0.309573 0.766917
O O7 0.500000 0.379034 0.000000
O O8 0.695173 0.847439 0.987094
O O9 0.901229 0.673794 0.073376
O O10 0.191021 0.500000 0.236754
O O11 0.000000 0.388950 0.000000
O O12 0.115246 0.000000 0.802408
O O13 0.500000 0.870366 0.000000
#
# Coordination Sequence:
#
# PCOD9154443 Si02
#       5
#     4   4   4   4   4
#     4  11  21  39  62  87 119 156 199 241 293 352
#     4  11  21  35  57  87 123 156 195 242 288 350
#     4  11  21  39  62  87 119 156 199 241 293 352
#     4   9  20  37  59  90 127 161 192 232 286 354
#     4  11  24  43  62  87 119 149 199 261 308 349
#
# _framework density 19.938136
#
# number of rings (size 3 to 8) (size 9 to 14) (size 15 to 20)
#    0.000    1.400    4.000    1.800    0.000    4.800 
#    0.000    5.000    0.000    3.600    0.000    0.000 
#    0.000    0.000    0.000    0.000    0.000    0.000 
#
# Total GULP energy -111839.181126 kJ/mol
# GULP energy per Si atom -5591.959056 kJ/mol
# Density = 1.989276 g / cm^3
# Si number density = 19.938136 Si / 1000 Ang^3
#
#
#
# Elastic Constant Matrix: (Units=GPa)
#
#
# Indices 1 2 3 4 5 6 
#
# 1 50.6909 6.5932 21.3877 0.0000 5.4916 0.0000
# 2 6.5932 104.0512 31.4742 0.0000 1.7253 0.0000
# 3 21.3877 31.4742 97.6301 0.0000 8.2480 0.0000
# 4 0.0000 0.0000 0.0000 7.8313 0.0000 13.6315
# 5 5.4916 1.7253 8.2480 0.0000 39.3301 0.0000
# 6 0.0000 0.0000 0.0000 13.6315 0.0000 11.2541
#
#
#
# Elastic Compliance Matrix: (Units=1/GPa)
#
#
# Indices 1 2 3 4 5 6 
#
# 1 0.021904 0.000050 -0.004638 0.000000 -0.002088 0.000000
# 2 0.000050 0.010652 -0.003466 0.000000 0.000253 0.000000
# 3 -0.004638 -0.003466 0.012531 0.000000 -0.001828 0.000000
# 4 0.000000 0.000000 0.000000 -0.115209 0.000000 0.139547
# 5 -0.002088 0.000253 -0.001828 0.000000 0.026090 0.000000
# 6 0.000000 0.000000 0.000000 0.139547 0.000000 -0.080170
#
#
# Mechanical properties :
#
#
# Convention : Reuss Voigt Hill
#
# Bulk Modulus (GPa) = 34.50981 41.25360 37.88171
# Shear Modulus (GPa) = -50.79507 24.54422 -13.12542
#
# Velocity S-wave (km/s) = -5.05288 3.51239 -2.56853
# Velocity P-wave (km/s) = 4.08610 6.09795 3.20068
#
# Compressibility (1/GPa) = 0.02897727
#
# Stress axis : x y z
#
# Youngs Moduli (GPa) = 45.65365 93.88090 79.80412
#
# Poissons Ratio (x) = -0.00466 0.37014
# Poissons Ratio (y) = -0.00227 0.27661
# Poissons Ratio (z) = 0.21175 0.32541
#
# Static dielectric constant tensor:
#      x y z
#    x 1.698510 0.000000 -0.037790 
#    y 0.000000 1.649580 0.000000 
#    z -0.037790 0.000000 1.735030 
# 
# From -- ./inp_files/53862.got.cif
#   From: 2010.05.17/outbox.cif.g08.bks.cpg/sg10_27_cif.got.tgz:53862.got - 2010.06.03 11:33:40.
