data_PCOD9154312
_publ_section_title
;
Structure prediction by ZEFSAII (Michael W. Deem and Ramdas Pophale) SiO2 
 PCOD9154312
Probable space group: P 2/M
;
_chemical_formula_sum "Si O2"
_cell_formula_units_Z 32
_cell_length_a 12.558352
_cell_length_b 8.929616
_cell_length_c 16.851080
_cell_angle_alpha 90.000000
_cell_angle_beta 69.549246
_cell_angle_gamma 90.000000
_cell_volume 1770.598865
_symmetry_space_group_name_H-M "P 2/M"
_symmetry_group_IT_number 10
_symmetry_cell_setting 'monoclinic'
loop_
_space_group_symop_operation_xyz
x,y,z
-x,y,-z
-x,-y,-z
x,-y,z
loop_
_atom_site_type_symbol
_atom_site_label
_atom_site_fract_x
_atom_site_fract_y
_atom_site_fract_z
Si Si1 0.471547 0.822350 0.210562
Si Si2 0.967450 0.822214 0.772491
Si Si3 0.811224 0.320607 0.366308
Si Si4 0.659398 0.177963 0.279869
Si Si5 0.131260 0.681783 0.473110
Si Si6 0.712492 0.177688 0.092715
Si Si7 0.912311 0.326725 0.950189
Si Si8 0.768300 0.320995 0.721582
O O1 0.532879 0.789571 0.279568
O O2 0.359630 0.728367 0.226784
O O3 0.446625 0.000000 0.214595
O O4 0.576691 0.794518 0.122773
O O5 0.953845 0.773325 0.866876
O O6 0.857537 0.760147 0.755130
O O7 0.077921 0.746790 0.705006
O O8 0.975832 0.000000 0.763192
O O9 0.817393 0.500000 0.362397
O O10 0.703820 0.265275 0.343722
O O11 0.815336 0.270814 0.457086
O O12 0.734654 0.211396 0.180813
O O13 0.667654 0.000000 0.291328
O O14 0.128282 0.500000 0.474907
O O15 0.200254 0.724872 0.376876
O O16 0.000000 0.732577 0.500000
O O17 0.731621 0.000000 0.076304
O O18 0.791408 0.271150 0.014900
O O19 0.906571 0.500000 0.926365
O O20 0.000000 0.314597 0.000000
O O21 0.781658 0.500000 0.725088
#
# Coordination Sequence:
#
# PCOD9154312 Si02
#       8
#     4   4   4   4   4   4   4   4
#     4   8  18  37  59  82 114 155 192 229 281 339
#     4  12  25  38  56  82 117 153 188 229 284 347
#     4  11  20  34  57  84 113 147 190 239 286 335
#     4   8  17  34  56  81 113 151 187 224 279 341
#     4   9  18  35  56  79 114 151 183 231 294 344
#     4   8  17  35  57  78 109 151 186 219 273 336
#     4  11  23  37  56  87 119 146 184 235 281 328
#     4  11  21  38  62  85 111 148 195 240 283 333
#
# _framework density 18.072980000000001
#
# number of rings (size 3 to 8) (size 9 to 14) (size 15 to 20)
#    0.750    1.500    1.250    3.000    0.000    4.500 
#    0.000    4.375    0.000    7.500    0.000    0.000 
#    0.000    0.000    0.000    0.000    0.000    0.000 
#
# Total GULP energy -178361.878158 kJ/mol
# GULP energy per Si atom -5573.808692 kJ/mol
# Density = 1.803185 g / cm^3
# Si number density = 18.072980 Si / 1000 Ang^3
#
#
#
# Elastic Constant Matrix: (Units=GPa)
#
#
# Indices 1 2 3 4 5 6 
#
# 1 34.3398 11.4325 -7.8395 0.0000 -0.5055 0.0000
# 2 11.4325 52.1807 10.6251 0.0000 6.6718 0.0000
# 3 -7.8395 10.6251 37.1686 0.0000 3.6640 0.0000
# 4 0.0000 0.0000 0.0000 4.4963 0.0000 16.2735
# 5 -0.5055 6.6718 3.6640 0.0000 20.4411 0.0000
# 6 0.0000 0.0000 0.0000 16.2735 0.0000 21.0951
#
#
#
# Elastic Compliance Matrix: (Units=1/GPa)
#
#
# Indices 1 2 3 4 5 6 
#
# 1 0.034728 -0.009928 0.009934 0.000000 0.002319 0.000000
# 2 -0.009928 0.023861 -0.008269 0.000000 -0.006551 0.000000
# 3 0.009934 -0.008269 0.031632 0.000000 -0.002725 0.000000
# 4 0.000000 0.000000 0.000000 -0.124107 0.000000 0.095740
# 5 0.002319 -0.006551 -0.002725 0.000000 0.051605 0.000000
# 6 0.000000 0.000000 0.000000 0.095740 0.000000 -0.026453
#
#
# Mechanical properties :
#
#
# Convention : Reuss Voigt Hill
#
# Bulk Modulus (GPa) = 13.56937 16.90282 15.23610
# Shear Modulus (GPa) = 154.52405 16.50456 85.51430
#
# Velocity S-wave (km/s) = 9.25665 3.02523 6.88613
# Velocity P-wave (km/s) = 11.03503 4.64494 8.46603
#
# Compressibility (1/GPa) = 0.07369537
#
# Stress axis : x y z
#
# Youngs Moduli (GPa) = 28.79513 41.90977 31.61329
#
# Poissons Ratio (x) = 0.41608 -0.31406
# Poissons Ratio (y) = 0.28588 0.26141
# Poissons Ratio (z) = -0.28606 0.34656
#
# Static dielectric constant tensor:
#      x y z
#    x 1.617380 0.000000 0.013360 
#    y 0.000000 1.601390 0.000000 
#    z 0.013360 0.000000 1.621320 
# 
# From -- ./inp_files/49786.got.cif
#   From: 2010.05.17/outbox.cif.g08.bks.cpg/sg10_25_cif.got.tgz:49786.got - 2010.06.03 11:33:40.
