data_PCOD9154862
_publ_section_title
;
Structure prediction by ZEFSAII (Michael W. Deem and Ramdas Pophale) SiO2 
 PCOD9154862
Probable space group: P 2/M
;
_chemical_formula_sum "Si O2"
_cell_formula_units_Z 28
_cell_length_a 15.045630
_cell_length_b 18.672630
_cell_length_c 8.619795
_cell_angle_alpha 90.000000
_cell_angle_beta 41.758165
_cell_angle_gamma 90.000000
_cell_volume 1612.795101
_symmetry_space_group_name_H-M "P 2/M"
_symmetry_group_IT_number 10
_symmetry_cell_setting 'monoclinic'
loop_
_space_group_symop_operation_xyz
x,y,z
-x,y,-z
-x,-y,-z
x,-y,z
loop_
_atom_site_type_symbol
_atom_site_label
_atom_site_fract_x
_atom_site_fract_y
_atom_site_fract_z
Si Si1 0.353369 0.280478 0.751826
Si Si2 0.855869 0.297396 0.253695
Si Si3 0.294419 0.581220 0.373293
Si Si4 0.208001 0.156985 0.123026
Si Si5 0.087825 0.000000 0.626928
Si Si6 0.905670 0.156468 0.385171
Si Si7 0.796686 0.000000 0.876058
Si Si8 0.592624 0.580994 0.118144
O O1 0.500000 0.260725 0.500000
O O2 0.250253 0.288336 0.745465
O O3 0.366098 0.356888 0.820089
O O4 0.297478 0.220350 0.940971
O O5 0.802722 0.357848 0.439545
O O6 0.872121 0.221433 0.317706
O O7 0.000000 0.317996 0.000000
O O8 0.245384 0.500000 0.464378
O O9 0.436482 0.588265 0.276760
O O10 0.328102 0.588206 0.147309
O O11 0.175901 0.163983 0.347660
O O12 0.268971 0.077477 0.015834
O O13 0.062251 0.159189 0.229596
O O14 0.123583 0.077565 0.648036
O O15 0.148636 0.000000 0.372889
O O16 0.928707 0.000000 0.810449
O O17 0.613550 0.500000 0.150756
#
# Coordination Sequence:
#
# PCOD9154862 Si02
#       8
#     4   4   4   4   2   4   2   4
#     4  12  23  36  53  81 114 148 179 214 265 330
#     4  12  23  36  52  81 120 146 171 217 276 325
#     4   9  19  38  61  82 105 137 182 228 266 312
#     4   9  17  33  56  80 106 143 184 225 268 314
#     4   7  12  26  52  80 100 134 184 229 260 302
#     4   9  17  33  56  80 108 140 184 228 266 314
#     4   7  12  26  52  79 102 133 182 229 264 306
#     4   9  19  38  62  82 101 138 189 227 257 311
#
# _framework density 17.361165
#
# number of rings (size 3 to 8) (size 9 to 14) (size 15 to 20)
#    0.000    2.429    2.857    3.429    0.000    1.143 
#    0.000    1.429    0.000    1.714    0.000    3.000 
#    0.000    0.000    0.000    0.000    0.000    0.000 
#
# Total GULP energy -156094.300218 kJ/mol
# GULP energy per Si atom -5574.796436 kJ/mol
# Density = 1.732165 g / cm^3
# Si number density = 17.361165 Si / 1000 Ang^3
#
#
#
# Elastic Constant Matrix: (Units=GPa)
#
#
# Indices 1 2 3 4 5 6 
#
# 1 45.7343 22.8777 15.1644 0.0000 -1.0358 0.0000
# 2 22.8777 157.1344 70.7231 0.0000 5.9231 0.0000
# 3 15.1644 70.7231 86.9009 0.0000 -11.7347 0.0000
# 4 0.0000 0.0000 0.0000 -17.9001 0.0000 -16.3077
# 5 -1.0358 5.9231 -11.7347 0.0000 12.2093 0.0000
# 6 0.0000 0.0000 0.0000 -16.3077 0.0000 20.7716
#
#
#
# Elastic Compliance Matrix: (Units=1/GPa)
#
#
# Indices 1 2 3 4 5 6 
#
# 1 0.023852 -0.002806 -0.001634 0.000000 0.001814 0.000000
# 2 -0.002806 0.013310 -0.012924 0.000000 -0.019116 0.000000
# 3 -0.001634 -0.012924 0.026589 0.000000 0.031687 0.000000
# 4 0.000000 0.000000 0.000000 -0.032570 0.000000 -0.025570
# 5 0.001814 -0.019116 0.031687 0.000000 0.121788 0.000000
# 6 0.000000 0.000000 0.000000 -0.025570 0.000000 0.028067
#
#
# Mechanical properties :
#
#
# Convention : Reuss Voigt Hill
#
# Bulk Modulus (GPa) = 34.45411 56.36667 45.41039
# Shear Modulus (GPa) = 22.17914 15.08309 18.63112
#
# Velocity S-wave (km/s) = 3.57811 2.95071 3.27945
# Velocity P-wave (km/s) = 6.07940 6.64428 6.36811
#
# Compressibility (1/GPa) = 0.02902411
#
# Stress axis : x y z
#
# Youngs Moduli (GPa) = 41.92559 75.13267 37.60941
#
# Poissons Ratio (x) = 0.21080 0.06145
# Poissons Ratio (y) = 0.11763 0.48606
# Poissons Ratio (z) = 0.06850 0.97100
#
# Static dielectric constant tensor:
#      x y z
#    x 1.567110 0.000000 0.016280 
#    y 0.000000 1.607340 0.000000 
#    z 0.016280 0.000000 1.577360 
# 
# From -- ./inp_files/30123.got.cif
#   From: 2010.05.17/outbox.cif.g08.bks.cpg/sg10_16_cif.got.tgz:30123.got - 2010.06.03 11:33:40.
