data_PCOD9154025
_publ_section_title
;
Structure prediction by ZEFSAII (Michael W. Deem and Ramdas Pophale) SiO2 
 PCOD9154025
Probable space group: P 2/M
;
_chemical_formula_sum "Si O2"
_cell_formula_units_Z 18
_cell_length_a 21.475759
_cell_length_b 7.505198
_cell_length_c 5.268385
_cell_angle_alpha 90.000000
_cell_angle_beta 60.848222
_cell_angle_gamma 90.000000
_cell_volume 741.596611
_symmetry_space_group_name_H-M "P 2/M"
_symmetry_group_IT_number 10
_symmetry_cell_setting 'monoclinic'
loop_
_space_group_symop_operation_xyz
x,y,z
-x,y,-z
-x,-y,-z
x,-y,z
loop_
_atom_site_type_symbol
_atom_site_label
_atom_site_fract_x
_atom_site_fract_y
_atom_site_fract_z
Si Si1 0.458726 0.717023 0.331679
Si Si2 0.793637 0.194167 0.639529
Si Si3 0.047041 0.791336 0.156600
Si Si4 0.868424 0.500000 0.771891
Si Si5 0.707495 0.715601 0.305231
O O1 0.500000 0.777473 0.500000
O O2 0.460916 0.500000 0.326309
O O3 0.375518 0.761854 0.501126
O O4 0.500000 0.778520 0.000000
O O5 0.739052 0.203264 0.986313
O O6 0.828293 0.000000 0.557883
O O7 0.848785 0.345185 0.602134
O O8 0.748849 0.227153 0.474543
O O9 0.111954 0.657444 0.059009
O O10 0.000000 0.745259 0.500000
O O11 0.066143 0.000000 0.130115
O O12 0.000000 0.761122 0.000000
O O13 0.716769 0.500000 0.257122
#
# Coordination Sequence:
#
# PCOD9154025 Si02
#       5
#     4   4   4   2   4
#     4   9  17  30  57  92 120 156 213 272 326 395
#     4  12  26  42  64  94 134 175 219 275 328 383
#     4  10  23  43  68 100 135 170 211 265 322 375
#     4  12  24  44  68  98 130 176 228 260 314 390
#     4  11  21  42  64  92 130 174 219 271 337 399
#
# _framework density 24.271954000000001
#
# number of rings (size 3 to 8) (size 9 to 14) (size 15 to 20)
#    0.000    1.333    2.222    3.333    0.000    7.111 
#    0.000    4.444    0.000   13.333    0.000    0.000 
#    0.000    0.000    0.000    0.000    0.000    0.000 
#
# Total GULP energy -100407.851384 kJ/mol
# GULP energy per Si atom -5578.213966 kJ/mol
# Density = 2.421671 g / cm^3
# Si number density = 24.271954 Si / 1000 Ang^3
#
#
#
# Elastic Constant Matrix: (Units=GPa)
#
#
# Indices 1 2 3 4 5 6 
#
# 1 147.1587 47.8159 64.9695 0.0000 44.4266 0.0000
# 2 47.8159 122.2924 -4.4349 0.0000 12.6140 0.0000
# 3 64.9695 -4.4349 179.7163 0.0000 27.6593 0.0000
# 4 0.0000 0.0000 0.0000 -2.9309 0.0000 5.1414
# 5 44.4266 12.6140 27.6593 0.0000 45.8274 0.0000
# 6 0.0000 0.0000 0.0000 5.1414 0.0000 -28.8429
#
#
#
# Elastic Compliance Matrix: (Units=1/GPa)
#
#
# Indices 1 2 3 4 5 6 
#
# 1 0.012099 -0.003940 -0.003123 0.000000 -0.008760 0.000000
# 2 -0.003940 0.009763 0.001644 0.000000 0.000141 0.000000
# 3 -0.003123 0.001644 0.006987 0.000000 -0.001642 0.000000
# 4 0.000000 0.000000 0.000000 -0.496413 0.000000 -0.088489
# 5 -0.008760 0.000141 -0.001642 0.000000 0.031265 0.000000
# 6 0.000000 0.000000 0.000000 -0.088489 0.000000 -0.050444
#
#
# Mechanical properties :
#
#
# Convention : Reuss Voigt Hill
#
# Bulk Modulus (GPa) = 55.52704 73.98538 64.75621
# Shear Modulus (GPa) = -10.64052 25.53182 7.44565
#
# Velocity S-wave (km/s) = -2.09604 3.24683 1.75335
# Velocity P-wave (km/s) = 4.13145 6.67861 5.55305
#
# Compressibility (1/GPa) = 0.01800924
#
# Stress axis : x y z
#
# Youngs Moduli (GPa) = 82.65118 102.42837 143.13204
#
# Poissons Ratio (x) = 0.40361 0.44700
# Poissons Ratio (y) = 0.32568 -0.23528
# Poissons Ratio (z) = 0.25812 -0.16837
#
# Static dielectric constant tensor:
#      x y z
#    x 1.932620 0.000000 -0.082620 
#    y 0.000000 1.932540 0.000000 
#    z -0.082620 0.000000 2.004000 
# 
# From -- ./inp_files/11888.got.cif
#   From: 2010.05.17/outbox.cif.g08.bks.cpg/sg10_6_cif.got.tgz:11888.got - 2010.06.03 11:33:40.
