data_PCOD9154900
_publ_section_title
;
Structure prediction by ZEFSAII (Michael W. Deem and Ramdas Pophale) SiO2 
 PCOD9154900
Probable space group: P 2/M
;
_chemical_formula_sum "Si O2"
_cell_formula_units_Z 32
_cell_length_a 7.304914
_cell_length_b 9.567203
_cell_length_c 22.184552
_cell_angle_alpha 90.000000
_cell_angle_beta 99.473387
_cell_angle_gamma 90.000000
_cell_volume 1529.280536
_symmetry_space_group_name_H-M "P 2/M"
_symmetry_group_IT_number 10
_symmetry_cell_setting 'monoclinic'
loop_
_space_group_symop_operation_xyz
x,y,z
-x,y,-z
-x,-y,-z
x,-y,z
loop_
_atom_site_type_symbol
_atom_site_label
_atom_site_fract_x
_atom_site_fract_y
_atom_site_fract_z
Si Si1 0.677114 0.162611 0.800769
Si Si2 0.997381 0.159136 0.430964
Si Si3 0.433603 0.840862 0.430963
Si Si4 0.123619 0.162610 0.800762
Si Si5 0.746762 0.832855 0.934295
Si Si6 0.934484 0.660517 0.316449
Si Si7 0.381994 0.339482 0.316444
Si Si8 0.812485 0.832855 0.065712
O O1 0.650157 0.216619 0.867730
O O2 0.590307 0.255760 0.743947
O O3 0.900630 0.162732 0.801292
O O4 0.619252 0.000000 0.793392
O O5 0.211596 0.150641 0.423170
O O6 0.903188 0.258706 0.377291
O O7 0.000000 0.209974 0.500000
O O8 0.923432 0.000000 0.426345
O O9 0.500000 0.790028 0.500000
O O10 0.474125 0.741294 0.377287
O O11 0.502934 0.000000 0.426343
O O12 0.217545 0.216617 0.867720
O O13 0.153605 0.255763 0.743940
O O14 0.174100 0.000000 0.793381
O O15 0.967426 0.816041 0.934867
O O16 0.711847 0.000000 0.934070
O O17 0.712185 0.777626 0.000006
O O18 0.876213 0.500000 0.315724
O O19 0.158264 0.660914 0.316496
O O20 0.439539 0.500000 0.315717
O O21 0.777798 0.000000 0.065939
#
# Coordination Sequence:
#
# PCOD9154900 Si02
#       8
#     4   4   4   4   4   4   4   4
#     4   8  12  18  29  43  59  82 113 148 183 217
#     4   9  17  29  44  60  77  97 122 152 185 221
#     4   9  17  29  44  60  77  97 122 152 185 221
#     4   8  12  18  29  43  59  82 113 148 183 217
#     4   7   9  13  22  37  55  75 104 143 181 213
#     4   9  16  24  34  49  69  92 118 149 183 218
#     4   9  16  24  34  49  69  92 118 149 183 218
#     4   7   9  13  22  37  55  75 104 143 181 213
#
# _framework density 20.924872000000001
#
# number of rings (size 3 to 8) (size 9 to 14) (size 15 to 20)
#    0.000    3.750    0.000    3.000    0.000    3.500 
#    0.000    0.000    0.000    0.750    0.000    5.250 
#    0.000    0.000    0.000    0.000    0.000    1.250 
#
# Total GULP energy -178333.915049 kJ/mol
# GULP energy per Si atom -5572.934845 kJ/mol
# Density = 2.087725 g / cm^3
# Si number density = 20.924872 Si / 1000 Ang^3
#
#
#
# Elastic Constant Matrix: (Units=GPa)
#
#
# Indices 1 2 3 4 5 6 
#
# 1 83.0276 4.9592 6.0585 0.0000 -3.5254 0.0000
# 2 4.9592 93.2582 122.3295 0.0000 4.8891 0.0000
# 3 6.0585 122.3295 286.3846 0.0000 12.0141 0.0000
# 4 0.0000 0.0000 0.0000 -25.5822 0.0000 -0.1053
# 5 -3.5254 4.8891 12.0141 0.0000 -3.4009 0.0000
# 6 0.0000 0.0000 0.0000 -0.1053 0.0000 -23.0286
#
#
#
# Elastic Compliance Matrix: (Units=1/GPa)
#
#
# Indices 1 2 3 4 5 6 
#
# 1 0.011575 -0.000735 0.000537 0.000000 -0.011158 0.000000
# 2 -0.000735 0.024425 -0.010384 0.000000 -0.000806 0.000000
# 3 0.000537 -0.010384 0.007460 0.000000 0.010868 0.000000
# 4 0.000000 0.000000 0.000000 -0.039090 0.000000 0.000179
# 5 -0.011158 -0.000806 0.010868 0.000000 -0.245241 0.000000
# 6 0.000000 0.000000 0.000000 0.000179 0.000000 -0.043425
#
#
# Mechanical properties :
#
#
# Convention : Reuss Voigt Hill
#
# Bulk Modulus (GPa) = 44.85041 81.04054 62.94548
# Shear Modulus (GPa) = -19.55414 11.55255 -4.00080
#
# Velocity S-wave (km/s) = -3.06026 2.35222 -1.38424
# Velocity P-wave (km/s) = 2.99893 6.79637 5.25282
#
# Compressibility (1/GPa) = 0.02229634
#
# Stress axis : x y z
#
# Youngs Moduli (GPa) = 86.39212 40.94164 134.04917
#
# Poissons Ratio (x) = 0.03011 -0.07203
# Poissons Ratio (y) = 0.06354 1.39194
# Poissons Ratio (z) = -0.04642 0.42513
#
# Static dielectric constant tensor:
#      x y z
#    x -0.173580 0.000000 0.080940 
#    y 0.000000 1.683150 0.000000 
#    z 0.080940 0.000000 1.770460 
# 
# From -- ./inp_files/57173.got.cif
#   From: 2010.05.17/outbox.cif.g08.bks.cpg/sg10_29_cif.got.tgz:57173.got - 2010.06.03 11:33:40.
