data_PCOD9154061
_publ_section_title
;
Structure prediction by ZEFSAII (Michael W. Deem and Ramdas Pophale) SiO2 
 PCOD9154061
Probable space group: P 2/M
;
_chemical_formula_sum "Si O2"
_cell_formula_units_Z 32
_cell_length_a 18.629082
_cell_length_b 14.037010
_cell_length_c 21.626954
_cell_angle_alpha 90.000000
_cell_angle_beta 18.577610
_cell_angle_gamma 90.000000
_cell_volume 1801.739847
_symmetry_space_group_name_H-M "P 2/M"
_symmetry_group_IT_number 10
_symmetry_cell_setting 'monoclinic'
loop_
_space_group_symop_operation_xyz
x,y,z
-x,y,-z
-x,-y,-z
x,-y,z
loop_
_atom_site_type_symbol
_atom_site_label
_atom_site_fract_x
_atom_site_fract_y
_atom_site_fract_z
Si Si1 0.335735 0.698002 0.555521
Si Si2 0.619039 0.889491 0.315288
Si Si3 0.451296 0.115831 0.903337
Si Si4 0.009104 0.204787 0.757891
Si Si5 0.214275 0.387613 0.786119
Si Si6 0.972336 0.109300 0.920488
Si Si7 0.191706 0.890742 0.289985
Si Si8 0.833039 0.886330 0.489375
O O1 0.443179 0.804812 0.468471
O O2 0.553651 0.632111 0.367191
O O3 0.240422 0.666892 0.699988
O O4 0.138668 0.696419 0.665548
O O5 0.809950 0.883630 0.212772
O O6 0.533489 0.000000 0.385670
O O7 0.755365 0.871890 0.140484
O O8 0.585895 0.143352 0.856141
O O9 0.619217 0.131231 0.708008
O O10 0.402115 0.000000 0.945514
O O11 0.235476 0.181352 0.069503
O O12 0.985770 0.167560 0.847129
O O13 0.170992 0.151953 0.576531
O O14 0.190348 0.500000 0.793774
O O15 0.000000 0.353458 0.000000
O O16 0.955228 0.000000 0.914506
O O17 0.000000 0.893468 0.500000
O O18 0.056073 0.847591 0.343258
O O19 0.241583 0.000000 0.232310
O O20 0.854880 0.000000 0.468310
#
# Coordination Sequence:
#
# PCOD9154061 Si02
#       8
#     4   4   4   4   4   4   4   4
#     4  11  23  35  57  81 109 132 167 212 259 319
#     4   9  20  35  50  67  96 147 187 210 235 287
#     4   9  18  31  45  62  92 134 184 232 268 302
#     4  12  23  29  41  72 101 131 159 212 272 321
#     4  10  23  45  70  86  96 119 166 223 277 324
#     4   9  18  32  45  59  88 133 187 221 243 280
#     4   7  12  27  47  61  79 122 184 241 272 293
#     4   9  18  31  45  63  91 132 186 235 271 298
#
# _framework density 17.760611000000001
#
# number of rings (size 3 to 8) (size 9 to 14) (size 15 to 20)
#    0.000    2.500    0.000    5.625    5.250    2.000 
#    0.000    4.375    0.000    0.375    0.000    0.000 
#    0.000    0.000    0.000    9.000    0.000   52.000 
#
# Total GULP energy -178351.909609 kJ/mol
# GULP energy per Si atom -5573.497175 kJ/mol
# Density = 1.772019 g / cm^3
# Si number density = 17.760611 Si / 1000 Ang^3
#
#
#
# Elastic Constant Matrix: (Units=GPa)
#
#
# Indices 1 2 3 4 5 6 
#
# 1 79.6768 14.6537 36.4520 0.0000 4.6307 0.0000
# 2 14.6537 40.3069 21.6331 0.0000 1.0196 0.0000
# 3 36.4520 21.6331 95.4283 0.0000 -4.2717 0.0000
# 4 0.0000 0.0000 0.0000 22.8386 0.0000 1.4626
# 5 4.6307 1.0196 -4.2717 0.0000 34.4828 0.0000
# 6 0.0000 0.0000 0.0000 1.4626 0.0000 8.7711
#
#
#
# Elastic Compliance Matrix: (Units=1/GPa)
#
#
# Indices 1 2 3 4 5 6 
#
# 1 0.015728 -0.002686 -0.005521 0.000000 -0.002717 0.000000
# 2 -0.002686 0.028797 -0.005555 0.000000 -0.001179 0.000000
# 3 -0.005521 -0.005555 0.013965 0.000000 0.002636 0.000000
# 4 0.000000 0.000000 0.000000 0.044258 0.000000 -0.007380
# 5 -0.002717 -0.001179 0.002636 0.000000 0.029726 0.000000
# 6 0.000000 0.000000 0.000000 -0.007380 0.000000 0.115241
#
#
# Mechanical properties :
#
#
# Convention : Reuss Voigt Hill
#
# Bulk Modulus (GPa) = 32.29224 40.09883 36.19553
# Shear Modulus (GPa) = 17.50931 22.73005 20.11968
#
# Velocity S-wave (km/s) = 3.14323 3.58131 3.36940
# Velocity P-wave (km/s) = 5.60309 6.30297 5.96331
#
# Compressibility (1/GPa) = 0.03096720
#
# Stress axis : x y z
#
# Youngs Moduli (GPa) = 63.57959 34.72534 71.60727
#
# Poissons Ratio (x) = 0.09329 0.39531
# Poissons Ratio (y) = 0.17080 0.39777
# Poissons Ratio (z) = 0.35100 0.19289
#
# Static dielectric constant tensor:
#      x y z
#    x 1.675300 0.000000 -0.032470 
#    y 0.000000 1.584560 0.000000 
#    z -0.032470 0.000000 1.718970 
# 
# From -- ./inp_files/85952.got.cif
#   From: 2010.05.17/outbox.cif.g08.bks.cpg/sg10_43_cif.got.tgz:85952.got - 2010.06.03 11:33:40.
