data_PCOD9154300
_publ_section_title
;
Structure prediction by ZEFSAII (Michael W. Deem and Ramdas Pophale) SiO2 
 PCOD9154300
Probable space group: P 2/M
;
_chemical_formula_sum "Si O2"
_cell_formula_units_Z 32
_cell_length_a 32.255330
_cell_length_b 7.748180
_cell_length_c 25.171716
_cell_angle_alpha 90.000000
_cell_angle_beta 165.198452
_cell_angle_gamma 90.000000
_cell_volume 1607.152605
_symmetry_space_group_name_H-M "P 2/M"
_symmetry_group_IT_number 10
_symmetry_cell_setting 'monoclinic'
loop_
_space_group_symop_operation_xyz
x,y,z
-x,y,-z
-x,-y,-z
x,-y,z
loop_
_atom_site_type_symbol
_atom_site_label
_atom_site_fract_x
_atom_site_fract_y
_atom_site_fract_z
Si Si1 0.925916 0.710812 0.280124
Si Si2 0.208954 0.699927 0.996331
Si Si3 0.852095 0.210637 0.854946
Si Si4 0.629101 0.288378 0.989324
Si Si5 0.154209 0.298222 0.650662
Si Si6 0.428604 0.199438 0.569226
Si Si7 0.053529 0.199181 0.912514
Si Si8 0.686584 0.301017 0.459604
O O1 0.934900 0.500000 0.293146
O O2 0.081974 0.775409 0.506551
O O3 0.902006 0.765288 0.189888
O O4 0.763413 0.759908 0.111422
O O5 0.243911 0.500000 0.027797
O O6 0.383266 0.789450 0.211871
O O7 0.121476 0.713635 0.944081
O O8 0.685679 0.262743 0.620212
O O9 0.856468 0.000000 0.862892
O O10 0.000000 0.264039 0.000000
O O11 0.879901 0.272590 0.949308
O O12 0.627585 0.500000 0.988106
O O13 0.452062 0.230876 0.751556
O O14 0.697290 0.226612 0.130680
O O15 0.192429 0.500000 0.688521
O O16 0.000000 0.294065 0.500000
O O17 0.388851 0.293937 0.574841
O O18 0.383578 0.000000 0.523133
O O19 0.858882 0.208835 0.672925
O O20 0.104535 0.000000 0.972312
O O21 0.718392 0.500000 0.484792
#
# Coordination Sequence:
#
# PCOD9154300 Si02
#       8
#     4   4   4   4   4   4   4   4
#     4   8  13  24  44  71 105 140 168 207 259 306
#     4  11  22  37  54  80 115 142 172 219 273 316
#     4   9  18  36  59  79 101 134 178 223 259 305
#     4   8  13  23  43  74 107 134 166 213 261 304
#     4   7  10  18  37  68 102 134 169 206 250 301
#     4  11  21  36  59  82 104 140 183 218 258 314
#     4  11  23  40  58  77 103 140 184 220 260 320
#     4  11  20  33  54  83 113 139 170 219 276 315
#
# _framework density 19.910990000000002
#
# number of rings (size 3 to 8) (size 9 to 14) (size 15 to 20)
#    0.000    2.500    2.500    3.000    0.000    0.500 
#    0.000    5.625    0.000    0.750    0.000    9.625 
#    0.000    0.000    0.000    0.000    0.000    0.000 
#
# Total GULP energy -178449.116574 kJ/mol
# GULP energy per Si atom -5576.534893 kJ/mol
# Density = 1.986567 g / cm^3
# Si number density = 19.910990 Si / 1000 Ang^3
#
#
#
# Elastic Constant Matrix: (Units=GPa)
#
#
# Indices 1 2 3 4 5 6 
#
# 1 108.7681 -3.1228 67.4353 0.0000 -28.0308 0.0000
# 2 -3.1228 32.4965 -1.0645 0.0000 -5.0145 0.0000
# 3 67.4353 -1.0645 138.5602 0.0000 -44.7281 0.0000
# 4 0.0000 0.0000 0.0000 6.7208 0.0000 10.5266
# 5 -28.0308 -5.0145 -44.7281 0.0000 39.0091 0.0000
# 6 0.0000 0.0000 0.0000 10.5266 0.0000 14.4223
#
#
#
# Elastic Compliance Matrix: (Units=1/GPa)
#
#
# Indices 1 2 3 4 5 6 
#
# 1 0.013541 0.001717 -0.005342 0.000000 0.003826 0.000000
# 2 0.001717 0.032146 0.001816 0.000000 0.007448 0.000000
# 3 -0.005342 0.001816 0.013760 0.000000 0.012172 0.000000
# 4 0.000000 0.000000 0.000000 -1.039059 0.000000 0.758393
# 5 0.003826 0.007448 0.012172 0.000000 0.043298 0.000000
# 6 0.000000 0.000000 0.000000 0.758393 0.000000 -0.484202
#
#
# Mechanical properties :
#
#
# Convention : Reuss Voigt Hill
#
# Bulk Modulus (GPa) = 17.91220 45.14674 31.52947
# Shear Modulus (GPa) = -3.57581 26.46889 11.44654
#
# Velocity S-wave (km/s) = -1.34156 3.65000 2.40028
# Velocity P-wave (km/s) = 2.57215 6.36292 4.85298
#
# Compressibility (1/GPa) = 0.05582787
#
# Stress axis : x y z
#
# Youngs Moduli (GPa) = 73.84891 31.10781 72.67285
#
# Poissons Ratio (x) = -0.05340 0.38823
# Poissons Ratio (y) = -0.12677 -0.13195
# Poissons Ratio (z) = 0.39452 -0.05648
#
# Static dielectric constant tensor:
#      x y z
#    x 1.671720 0.000000 -0.057590 
#    y 0.000000 1.747120 0.000000 
#    z -0.057590 0.000000 1.713990 
# 
# From -- ./inp_files/87068.got.cif
#   From: 2010.05.17/outbox.cif.g08.bks.cpg/sg10_44_cif.got.tgz:87068.got - 2010.06.03 11:33:40.
