data_PCOD9154276
_publ_section_title
;
Structure prediction by ZEFSAII (Michael W. Deem and Ramdas Pophale) SiO2 
 PCOD9154276
Probable space group: P 2/M
;
_chemical_formula_sum "Si O2"
_cell_formula_units_Z 28
_cell_length_a 14.972699
_cell_length_b 8.458318
_cell_length_c 19.933543
_cell_angle_alpha 90.000000
_cell_angle_beta 41.311622
_cell_angle_gamma 90.000000
_cell_volume 1666.532883
_symmetry_space_group_name_H-M "P 2/M"
_symmetry_group_IT_number 10
_symmetry_cell_setting 'monoclinic'
loop_
_space_group_symop_operation_xyz
x,y,z
-x,y,-z
-x,-y,-z
x,-y,z
loop_
_atom_site_type_symbol
_atom_site_label
_atom_site_fract_x
_atom_site_fract_y
_atom_site_fract_z
Si Si1 0.520073 0.192353 0.881166
Si Si2 0.486976 0.309146 0.615855
Si Si3 0.717595 0.192354 0.881166
Si Si4 0.982422 0.810591 0.805240
Si Si5 0.896664 0.689715 0.000000
Si Si6 0.281316 0.690854 0.615856
Si Si7 0.407098 0.189409 0.805240
O O1 0.652284 0.246192 0.847716
O O2 0.494491 0.246355 0.820018
O O3 0.524109 0.000000 0.877938
O O4 0.389939 0.235502 0.000000
O O5 0.485778 0.500000 0.619414
O O6 0.624233 0.260864 0.499999
O O7 0.362777 0.261312 0.637224
O O8 0.467644 0.243258 0.700566
O O9 0.865473 0.246356 0.820018
O O10 0.720017 0.000000 0.877937
O O11 0.131224 0.756739 0.700568
O O12 0.977571 0.000000 0.809864
O O13 0.945980 0.749010 0.899873
O O14 0.895936 0.500000 0.999997
O O15 0.745723 0.749003 0.100131
O O16 0.000000 0.742902 0.000000
O O17 0.275396 0.500000 0.619414
O O18 0.402695 0.000000 0.809868
#
# Coordination Sequence:
#
# PCOD9154276 Si02
#       7
#     4   4   4   4   4   4   4
#     4   8  14  27  47  70  98 130 160 192 238 295
#     4   9  19  36  54  70  94 133 173 201 236 295
#     4   8  14  27  47  70  98 130 160 192 238 295
#     4  11  20  31  51  78 101 123 160 210 253 283
#     4  11  23  35  46  65 100 142 169 187 232 303
#     4   9  19  36  54  70  94 133 173 201 236 295
#     4  11  20  31  51  78 101 123 160 210 253 283
#
# _framework density 16.801348999999998
#
# number of rings (size 3 to 8) (size 9 to 14) (size 15 to 20)
#    0.000    2.429    1.429    3.857    0.000    5.714 
#    0.000    1.429    0.000    5.143    0.000    6.000 
#    0.000    0.000    0.000    0.000    0.000    0.000 
#
# Total GULP energy -156146.302751 kJ/mol
# GULP energy per Si atom -5576.653670 kJ/mol
# Density = 1.676311 g / cm^3
# Si number density = 16.801349 Si / 1000 Ang^3
#
#
#
# Elastic Constant Matrix: (Units=GPa)
#
#
# Indices 1 2 3 4 5 6 
#
# 1 190.3671 28.8259 108.1539 0.0000 2.1650 0.0000
# 2 28.8259 20.2937 22.9228 0.0000 0.2890 0.0000
# 3 108.1539 22.9228 119.4520 0.0000 1.3186 0.0000
# 4 0.0000 0.0000 0.0000 40.3285 0.0000 4.8562
# 5 2.1650 0.2890 1.3186 0.0000 19.1168 0.0000
# 6 0.0000 0.0000 0.0000 4.8562 0.0000 139.4910
#
#
#
# Elastic Compliance Matrix: (Units=1/GPa)
#
#
# Indices 1 2 3 4 5 6 
#
# 1 0.011325 -0.005750 -0.009145 0.000000 -0.000565 0.000000
# 2 -0.005750 0.065833 -0.007429 0.000000 0.000168 0.000000
# 3 -0.009145 -0.007429 0.018078 0.000000 -0.000099 0.000000
# 4 0.000000 0.000000 0.000000 0.024901 0.000000 -0.000867
# 5 -0.000565 0.000168 -0.000099 0.000000 0.052378 0.000000
# 6 0.000000 0.000000 0.000000 -0.000867 0.000000 0.007199
#
#
# Mechanical properties :
#
#
# Convention : Reuss Voigt Hill
#
# Bulk Modulus (GPa) = 19.76712 72.21311 45.99011
# Shear Modulus (GPa) = 20.72755 51.13458 35.93106
#
# Velocity S-wave (km/s) = 3.51619 5.52276 4.62950
# Velocity P-wave (km/s) = 5.31748 9.15105 7.48389
#
# Compressibility (1/GPa) = 0.05058905
#
# Stress axis : x y z
#
# Youngs Moduli (GPa) = 88.29675 15.18999 55.31564
#
# Poissons Ratio (x) = 0.08734 0.50584
# Poissons Ratio (y) = 0.50768 0.41096
# Poissons Ratio (z) = 0.80744 0.11285
#
# Static dielectric constant tensor:
#      x y z
#    x 1.588740 0.000000 0.002610 
#    y 0.000000 1.581540 0.000000 
#    z 0.002610 0.000000 1.535420 
# 
# From -- ./inp_files/28369.got.cif
#   From: 2010.05.17/outbox.cif.g08.bks.cpg/sg10_15_cif.got.tgz:28369.got - 2010.06.03 11:33:40.
