data_PCOD9154487
_publ_section_title
;
Structure prediction by ZEFSAII (Michael W. Deem and Ramdas Pophale) SiO2 
 PCOD9154487
Probable space group: P 2/M
;
_chemical_formula_sum "Si O2"
_cell_formula_units_Z 29
_cell_length_a 10.075944
_cell_length_b 19.358868
_cell_length_c 16.990177
_cell_angle_alpha 90.000000
_cell_angle_beta 152.930421
_cell_angle_gamma 90.000000
_cell_volume 1508.147785
_symmetry_space_group_name_H-M "P 2/M"
_symmetry_group_IT_number 10
_symmetry_cell_setting 'monoclinic'
loop_
_space_group_symop_operation_xyz
x,y,z
-x,y,-z
-x,-y,-z
x,-y,z
loop_
_atom_site_type_symbol
_atom_site_label
_atom_site_fract_x
_atom_site_fract_y
_atom_site_fract_z
Si Si1 0.183308 0.746314 0.295137
Si Si2 0.710956 0.171176 0.798998
Si Si3 0.463054 0.576311 0.204024
Si Si4 0.329791 0.271584 0.701159
Si Si5 0.139791 0.599573 0.198153
Si Si6 0.147042 0.079537 0.491601
Si Si7 0.756250 0.812853 0.190994
Si Si8 0.500000 0.500000 0.500000
O O1 0.500000 0.736083 0.500000
O O2 0.201551 0.808585 0.242921
O O3 0.105704 0.678807 0.204430
O O4 0.958545 0.763304 0.245218
O O5 0.553962 0.237618 0.757454
O O6 0.467524 0.112148 0.668727
O O7 0.000000 0.153581 0.000000
O O8 0.604807 0.500000 0.273522
O O9 0.636773 0.645818 0.275103
O O10 0.348559 0.587249 0.232900
O O11 0.177362 0.575459 0.997967
O O12 0.375565 0.232383 0.807478
O O13 0.000000 0.255943 0.500000
O O14 0.287284 0.559278 0.347515
O O15 0.000000 0.082475 0.500000
O O16 0.955597 0.127354 0.333115
O O17 0.155991 0.000000 0.470680
O O18 0.500000 0.840062 0.000000
#
# Coordination Sequence:
#
# PCOD9154487 Si02
#       8
#     4   4   4   4   4   4   4   1
#     4  12  23  37  65  97 128 164 217 276 329 372
#     4  12  22  42  70  99 127 170 223 273 312 382
#     4  11  22  39  62  88 128 166 223 273 325 379
#     4  12  23  43  69  93 129 176 226 269 321 393
#     4  11  21  37  58  93 122 165 215 272 322 393
#     4  11  24  45  71  99 135 178 217 259 324 401
#     4  12  24  43  66  97 135 172 212 270 330 390
#     4  12  20  30  56  84 126 162 192 268 342 374
#
# _framework density 19.228884000000001
#
# number of rings (size 3 to 8) (size 9 to 14) (size 15 to 20)
#    0.000    0.414    7.586    2.897    0.000    0.828 
#    0.000    1.379    1.517    1.241    0.000    0.000 
#    0.000    0.000    0.000    0.000    0.000    0.000 
#
# Total GULP energy -161833.309740 kJ/mol
# GULP energy per Si atom -5580.458957 kJ/mol
# Density = 1.918512 g / cm^3
# Si number density = 19.228884 Si / 1000 Ang^3
#
#
#
# Elastic Constant Matrix: (Units=GPa)
#
#
# Indices 1 2 3 4 5 6 
#
# 1 41.0384 8.8044 1.6552 0.0000 -8.0085 0.0000
# 2 8.8044 131.8169 33.1909 0.0000 -4.8403 0.0000
# 3 1.6552 33.1909 107.3424 0.0000 -4.8082 0.0000
# 4 0.0000 0.0000 0.0000 14.0618 0.0000 2.5367
# 5 -8.0085 -4.8403 -4.8082 0.0000 20.9805 0.0000
# 6 0.0000 0.0000 0.0000 2.5367 0.0000 19.0901
#
#
#
# Elastic Compliance Matrix: (Units=1/GPa)
#
#
# Indices 1 2 3 4 5 6 
#
# 1 0.026613 -0.001542 0.000511 0.000000 0.009920 0.000000
# 2 -0.001542 0.008353 -0.002525 0.000000 0.000760 0.000000
# 3 0.000511 -0.002525 0.010176 0.000000 0.001944 0.000000
# 4 0.000000 0.000000 0.000000 0.072861 0.000000 -0.009682
# 5 0.009920 0.000760 0.001944 0.000000 0.052071 0.000000
# 6 0.000000 0.000000 0.000000 -0.009682 0.000000 0.053670
#
#
# Mechanical properties :
#
#
# Convention : Reuss Voigt Hill
#
# Bulk Modulus (GPa) = 26.29501 40.83318 33.56409
# Shear Modulus (GPa) = 20.53110 26.59630 23.56370
#
# Velocity S-wave (km/s) = 3.27115 3.72310 3.50442
# Velocity P-wave (km/s) = 5.28882 6.30582 5.81958
#
# Compressibility (1/GPa) = 0.03803004
#
# Stress axis : x y z
#
# Youngs Moduli (GPa) = 37.57499 119.71826 98.27105
#
# Poissons Ratio (x) = 0.18460 -0.05019
# Poissons Ratio (y) = 0.05794 0.24813
# Poissons Ratio (z) = -0.01919 0.30228
#
# Static dielectric constant tensor:
#      x y z
#    x 1.655580 0.000000 -0.002060 
#    y 0.000000 1.678990 0.000000 
#    z -0.002060 0.000000 1.668840 
# 
# From -- ./inp_files/62636.got.cif
#   From: 2010.05.17/outbox.cif.g08.bks.cpg/sg10_32_cif.got.tgz:62636.got - 2010.06.03 11:33:40.
