data_PCOD9154516
_publ_section_title
;
Structure prediction by ZEFSAII (Michael W. Deem and Ramdas Pophale) SiO2 
 PCOD9154516
Probable space group: P 2/M
;
_chemical_formula_sum "Si O2"
_cell_formula_units_Z 24
_cell_length_a 12.240163
_cell_length_b 14.845368
_cell_length_c 10.724283
_cell_angle_alpha 90.000000
_cell_angle_beta 35.100878
_cell_angle_gamma 90.000000
_cell_volume 1120.540907
_symmetry_space_group_name_H-M "P 2/M"
_symmetry_group_IT_number 10
_symmetry_cell_setting 'monoclinic'
loop_
_space_group_symop_operation_xyz
x,y,z
-x,y,-z
-x,-y,-z
x,-y,z
loop_
_atom_site_type_symbol
_atom_site_label
_atom_site_fract_x
_atom_site_fract_y
_atom_site_fract_z
Si Si1 0.415041 0.683963 0.386306
Si Si2 0.905233 0.595711 0.222464
Si Si3 0.904702 0.103138 0.902741
Si Si4 0.299376 0.138309 0.647701
Si Si5 0.822596 0.715108 0.884411
Si Si6 0.715427 0.396102 0.748754
O O1 0.321063 0.609029 0.563925
O O2 0.367651 0.774231 0.506839
O O3 0.305567 0.659717 0.359286
O O4 0.632733 0.687980 0.139320
O O5 0.954099 0.500000 0.238255
O O6 0.003097 0.678881 0.198224
O O7 0.000000 0.594607 0.000000
O O8 0.845538 0.176964 0.855084
O O9 0.131248 0.099488 0.717625
O O10 0.840173 0.000000 0.943385
O O11 0.808190 0.143384 0.118724
O O12 0.500000 0.094124 0.500000
O O13 0.820823 0.661434 0.756245
O O14 0.781162 0.500000 0.671257
O O15 0.500000 0.402889 0.000000
#
# Coordination Sequence:
#
# PCOD9154516 Si02
#       6
#     4   4   4   4   4   4
#     4  11  22  38  64  89 127 163 211 258 315 376
#     4  11  24  38  57  89 127 163 206 256 315 388
#     4  11  24  40  63  96 129 162 212 264 316 383
#     4  11  21  39  63  93 123 165 201 255 323 386
#     4  11  22  41  64  89 126 169 209 263 322 362
#     4   9  20  39  64  92 123 167 220 261 304 373
#
# _framework density 21.418227000000002
#
# number of rings (size 3 to 8) (size 9 to 14) (size 15 to 20)
#    0.000    1.333    3.333    3.000    0.000    4.000 
#    0.000    3.333    0.000    7.500    0.000    0.000 
#    0.000    0.000    0.000    0.000    0.000    0.000 
#
# Total GULP energy -133686.106244 kJ/mol
# GULP energy per Si atom -5570.254427 kJ/mol
# Density = 2.136948 g / cm^3
# Si number density = 21.418227 Si / 1000 Ang^3
#
#
#
# Elastic Constant Matrix: (Units=GPa)
#
#
# Indices 1 2 3 4 5 6 
#
# 1 81.5500 49.8579 33.9957 0.0000 -3.9434 0.0000
# 2 49.8579 149.7689 39.7947 0.0000 18.1627 0.0000
# 3 33.9957 39.7947 135.8726 0.0000 -10.9048 0.0000
# 4 0.0000 0.0000 0.0000 -18.1721 0.0000 -6.0003
# 5 -3.9434 18.1627 -10.9048 0.0000 34.2512 0.0000
# 6 0.0000 0.0000 0.0000 -6.0003 0.0000 -12.4715
#
#
#
# Elastic Compliance Matrix: (Units=1/GPa)
#
#
# Indices 1 2 3 4 5 6 
#
# 1 0.016749 -0.005475 -0.002257 0.000000 0.004113 0.000000
# 2 -0.005475 0.009825 -0.002028 0.000000 -0.006486 0.000000
# 3 -0.002257 -0.002028 0.008809 0.000000 0.003620 0.000000
# 4 0.000000 0.000000 0.000000 -0.065422 0.000000 0.031476
# 5 0.004113 -0.006486 0.003620 0.000000 0.034262 0.000000
# 6 0.000000 0.000000 0.000000 0.031476 0.000000 -0.095326
#
#
# Mechanical properties :
#
#
# Convention : Reuss Voigt Hill
#
# Bulk Modulus (GPa) = 63.03992 68.27645 65.65818
# Shear Modulus (GPa) = -75.42077 16.95772 -29.23152
#
# Velocity S-wave (km/s) = -5.94052 2.81684 -3.69832
# Velocity P-wave (km/s) = 4.19003 6.52123 3.53342
#
# Compressibility (1/GPa) = 0.01586296
#
# Stress axis : x y z
#
# Youngs Moduli (GPa) = 59.70328 101.78038 113.51769
#
# Poissons Ratio (x) = 0.55724 0.25623
# Poissons Ratio (y) = 0.32687 0.23025
# Poissons Ratio (z) = 0.13476 0.20644
#
# Static dielectric constant tensor:
#      x y z
#    x 1.800020 0.000000 -0.014570 
#    y 0.000000 1.819670 0.000000 
#    z -0.014570 0.000000 1.840460 
# 
# From -- ./inp_files/51500.got.cif
#   From: 2010.05.17/outbox.cif.g08.bks.cpg/sg10_26_cif.got.tgz:51500.got - 2010.06.03 11:33:40.
