data_PCOD9154717
_publ_section_title
;
Structure prediction by ZEFSAII (Michael W. Deem and Ramdas Pophale) SiO2 
 PCOD9154717
Probable space group: P 2/M
;
_chemical_formula_sum "Si O2"
_cell_formula_units_Z 24
_cell_length_a 9.475460
_cell_length_b 17.096541
_cell_length_c 15.279563
_cell_angle_alpha 90.000000
_cell_angle_beta 29.786834
_cell_angle_gamma 90.000000
_cell_volume 1229.642376
_symmetry_space_group_name_H-M "P 2/M"
_symmetry_group_IT_number 10
_symmetry_cell_setting 'monoclinic'
loop_
_space_group_symop_operation_xyz
x,y,z
-x,y,-z
-x,-y,-z
x,-y,z
loop_
_atom_site_type_symbol
_atom_site_label
_atom_site_fract_x
_atom_site_fract_y
_atom_site_fract_z
Si Si1 0.019450 0.848016 0.388520
Si Si2 0.336763 0.588428 0.494412
Si Si3 0.829246 0.700820 0.177225
Si Si4 0.022986 0.000000 0.884255
Si Si5 0.398671 0.000000 0.153744
Si Si6 0.419407 0.142537 0.640165
Si Si7 0.158429 0.699854 0.187107
O O1 0.230945 0.920988 0.266569
O O2 0.098276 0.778085 0.277998
O O3 0.000000 0.820320 0.500000
O O4 0.712588 0.881691 0.526378
O O5 0.500000 0.583626 0.500000
O O6 0.311926 0.500000 0.473709
O O7 0.555209 0.644975 0.327916
O O8 0.031848 0.630393 0.668123
O O9 0.711442 0.788224 0.233236
O O10 0.022789 0.703071 0.161621
O O11 0.000000 0.678293 0.000000
O O12 0.193225 0.925999 0.755747
O O13 0.697205 0.000000 0.038700
O O14 0.000000 0.000000 0.000000
O O15 0.500000 0.000000 0.000000
O O16 0.500000 0.173194 0.500000
O O17 0.500000 0.687708 0.000000
#
# Coordination Sequence:
#
# PCOD9154717 Si02
#       7
#     4   4   4   2   2   4   4
#     4  12  25  42  66  90 131 172 218 265 328 382
#     4   9  19  42  68  95 131 170 213 263 318 385
#     4  11  23  41  67  97 129 171 220 263 316 384
#     4  12  26  40  62  92 126 161 221 271 316 379
#     4  12  26  44  60  94 130 169 216 272 327 378
#     4  12  22  43  63  89 124 171 219 263 315 384
#     4  11  24  40  65 100 132 168 213 267 324 381
#
# _framework density 19.517869999999998
#
# number of rings (size 3 to 8) (size 9 to 14) (size 15 to 20)
#    0.000    0.833    3.333    4.500    4.667    0.667 
#    0.000    0.000    0.000    3.500    0.000    0.000 
#    0.000    0.000    0.000    0.000    0.000    0.000 
#
# Total GULP energy -133971.932350 kJ/mol
# GULP energy per Si atom -5582.163848 kJ/mol
# Density = 1.947345 g / cm^3
# Si number density = 19.517870 Si / 1000 Ang^3
#
#
#
# Elastic Constant Matrix: (Units=GPa)
#
#
# Indices 1 2 3 4 5 6 
#
# 1 99.9068 14.1660 47.8113 0.0000 -15.7181 0.0000
# 2 14.1660 142.1906 63.8552 0.0000 -22.4360 0.0000
# 3 47.8113 63.8552 140.0684 0.0000 -29.6116 0.0000
# 4 0.0000 0.0000 0.0000 111.0727 0.0000 56.9589
# 5 -15.7181 -22.4360 -29.6116 0.0000 51.3389 0.0000
# 6 0.0000 0.0000 0.0000 56.9589 0.0000 45.1451
#
#
#
# Elastic Compliance Matrix: (Units=1/GPa)
#
#
# Indices 1 2 3 4 5 6 
#
# 1 0.012165 0.000956 -0.004228 0.000000 0.001703 0.000000
# 2 0.000956 0.009059 -0.004051 0.000000 0.001915 0.000000
# 3 -0.004228 -0.004051 0.011140 0.000000 0.003360 0.000000
# 4 0.000000 0.000000 0.000000 0.025505 0.000000 -0.032179
# 5 0.001703 0.001915 0.003360 0.000000 0.022775 0.000000
# 6 0.000000 0.000000 0.000000 -0.032179 0.000000 0.062750
#
#
# Mechanical properties :
#
#
# Convention : Reuss Voigt Hill
#
# Bulk Modulus (GPa) = 56.44387 70.42566 63.43476
# Shear Modulus (GPa) = 30.49762 58.60024 44.54893
#
# Velocity S-wave (km/s) = 3.95720 5.48535 4.78270
# Velocity P-wave (km/s) = 7.06124 8.73383 7.94169
#
# Compressibility (1/GPa) = 0.01771672
#
# Stress axis : x y z
#
# Youngs Moduli (GPa) = 82.20188 110.38616 89.76751
#
# Poissons Ratio (x) = -0.10547 0.37953
# Poissons Ratio (y) = -0.07854 0.36367
# Poissons Ratio (z) = 0.34755 0.44720
#
# Static dielectric constant tensor:
#      x y z
#    x 1.676750 0.000000 -0.018640 
#    y 0.000000 1.714180 0.000000 
#    z -0.018640 0.000000 1.569250 
# 
# From -- ./inp_files/62272.got.cif
#   From: 2010.05.17/outbox.cif.g08.bks.cpg/sg10_32_cif.got.tgz:62272.got - 2010.06.03 11:33:40.
