data_PCOD9154089
_publ_section_title
;
Structure prediction by ZEFSAII (Michael W. Deem and Ramdas Pophale) SiO2 
 PCOD9154089
Probable space group: P 2/M
;
_chemical_formula_sum "Si O2"
_cell_formula_units_Z 24
_cell_length_a 14.494460
_cell_length_b 9.032389
_cell_length_c 15.324552
_cell_angle_alpha 90.000000
_cell_angle_beta 39.339906
_cell_angle_gamma 90.000000
_cell_volume 1271.823083
_symmetry_space_group_name_H-M "P 2/M"
_symmetry_group_IT_number 10
_symmetry_cell_setting 'monoclinic'
loop_
_space_group_symop_operation_xyz
x,y,z
-x,y,-z
-x,-y,-z
x,-y,z
loop_
_atom_site_type_symbol
_atom_site_label
_atom_site_fract_x
_atom_site_fract_y
_atom_site_fract_z
Si Si1 0.624145 0.824171 0.545420
Si Si2 0.715728 0.174824 0.185090
Si Si3 0.859007 0.175501 0.899173
Si Si4 0.155731 0.675954 0.747542
Si Si5 0.796962 0.676777 0.571903
Si Si6 0.862018 0.324060 0.719177
O O1 0.452257 0.795077 0.670376
O O2 0.710227 0.738176 0.407328
O O3 0.692025 0.768702 0.586780
O O4 0.646675 0.000000 0.518117
O O5 0.817761 0.269376 0.173538
O O6 0.743987 0.000000 0.180630
O O7 0.749429 0.203916 0.059211
O O8 0.809534 0.237887 0.842306
O O9 0.009705 0.254126 0.814992
O O10 0.883118 0.000000 0.875290
O O11 0.149071 0.500000 0.746703
O O12 0.770487 0.500000 0.581833
O O13 0.789084 0.715292 0.680084
O O14 0.964453 0.702548 0.420054
O O15 0.844128 0.500000 0.745051
#
# Coordination Sequence:
#
# PCOD9154089 Si02
#       6
#     4   4   4   4   4   4
#     4  11  22  38  60  85 114 150 189 232 281 333
#     4  10  24  42  57  80 117 153 188 232 281 333
#     4  11  22  38  60  85 114 150 189 232 281 333
#     4  12  24  38  59  86 113 146 192 238 279 332
#     4   9  18  34  57  85 116 147 183 231 280 329
#     4   9  18  34  57  85 116 147 183 231 280 329
#
# _framework density 18.870550000000001
#
# number of rings (size 3 to 8) (size 9 to 14) (size 15 to 20)
#    0.000    1.667    1.667    4.500    0.000    7.333 
#    0.000    2.500    0.000    5.000    0.000    0.000 
#    0.000    0.000    0.000    0.000    0.000    0.000 
#
# Total GULP energy -134133.929523 kJ/mol
# GULP energy per Si atom -5588.913730 kJ/mol
# Density = 1.882760 g / cm^3
# Si number density = 18.870550 Si / 1000 Ang^3
#
#
#
# Elastic Constant Matrix: (Units=GPa)
#
#
# Indices 1 2 3 4 5 6 
#
# 1 50.7283 11.7440 -7.6075 0.0000 15.9202 0.0000
# 2 11.7440 31.6652 14.8327 0.0000 1.3195 0.0000
# 3 -7.6075 14.8327 54.6139 0.0000 5.3077 0.0000
# 4 0.0000 0.0000 0.0000 14.2422 0.0000 25.2730
# 5 15.9202 1.3195 5.3077 0.0000 21.5247 0.0000
# 6 0.0000 0.0000 0.0000 25.2730 0.0000 14.6443
#
#
#
# Elastic Compliance Matrix: (Units=1/GPa)
#
#
# Indices 1 2 3 4 5 6 
#
# 1 0.033945 -0.017081 0.011993 0.000000 -0.027016 0.000000
# 2 -0.017081 0.044780 -0.015883 0.000000 0.013805 0.000000
# 3 0.011993 -0.015883 0.025677 0.000000 -0.014228 0.000000
# 4 0.000000 0.000000 0.000000 -0.034044 0.000000 0.058753
# 5 -0.027016 0.013805 -0.014228 0.000000 0.069103 0.000000
# 6 0.000000 0.000000 0.000000 0.058753 0.000000 -0.033109
#
#
# Mechanical properties :
#
#
# Convention : Reuss Voigt Hill
#
# Bulk Modulus (GPa) = 16.01032 19.43841 17.72436
# Shear Modulus (GPa) = 29.56590 17.95145 23.75867
#
# Velocity S-wave (km/s) = 3.96254 3.08765 3.55214
# Velocity P-wave (km/s) = 5.42572 4.79945 5.12216
#
# Compressibility (1/GPa) = 0.06245970
#
# Stress axis : x y z
#
# Youngs Moduli (GPa) = 29.45985 22.33128 38.94470
#
# Poissons Ratio (x) = 0.38145 -0.46707
# Poissons Ratio (y) = 0.50322 0.61856
# Poissons Ratio (z) = -0.35332 0.35469
#
# Static dielectric constant tensor:
#      x y z
#    x 1.643090 0.000000 0.023200 
#    y 0.000000 1.625760 0.000000 
#    z 0.023200 0.000000 1.657640 
# 
# From -- ./inp_files/66328.got.cif
#   From: 2010.05.17/outbox.cif.g08.bks.cpg/sg10_34_cif.got.tgz:66328.got - 2010.06.03 11:33:40.
