data_PCOD9154841
_publ_section_title
;
Structure prediction by ZEFSAII (Michael W. Deem and Ramdas Pophale) SiO2 
 PCOD9154841
Probable space group: P 2/M
;
_chemical_formula_sum "Si O2"
_cell_formula_units_Z 18
_cell_length_a 8.922320
_cell_length_b 7.956579
_cell_length_c 14.473205
_cell_angle_alpha 90.000000
_cell_angle_beta 49.537008
_cell_angle_gamma 90.000000
_cell_volume 781.724692
_symmetry_space_group_name_H-M "P 2/M"
_symmetry_group_IT_number 10
_symmetry_cell_setting 'monoclinic'
loop_
_space_group_symop_operation_xyz
x,y,z
-x,y,-z
-x,-y,-z
x,-y,z
loop_
_atom_site_type_symbol
_atom_site_label
_atom_site_fract_x
_atom_site_fract_y
_atom_site_fract_z
Si Si1 0.336180 0.311886 0.813031
Si Si2 0.265656 0.000000 0.577807
Si Si3 0.736218 0.690296 0.551483
Si Si4 0.279997 0.691823 0.232136
Si Si5 0.267969 0.000000 0.107381
Si Si6 0.907589 0.000000 0.148034
O O1 0.253091 0.500000 0.847962
O O2 0.497803 0.302676 0.664790
O O3 0.484144 0.291946 0.841221
O O4 0.182010 0.166096 0.861335
O O5 0.500000 0.000000 0.500000
O O6 0.212746 0.835570 0.539248
O O7 0.166073 0.000000 0.716652
O O8 0.784617 0.500000 0.502856
O O9 0.191863 0.715067 0.371003
O O10 0.241967 0.500000 0.218153
O O11 0.219258 0.833791 0.186174
O O12 0.500000 0.000000 0.000000
O O13 0.141173 0.000000 0.065625
#
# Coordination Sequence:
#
# PCOD9154841 Si02
#       6
#     4   2   4   4   2   2
#     4   8  16  34  60  81 107 146 184 221 265 320
#     4  12  17  27  51  83 121 145 169 218 273 328
#     4   8  16  30  56  81 105 144 180 209 259 325
#     4   8  17  39  64  78 103 150 188 222 270 330
#     4  12  26  40  56  78 111 150 184 230 286 332
#     4  12  23  33  51  87 121 143 178 232 281 318
#
# _framework density 23.026008999999998
#
# number of rings (size 3 to 8) (size 9 to 14) (size 15 to 20)
#    1.333    1.333    2.222    1.333    0.000    2.667 
#    0.000    4.444    0.000    5.333    0.000    0.000 
#    0.000    0.000    0.000    0.000    0.000    0.000 
#
# Total GULP energy -100558.057780 kJ/mol
# GULP energy per Si atom -5586.558766 kJ/mol
# Density = 2.297360 g / cm^3
# Si number density = 23.026009 Si / 1000 Ang^3
#
#
#
# Elastic Constant Matrix: (Units=GPa)
#
#
# Indices 1 2 3 4 5 6 
#
# 1 98.4695 98.5578 28.6151 0.0000 -13.1041 0.0000
# 2 98.5578 201.2533 43.8464 0.0000 17.5340 0.0000
# 3 28.6151 43.8464 76.3075 0.0000 0.8055 0.0000
# 4 0.0000 0.0000 0.0000 0.8761 0.0000 -1.8409
# 5 -13.1041 17.5340 0.8055 0.0000 36.1852 0.0000
# 6 0.0000 0.0000 0.0000 -1.8409 0.0000 -5.9135
#
#
#
# Elastic Compliance Matrix: (Units=1/GPa)
#
#
# Indices 1 2 3 4 5 6 
#
# 1 0.027614 -0.014537 -0.002183 0.000000 0.017093 0.000000
# 2 -0.014537 0.013605 -0.002241 0.000000 -0.011807 0.000000
# 3 -0.002183 -0.002241 0.015212 0.000000 -0.000043 0.000000
# 4 0.000000 0.000000 0.000000 0.690054 0.000000 -0.214812
# 5 0.017093 -0.011807 -0.000043 0.000000 0.039548 0.000000
# 6 0.000000 0.000000 0.000000 -0.214812 0.000000 -0.102234
#
#
# Mechanical properties :
#
#
# Convention : Reuss Voigt Hill
#
# Bulk Modulus (GPa) = 54.02858 79.78543 66.90700
# Shear Modulus (GPa) = 6.86916 19.89697 13.38306
#
# Velocity S-wave (km/s) = 1.72907 2.94276 2.41346
# Velocity P-wave (km/s) = 5.24417 6.80234 6.07343
#
# Compressibility (1/GPa) = 0.01850872
#
# Stress axis : x y z
#
# Youngs Moduli (GPa) = 36.21288 73.50269 65.73843
#
# Poissons Ratio (x) = 1.06851 0.14349
# Poissons Ratio (y) = 0.52643 0.14735
# Poissons Ratio (z) = 0.07904 0.16475
#
# Static dielectric constant tensor:
#      x y z
#    x 1.861380 0.000000 -0.057370 
#    y 0.000000 1.786210 0.000000 
#    z -0.057370 0.000000 1.928830 
# 
# From -- ./inp_files/74130.got.cif
#   From: 2010.05.17/outbox.cif.g08.bks.cpg/sg10_38_cif.got.tgz:74130.got - 2010.06.03 11:33:40.
