data_PCOD9154987
_publ_section_title
;
Structure prediction by ZEFSAII (Michael W. Deem and Ramdas Pophale) SiO2 
 PCOD9154987
Probable space group: P 2/M
;
_chemical_formula_sum "Si O2"
_cell_formula_units_Z 32
_cell_length_a 23.172564
_cell_length_b 9.198961
_cell_length_c 6.988109
_cell_angle_alpha 90.000000
_cell_angle_beta 110.589132
_cell_angle_gamma 90.000000
_cell_volume 1394.462903
_symmetry_space_group_name_H-M "P 2/M"
_symmetry_group_IT_number 10
_symmetry_cell_setting 'monoclinic'
loop_
_space_group_symop_operation_xyz
x,y,z
-x,y,-z
-x,-y,-z
x,-y,z
loop_
_atom_site_type_symbol
_atom_site_label
_atom_site_fract_x
_atom_site_fract_y
_atom_site_fract_z
Si Si1 0.979256 0.666942 0.749692
Si Si2 0.770115 0.167304 0.136419
Si Si3 0.635325 0.163862 0.035129
Si Si4 0.137558 0.824645 0.279616
Si Si5 0.114208 0.674132 0.841685
Si Si6 0.480559 0.333945 0.204249
Si Si7 0.731952 0.833561 0.646480
Si Si8 0.401728 0.165164 0.568209
O O1 0.961620 0.500000 0.686003
O O2 0.919767 0.768406 0.663077
O O3 0.000000 0.669559 0.000000
O O4 0.042461 0.703809 0.712676
O O5 0.831773 0.261226 0.226628
O O6 0.755412 0.163130 0.891256
O O7 0.781356 0.000000 0.212064
O O8 0.704588 0.224519 0.137460
O O9 0.608059 0.153196 0.214591
O O10 0.643273 0.000000 0.967371
O O11 0.584250 0.249315 0.856230
O O12 0.124532 0.751332 0.058511
O O13 0.208870 0.780524 0.405340
O O14 0.136506 0.000000 0.264836
O O15 0.120564 0.500000 -0.133221
O O16 0.472110 0.500000 0.249974
O O17 0.537522 0.260335 0.379135
O O18 0.500000 0.332926 0.000000
O O19 0.663908 0.766782 0.570962
O O20 0.720534 0.000000 0.568530
O O21 0.410946 0.000000 0.505273
#
# Coordination Sequence:
#
# PCOD9154987 Si02
#       8
#     4   4   4   4   4   4   4   4
#     4   8  14  23  34  52  79 108 139 173 207 244
#     4   9  17  29  43  62  87 110 136 171 208 245
#     4   9  17  29  47  67  83 105 139 173 203 242
#     4   9  15  23  37  57  81 109 140 173 208 244
#     4   9  16  25  37  55  81 112 141 169 206 249
#     4   9  17  29  45  65  87 108 134 172 210 240
#     4   8  15  27  42  61  86 112 135 165 207 249
#     4   9  16  29  48  65  82 108 140 169 201 245
#
# _framework density 22.947904000000001
#
# number of rings (size 3 to 8) (size 9 to 14) (size 15 to 20)
#    0.000    3.250    0.000    2.625    0.000    4.750 
#    0.000    3.750    0.000    3.750    0.000    0.875 
#    0.000    7.000    0.000    0.000    0.000    0.000 
#
# Total GULP energy -178565.490398 kJ/mol
# GULP energy per Si atom -5580.171575 kJ/mol
# Density = 2.289567 g / cm^3
# Si number density = 22.947904 Si / 1000 Ang^3
#
#
#
# Elastic Constant Matrix: (Units=GPa)
#
#
# Indices 1 2 3 4 5 6 
#
# 1 185.3445 73.9563 41.7231 0.0000 47.0814 0.0000
# 2 73.9563 80.3113 39.5706 0.0000 39.6356 0.0000
# 3 41.7231 39.5706 101.2470 0.0000 35.6917 0.0000
# 4 0.0000 0.0000 0.0000 -105.0035 0.0000 -111.2028
# 5 47.0814 39.6356 35.6917 0.0000 59.1713 0.0000
# 6 0.0000 0.0000 0.0000 -111.2028 0.0000 -98.7559
#
#
#
# Elastic Compliance Matrix: (Units=1/GPa)
#
#
# Indices 1 2 3 4 5 6 
#
# 1 0.008741 -0.006864 -0.000112 0.000000 -0.002289 0.000000
# 2 -0.006864 0.025120 -0.003788 0.000000 -0.009080 0.000000
# 3 -0.000112 -0.003788 0.013307 0.000000 -0.005400 0.000000
# 4 0.000000 0.000000 0.000000 0.049468 0.000000 -0.055703
# 5 -0.002289 -0.009080 -0.005400 0.000000 0.028061 0.000000
# 6 0.000000 0.000000 0.000000 -0.055703 0.000000 0.052598
#
#
# Mechanical properties :
#
#
# Convention : Reuss Voigt Hill
#
# Bulk Modulus (GPa) = 39.00287 75.26697 57.13492
# Shear Modulus (GPa) = 24.11129 -14.80742 4.65193
#
# Velocity S-wave (km/s) = 3.24496 -2.54296 1.42533
# Velocity P-wave (km/s) = 5.57430 4.92423 5.25932
#
# Compressibility (1/GPa) = 0.02563914
#
# Stress axis : x y z
#
# Youngs Moduli (GPa) = 114.40087 39.80836 75.14676
#
# Poissons Ratio (x) = 0.27325 0.00844
# Poissons Ratio (y) = 0.78528 0.28468
# Poissons Ratio (z) = 0.01285 0.15080
#
# Static dielectric constant tensor:
#      x y z
#    x 1.943430 0.000000 -0.048030 
#    y 0.000000 1.778230 0.000000 
#    z -0.048030 0.000000 1.952470 
# 
# From -- ./inp_files/54880.got.cif
#   From: 2010.05.17/outbox.cif.g08.bks.cpg/sg10_28_cif.got.tgz:54880.got - 2010.06.03 11:33:40.
