data_PCOD9154435
_publ_section_title
;
Structure prediction by ZEFSAII (Michael W. Deem and Ramdas Pophale) SiO2 
 PCOD9154435
Probable space group: P 2/M
;
_chemical_formula_sum "Si O2"
_cell_formula_units_Z 18
_cell_length_a 7.652007
_cell_length_b 23.311471
_cell_length_c 9.136650
_cell_angle_alpha 90.000000
_cell_angle_beta 146.225492
_cell_angle_gamma 90.000000
_cell_volume 906.043162
_symmetry_space_group_name_H-M "P 2/M"
_symmetry_group_IT_number 10
_symmetry_cell_setting 'monoclinic'
loop_
_space_group_symop_operation_xyz
x,y,z
-x,y,-z
-x,-y,-z
x,-y,z
loop_
_atom_site_type_symbol
_atom_site_label
_atom_site_fract_x
_atom_site_fract_y
_atom_site_fract_z
Si Si1 0.375580 0.252925 0.247158
Si Si2 0.315861 0.869277 0.123045
Si Si3 0.622874 0.376955 0.751587
Si Si4 0.927149 0.934808 0.621377
Si Si5 0.376885 0.500000 0.247705
O O1 0.500000 0.245024 0.500000
O O2 0.481067 0.315038 0.258818
O O3 0.444477 0.195818 0.202995
O O4 0.000000 0.256514 0.000000
O O5 0.190598 0.898150 0.888055
O O6 0.583990 0.906362 0.388045
O O7 0.000000 0.867406 0.000000
O O8 0.500000 0.376732 0.500000
O O9 0.527293 0.438436 0.753693
O O10 0.000000 0.377344 0.000000
O O11 0.000000 0.936282 0.500000
O O12 0.928645 0.000000 0.679880
O O13 0.500000 0.500000 0.500000
O O14 0.000000 0.500000 0.000000
#
# Coordination Sequence:
#
# PCOD9154435 Si02
#       5
#     4   4   4   4   2
#     4   9  16  27  42  64  92 120 151 192 238 277
#     4  11  21  35  56  79 100 126 164 204 239 287
#     4   8  13  20  32  50  78 114 149 182 219 267
#     4  11  24  40  55  73 100 131 159 195 249 300
#     4   8  12  18  28  46  72 110 153 180 207 262
#
# _framework density 19.866603999999999
#
# number of rings (size 3 to 8) (size 9 to 14) (size 15 to 20)
#    0.000    2.444    0.000    4.667    0.000    4.444 
#    0.000    0.000    0.000    0.000    0.000    0.000 
#    0.000    0.000    0.000    6.000    0.000   11.778 
#
# Total GULP energy -100205.794405 kJ/mol
# GULP energy per Si atom -5566.988578 kJ/mol
# Density = 1.982139 g / cm^3
# Si number density = 19.866604 Si / 1000 Ang^3
#
#
#
# Elastic Constant Matrix: (Units=GPa)
#
#
# Indices 1 2 3 4 5 6 
#
# 1 15.5435 13.0839 0.9504 0.0000 3.9487 0.0000
# 2 13.0839 253.6387 48.1101 0.0000 -10.9523 0.0000
# 3 0.9504 48.1101 149.8734 0.0000 4.0728 0.0000
# 4 0.0000 0.0000 0.0000 31.1272 0.0000 -2.1554
# 5 3.9487 -10.9523 4.0728 0.0000 17.5819 0.0000
# 6 0.0000 0.0000 0.0000 -2.1554 0.0000 -21.2641
#
#
#
# Elastic Compliance Matrix: (Units=1/GPa)
#
#
# Indices 1 2 3 4 5 6 
#
# 1 0.073497 -0.004972 0.001673 0.000000 -0.019991 0.000000
# 2 -0.004972 0.004692 -0.001594 0.000000 0.004409 0.000000
# 3 0.001673 -0.001594 0.007256 0.000000 -0.003050 0.000000
# 4 0.000000 0.000000 0.000000 0.031902 0.000000 -0.003234
# 5 -0.019991 0.004409 -0.003050 0.000000 0.064819 0.000000
# 6 0.000000 0.000000 0.000000 -0.003234 0.000000 -0.046700
#
#
# Mechanical properties :
#
#
# Convention : Reuss Voigt Hill
#
# Bulk Modulus (GPa) = 13.21716 60.37157 36.79437
# Shear Modulus (GPa) = 29.33008 29.28306 29.30657
#
# Velocity S-wave (km/s) = 3.84650 3.84342 3.84496
# Velocity P-wave (km/s) = 5.13759 7.08168 6.18648
#
# Compressibility (1/GPa) = 0.07565922
#
# Stress axis : x y z
#
# Youngs Moduli (GPa) = 13.60596 213.13383 137.80979
#
# Poissons Ratio (x) = 1.05969 -0.23059
# Poissons Ratio (y) = 0.06765 0.21972
# Poissons Ratio (z) = -0.02277 0.33982
#
# Static dielectric constant tensor:
#      x y z
#    x 1.668340 0.000000 0.016900 
#    y 0.000000 1.850210 0.000000 
#    z 0.016900 0.000000 1.630980 
# 
# From -- ./inp_files/4890.got.cif
#   From: 2010.05.17/outbox.cif.g08.bks.cpg/sg10_3_cif.got.tgz:4890.got - 2010.06.03 11:33:40.
