data_PCOD9154271
_publ_section_title
;
Structure prediction by ZEFSAII (Michael W. Deem and Ramdas Pophale) SiO2 
 PCOD9154271
Probable space group: P 2/M
;
_chemical_formula_sum "Si O2"
_cell_formula_units_Z 24
_cell_length_a 19.080653
_cell_length_b 14.230835
_cell_length_c 15.305464
_cell_angle_alpha 90.000000
_cell_angle_beta 20.176723
_cell_angle_gamma 90.000000
_cell_volume 1433.456732
_symmetry_space_group_name_H-M "P 2/M"
_symmetry_group_IT_number 10
_symmetry_cell_setting 'monoclinic'
loop_
_space_group_symop_operation_xyz
x,y,z
-x,y,-z
-x,-y,-z
x,-y,z
loop_
_atom_site_type_symbol
_atom_site_label
_atom_site_fract_x
_atom_site_fract_y
_atom_site_fract_z
Si Si1 0.053117 0.110336 0.707066
Si Si2 0.408476 0.390886 0.246559
Si Si3 0.853228 0.888687 0.752995
Si Si4 0.820614 0.610044 0.651059
Si Si5 0.534199 0.210634 0.724560
Si Si6 0.613427 0.111311 0.276154
O O1 0.252324 0.165926 0.498573
O O2 0.978038 0.127747 0.696072
O O3 0.099214 0.000000 0.661134
O O4 0.854545 0.130611 0.998320
O O5 0.368561 0.500000 0.315398
O O6 0.237810 0.354033 0.377121
O O7 0.440677 0.321446 0.289192
O O8 0.617104 0.388720 0.946854
O O9 0.000000 0.869870 0.500000
O O10 0.798391 0.000000 0.814852
O O11 0.647627 0.828447 0.000665
O O12 0.873114 0.500000 0.574578
O O13 0.000000 0.652267 0.500000
O O14 0.476921 0.174767 0.695278
O O15 0.500000 0.125457 0.500000
O O16 0.593243 0.000000 0.275279
#
# Coordination Sequence:
#
# PCOD9154271 Si02
#       6
#     4   4   4   4   4   4
#     4   9  18  32  50  73  97 123 159 198 239 292
#     4   9  19  31  44  69  99 128 167 210 245 282
#     4   9  19  33  46  67 103 139 168 198 233 285
#     4   8  15  30  48  63  87 126 169 211 249 278
#     4  11  20  31  50  72  98 131 166 203 246 295
#     4   9  19  36  56  78 101 121 151 203 258 305
#
# _framework density 16.742743999999998
#
# number of rings (size 3 to 8) (size 9 to 14) (size 15 to 20)
#    0.000    2.833    0.000    3.500    0.000    7.333 
#    0.000    5.000    0.000    0.500    0.000    1.167 
#    0.000    0.000    0.000    0.000    0.000    0.000 
#
# Total GULP energy -133738.182783 kJ/mol
# GULP energy per Si atom -5572.424283 kJ/mol
# Density = 1.670464 g / cm^3
# Si number density = 16.742744 Si / 1000 Ang^3
#
#
#
# Elastic Constant Matrix: (Units=GPa)
#
#
# Indices 1 2 3 4 5 6 
#
# 1 61.5240 48.3005 44.0961 0.0000 -5.4630 0.0000
# 2 48.3005 86.2432 36.1789 0.0000 -6.3555 0.0000
# 3 44.0961 36.1789 90.8950 0.0000 1.9924 0.0000
# 4 0.0000 0.0000 0.0000 1.6471 0.0000 0.8998
# 5 -5.4630 -6.3555 1.9924 0.0000 30.7847 0.0000
# 6 0.0000 0.0000 0.0000 0.8998 0.0000 22.5424
#
#
#
# Elastic Compliance Matrix: (Units=1/GPa)
#
#
# Indices 1 2 3 4 5 6 
#
# 1 0.037604 -0.015675 -0.012096 0.000000 0.004220 0.000000
# 2 -0.015675 0.020783 -0.000702 0.000000 0.001554 0.000000
# 3 -0.012096 -0.000702 0.017224 0.000000 -0.003406 0.000000
# 4 0.000000 0.000000 0.000000 0.620671 0.000000 -0.024775
# 5 0.004220 0.001554 -0.003406 0.000000 0.033774 0.000000
# 6 0.000000 0.000000 0.000000 -0.024775 0.000000 0.045350
#
#
# Mechanical properties :
#
#
# Convention : Reuss Voigt Hill
#
# Bulk Modulus (GPa) = 53.57679 55.09035 54.33357
# Shear Modulus (GPa) = 5.96250 18.33394 12.14822
#
# Velocity S-wave (km/s) = 1.88917 3.31273 2.69658
# Velocity P-wave (km/s) = 6.06862 6.89983 6.49753
#
# Compressibility (1/GPa) = 0.01866480
#
# Stress axis : x y z
#
# Youngs Moduli (GPa) = 26.59274 48.11675 58.05805
#
# Poissons Ratio (x) = 0.75422 0.70230
# Poissons Ratio (y) = 0.41684 0.04075
# Poissons Ratio (z) = 0.32168 0.03377
#
# Static dielectric constant tensor:
#      x y z
#    x 1.570810 0.000000 -0.013550 
#    y 0.000000 1.589160 0.000000 
#    z -0.013550 0.000000 1.559680 
# 
# From -- ./inp_files/51493.got.cif
#   From: 2010.05.17/outbox.cif.g08.bks.cpg/sg10_26_cif.got.tgz:51493.got - 2010.06.03 11:33:40.
