data_PCOD9154922
_publ_section_title
;
Structure prediction by ZEFSAII (Michael W. Deem and Ramdas Pophale) SiO2 
 PCOD9154922
Probable space group: P 2/M
;
_chemical_formula_sum "Si O2"
_cell_formula_units_Z 28
_cell_length_a 20.683417
_cell_length_b 7.353529
_cell_length_c 19.771942
_cell_angle_alpha 90.000000
_cell_angle_beta 19.800120
_cell_angle_gamma 90.000000
_cell_volume 1018.670591
_symmetry_space_group_name_H-M "P 2/M"
_symmetry_group_IT_number 10
_symmetry_cell_setting 'monoclinic'
loop_
_space_group_symop_operation_xyz
x,y,z
-x,y,-z
-x,-y,-z
x,-y,z
loop_
_atom_site_type_symbol
_atom_site_label
_atom_site_fract_x
_atom_site_fract_y
_atom_site_fract_z
Si Si1 0.596260 0.216038 0.752582
Si Si2 0.281295 0.281509 0.227731
Si Si3 0.553008 0.221417 0.372914
Si Si4 0.154927 0.707318 0.214402
Si Si5 0.873684 0.277933 0.905431
Si Si6 0.981605 0.297105 0.941580
Si Si7 0.578830 0.791854 0.628525
O O1 0.743054 0.243671 0.669001
O O2 0.658473 0.291606 0.618501
O O3 0.566024 0.000000 0.776050
O O4 0.387766 0.297362 0.974270
O O5 0.278289 0.500000 0.224300
O O6 0.151119 0.211884 0.294272
O O7 0.500000 0.216718 0.000000
O O8 0.500000 0.268168 0.500000
O O9 0.754139 0.308050 0.161919
O O10 0.403945 0.284433 0.463447
O O11 0.567730 0.000000 0.354297
O O12 0.085542 0.500000 0.286394
O O13 0.079155 0.785899 0.217800
O O14 0.875252 0.500000 0.903632
O O15 0.003228 0.219391 0.842782
O O16 0.653389 0.214438 0.132334
O O17 0.064509 0.500000 0.864670
O O18 0.000000 0.209869 0.000000
O O19 0.640492 0.000000 0.565436
#
# Coordination Sequence:
#
# PCOD9154922 Si02
#       7
#     4   4   4   4   4   4   4
#     4   9  14  18  26  40  58  81 109 141 176 213
#     4   8  13  19  25  35  54  80 110 142 172 204
#     4   9  17  29  44  60  78 103 135 167 197 231
#     4   8  13  20  28  38  55  82 114 144 172 205
#     4   8  13  22  35  48  64  90 122 150 178 218
#     4   9  17  28  42  61  83 105 130 162 199 237
#     4   8  14  23  33  47  67  89 116 151 186 219
#
# _framework density 27.486803999999999
#
# number of rings (size 3 to 8) (size 9 to 14) (size 15 to 20)
#    0.000    3.571    0.000    1.286    0.000    3.714 
#    0.000    0.000    0.000    0.000    0.000    0.000 
#    0.000    0.000    0.000    1.286    0.000   30.286 
#
# Total GULP energy -156115.414864 kJ/mol
# GULP energy per Si atom -5575.550531 kJ/mol
# Density = 2.742424 g / cm^3
# Si number density = 27.486804 Si / 1000 Ang^3
#
#
#
# Elastic Constant Matrix: (Units=GPa)
#
#
# Indices 1 2 3 4 5 6 
#
# 1 348.1323 12.8923 45.0909 0.0000 48.3297 0.0000
# 2 12.8923 128.2612 11.9852 0.0000 10.4322 0.0000
# 3 45.0909 11.9852 61.5059 0.0000 -21.6924 0.0000
# 4 0.0000 0.0000 0.0000 12.9473 0.0000 7.1174
# 5 48.3297 10.4322 -21.6924 0.0000 54.8415 0.0000
# 6 0.0000 0.0000 0.0000 7.1174 0.0000 17.1408
#
#
#
# Elastic Compliance Matrix: (Units=1/GPa)
#
#
# Indices 1 2 3 4 5 6 
#
# 1 0.004433 0.000579 -0.005554 0.000000 -0.006214 0.000000
# 2 0.000579 0.008315 -0.003233 0.000000 -0.003371 0.000000
# 3 -0.005554 -0.003233 0.026617 0.000000 0.016038 0.000000
# 4 0.000000 0.000000 0.000000 0.100081 0.000000 -0.041557
# 5 -0.006214 -0.003371 0.016038 0.000000 0.030695 0.000000
# 6 0.000000 0.000000 0.000000 -0.041557 0.000000 0.075596
#
#
# Mechanical properties :
#
#
# Convention : Reuss Voigt Hill
#
# Bulk Modulus (GPa) = 43.57832 75.31513 59.44673
# Shear Modulus (GPa) = 18.53198 48.18131 33.35665
#
# Velocity S-wave (km/s) = 2.59938 4.19129 3.48739
# Velocity P-wave (km/s) = 4.98976 7.13320 6.15550
#
# Compressibility (1/GPa) = 0.02294719
#
# Stress axis : x y z
#
# Youngs Moduli (GPa) = 225.57732 120.26884 37.56991
#
# Poissons Ratio (x) = -0.06961 0.20867
# Poissons Ratio (y) = -0.13057 0.12148
# Poissons Ratio (z) = 1.25292 0.38887
#
# Static dielectric constant tensor:
#      x y z
#    x 2.318120 0.000000 0.200500 
#    y 0.000000 2.092120 0.000000 
#    z 0.200500 0.000000 2.805500 
# 
# From -- ./inp_files/85607.got.cif
#   From: 2010.05.17/outbox.cif.g08.bks.cpg/sg10_43_cif.got.tgz:85607.got - 2010.06.03 11:33:40.
