data_PCOD9154750
_publ_section_title
;
Structure prediction by ZEFSAII (Michael W. Deem and Ramdas Pophale) SiO2 
 PCOD9154750
Probable space group: P 2/M
;
_chemical_formula_sum "Si O2"
_cell_formula_units_Z 26
_cell_length_a 7.757442
_cell_length_b 9.883840
_cell_length_c 19.946022
_cell_angle_alpha 90.000000
_cell_angle_beta 123.960489
_cell_angle_gamma 90.000000
_cell_volume 1268.459507
_symmetry_space_group_name_H-M "P 2/M"
_symmetry_group_IT_number 10
_symmetry_cell_setting 'monoclinic'
loop_
_space_group_symop_operation_xyz
x,y,z
-x,y,-z
-x,-y,-z
x,-y,z
loop_
_atom_site_type_symbol
_atom_site_label
_atom_site_fract_x
_atom_site_fract_y
_atom_site_fract_z
Si Si1 0.276982 0.162054 0.702912
Si Si2 0.267444 0.653327 0.976913
Si Si3 0.042888 0.652532 0.432287
Si Si4 0.500000 0.272144 0.500000
Si Si5 0.616218 0.159879 0.666848
Si Si6 0.031556 0.155081 0.167230
Si Si7 0.633165 0.846955 0.880600
O O1 0.434146 0.207000 0.677219
O O2 0.407049 0.184866 0.799522
O O3 0.070828 0.245759 0.643141
O O4 0.239954 0.000000 0.690344
O O5 0.186538 0.500000 0.968268
O O6 0.137559 0.741697 0.896104
O O7 0.500000 0.644513 0.000000
O O8 0.283838 0.738558 0.048948
O O9 0.959728 0.500000 0.406552
O O10 0.289038 0.651021 0.472903
O O11 0.000000 0.695992 0.500000
O O12 0.558853 0.188570 0.578714
O O13 0.841208 0.208657 0.740851
O O14 0.627754 0.000000 0.680445
O O15 0.206783 0.148637 0.146775
O O16 0.954489 0.000000 0.160720
O O17 0.627894 0.000000 0.908482
#
# Coordination Sequence:
#
# PCOD9154750 Si02
#       7
#     4   4   4   2   4   4   4
#     4   9  19  39  63  89 119 154 195 245 300 356
#     4  11  24  38  53  81 120 156 194 239 290 349
#     4  11  24  41  59  84 120 161 203 248 299 356
#     4  12  22  38  62  90 119 162 205 250 299 360
#     4   9  19  36  60  91 121 150 193 249 304 358
#     4   9  19  38  61  85 115 150 193 242 292 349
#     4   9  19  37  63  89 114 148 193 240 292 351
#
# _framework density 20.497302000000001
#
# number of rings (size 3 to 8) (size 9 to 14) (size 15 to 20)
#    0.000    2.154    1.538    3.231    0.000    7.077 
#    0.000    8.462    0.000    0.000    0.000    0.000 
#    0.000    0.000    0.000    0.000    0.000    0.000 
#
# Total GULP energy -145124.030099 kJ/mol
# GULP energy per Si atom -5581.693465 kJ/mol
# Density = 2.045065 g / cm^3
# Si number density = 20.497302 Si / 1000 Ang^3
#
#
#
# Elastic Constant Matrix: (Units=GPa)
#
#
# Indices 1 2 3 4 5 6 
#
# 1 55.8221 18.9312 29.9311 0.0000 9.4391 0.0000
# 2 18.9312 88.4465 72.1465 0.0000 18.8536 0.0000
# 3 29.9311 72.1465 149.6664 0.0000 17.8444 0.0000
# 4 0.0000 0.0000 0.0000 -24.7955 0.0000 22.3843
# 5 9.4391 18.8536 17.8444 0.0000 38.2199 0.0000
# 6 0.0000 0.0000 0.0000 22.3843 0.0000 13.2067
#
#
#
# Elastic Compliance Matrix: (Units=1/GPa)
#
#
# Indices 1 2 3 4 5 6 
#
# 1 0.020524 -0.001147 -0.003193 0.000000 -0.003013 0.000000
# 2 -0.001147 0.019766 -0.008652 0.000000 -0.005428 0.000000
# 3 -0.003193 -0.008652 0.011530 0.000000 -0.000327 0.000000
# 4 0.000000 0.000000 0.000000 -0.015940 0.000000 0.027017
# 5 -0.003013 -0.005428 -0.000327 0.000000 0.029738 0.000000
# 6 0.000000 0.000000 0.000000 0.027017 0.000000 0.029927
#
#
# Mechanical properties :
#
#
# Convention : Reuss Voigt Hill
#
# Bulk Modulus (GPa) = 38.70301 59.55028 49.12665
# Shear Modulus (GPa) = 38.42024 16.85464 27.63744
#
# Velocity S-wave (km/s) = 4.33414 2.87066 3.67597
# Velocity P-wave (km/s) = 6.63094 6.33273 6.48355
#
# Compressibility (1/GPa) = 0.02583778
#
# Stress axis : x y z
#
# Youngs Moduli (GPa) = 48.72308 50.59197 86.73402
#
# Poissons Ratio (x) = 0.05801 0.27691
# Poissons Ratio (y) = 0.05587 0.75040
# Poissons Ratio (z) = 0.15555 0.43771
#
# Static dielectric constant tensor:
#      x y z
#    x 1.785570 0.000000 0.000500 
#    y 0.000000 1.701100 0.000000 
#    z 0.000500 0.000000 1.748310 
# 
# From -- ./inp_files/82234.got.cif
#   From: 2010.05.17/outbox.cif.g08.bks.cpg/sg10_42_cif.got.tgz:82234.got - 2010.06.03 11:33:40.
