data_PCOD9154101
_publ_section_title
;
Structure prediction by ZEFSAII (Michael W. Deem and Ramdas Pophale) SiO2 
 PCOD9154101
Probable space group: P 2/M
;
_chemical_formula_sum "Si O2"
_cell_formula_units_Z 20
_cell_length_a 5.153654
_cell_length_b 28.812209
_cell_length_c 5.119438
_cell_angle_alpha 90.000000
_cell_angle_beta 89.980418
_cell_angle_gamma 90.000000
_cell_volume 760.175865
_symmetry_space_group_name_H-M "P 2/M"
_symmetry_group_IT_number 10
_symmetry_cell_setting 'monoclinic'
loop_
_space_group_symop_operation_xyz
x,y,z
-x,y,-z
-x,-y,-z
x,-y,z
loop_
_atom_site_type_symbol
_atom_site_label
_atom_site_fract_x
_atom_site_fract_y
_atom_site_fract_z
Si Si1 0.000000 0.274758 0.500000
Si Si2 0.250118 0.098716 0.187131
Si Si3 0.312399 0.549275 0.750212
Si Si4 0.313805 0.649898 0.752609
Si Si5 0.747546 0.199355 0.814262
Si Si6 0.750100 0.000000 0.811261
O O1 0.886293 0.308703 0.281519
O O2 0.782127 0.240849 0.613497
O O3 0.254308 0.148642 0.324457
O O4 0.500000 0.098738 0.000000
O O5 0.249862 0.049423 0.336619
O O6 0.000000 0.098633 0.000000
O O7 0.500000 0.549217 0.500000
O O8 0.163712 0.500000 0.749873
O O9 0.176036 0.599188 0.754540
O O10 0.500000 0.549282 0.000000
O O11 0.500000 0.651295 0.500000
O O12 0.500000 0.654580 0.000000
O O13 0.500000 0.203975 0.000000
O O14 0.000000 0.200728 0.000000
O O15 0.500000 0.000000 0.000000
O O16 0.000000 0.000000 0.000000
#
# Coordination Sequence:
#
# PCOD9154101 Si02
#       6
#     2   4   4   4   4   2
#     4  12  28  40  67  95 134 182 238 290 352 414
#     4   8  14  28  48  79 114 157 209 269 335 408
#     4   8  14  30  57  88 124 169 216 274 345 416
#     4  10  24  42  65  97 136 178 232 291 353 422
#     4  10  24  42  64  91 130 177 232 287 349 420
#     4   8  12  20  44  75 110 149 201 262 332 404
#
# _framework density 26.309698999999998
#
# number of rings (size 3 to 8) (size 9 to 14) (size 15 to 20)
#    0.000    2.800    0.000    0.000    5.600    0.000 
#    0.000    0.500    0.000    0.600    0.000   14.000 
#    0.000   26.400    0.000    3.500    0.000   10.400 
#
# Total GULP energy -111994.428811 kJ/mol
# GULP energy per Si atom -5599.721441 kJ/mol
# Density = 2.624982 g / cm^3
# Si number density = 26.309699 Si / 1000 Ang^3
#
#
#
# Elastic Constant Matrix: (Units=GPa)
#
#
# Indices 1 2 3 4 5 6 
#
# 1 153.4425 37.2480 44.1603 0.0000 -2.2844 0.0000
# 2 37.2480 337.8290 39.5233 0.0000 -0.0846 0.0000
# 3 44.1603 39.5233 131.1043 0.0000 -0.1443 0.0000
# 4 0.0000 0.0000 0.0000 27.7865 0.0000 3.0416
# 5 -2.2844 -0.0846 -0.1443 0.0000 61.4160 0.0000
# 6 0.0000 0.0000 0.0000 3.0416 0.0000 61.7338
#
#
#
# Elastic Compliance Matrix: (Units=1/GPa)
#
#
# Indices 1 2 3 4 5 6 
#
# 1 0.007314 -0.000537 -0.002301 0.000000 0.000266 0.000000
# 2 -0.000537 0.003108 -0.000756 0.000000 -0.000017 0.000000
# 3 -0.002301 -0.000756 0.008631 0.000000 -0.000066 0.000000
# 4 0.000000 0.000000 0.000000 0.036184 0.000000 -0.001783
# 5 0.000266 -0.000017 -0.000066 0.000000 0.016292 0.000000
# 6 0.000000 0.000000 0.000000 -0.001783 0.000000 0.016286
#
#
# Mechanical properties :
#
#
# Convention : Reuss Voigt Hill
#
# Bulk Modulus (GPa) = 84.29414 96.02657 90.16036
# Shear Modulus (GPa) = 50.52674 63.61686 57.07180
#
# Velocity S-wave (km/s) = 4.38706 4.92265 4.66255
# Velocity P-wave (km/s) = 7.60069 8.29987 7.95796
#
# Compressibility (1/GPa) = 0.01186322
#
# Stress axis : x y z
#
# Youngs Moduli (GPa) = 136.72881 321.77778 115.86813
#
# Poissons Ratio (x) = 0.17282 0.26665
# Poissons Ratio (y) = 0.07344 0.08759
# Poissons Ratio (z) = 0.31466 0.24326
#
# Static dielectric constant tensor:
#      x y z
#    x 2.132780 0.000000 0.027190 
#    y 0.000000 2.155610 0.000000 
#    z 0.027190 0.000000 2.478710 
# 
# From -- ./inp_files/2272.got.cif
#   From: 2010.05.17/outbox.cif.g08.bks.cpg/sg10_2_cif.got.tgz:2272.got - 2010.06.03 11:33:40.
