data_PCOD9154045
_publ_section_title
;
Structure prediction by ZEFSAII (Michael W. Deem and Ramdas Pophale) SiO2 
 PCOD9154045
Probable space group: P 2/M
;
_chemical_formula_sum "Si O2"
_cell_formula_units_Z 24
_cell_length_a 24.924982
_cell_length_b 8.908637
_cell_length_c 12.142965
_cell_angle_alpha 90.000000
_cell_angle_beta 154.511370
_cell_angle_gamma 90.000000
_cell_volume 1160.311181
_symmetry_space_group_name_H-M "P 2/M"
_symmetry_group_IT_number 10
_symmetry_cell_setting 'monoclinic'
loop_
_space_group_symop_operation_xyz
x,y,z
-x,y,-z
-x,-y,-z
x,-y,z
loop_
_atom_site_type_symbol
_atom_site_label
_atom_site_fract_x
_atom_site_fract_y
_atom_site_fract_z
Si Si1 0.286583 0.322558 0.886849
Si Si2 0.971012 0.176332 0.575722
Si Si3 0.854563 0.675998 0.723614
Si Si4 0.626338 0.819950 0.167837
Si Si5 0.801282 0.674188 0.879925
Si Si6 0.353494 0.168621 0.239477
O O1 0.302741 0.500000 0.916747
O O2 0.144642 0.275427 0.599254
O O3 0.372214 0.247712 0.952276
O O4 0.307632 0.254974 0.046793
O O5 0.000000 0.201797 0.500000
O O6 0.088567 0.227961 0.863814
O O7 0.943311 0.000000 0.539032
O O8 0.858403 0.500000 0.695907
O O9 0.753473 0.761476 0.461829
O O10 0.803609 0.684905 0.753550
O O11 0.000000 0.728025 0.000000
O O12 0.630042 0.000000 0.169235
O O13 0.500000 0.776445 0.000000
O O14 0.818346 0.500000 0.942145
O O15 0.679991 0.740526 0.713337
O O16 0.500000 0.156476 0.500000
O O17 0.298417 0.000000 0.140222
#
# Coordination Sequence:
#
# PCOD9154045 Si02
#       6
#     4   4   4   4   4   4
#     4  12  25  42  68  96 129 168 213 270 327 385
#     4  11  22  38  63  95 131 169 210 259 319 385
#     4  10  23  44  68  98 134 173 220 273 330 391
#     4  11  26  46  69  98 132 175 224 272 328 397
#     4  11  23  39  65  99 132 167 214 268 322 386
#     4  11  25  43  63  90 128 172 215 264 323 387
#
# _framework density 20.684107000000001
#
# number of rings (size 3 to 8) (size 9 to 14) (size 15 to 20)
#    0.000    1.000    1.667    4.500    2.333    6.333 
#    0.000    0.000    0.000    0.000    0.000    0.000 
#    0.000    0.000    0.000    0.000    0.000    0.000 
#
# Total GULP energy -134225.550921 kJ/mol
# GULP energy per Si atom -5592.731288 kJ/mol
# Density = 2.063703 g / cm^3
# Si number density = 20.684107 Si / 1000 Ang^3
#
#
#
# Elastic Constant Matrix: (Units=GPa)
#
#
# Indices 1 2 3 4 5 6 
#
# 1 110.6617 45.2451 8.5428 0.0000 15.7736 0.0000
# 2 45.2451 92.7663 19.4078 0.0000 -3.2510 0.0000
# 3 8.5428 19.4078 52.7499 0.0000 11.4740 0.0000
# 4 0.0000 0.0000 0.0000 15.8765 0.0000 -4.6078
# 5 15.7736 -3.2510 11.4740 0.0000 28.7749 0.0000
# 6 0.0000 0.0000 0.0000 -4.6078 0.0000 32.6695
#
#
#
# Elastic Compliance Matrix: (Units=1/GPa)
#
#
# Indices 1 2 3 4 5 6 
#
# 1 0.013071 -0.007210 0.002487 0.000000 -0.008972 0.000000
# 2 -0.007210 0.015953 -0.006519 0.000000 0.008354 0.000000
# 3 0.002487 -0.006519 0.023443 0.000000 -0.011448 0.000000
# 4 0.000000 0.000000 0.000000 0.065675 0.000000 0.009263
# 5 -0.008972 0.008354 -0.011448 0.000000 0.045179 0.000000
# 6 0.000000 0.000000 0.000000 0.009263 0.000000 0.031916
#
#
# Mechanical properties :
#
#
# Convention : Reuss Voigt Hill
#
# Bulk Modulus (GPa) = 33.35101 44.72994 39.04047
# Shear Modulus (GPa) = 21.95722 27.66298 24.81010
#
# Velocity S-wave (km/s) = 3.26168 3.66102 3.46710
# Velocity P-wave (km/s) = 5.50851 6.28832 5.91129
#
# Compressibility (1/GPa) = 0.02998410
#
# Stress axis : x y z
#
# Youngs Moduli (GPa) = 76.50361 62.68423 42.65638
#
# Poissons Ratio (x) = 0.45196 -0.10610
# Poissons Ratio (y) = 0.55160 0.27807
# Poissons Ratio (z) = -0.19029 0.40864
#
# Static dielectric constant tensor:
#      x y z
#    x 1.755690 0.000000 0.018850 
#    y 0.000000 1.702990 0.000000 
#    z 0.018850 0.000000 1.779930 
# 
# From -- ./inp_files/56675.got.cif
#   From: 2010.05.17/outbox.cif.g08.bks.cpg/sg10_29_cif.got.tgz:56675.got - 2010.06.03 11:33:40.
