data_PCOD9154728
_publ_section_title
;
Structure prediction by ZEFSAII (Michael W. Deem and Ramdas Pophale) SiO2 
 PCOD9154728
Probable space group: P 2/M
;
_chemical_formula_sum "Si O2"
_cell_formula_units_Z 17
_cell_length_a 17.771549
_cell_length_b 7.626175
_cell_length_c 11.404542
_cell_angle_alpha 90.000000
_cell_angle_beta 29.156730
_cell_angle_gamma 90.000000
_cell_volume 753.038939
_symmetry_space_group_name_H-M "P 2/M"
_symmetry_group_IT_number 10
_symmetry_cell_setting 'monoclinic'
loop_
_space_group_symop_operation_xyz
x,y,z
-x,y,-z
-x,-y,-z
x,-y,z
loop_
_atom_site_type_symbol
_atom_site_label
_atom_site_fract_x
_atom_site_fract_y
_atom_site_fract_z
Si Si1 0.390475 0.303188 0.498488
Si Si2 0.127345 0.206113 0.038541
Si Si3 0.670522 0.500000 0.820809
Si Si4 0.230917 0.798448 0.477853
Si Si5 0.145167 0.500000 0.211569
Si Si6 0.500000 0.000000 0.500000
O O1 0.446599 0.500000 0.438420
O O2 0.338156 0.268603 0.436991
O O3 0.501729 0.154800 0.396202
O O4 0.237314 0.275629 0.786669
O O5 0.140439 0.329876 0.134076
O O6 0.948897 0.210820 0.241950
O O7 0.170364 0.000000 0.998127
O O8 0.748404 0.672660 0.660457
O O9 0.703098 0.500000 0.913638
O O10 0.500000 0.500000 0.000000
O O11 0.267552 0.000000 0.401265
O O12 0.000000 0.500000 0.500000
#
# Coordination Sequence:
#
# PCOD9154728 Si02
#       6
#     4   4   2   4   2   1
#     4  12  24  42  72 104 136 178 223 280 351 421
#     4  11  23  42  73 105 134 176 228 289 351 403
#     4  12  28  47  67  99 137 187 238 282 349 400
#     4  11  23  44  72 101 138 174 226 292 343 410
#     4  12  24  45  69  99 137 179 242 295 323 406
#     4  12  26  44  58 102 156 174 216 266 350 438
#
# _framework density 22.575195000000001
#
# number of rings (size 3 to 8) (size 9 to 14) (size 15 to 20)
#    0.000    0.471    7.059    1.059    0.000    6.588 
#    0.000    0.000    0.000    0.000    0.000    0.000 
#    0.000    0.000    0.000    0.000    0.000    0.000 
#
# Total GULP energy -94966.341539 kJ/mol
# GULP energy per Si atom -5586.255385 kJ/mol
# Density = 2.252381 g / cm^3
# Si number density = 22.575195 Si / 1000 Ang^3
#
#
#
# Elastic Constant Matrix: (Units=GPa)
#
#
# Indices 1 2 3 4 5 6 
#
# 1 131.7061 54.0970 -17.1963 0.0000 -1.5608 0.0000
# 2 54.0970 227.6230 16.9868 0.0000 10.2000 0.0000
# 3 -17.1963 16.9868 53.0553 0.0000 2.6138 0.0000
# 4 0.0000 0.0000 0.0000 1.4100 0.0000 -29.9585
# 5 -1.5608 10.2000 2.6138 0.0000 36.3226 0.0000
# 6 0.0000 0.0000 0.0000 -29.9585 0.0000 0.6290
#
#
#
# Elastic Compliance Matrix: (Units=1/GPa)
#
#
# Indices 1 2 3 4 5 6 
#
# 1 0.009103 -0.002477 0.003703 0.000000 0.000820 0.000000
# 2 -0.002477 0.005224 -0.002406 0.000000 -0.001400 0.000000
# 3 0.003703 -0.002406 0.020852 0.000000 -0.000666 0.000000
# 4 0.000000 0.000000 0.000000 -0.000702 0.000000 -0.033413
# 5 0.000820 -0.001400 -0.000666 0.000000 0.028007 0.000000
# 6 0.000000 0.000000 0.000000 -0.033413 0.000000 -0.001573
#
#
# Mechanical properties :
#
#
# Convention : Reuss Voigt Hill
#
# Bulk Modulus (GPa) = 30.46995 57.79548 44.13272
# Shear Modulus (GPa) = 67.37482 31.57212 49.47347
#
# Velocity S-wave (km/s) = 5.46895 3.74375 4.68642
# Velocity P-wave (km/s) = 7.30791 6.65916 6.99107
#
# Compressibility (1/GPa) = 0.03281922
#
# Stress axis : x y z
#
# Youngs Moduli (GPa) = 109.85290 191.41945 47.95766
#
# Poissons Ratio (x) = 0.47406 -0.17759
# Poissons Ratio (y) = 0.27205 0.11540
# Poissons Ratio (z) = -0.40679 0.46062
#
# Static dielectric constant tensor:
#      x y z
#    x 6.859570 0.000000 -7.792010 
#    y 0.000000 1.783440 0.000000 
#    z -7.792010 0.000000 13.687330 
# 
# From -- ./inp_files/52547.got.cif
#   From: 2010.05.17/outbox.cif.g08.bks.cpg/sg10_27_cif.got.tgz:52547.got - 2010.06.03 11:33:40.
