data_PCOD9154944
_publ_section_title
;
Structure prediction by ZEFSAII (Michael W. Deem and Ramdas Pophale) SiO2 
 PCOD9154944
Probable space group: P 2/M
;
_chemical_formula_sum "Si O2"
_cell_formula_units_Z 32
_cell_length_a 21.127695
_cell_length_b 9.268441
_cell_length_c 19.164826
_cell_angle_alpha 90.000000
_cell_angle_beta 157.837488
_cell_angle_gamma 90.000000
_cell_volume 1415.714159
_symmetry_space_group_name_H-M "P 2/M"
_symmetry_group_IT_number 10
_symmetry_cell_setting 'monoclinic'
loop_
_space_group_symop_operation_xyz
x,y,z
-x,y,-z
-x,-y,-z
x,-y,z
loop_
_atom_site_type_symbol
_atom_site_label
_atom_site_fract_x
_atom_site_fract_y
_atom_site_fract_z
Si Si1 0.840632 0.169252 0.265921
Si Si2 0.342187 0.325172 0.386418
Si Si3 0.189825 0.330470 0.367487
Si Si4 0.979212 0.831888 0.683601
Si Si5 0.319116 0.334205 0.774535
Si Si6 0.338618 0.167571 0.131044
Si Si7 0.482796 0.830790 0.819941
Si Si8 0.832478 0.331573 0.924223
O O1 0.974536 0.226512 0.346036
O O2 0.809111 0.253383 0.305024
O O3 0.874116 0.000000 0.312880
O O4 0.660819 0.174779 0.042707
O O5 0.500000 0.283478 0.500000
O O6 0.344900 0.500000 0.397087
O O7 0.319613 0.270023 0.442160
O O8 0.189315 0.286669 0.178254
O O9 0.220986 0.500000 0.414021
O O10 0.151804 0.247415 0.400101
O O11 0.015067 0.320063 0.144858
O O12 0.934940 0.000000 0.631478
O O13 0.158284 0.827969 0.906929
O O14 0.271703 0.500000 0.715083
O O15 0.354591 0.252873 0.738300
O O16 0.500000 0.333398 0.000000
O O17 0.472638 0.226974 0.211776
O O18 0.299658 0.250573 0.161669
O O19 0.377960 0.000000 0.184183
O O20 0.439821 0.000000 0.771060
O O21 0.787460 0.500000 0.880419
#
# Coordination Sequence:
#
# PCOD9154944 Si02
#       8
#     4   4   4   4   4   4   4   4
#     4   8  13  21  31  42  61  93 129 159 189 231
#     4   9  17  29  44  61  82 108 134 159 194 244
#     4   9  16  26  42  62  80 100 131 170 204 233
#     4   8  14  24  37  53  73  98 129 164 201 240
#     4   9  15  19  25  41  65  93 126 163 198 229
#     4   8  14  24  37  53  73  98 129 164 201 240
#     4   8  13  21  31  42  61  93 129 159 189 231
#     4   9  16  26  42  62  80 100 131 170 204 233
#
# _framework density 22.603434
#
# number of rings (size 3 to 8) (size 9 to 14) (size 15 to 20)
#    0.000    3.500    0.000    2.250    0.000    4.000 
#    0.000    5.625    0.000    4.500    0.000    0.000 
#    0.000    0.000    0.000    1.125    0.000   24.000 
#
# Total GULP energy -178622.765122 kJ/mol
# GULP energy per Si atom -5581.961410 kJ/mol
# Density = 2.255199 g / cm^3
# Si number density = 22.603434 Si / 1000 Ang^3
#
#
#
# Elastic Constant Matrix: (Units=GPa)
#
#
# Indices 1 2 3 4 5 6 
#
# 1 254.7899 80.8995 32.8128 0.0000 18.5070 0.0000
# 2 80.8995 49.9046 -4.4259 0.0000 12.4771 0.0000
# 3 32.8128 -4.4259 69.0169 0.0000 7.8895 0.0000
# 4 0.0000 0.0000 0.0000 -6.2376 0.0000 6.6141
# 5 18.5070 12.4771 7.8895 0.0000 43.7546 0.0000
# 6 0.0000 0.0000 0.0000 6.6141 0.0000 34.4131
#
#
#
# Elastic Compliance Matrix: (Units=1/GPa)
#
#
# Indices 1 2 3 4 5 6 
#
# 1 0.010089 -0.017342 -0.006112 0.000000 0.001780 0.000000
# 2 -0.017342 0.051698 0.012668 0.000000 -0.009691 0.000000
# 3 -0.006112 0.012668 0.018711 0.000000 -0.004401 0.000000
# 4 0.000000 0.000000 0.000000 -0.133177 0.000000 0.025596
# 5 0.001780 -0.009691 -0.004401 0.000000 0.025659 0.000000
# 6 0.000000 0.000000 0.000000 0.025596 0.000000 0.024139
#
#
# Mechanical properties :
#
#
# Convention : Reuss Voigt Hill
#
# Bulk Modulus (GPa) = 16.97072 65.80936 41.39004
# Shear Modulus (GPa) = 130.43388 32.01436 81.22412
#
# Velocity S-wave (km/s) = 7.60464 3.76752 6.00104
# Velocity P-wave (km/s) = 9.19956 6.93568 8.14664
#
# Compressibility (1/GPa) = 0.05892501
#
# Stress axis : x y z
#
# Youngs Moduli (GPa) = 99.11624 19.34302 53.44547
#
# Poissons Ratio (x) = 0.33546 0.32668
# Poissons Ratio (y) = 1.71892 -0.67706
# Poissons Ratio (z) = 0.60583 -0.24504
#
# Static dielectric constant tensor:
#      x y z
#    x 1.824150 0.000000 0.007000 
#    y 0.000000 1.758840 0.000000 
#    z 0.007000 0.000000 1.941430 
# 
# From -- ./inp_files/86159.got.cif
#   From: 2010.05.17/outbox.cif.g08.bks.cpg/sg10_44_cif.got.tgz:86159.got - 2010.06.03 11:33:40.
