data_PCOD9154458
_publ_section_title
;
Structure prediction by ZEFSAII (Michael W. Deem and Ramdas Pophale) SiO2 
 PCOD9154458
Probable space group: P 2/M
;
_chemical_formula_sum "Si O2"
_cell_formula_units_Z 28
_cell_length_a 9.893018
_cell_length_b 11.233570
_cell_length_c 14.651750
_cell_angle_alpha 90.000000
_cell_angle_beta 119.150782
_cell_angle_gamma 90.000000
_cell_volume 1422.066356
_symmetry_space_group_name_H-M "P 2/M"
_symmetry_group_IT_number 10
_symmetry_cell_setting 'monoclinic'
loop_
_space_group_symop_operation_xyz
x,y,z
-x,y,-z
-x,-y,-z
x,-y,z
loop_
_atom_site_type_symbol
_atom_site_label
_atom_site_fract_x
_atom_site_fract_y
_atom_site_fract_z
Si Si1 0.737037 0.249111 0.206013
Si Si2 0.341069 0.741640 0.499399
Si Si3 0.022690 0.359455 0.404002
Si Si4 0.523975 0.643243 0.276707
Si Si5 0.156496 0.642327 0.931816
Si Si6 0.783248 0.000000 0.509681
Si Si7 0.139899 0.000000 0.680591
Si Si8 0.814526 0.358660 0.841331
O O1 0.581896 0.290324 0.205616
O O2 0.736619 0.282884 0.099986
O O3 0.873356 0.328548 0.296150
O O4 0.789068 0.116004 0.247695
O O5 0.500000 0.714526 0.500000
O O6 0.179362 0.689350 0.410302
O O7 0.361809 0.681123 0.605209
O O8 0.311514 0.881839 0.497664
O O9 0.038581 0.500000 0.416822
O O10 0.000000 0.308474 0.500000
O O11 0.525466 0.500000 0.264742
O O12 0.351148 0.684235 0.247338
O O13 0.168175 0.500000 0.916166
O O14 0.978750 0.685923 0.859352
O O15 0.188089 0.656062 0.049665
O O16 0.812696 0.000000 0.410484
O O17 0.951750 0.000000 0.614812
O O18 0.819602 0.500000 0.825438
#
# Coordination Sequence:
#
# PCOD9154458 Si02
#       8
#     4   4   4   4   4   2   2   4
#     4  12  22  36  58  85 108 145 196 236 278 333
#     4  12  25  38  56  83 118 154 194 237 282 334
#     4  11  21  36  55  82 118 151 182 228 284 345
#     4  11  22  36  55  85 120 148 181 233 292 340
#     4   9  18  36  61  88 115 146 185 227 278 345
#     4  11  21  44  58  75 106 159 207 237 271 322
#     4  11  22  38  64  77 105 150 202 242 277 323
#     4   8  18  36  58  85 119 152 179 220 283 347
#
# _framework density 19.689658000000001
#
# number of rings (size 3 to 8) (size 9 to 14) (size 15 to 20)
#    0.000    1.429    4.286    2.786    2.000    1.714 
#    0.000    2.143    0.000    4.286    0.000    0.000 
#    0.000    0.000    0.000    0.000    0.000    0.000 
#
# Total GULP energy -156349.907730 kJ/mol
# GULP energy per Si atom -5583.925276 kJ/mol
# Density = 1.964484 g / cm^3
# Si number density = 19.689658 Si / 1000 Ang^3
#
#
#
# Elastic Constant Matrix: (Units=GPa)
#
#
# Indices 1 2 3 4 5 6 
#
# 1 78.7477 8.8686 -11.9839 0.0000 -0.9705 0.0000
# 2 8.8686 74.9552 -1.2039 0.0000 -8.2122 0.0000
# 3 -11.9839 -1.2039 11.7796 0.0000 2.7667 0.0000
# 4 0.0000 0.0000 0.0000 -11.6093 0.0000 -13.5566
# 5 -0.9705 -8.2122 2.7667 0.0000 32.6300 0.0000
# 6 0.0000 0.0000 0.0000 -13.5566 0.0000 18.9780
#
#
#
# Elastic Compliance Matrix: (Units=1/GPa)
#
#
# Indices 1 2 3 4 5 6 
#
# 1 0.015256 -0.001696 0.015652 0.000000 -0.001300 0.000000
# 2 -0.001696 0.013912 -0.001137 0.000000 0.003547 0.000000
# 3 0.015652 -0.001137 0.102703 0.000000 -0.008529 0.000000
# 4 0.000000 0.000000 0.000000 -0.046964 0.000000 -0.033547
# 5 -0.001300 0.003547 -0.008529 0.000000 0.032224 0.000000
# 6 0.000000 0.000000 0.000000 -0.033547 0.000000 0.028729
#
#
# Mechanical properties :
#
#
# Convention : Reuss Voigt Hill
#
# Bulk Modulus (GPa) = 6.34879 17.42713 11.88796
# Shear Modulus (GPa) = 28.94778 19.31987 24.13383
#
# Velocity S-wave (km/s) = 3.83848 3.13584 3.50481
# Velocity P-wave (km/s) = 4.78296 4.68844 4.73593
#
# Compressibility (1/GPa) = 0.15751042
#
# Stress axis : x y z
#
# Youngs Moduli (GPa) = 65.54888 71.87843 9.73679
#
# Poissons Ratio (x) = 0.12191 -0.15240
# Poissons Ratio (y) = 0.11118 0.01107
# Poissons Ratio (z) = -1.02600 0.08171
#
# Static dielectric constant tensor:
#      x y z
#    x 1.725800 0.000000 -0.012720 
#    y 0.000000 1.650920 0.000000 
#    z -0.012720 0.000000 1.719700 
# 
# From -- ./inp_files/61046.got.cif
#   From: 2010.05.17/outbox.cif.g08.bks.cpg/sg10_31_cif.got.tgz:61046.got - 2010.06.03 11:33:40.
