data_PCOD9154758
_publ_section_title
;
Structure prediction by ZEFSAII (Michael W. Deem and Ramdas Pophale) SiO2 
 PCOD9154758
Probable space group: P 2/M
;
_chemical_formula_sum "Si O2"
_cell_formula_units_Z 32
_cell_length_a 12.017778
_cell_length_b 19.949272
_cell_length_c 19.131212
_cell_angle_alpha 90.000000
_cell_angle_beta 22.378663
_cell_angle_gamma 90.000000
_cell_volume 1746.249538
_symmetry_space_group_name_H-M "P 2/M"
_symmetry_group_IT_number 10
_symmetry_cell_setting 'monoclinic'
loop_
_space_group_symop_operation_xyz
x,y,z
-x,y,-z
-x,-y,-z
x,-y,z
loop_
_atom_site_type_symbol
_atom_site_label
_atom_site_fract_x
_atom_site_fract_y
_atom_site_fract_z
Si Si1 0.191775 0.660718 0.709248
Si Si2 0.101856 0.071884 0.302069
Si Si3 0.802716 0.071983 0.917659
Si Si4 0.131558 0.647453 0.500133
Si Si5 0.695544 0.577250 0.217311
Si Si6 0.163020 0.420701 0.201115
Si Si7 0.107268 0.219090 0.300805
Si Si8 0.208071 0.780577 0.073950
O O1 0.500000 0.686553 0.500000
O O2 0.260946 0.612469 0.733542
O O3 0.029595 0.618247 0.743485
O O4 0.977530 0.721720 0.852634
O O5 0.082704 0.071398 0.228844
O O6 0.995118 0.144948 0.387381
O O7 0.982494 0.000000 0.397525
O O8 0.449464 0.072260 0.116346
O O9 0.877541 0.145143 0.903494
O O10 0.889212 0.000000 0.899815
O O11 0.458593 0.619985 0.312741
O O12 0.000000 0.646546 0.500000
O O13 0.952021 0.598952 0.656071
O O14 0.091925 0.721459 0.555409
O O15 0.597071 0.500000 0.283179
O O16 0.000000 0.576824 0.000000
O O17 0.145708 0.500000 0.199148
O O18 0.500000 0.399027 0.000000
O O19 0.135672 0.221643 0.199694
O O20 0.441027 0.228349 0.134656
#
# Coordination Sequence:
#
# PCOD9154758 Si02
#       8
#     4   4   4   4   4   4   4   4
#     4  12  22  38  61  83 112 144 187 235 276 336
#     4   7  10  18  38  68 106 144 175 216 270 320
#     4   7  10  18  35  69 109 142 175 216 268 324
#     4  12  25  40  60  85 117 148 182 234 283 345
#     4  11  27  46  61  80 109 148 188 232 287 340
#     4  11  24  40  62  88 110 142 185 231 285 340
#     4   9  16  30  49  80 113 143 184 229 276 325
#     4   9  16  27  53  79 109 147 184 228 276 322
#
# _framework density 18.324985999999999
#
# number of rings (size 3 to 8) (size 9 to 14) (size 15 to 20)
#    0.000    2.250    2.500    3.750    3.500    1.500 
#    0.000    0.000    0.000    0.750    0.000    0.875 
#    0.000    1.000    0.000    0.000    0.000    0.000 
#
# Total GULP energy -178374.551735 kJ/mol
# GULP energy per Si atom -5574.204742 kJ/mol
# Density = 1.828328 g / cm^3
# Si number density = 18.324986 Si / 1000 Ang^3
#
#
#
# Elastic Constant Matrix: (Units=GPa)
#
#
# Indices 1 2 3 4 5 6 
#
# 1 36.0831 16.3266 0.2901 0.0000 -5.4497 0.0000
# 2 16.3266 152.9405 34.2103 0.0000 -15.9635 0.0000
# 3 0.2901 34.2103 49.7329 0.0000 -8.4095 0.0000
# 4 0.0000 0.0000 0.0000 -2.3669 0.0000 5.0245
# 5 -5.4497 -15.9635 -8.4095 0.0000 12.4272 0.0000
# 6 0.0000 0.0000 0.0000 5.0245 0.0000 -0.0371
#
#
#
# Elastic Compliance Matrix: (Units=1/GPa)
#
#
# Indices 1 2 3 4 5 6 
#
# 1 0.030866 -0.002863 0.003903 0.000000 0.012498 0.000000
# 2 -0.002863 0.008599 -0.004791 0.000000 0.006548 0.000000
# 3 0.003903 -0.004791 0.025553 0.000000 0.012849 0.000000
# 4 0.000000 0.000000 0.000000 0.001474 0.000000 0.199719
# 5 0.012498 0.006548 0.012849 0.000000 0.103056 0.000000
# 6 0.000000 0.000000 0.000000 0.199719 0.000000 0.094080
#
#
# Mechanical properties :
#
#
# Convention : Reuss Voigt Hill
#
# Bulk Modulus (GPa) = 17.38681 37.82338 27.60510
# Shear Modulus (GPa) = 17.22338 14.53329 15.87833
#
# Velocity S-wave (km/s) = 3.06908 2.81923 2.94681
# Velocity P-wave (km/s) = 4.69762 5.59308 5.16480
#
# Compressibility (1/GPa) = 0.05751487
#
# Stress axis : x y z
#
# Youngs Moduli (GPa) = 32.39841 116.28666 39.13406
#
# Poissons Ratio (x) = 0.33298 -0.15274
# Poissons Ratio (y) = 0.09277 0.18751
# Poissons Ratio (z) = -0.12645 0.55717
#
# Static dielectric constant tensor:
#      x y z
#    x 1.619100 0.000000 0.003590 
#    y 0.000000 1.693380 0.000000 
#    z 0.003590 0.000000 1.633930 
# 
# From -- ./inp_files/30319.got.cif
#   From: 2010.05.17/outbox.cif.g08.bks.cpg/sg10_16_cif.got.tgz:30319.got - 2010.06.03 11:33:40.
