data_PCOD9154757
_publ_section_title
;
Structure prediction by ZEFSAII (Michael W. Deem and Ramdas Pophale) SiO2 
 PCOD9154757
Probable space group: P 2/M
;
_chemical_formula_sum "Si O2"
_cell_formula_units_Z 20
_cell_length_a 18.453678
_cell_length_b 9.258958
_cell_length_c 7.336415
_cell_angle_alpha 90.000000
_cell_angle_beta 48.483900
_cell_angle_gamma 90.000000
_cell_volume 938.592514
_symmetry_space_group_name_H-M "P 2/M"
_symmetry_group_IT_number 10
_symmetry_cell_setting 'monoclinic'
loop_
_space_group_symop_operation_xyz
x,y,z
-x,y,-z
-x,-y,-z
x,-y,z
loop_
_atom_site_type_symbol
_atom_site_label
_atom_site_fract_x
_atom_site_fract_y
_atom_site_fract_z
Si Si1 0.903112 0.669739 0.778531
Si Si2 0.582282 0.332774 0.101969
Si Si3 0.369187 0.332082 0.546671
Si Si4 0.768837 0.170277 0.722153
Si Si5 0.826241 0.829679 0.227189
O O1 0.883635 0.500000 0.831262
O O2 0.818799 0.744570 0.802429
O O3 0.000000 0.688924 0.500000
O O4 0.902476 0.745045 0.976004
O O5 0.594279 0.500000 0.025353
O O6 0.469135 0.294421 0.276617
O O7 0.606572 0.325722 0.278231
O O8 0.661101 0.232609 0.875759
O O9 0.345459 0.500000 0.544654
O O10 0.279453 0.230939 0.651950
O O11 0.830838 0.193847 0.435750
O O12 0.765028 0.000000 0.766611
O O13 0.832850 0.000000 0.180109
#
# Coordination Sequence:
#
# PCOD9154757 Si02
#       5
#     4   4   4   4   4
#     4  11  25  45  68  91 116 151 199 254 306 357
#     4   9  18  34  58  88 122 162 206 248 292 346
#     4   9  18  34  58  88 122 162 206 248 292 346
#     4  11  24  40  61  92 127 161 198 243 299 362
#     4  11  24  40  61  92 127 161 198 243 299 362
#
# _framework density 21.308502000000001
#
# number of rings (size 3 to 8) (size 9 to 14) (size 15 to 20)
#    0.000    1.800    2.000    3.000    0.000    7.200 
#    0.000   10.000    0.000    0.000    0.000    0.000 
#    0.000    0.000    0.000    0.000    0.000    0.000 
#
# Total GULP energy -111856.134524 kJ/mol
# GULP energy per Si atom -5592.806726 kJ/mol
# Density = 2.126000 g / cm^3
# Si number density = 21.308502 Si / 1000 Ang^3
#
#
#
# Elastic Constant Matrix: (Units=GPa)
#
#
# Indices 1 2 3 4 5 6 
#
# 1 25.7117 9.5340 9.8907 0.0000 2.6558 0.0000
# 2 9.5340 83.4620 78.8853 0.0000 8.0007 0.0000
# 3 9.8907 78.8853 136.6598 0.0000 10.1168 0.0000
# 4 0.0000 0.0000 0.0000 37.2212 0.0000 7.9930
# 5 2.6558 8.0007 10.1168 0.0000 22.5869 0.0000
# 6 0.0000 0.0000 0.0000 7.9930 0.0000 -5.5775
#
#
#
# Elastic Compliance Matrix: (Units=1/GPa)
#
#
# Indices 1 2 3 4 5 6 
#
# 1 0.040856 -0.003937 -0.000447 0.000000 -0.003209 0.000000
# 2 -0.003937 0.026896 -0.015069 0.000000 -0.002315 0.000000
# 3 -0.000447 -0.015069 0.016186 0.000000 -0.001860 0.000000
# 4 0.000000 0.000000 0.000000 0.020544 0.000000 0.029441
# 5 -0.003209 -0.002315 -0.001860 0.000000 0.046304 0.000000
# 6 0.000000 0.000000 0.000000 0.029441 0.000000 -0.137101
#
#
# Mechanical properties :
#
#
# Convention : Reuss Voigt Hill
#
# Bulk Modulus (GPa) = 22.20648 49.16148 35.68398
# Shear Modulus (GPa) = 73.96336 20.68102 47.32219
#
# Velocity S-wave (km/s) = 5.89797 3.11875 4.71766
# Velocity P-wave (km/s) = 7.53827 6.00751 6.81600
#
# Compressibility (1/GPa) = 0.04503189
#
# Stress axis : x y z
#
# Youngs Moduli (GPa) = 24.47619 37.18051 61.78244
#
# Poissons Ratio (x) = 0.14639 0.02759
# Poissons Ratio (y) = 0.09637 0.93100
# Poissons Ratio (z) = 0.01093 0.56027
#
# Static dielectric constant tensor:
#      x y z
#    x 1.776560 0.000000 0.021030 
#    y 0.000000 1.702630 0.000000 
#    z 0.021030 0.000000 1.812760 
# 
# From -- ./inp_files/33649.got.cif
#   From: 2010.05.17/outbox.cif.g08.bks.cpg/sg10_17_cif.got.tgz:33649.got - 2010.06.03 11:33:40.
