data_PCOD9154110
_publ_section_title
;
Structure prediction by ZEFSAII (Michael W. Deem and Ramdas Pophale) SiO2 
 PCOD9154110
Probable space group: P 2/M
;
_chemical_formula_sum "Si O2"
_cell_formula_units_Z 28
_cell_length_a 17.165561
_cell_length_b 8.764062
_cell_length_c 9.404887
_cell_angle_alpha 90.000000
_cell_angle_beta 80.331856
_cell_angle_gamma 90.000000
_cell_volume 1394.776157
_symmetry_space_group_name_H-M "P 2/M"
_symmetry_group_IT_number 10
_symmetry_cell_setting 'monoclinic'
loop_
_space_group_symop_operation_xyz
x,y,z
-x,y,-z
-x,-y,-z
x,-y,z
loop_
_atom_site_type_symbol
_atom_site_label
_atom_site_fract_x
_atom_site_fract_y
_atom_site_fract_z
Si Si1 0.424058 0.824246 0.625622
Si Si2 0.521327 0.673322 0.828716
Si Si3 0.868830 0.816577 0.201648
Si Si4 0.267210 0.680079 0.559141
Si Si5 0.985456 0.317066 0.669056
Si Si6 0.841606 0.183416 0.881973
Si Si7 0.693927 0.181702 0.748756
O O1 0.500000 0.811266 0.500000
O O2 0.457581 0.775300 0.766929
O O3 0.353579 0.718373 0.594869
O O4 0.396858 0.000000 0.631816
O O5 0.518371 0.500000 0.772980
O O6 0.609174 0.738400 0.782657
O O7 0.500000 0.671375 0.000000
O O8 0.797348 0.747091 0.314228
O O9 0.948783 0.756700 0.249065
O O10 0.866509 0.000000 0.209393
O O11 0.860550 0.772306 0.038353
O O12 0.256043 0.500000 0.545167
O O13 0.263716 0.762224 0.407828
O O14 0.991328 0.500000 0.674497
O O15 0.000000 0.271649 0.500000
O O16 0.901439 0.262846 0.754851
O O17 0.751900 0.217997 0.862158
O O18 0.851744 0.000000 0.867122
O O19 0.681975 0.000000 0.745656
#
# Coordination Sequence:
#
# PCOD9154110 Si02
#       7
#     4   4   4   4   4   4   4
#     4  11  23  41  66  93 122 166 217 263 314 376
#     4  11  25  42  62  93 129 166 210 263 323 378
#     4  11  24  43  66  95 129 166 209 258 310 373
#     4  12  25  41  64  94 128 165 209 264 321 376
#     4  11  24  42  66  97 130 166 208 254 309 371
#     4  10  24  43  65  94 127 165 209 258 310 368
#     4  11  23  42  65  92 124 167 215 260 313 377
#
# _framework density 20.074905000000001
#
# number of rings (size 3 to 8) (size 9 to 14) (size 15 to 20)
#    0.000    1.000    1.429    4.714    2.000    9.143 
#    0.000    0.000    0.000    0.000    0.000    0.000 
#    0.000    0.000    0.000    0.000    0.000    0.000 
#
# Total GULP energy -156672.237693 kJ/mol
# GULP energy per Si atom -5595.437060 kJ/mol
# Density = 2.002921 g / cm^3
# Si number density = 20.074905 Si / 1000 Ang^3
#
#
#
# Elastic Constant Matrix: (Units=GPa)
#
#
# Indices 1 2 3 4 5 6 
#
# 1 61.3969 1.1217 4.4440 0.0000 7.6829 0.0000
# 2 1.1217 33.1882 3.8096 0.0000 -6.0898 0.0000
# 3 4.4440 3.8096 74.4684 0.0000 7.2051 0.0000
# 4 0.0000 0.0000 0.0000 27.6529 0.0000 -1.5317
# 5 7.6829 -6.0898 7.2051 0.0000 36.0597 0.0000
# 6 0.0000 0.0000 0.0000 -1.5317 0.0000 38.9781
#
#
#
# Elastic Compliance Matrix: (Units=1/GPa)
#
#
# Indices 1 2 3 4 5 6 
#
# 1 0.016810 -0.001172 -0.000589 0.000000 -0.003662 0.000000
# 2 -0.001172 0.031515 -0.002122 0.000000 0.005996 0.000000
# 3 -0.000589 -0.002122 0.013863 0.000000 -0.003003 0.000000
# 4 0.000000 0.000000 0.000000 0.036242 0.000000 0.001424
# 5 -0.003662 0.005996 -0.003003 0.000000 0.030125 0.000000
# 6 0.000000 0.000000 0.000000 0.001424 0.000000 0.025711
#
#
# Mechanical properties :
#
#
# Convention : Reuss Voigt Hill
#
# Bulk Modulus (GPa) = 18.37567 20.86712 19.62140
# Shear Modulus (GPa) = 27.75126 31.18335 29.46731
#
# Velocity S-wave (km/s) = 3.72208 3.94553 3.83543
# Velocity P-wave (km/s) = 5.25788 5.58332 5.42304
#
# Compressibility (1/GPa) = 0.05441978
#
# Stress axis : x y z
#
# Youngs Moduli (GPa) = 59.48935 31.73126 72.13568
#
# Poissons Ratio (x) = 0.03720 0.04248
# Poissons Ratio (y) = 0.06975 0.15310
# Poissons Ratio (z) = 0.03503 0.06735
#
# Static dielectric constant tensor:
#      x y z
#    x 1.692750 0.000000 0.014960 
#    y 0.000000 1.678310 0.000000 
#    z 0.014960 0.000000 1.707440 
# 
# From -- ./inp_files/31524.got.cif
#   From: 2010.05.17/outbox.cif.g08.bks.cpg/sg10_16_cif.got.tgz:31524.got - 2010.06.03 11:33:40.
