data_PCOD9154049
_publ_section_title
;
Structure prediction by ZEFSAII (Michael W. Deem and Ramdas Pophale) SiO2 
 PCOD9154049
Probable space group: P 2/M
;
_chemical_formula_sum "Si O2"
_cell_formula_units_Z 32
_cell_length_a 14.595446
_cell_length_b 14.919095
_cell_length_c 20.297157
_cell_angle_alpha 90.000000
_cell_angle_beta 160.744423
_cell_angle_gamma 90.000000
_cell_volume 1457.547502
_symmetry_space_group_name_H-M "P 2/M"
_symmetry_group_IT_number 10
_symmetry_cell_setting 'monoclinic'
loop_
_space_group_symop_operation_xyz
x,y,z
-x,y,-z
-x,-y,-z
x,-y,z
loop_
_atom_site_type_symbol
_atom_site_label
_atom_site_fract_x
_atom_site_fract_y
_atom_site_fract_z
Si Si1 0.642327 0.739178 0.983033
Si Si2 0.695699 0.658495 0.433533
Si Si3 0.621177 0.299729 0.656139
Si Si4 0.719010 0.594175 0.208535
Si Si5 0.975889 0.829775 0.652134
Si Si6 0.487672 0.899887 0.411616
Si Si7 0.723844 0.100892 0.269549
Si Si8 0.158644 0.395254 0.986833
O O1 0.819064 0.766073 0.166815
O O2 0.367943 0.680340 0.809938
O O3 0.519884 0.832282 0.874640
O O4 0.825418 0.674585 0.062751
O O5 0.603897 0.660200 0.446911
O O6 0.440808 0.622560 0.218273
O O7 0.970855 0.602986 0.606187
O O8 0.776725 0.762636 0.475791
O O9 0.500000 0.301588 0.500000
O O10 0.671231 0.194678 0.709130
O O11 0.892615 0.360375 0.845846
O O12 0.685343 0.500000 0.223041
O O13 0.500000 0.592793 0.000000
O O14 0.169385 0.883003 0.732854
O O15 0.781197 0.883416 0.571879
O O16 0.500000 0.902248 0.500000
O O17 0.385804 0.000000 0.322445
O O18 0.000000 0.112745 0.500000
O O19 0.623147 0.000000 0.208213
O O20 0.132500 0.500000 0.951739
#
# Coordination Sequence:
#
# PCOD9154049 Si02
#       8
#     4   4   4   4   4   4   4   4
#     4  12  23  42  64  95 134 173 223 278 336 397
#     4  11  22  42  65  94 132 176 221 280 341 407
#     4  10  23  44  69  96 129 175 225 288 341 400
#     4  11  22  37  62  94 128 171 220 275 335 399
#     4  11  21  40  67  96 136 178 221 274 341 401
#     4   9  18  35  64 100 132 164 212 272 333 399
#     4  11  24  41  64  96 135 179 224 274 338 406
#     4  12  27  44  66  96 133 180 229 280 344 414
#
# _framework density 21.954687
#
# number of rings (size 3 to 8) (size 9 to 14) (size 15 to 20)
#    0.000    1.125    2.500    4.875    0.000    3.250 
#    0.000    1.875    0.000    6.750    0.000    0.000 
#    0.000    0.000    0.000    0.000    0.000    0.000 
#
# Total GULP energy -178681.897517 kJ/mol
# GULP energy per Si atom -5583.809297 kJ/mol
# Density = 2.190472 g / cm^3
# Si number density = 21.954687 Si / 1000 Ang^3
#
#
#
# Elastic Constant Matrix: (Units=GPa)
#
#
# Indices 1 2 3 4 5 6 
#
# 1 64.4770 19.0820 12.9295 0.0000 6.4849 0.0000
# 2 19.0820 134.7086 40.4391 0.0000 3.7711 0.0000
# 3 12.9295 40.4391 87.4075 0.0000 13.5065 0.0000
# 4 0.0000 0.0000 0.0000 89.7432 0.0000 53.0635
# 5 6.4849 3.7711 13.5065 0.0000 30.3268 0.0000
# 6 0.0000 0.0000 0.0000 53.0635 0.0000 4.0471
#
#
#
# Elastic Compliance Matrix: (Units=1/GPa)
#
#
# Indices 1 2 3 4 5 6 
#
# 1 0.016590 -0.001933 -0.001126 0.000000 -0.002806 0.000000
# 2 -0.001933 0.008862 -0.003982 0.000000 0.001085 0.000000
# 3 -0.001126 -0.003982 0.014321 0.000000 -0.005642 0.000000
# 4 0.000000 0.000000 0.000000 -0.001650 0.000000 0.021636
# 5 -0.002806 0.001085 -0.005642 0.000000 0.035952 0.000000
# 6 0.000000 0.000000 0.000000 0.021636 0.000000 -0.036592
#
#
# Mechanical properties :
#
#
# Convention : Reuss Voigt Hill
#
# Bulk Modulus (GPa) = 38.92441 47.94381 43.43411
# Shear Modulus (GPa) = 83.15475 39.09957 61.12716
#
# Velocity S-wave (km/s) = 6.16099 4.22467 5.28232
# Velocity P-wave (km/s) = 8.26912 6.75886 7.55184
#
# Compressibility (1/GPa) = 0.02569082
#
# Stress axis : x y z
#
# Youngs Moduli (GPa) = 60.27883 112.83822 69.82643
#
# Poissons Ratio (x) = 0.21817 0.07862
# Poissons Ratio (y) = 0.11655 0.27803
# Poissons Ratio (z) = 0.06787 0.44929
#
# Static dielectric constant tensor:
#      x y z
#    x 1.862430 0.000000 0.005150 
#    y 0.000000 1.847990 0.000000 
#    z 0.005150 0.000000 1.787500 
# 
# From -- ./inp_files/85428.got.cif
#   From: 2010.05.17/outbox.cif.g08.bks.cpg/sg10_43_cif.got.tgz:85428.got - 2010.06.03 11:33:40.
