data_PCOD9154625
_publ_section_title
;
Structure prediction by ZEFSAII (Michael W. Deem and Ramdas Pophale) SiO2 
 PCOD9154625
Probable space group: P 2/M
;
_chemical_formula_sum "Si O2"
_cell_formula_units_Z 28
_cell_length_a 32.294278
_cell_length_b 8.432728
_cell_length_c 32.294265
_cell_angle_alpha 90.000000
_cell_angle_beta 9.417984
_cell_angle_gamma 90.000000
_cell_volume 1439.119710
_symmetry_space_group_name_H-M "P 2/M"
_symmetry_group_IT_number 10
_symmetry_cell_setting 'monoclinic'
loop_
_space_group_symop_operation_xyz
x,y,z
-x,y,-z
-x,-y,-z
x,-y,z
loop_
_atom_site_type_symbol
_atom_site_label
_atom_site_fract_x
_atom_site_fract_y
_atom_site_fract_z
Si Si1 0.382622 0.190654 0.382470
Si Si2 0.762221 0.193865 0.762222
Si Si3 0.524096 0.690495 0.524122
Si Si4 0.810108 0.193872 0.810196
Si Si5 0.334488 0.806388 0.334580
Si Si6 0.094294 0.688942 0.094442
Si Si7 0.952810 0.811019 0.952787
O O1 0.358498 0.243864 0.358505
O O2 0.143847 0.249898 0.644239
O O3 0.382900 0.000000 0.382791
O O4 0.644469 0.249873 0.143595
O O5 0.786179 0.244976 0.786190
O O6 0.000000 0.244364 0.500000
O O7 0.762343 0.000000 0.762345
O O8 0.500000 0.244365 0.000000
O O9 0.500000 0.741029 0.500000
O O10 0.524628 0.500000 0.524871
O O11 0.785787 0.751219 0.285192
O O12 0.285259 0.751328 0.785726
O O13 0.072238 0.244837 0.572474
O O14 0.809994 0.000000 0.810079
O O15 0.572346 0.244835 0.072357
O O16 0.334490 0.000000 0.334582
O O17 0.094363 0.500000 0.094464
O O18 0.070733 0.748806 0.070726
O O19 0.952645 0.000000 0.952400
#
# Coordination Sequence:
#
# PCOD9154625 Si02
#       7
#     4   4   4   4   4   4   4
#     4  11  22  39  61  86 114 147 194 244 290 343
#     4   9  15  21  30  47  76 118 167 214 256 309
#     4  11  24  43  66  93 127 165 202 243 295 351
#     4   9  15  24  37  57  86 122 169 220 269 320
#     4   9  17  28  45  67  92 125 169 225 276 323
#     4  12  25  42  62  87 120 156 193 236 295 356
#     4  12  25  42  65  93 124 159 202 249 293 341
#
# _framework density 19.456337000000001
#
# number of rings (size 3 to 8) (size 9 to 14) (size 15 to 20)
#    0.000    1.571    0.000    6.429    0.000    8.571 
#    0.000    0.000    0.000    0.000    0.000    0.000 
#    0.000    0.000    0.000    0.000    0.000  180.000 
#
# Total GULP energy -156571.834522 kJ/mol
# GULP energy per Si atom -5591.851233 kJ/mol
# Density = 1.941205 g / cm^3
# Si number density = 19.456337 Si / 1000 Ang^3
#
#
#
# Elastic Constant Matrix: (Units=GPa)
#
#
# Indices 1 2 3 4 5 6 
#
# 1 252.7704 48.2818 156.9986 0.0000 0.2022 0.0000
# 2 48.2818 66.3222 44.4727 0.0000 0.3665 0.0000
# 3 156.9986 44.4727 250.9553 0.0000 0.0245 0.0000
# 4 0.0000 0.0000 0.0000 29.2222 0.0000 32.3534
# 5 0.2022 0.3665 0.0245 0.0000 46.9213 0.0000
# 6 0.0000 0.0000 0.0000 32.3534 0.0000 395.7232
#
#
#
# Elastic Compliance Matrix: (Units=1/GPa)
#
#
# Indices 1 2 3 4 5 6 
#
# 1 0.006785 -0.002375 -0.003824 0.000000 -0.000009 0.000000
# 2 -0.002375 0.017944 -0.001694 0.000000 -0.000129 0.000000
# 3 -0.003824 -0.001694 0.006677 0.000000 0.000026 0.000000
# 4 0.000000 0.000000 0.000000 0.037626 0.000000 -0.003076
# 5 -0.000009 -0.000129 0.000026 0.000000 0.021313 0.000000
# 6 0.000000 0.000000 0.000000 -0.003076 0.000000 0.002779
#
#
# Mechanical properties :
#
#
# Convention : Reuss Voigt Hill
#
# Bulk Modulus (GPa) = 64.02099 118.83934 91.43016
# Shear Modulus (GPa) = 43.81511 115.72633 79.77072
#
# Velocity S-wave (km/s) = 4.75064 7.72070 6.41006
# Velocity P-wave (km/s) = 7.94153 11.86134 10.09355
#
# Compressibility (1/GPa) = 0.01561988
#
# Stress axis : x y z
#
# Youngs Moduli (GPa) = 147.38877 55.73023 149.76674
#
# Poissons Ratio (x) = 0.13237 0.57266
# Poissons Ratio (y) = 0.35008 0.25369
# Poissons Ratio (z) = 0.56356 0.09440
#
# Static dielectric constant tensor:
#      x y z
#    x 1.653340 0.000000 0.003200 
#    y 0.000000 1.663740 0.000000 
#    z 0.003200 0.000000 1.617380 
# 
# From -- ./inp_files/95996.got.cif
#   From: 2010.05.17/outbox.cif.g08.bks.cpg/sg10_48_cif.got.tgz:95996.got - 2010.06.03 11:33:40.
