data_PCOD9154033
_publ_section_title
;
Structure prediction by ZEFSAII (Michael W. Deem and Ramdas Pophale) SiO2 
 PCOD9154033
Probable space group: P 2/M
;
_chemical_formula_sum "Si O2"
_cell_formula_units_Z 18
_cell_length_a 7.775043
_cell_length_b 7.630281
_cell_length_c 19.198420
_cell_angle_alpha 90.000000
_cell_angle_beta 39.435832
_cell_angle_gamma 90.000000
_cell_volume 723.483514
_symmetry_space_group_name_H-M "P 2/M"
_symmetry_group_IT_number 10
_symmetry_cell_setting 'monoclinic'
loop_
_space_group_symop_operation_xyz
x,y,z
-x,y,-z
-x,-y,-z
x,-y,z
loop_
_atom_site_type_symbol
_atom_site_label
_atom_site_fract_x
_atom_site_fract_y
_atom_site_fract_z
Si Si1 0.576797 0.500000 0.063610
Si Si2 0.853639 0.700609 0.471633
Si Si3 0.790943 0.809799 0.765649
Si Si4 0.712949 0.711259 0.294805
Si Si5 0.972880 0.797052 0.926231
O O1 0.413389 0.653409 0.157044
O O2 0.758722 0.653616 0.966711
O O3 0.822931 0.500000 0.454955
O O4 0.555216 0.772391 0.581259
O O5 0.000000 0.695342 0.500000
O O6 0.044538 0.794981 0.357511
O O7 0.024810 0.789675 0.750378
O O8 0.657504 0.000000 0.812197
O O9 0.714268 0.500000 0.298252
O O10 0.748378 0.763817 0.203059
O O11 0.901062 0.000000 0.940198
O O12 0.000000 0.754959 0.000000
#
# Coordination Sequence:
#
# PCOD9154033 Si02
#       5
#     2   4   4   4   4
#     4  12  25  47  70 100 140 188 226 292 330 419
#     4  10  23  43  73 105 138 180 228 283 349 414
#     4  12  26  44  71 104 140 183 229 285 346 410
#     4  11  23  44  72  99 142 188 227 281 352 410
#     4  11  26  45  72 105 139 183 231 284 344 408
#
# _framework density 24.879625999999998
#
# number of rings (size 3 to 8) (size 9 to 14) (size 15 to 20)
#    0.000    0.889    3.333    2.333    3.111    6.667 
#    0.000    2.222    0.000    0.000    0.000    0.000 
#    0.000    0.000    0.000    0.000    0.000    0.000 
#
# Total GULP energy -100354.550266 kJ/mol
# GULP energy per Si atom -5575.252793 kJ/mol
# Density = 2.482300 g / cm^3
# Si number density = 24.879626 Si / 1000 Ang^3
#
#
#
# Elastic Constant Matrix: (Units=GPa)
#
#
# Indices 1 2 3 4 5 6 
#
# 1 39.5184 8.5463 8.7833 0.0000 9.7824 0.0000
# 2 8.5463 181.9044 50.2864 0.0000 -10.2276 0.0000
# 3 8.7833 50.2864 184.8913 0.0000 4.7719 0.0000
# 4 0.0000 0.0000 0.0000 6.2443 0.0000 22.6447
# 5 9.7824 -10.2276 4.7719 0.0000 36.0765 0.0000
# 6 0.0000 0.0000 0.0000 22.6447 0.0000 -1.6090
#
#
#
# Elastic Compliance Matrix: (Units=1/GPa)
#
#
# Indices 1 2 3 4 5 6 
#
# 1 0.027743 -0.001555 -0.000692 0.000000 -0.007872 0.000000
# 2 -0.001555 0.006165 -0.001665 0.000000 0.002390 0.000000
# 3 -0.000692 -0.001665 0.005922 0.000000 -0.001068 0.000000
# 4 0.000000 0.000000 0.000000 0.003077 0.000000 0.043312
# 5 -0.007872 0.002390 -0.001068 0.000000 0.030672 0.000000
# 6 0.000000 0.000000 0.000000 0.043312 0.000000 -0.011943
#
#
# Mechanical properties :
#
#
# Convention : Reuss Voigt Hill
#
# Bulk Modulus (GPa) = 31.24267 60.17181 45.70724
# Shear Modulus (GPa) = 62.40022 30.72222 46.56122
#
# Velocity S-wave (km/s) = 5.01351 3.51783 4.33073
# Velocity P-wave (km/s) = 6.78959 6.38262 6.58925
#
# Compressibility (1/GPa) = 0.03200751
#
# Stress axis : x y z
#
# Youngs Moduli (GPa) = 36.04471 162.20740 168.86975
#
# Poissons Ratio (x) = 0.25220 0.11684
# Poissons Ratio (y) = 0.05604 0.28109
# Poissons Ratio (z) = 0.02494 0.27000
#
# Static dielectric constant tensor:
#      x y z
#    x 2.082060 0.000000 0.017630 
#    y 0.000000 1.899760 0.000000 
#    z 0.017630 0.000000 1.984770 
# 
# From -- ./inp_files/40537.got.cif
#   From: 2010.05.17/outbox.cif.g08.bks.cpg/sg10_21_cif.got.tgz:40537.got - 2010.06.03 11:33:40.
