data_PCOD9154228
_publ_section_title
;
Structure prediction by ZEFSAII (Michael W. Deem and Ramdas Pophale) SiO2 
 PCOD9154228
Probable space group: P 2/M
;
_chemical_formula_sum "Si O2"
_cell_formula_units_Z 24
_cell_length_a 13.842435
_cell_length_b 14.024264
_cell_length_c 11.294762
_cell_angle_alpha 90.000000
_cell_angle_beta 148.209551
_cell_angle_gamma 90.000000
_cell_volume 1155.119877
_symmetry_space_group_name_H-M "P 2/M"
_symmetry_group_IT_number 10
_symmetry_cell_setting 'monoclinic'
loop_
_space_group_symop_operation_xyz
x,y,z
-x,y,-z
-x,-y,-z
x,-y,z
loop_
_atom_site_type_symbol
_atom_site_label
_atom_site_fract_x
_atom_site_fract_y
_atom_site_fract_z
Si Si1 0.623327 0.608956 0.443385
Si Si2 0.080778 0.249595 0.264329
Si Si3 0.466194 0.107283 0.836663
Si Si4 0.233592 0.609788 0.136359
Si Si5 0.970972 0.104011 0.607618
Si Si6 0.388511 0.115187 0.501884
O O1 0.643643 0.500000 0.423165
O O2 0.755238 0.682746 0.514315
O O3 0.407740 0.630438 0.232944
O O4 0.695672 0.613353 0.654824
O O5 0.972632 0.189119 0.249924
O O6 0.197078 0.173348 0.307452
O O7 0.931813 0.318397 0.052656
O O8 0.247098 0.099620 0.602488
O O9 0.504116 0.140634 0.741961
O O10 0.547168 0.000000 0.931087
O O11 0.500000 0.155629 0.000000
O O12 0.174930 0.500000 0.053599
O O13 0.000000 0.120673 0.500000
O O14 0.047148 0.000000 0.719332
O O15 0.500000 0.139828 0.500000
O O16 0.358903 0.000000 0.472896
#
# Coordination Sequence:
#
# PCOD9154228 Si02
#       6
#     4   4   4   4   4   4
#     4   9  19  36  57  84 117 150 187 235 287 351
#     4  11  19  32  60  86 110 149 192 238 292 352
#     4   8  14  29  52  73  96 140 195 236 275 329
#     4   9  19  36  58  85 117 151 188 231 288 355
#     4   9  19  37  55  77 113 147 190 249 291 334
#     4   9  19  34  52  79 122 160 190 240 302 354
#
# _framework density 20.777065
#
# number of rings (size 3 to 8) (size 9 to 14) (size 15 to 20)
#    0.000    2.833    0.000    3.500    2.333    1.333 
#    6.000    0.000    0.000   12.000    0.000    2.333 
#    0.000    0.000    0.000    0.000    0.000    0.000 
#
# Total GULP energy -133745.171894 kJ/mol
# GULP energy per Si atom -5572.715496 kJ/mol
# Density = 2.072978 g / cm^3
# Si number density = 20.777065 Si / 1000 Ang^3
#
#
#
# Elastic Constant Matrix: (Units=GPa)
#
#
# Indices 1 2 3 4 5 6 
#
# 1 120.6285 52.6459 31.3683 0.0000 -10.1667 0.0000
# 2 52.6459 129.2382 43.6868 0.0000 6.7353 0.0000
# 3 31.3683 43.6868 73.4683 0.0000 6.1189 0.0000
# 4 0.0000 0.0000 0.0000 -21.5588 0.0000 -37.0220
# 5 -10.1667 6.7353 6.1189 0.0000 31.6062 0.0000
# 6 0.0000 0.0000 0.0000 -37.0220 0.0000 -27.7319
#
#
#
# Elastic Compliance Matrix: (Units=1/GPa)
#
#
# Indices 1 2 3 4 5 6 
#
# 1 0.011123 -0.003810 -0.002896 0.000000 0.004950 0.000000
# 2 -0.003810 0.011018 -0.004703 0.000000 -0.002663 0.000000
# 3 -0.002896 -0.004703 0.017928 0.000000 -0.003400 0.000000
# 4 0.000000 0.000000 0.000000 0.035887 0.000000 -0.047909
# 5 0.004950 -0.002663 -0.003400 0.000000 0.034458 0.000000
# 6 0.000000 0.000000 0.000000 -0.047909 0.000000 0.027899
#
#
# Mechanical properties :
#
#
# Convention : Reuss Voigt Hill
#
# Bulk Modulus (GPa) = 57.96922 64.30411 61.13666
# Shear Modulus (GPa) = 29.96149 9.50535 19.73342
#
# Velocity S-wave (km/s) = 3.80155 2.14123 3.08518
# Velocity P-wave (km/s) = 6.87242 6.09343 6.49462
#
# Compressibility (1/GPa) = 0.01725053
#
# Stress axis : x y z
#
# Youngs Moduli (GPa) = 89.90355 90.75723 55.77980
#
# Poissons Ratio (x) = 0.34580 0.16153
# Poissons Ratio (y) = 0.34255 0.26235
# Poissons Ratio (z) = 0.26034 0.42686
#
# Static dielectric constant tensor:
#      x y z
#    x 1.838610 0.000000 -0.007630 
#    y 0.000000 1.808410 0.000000 
#    z -0.007630 0.000000 1.770110 
# 
# From -- ./inp_files/51702.got.cif
#   From: 2010.05.17/outbox.cif.g08.bks.cpg/sg10_26_cif.got.tgz:51702.got - 2010.06.03 11:33:40.
