data_PCOD9154689
_publ_section_title
;
Structure prediction by ZEFSAII (Michael W. Deem and Ramdas Pophale) SiO2 
 PCOD9154689
Probable space group: P 2/M
;
_chemical_formula_sum "Si O2"
_cell_formula_units_Z 16
_cell_length_a 5.092297
_cell_length_b 11.012122
_cell_length_c 13.723702
_cell_angle_alpha 90.000000
_cell_angle_beta 80.481296
_cell_angle_gamma 90.000000
_cell_volume 758.988093
_symmetry_space_group_name_H-M "P 2/M"
_symmetry_group_IT_number 10
_symmetry_cell_setting 'monoclinic'
loop_
_space_group_symop_operation_xyz
x,y,z
-x,y,-z
-x,-y,-z
x,-y,z
loop_
_atom_site_type_symbol
_atom_site_label
_atom_site_fract_x
_atom_site_fract_y
_atom_site_fract_z
Si Si1 0.005591 0.628491 0.115177
Si Si2 0.352731 0.135076 0.114298
Si Si3 0.997928 0.355515 0.615218
Si Si4 0.430585 0.724235 0.734956
O O1 0.128460 0.500000 0.140112
O O2 0.153098 0.752157 0.132962
O O3 0.712598 0.636759 0.178015
O O4 0.000000 0.627613 0.000000
O O5 0.528974 0.155790 0.200875
O O6 0.234271 0.000000 0.122692
O O7 0.500000 0.146605 0.000000
O O8 0.053461 0.500000 0.625132
O O9 0.709186 0.323018 0.675992
O O10 0.000000 0.331390 0.500000
O O11 0.220836 0.278715 0.659013
#
# Coordination Sequence:
#
# PCOD9154689 Si02
#       4
#     4   4   4   4
#     4  11  23  38  63 102 142 178 222 279 342 406
#     4  11  25  44  66  98 141 189 234 271 326 411
#     4  11  24  42  67 100 137 176 225 287 349 406
#     4  12  23  41  67 100 134 178 225 276 340 399
#
# _framework density 21.0807
#
# number of rings (size 3 to 8) (size 9 to 14) (size 15 to 20)
#    0.000    0.750    5.000    3.000    0.000    6.000 
#    0.000    0.000    0.000    4.500    0.000    0.000 
#    0.000    0.000    0.000    0.000    0.000    0.000 
#
# Total GULP energy -89287.431376 kJ/mol
# GULP energy per Si atom -5580.464461 kJ/mol
# Density = 2.103272 g / cm^3
# Si number density = 21.080700 Si / 1000 Ang^3
#
#
#
# Elastic Constant Matrix: (Units=GPa)
#
#
# Indices 1 2 3 4 5 6 
#
# 1 113.7808 53.3923 51.6710 0.0000 1.7507 0.0000
# 2 53.3923 157.7209 40.3051 0.0000 -9.6490 0.0000
# 3 51.6710 40.3051 172.7447 0.0000 16.0461 0.0000
# 4 0.0000 0.0000 0.0000 13.0257 0.0000 1.9884
# 5 1.7507 -9.6490 16.0461 0.0000 36.3487 0.0000
# 6 0.0000 0.0000 0.0000 1.9884 0.0000 28.1900
#
#
#
# Elastic Compliance Matrix: (Units=1/GPa)
#
#
# Indices 1 2 3 4 5 6 
#
# 1 0.011522 -0.003232 -0.002671 0.000000 -0.000234 0.000000
# 2 -0.003232 0.007891 -0.001130 0.000000 0.002749 0.000000
# 3 -0.002671 -0.001130 0.007161 0.000000 -0.003332 0.000000
# 4 0.000000 0.000000 0.000000 0.077607 0.000000 -0.005474
# 5 -0.000234 0.002749 -0.003332 0.000000 0.029723 0.000000
# 6 0.000000 0.000000 0.000000 -0.005474 0.000000 0.035860
#
#
# Mechanical properties :
#
#
# Convention : Reuss Voigt Hill
#
# Bulk Modulus (GPa) = 79.94237 81.66479 80.80358
# Shear Modulus (GPa) = 26.59586 35.43808 31.01697
#
# Velocity S-wave (km/s) = 3.55578 4.10453 3.83997
# Velocity P-wave (km/s) = 7.40692 7.82854 7.62065
#
# Compressibility (1/GPa) = 0.01250901
#
# Stress axis : x y z
#
# Youngs Moduli (GPa) = 86.79063 126.71950 139.64863
#
# Poissons Ratio (x) = 0.40960 0.37293
# Poissons Ratio (y) = 0.28054 0.15777
# Poissons Ratio (z) = 0.23177 0.14316
#
# Static dielectric constant tensor:
#      x y z
#    x 1.873710 0.000000 0.029600 
#    y 0.000000 1.759220 0.000000 
#    z 0.029600 0.000000 1.753980 
# 
# From -- ./inp_files/72851.got.cif
#   From: 2010.05.17/outbox.cif.g08.bks.cpg/sg10_37_cif.got.tgz:72851.got - 2010.06.03 11:33:40.
