data_PCOD9154940
_publ_section_title
;
Structure prediction by ZEFSAII (Michael W. Deem and Ramdas Pophale) SiO2 
 PCOD9154940
Probable space group: P 2/M
;
_chemical_formula_sum "Si O2"
_cell_formula_units_Z 28
_cell_length_a 7.175738
_cell_length_b 9.718689
_cell_length_c 20.672128
_cell_angle_alpha 90.000000
_cell_angle_beta 94.118799
_cell_angle_gamma 90.000000
_cell_volume 1437.925308
_symmetry_space_group_name_H-M "P 2/M"
_symmetry_group_IT_number 10
_symmetry_cell_setting 'monoclinic'
loop_
_space_group_symop_operation_xyz
x,y,z
-x,y,-z
-x,-y,-z
x,-y,z
loop_
_atom_site_type_symbol
_atom_site_label
_atom_site_fract_x
_atom_site_fract_y
_atom_site_fract_z
Si Si1 0.308952 0.841324 0.827240
Si Si2 0.196206 0.659409 0.086759
Si Si3 0.144282 0.158289 0.204357
Si Si4 0.744311 0.340697 0.054720
Si Si5 0.923856 0.167556 0.655814
Si Si6 0.347332 0.167686 0.685424
Si Si7 0.591629 0.167715 0.568675
O O1 0.343758 0.748948 0.890667
O O2 0.389816 0.790700 0.760386
O O3 0.082213 0.841348 0.810708
O O4 0.362248 0.000000 0.839896
O O5 0.245523 0.500000 0.099127
O O6 0.232456 0.753114 0.149542
O O7 0.969983 0.663028 0.071072
O O8 0.283115 0.704756 0.020270
O O9 0.170844 0.208785 0.278411
O O10 0.206366 0.000000 0.201668
O O11 0.687669 0.500000 0.058409
O O12 0.803279 0.208943 0.590887
O O13 0.137158 0.212611 0.662740
O O14 0.926017 0.000000 0.657726
O O15 0.476197 0.209434 0.629313
O O16 0.349806 0.000000 0.687718
O O17 0.500000 0.217310 0.500000
O O18 0.587885 0.000000 0.566108
#
# Coordination Sequence:
#
# PCOD9154940 Si02
#       7
#     4   4   4   4   4   4   4
#     4   8  13  21  33  49  72 104 137 167 202 243
#     4   8  13  20  30  48  76 105 132 168 210 244
#     4   8  13  21  33  49  72 104 137 167 202 243
#     4   8  13  20  30  48  76 105 132 168 210 244
#     4   8  14  24  36  52  77 106 135 169 205 240
#     4   8  14  24  36  52  77 106 135 169 205 240
#     4   9  16  24  36  56  80 107 136 162 199 253
#
# _framework density 19.472498999999999
#
# number of rings (size 3 to 8) (size 9 to 14) (size 15 to 20)
#    0.000    3.857    0.000    2.571    0.000    1.143 
#    0.000    5.714    0.000    0.000    0.000    2.000 
#    0.000   10.286    0.000   12.000    0.000   11.429 
#
# Total GULP energy -156038.298663 kJ/mol
# GULP energy per Si atom -5572.796381 kJ/mol
# Density = 1.942818 g / cm^3
# Si number density = 19.472499 Si / 1000 Ang^3
#
#
#
# Elastic Constant Matrix: (Units=GPa)
#
#
# Indices 1 2 3 4 5 6 
#
# 1 59.0831 3.7715 28.1710 0.0000 4.4702 0.0000
# 2 3.7715 15.2704 24.4063 0.0000 2.1438 0.0000
# 3 28.1710 24.4063 97.8988 0.0000 11.3122 0.0000
# 4 0.0000 0.0000 0.0000 -8.2045 0.0000 2.2815
# 5 4.4702 2.1438 11.3122 0.0000 31.3072 0.0000
# 6 0.0000 0.0000 0.0000 2.2815 0.0000 -0.3886
#
#
#
# Elastic Compliance Matrix: (Units=1/GPa)
#
#
# Indices 1 2 3 4 5 6 
#
# 1 0.020083 0.007061 -0.007464 0.000000 -0.000654 0.000000
# 2 0.007061 0.111526 -0.030093 0.000000 0.002228 0.000000
# 3 -0.007464 -0.030093 0.020353 0.000000 -0.004228 0.000000
# 4 0.000000 0.000000 0.000000 0.192707 0.000000 1.131277
# 5 -0.000654 0.002228 -0.004228 0.000000 0.033410 0.000000
# 6 0.000000 0.000000 0.000000 1.131277 0.000000 4.068100
#
#
# Mechanical properties :
#
#
# Convention : Reuss Voigt Hill
#
# Bulk Modulus (GPa) = 10.99262 31.66110 21.32686
# Shear Modulus (GPa) = 1.10193 12.26972 6.68582
#
# Velocity S-wave (km/s) = 0.75307 2.51291 1.85497
# Velocity P-wave (km/s) = 2.53251 4.97135 3.94512
#
# Compressibility (1/GPa) = 0.09097008
#
# Stress axis : x y z
#
# Youngs Moduli (GPa) = 49.79397 8.96656 49.13287
#
# Poissons Ratio (x) = -0.06331 0.36671
# Poissons Ratio (y) = -0.35158 1.47854
# Poissons Ratio (z) = 0.37164 0.26983
#
# Static dielectric constant tensor:
#      x y z
#    x 1.780030 0.000000 0.008890 
#    y 0.000000 1.630260 0.000000 
#    z 0.008890 0.000000 1.681010 
# 
# From -- ./inp_files/35427.got.cif
#   From: 2010.05.17/outbox.cif.g08.bks.cpg/sg10_18_cif.got.tgz:35427.got - 2010.06.03 11:33:40.
