data_PCOD9154777
_publ_section_title
;
Structure prediction by ZEFSAII (Michael W. Deem and Ramdas Pophale) SiO2 
 PCOD9154777
Probable space group: P 2/M
;
_chemical_formula_sum "Si O2"
_cell_formula_units_Z 16
_cell_length_a 17.011013
_cell_length_b 10.238327
_cell_length_c 9.823005
_cell_angle_alpha 90.000000
_cell_angle_beta 153.804872
_cell_angle_gamma 90.000000
_cell_volume 755.205154
_symmetry_space_group_name_H-M "P 2/M"
_symmetry_group_IT_number 10
_symmetry_cell_setting 'monoclinic'
loop_
_space_group_symop_operation_xyz
x,y,z
-x,y,-z
-x,-y,-z
x,-y,z
loop_
_atom_site_type_symbol
_atom_site_label
_atom_site_fract_x
_atom_site_fract_y
_atom_site_fract_z
Si Si1 0.676524 0.500000 0.183432
Si Si2 0.334598 0.000000 0.546187
Si Si3 0.560711 0.500000 0.438576
Si Si4 0.830243 0.263084 0.831433
Si Si5 0.259433 0.000000 0.752835
Si Si6 0.063796 0.271113 0.454573
O O1 0.794699 0.371607 0.389827
O O2 0.500000 0.500000 0.000000
O O3 0.608058 0.500000 0.922297
O O4 0.252541 0.127639 0.348979
O O5 0.284055 0.000000 0.627318
O O6 0.548493 0.000000 0.877056
O O7 0.500000 0.500000 0.500000
O O8 0.681974 0.374455 0.595590
O O9 0.000000 0.294154 0.000000
O O10 0.904997 0.253430 0.100764
O O11 0.155297 0.867965 0.624471
O O12 0.000000 0.325667 0.500000
#
# Coordination Sequence:
#
# PCOD9154777 Si02
#       6
#     2   2   2   4   2   4
#     4  12  26  44  68 100 132 177 224 266 327 391
#     4  11  24  42  70 100 129 170 222 282 315 391
#     4  12  26  44  66  98 136 172 217 273 328 390
#     4  12  23  44  69  99 130 173 223 268 324 387
#     4  11  24  43  68  99 133 169 222 269 337 385
#     4  12  25  44  68  99 137 174 215 273 333 390
#
# _framework density 21.186295999999999
#
# number of rings (size 3 to 8) (size 9 to 14) (size 15 to 20)
#    0.000    0.250    2.500    7.500    3.500    0.000 
#    0.000    1.875    0.000    0.000    0.000    0.000 
#    0.000    0.000    0.000    0.000    0.000    0.000 
#
# Total GULP energy -89660.763427 kJ/mol
# GULP energy per Si atom -5603.797714 kJ/mol
# Density = 2.113807 g / cm^3
# Si number density = 21.186296 Si / 1000 Ang^3
#
#
#
# Elastic Constant Matrix: (Units=GPa)
#
#
# Indices 1 2 3 4 5 6 
#
# 1 51.1408 35.7477 20.6224 0.0000 -11.7603 0.0000
# 2 35.7477 148.7779 35.3728 0.0000 27.6347 0.0000
# 3 20.6224 35.3728 142.0639 0.0000 -9.7757 0.0000
# 4 0.0000 0.0000 0.0000 63.4372 0.0000 17.6928
# 5 -11.7603 27.6347 -9.7757 0.0000 35.3584 0.0000
# 6 0.0000 0.0000 0.0000 17.6928 0.0000 20.2390
#
#
#
# Elastic Compliance Matrix: (Units=1/GPa)
#
#
# Indices 1 2 3 4 5 6 
#
# 1 0.031936 -0.011097 -0.000556 0.000000 0.019141 0.000000
# 2 -0.011097 0.012635 -0.002517 0.000000 -0.014262 0.000000
# 3 -0.000556 -0.002517 0.008022 0.000000 0.004000 0.000000
# 4 0.000000 0.000000 0.000000 0.020846 0.000000 -0.018224
# 5 0.019141 -0.014262 0.004000 0.000000 0.046900 0.000000
# 6 0.000000 0.000000 0.000000 -0.018224 0.000000 0.065340
#
#
# Mechanical properties :
#
#
# Convention : Reuss Voigt Hill
#
# Bulk Modulus (GPa) = 41.22900 58.38539 49.80720
# Shear Modulus (GPa) = 22.51203 40.48957 31.50080
#
# Velocity S-wave (km/s) = 3.26325 4.37638 3.86015
# Velocity P-wave (km/s) = 5.80525 7.29074 6.58998
#
# Compressibility (1/GPa) = 0.02425477
#
# Stress axis : x y z
#
# Youngs Moduli (GPa) = 31.31218 79.14490 124.66337
#
# Poissons Ratio (x) = 0.87825 0.06929
# Poissons Ratio (y) = 0.34746 0.31372
# Poissons Ratio (z) = 0.01740 0.19917
#
# Static dielectric constant tensor:
#      x y z
#    x 1.772740 0.000000 -0.012570 
#    y 0.000000 1.711270 0.000000 
#    z -0.012570 0.000000 1.724280 
# 
# From -- ./inp_files/17622.got.cif
#   From: 2010.05.17/outbox.cif.g08.bks.cpg/sg10_9_cif.got.tgz:17622.got - 2010.06.03 11:33:40.
