data_PCOD9154610
_publ_section_title
;
Structure prediction by ZEFSAII (Michael W. Deem and Ramdas Pophale) SiO2 
 PCOD9154610
Probable space group: P 2/M
;
_chemical_formula_sum "Si O2"
_cell_formula_units_Z 28
_cell_length_a 31.007010
_cell_length_b 8.585500
_cell_length_c 9.581923
_cell_angle_alpha 90.000000
_cell_angle_beta 147.889894
_cell_angle_gamma 90.000000
_cell_volume 1355.878075
_symmetry_space_group_name_H-M "P 2/M"
_symmetry_group_IT_number 10
_symmetry_cell_setting 'monoclinic'
loop_
_space_group_symop_operation_xyz
x,y,z
-x,y,-z
-x,-y,-z
x,-y,z
loop_
_atom_site_type_symbol
_atom_site_label
_atom_site_fract_x
_atom_site_fract_y
_atom_site_fract_z
Si Si1 0.183133 0.814450 0.075419
Si Si2 0.370897 0.182581 0.602744
Si Si3 0.409595 0.316635 0.993928
Si Si4 0.291123 0.816014 0.881643
Si Si5 0.417941 0.318334 0.441040
Si Si6 0.139498 0.187439 0.640625
Si Si7 0.022959 0.684987 0.722158
O O1 0.275632 0.785490 0.368628
O O2 0.169625 0.000000 0.039731
O O3 0.170312 0.760021 0.879226
O O4 0.115419 0.739427 0.988785
O O5 0.397315 0.288578 0.546529
O O6 0.379821 0.000000 0.590365
O O7 0.416349 0.221726 0.869831
O O8 0.412287 0.500000 0.970654
O O9 0.327812 0.271784 0.850015
O O10 0.486465 0.280846 0.303781
O O11 0.356440 0.784818 0.183465
O O12 0.286904 0.000000 0.840214
O O13 0.204278 0.760950 0.702491
O O14 0.406314 0.500000 0.370967
O O15 0.047105 0.243533 0.373809
O O16 0.140976 0.000000 0.645069
O O17 0.018159 0.500000 0.716759
O O18 0.000000 0.734950 0.500000
#
# Coordination Sequence:
#
# PCOD9154610 Si02
#       7
#     4   4   4   4   4   4   4
#     4   9  17  32  52  77 109 142 178 223 275 324
#     4  11  22  38  60  85 111 146 192 235 276 329
#     4  11  25  41  55  80 115 152 187 227 288 341
#     4  11  22  38  60  85 111 146 192 235 276 329
#     4  11  23  39  59  82 113 148 185 233 286 337
#     4   9  17  32  52  77 109 142 178 223 275 324
#     4   9  17  27  45  78 111 140 177 218 266 324
#
# _framework density 20.650824
#
# number of rings (size 3 to 8) (size 9 to 14) (size 15 to 20)
#    0.000    1.857    1.429    3.000    0.000    9.714 
#    0.000    0.000    0.000    0.857    0.000    6.000 
#    0.000    0.000    0.000    0.000    0.000    0.000 
#
# Total GULP energy -156396.277412 kJ/mol
# GULP energy per Si atom -5585.581336 kJ/mol
# Density = 2.060382 g / cm^3
# Si number density = 20.650824 Si / 1000 Ang^3
#
#
#
# Elastic Constant Matrix: (Units=GPa)
#
#
# Indices 1 2 3 4 5 6 
#
# 1 86.7224 9.5034 4.4321 0.0000 27.0987 0.0000
# 2 9.5034 13.5030 7.0147 0.0000 14.8542 0.0000
# 3 4.4321 7.0147 19.8075 0.0000 13.5571 0.0000
# 4 0.0000 0.0000 0.0000 60.3983 0.0000 3.6859
# 5 27.0987 14.8542 13.5571 0.0000 39.0285 0.0000
# 6 0.0000 0.0000 0.0000 3.6859 0.0000 29.3555
#
#
#
# Elastic Compliance Matrix: (Units=1/GPa)
#
#
# Indices 1 2 3 4 5 6 
#
# 1 0.015092 0.000393 0.004931 0.000000 -0.012341 0.000000
# 2 0.000393 0.131216 -0.015990 0.000000 -0.044659 0.000000
# 3 0.004931 -0.015990 0.069824 0.000000 -0.021592 0.000000
# 4 0.000000 0.000000 0.000000 0.016685 0.000000 -0.002095
# 5 -0.012341 -0.044659 -0.021592 0.000000 0.058689 0.000000
# 6 0.000000 0.000000 0.000000 -0.002095 0.000000 0.034328
#
#
# Mechanical properties :
#
#
# Convention : Reuss Voigt Hill
#
# Bulk Modulus (GPa) = 5.13350 17.99259 11.56305
# Shear Modulus (GPa) = 12.13296 32.36197 22.24746
#
# Velocity S-wave (km/s) = 2.42653 3.96296 3.28581
# Velocity P-wave (km/s) = 3.21590 5.44718 4.47290
#
# Compressibility (1/GPa) = 0.19479883
#
# Stress axis : x y z
#
# Youngs Moduli (GPa) = 66.25858 7.62104 14.32166
#
# Poissons Ratio (x) = -0.00299 -0.07062
# Poissons Ratio (y) = -0.02603 0.22901
# Poissons Ratio (z) = -0.32671 0.12186
#
# Static dielectric constant tensor:
#      x y z
#    x 1.757450 0.000000 0.018020 
#    y 0.000000 1.685520 0.000000 
#    z 0.018020 0.000000 1.750430 
# 
# From -- ./inp_files/37325.got.cif
#   From: 2010.05.17/outbox.cif.g08.bks.cpg/sg10_19_cif.got.tgz:37325.got - 2010.06.03 11:33:40.
