data_PCOD9154332
_publ_section_title
;
Structure prediction by ZEFSAII (Michael W. Deem and Ramdas Pophale) SiO2 
 PCOD9154332
Probable space group: P 2/M
;
_chemical_formula_sum "Si O2"
_cell_formula_units_Z 29
_cell_length_a 11.742510
_cell_length_b 14.574884
_cell_length_c 9.853853
_cell_angle_alpha 90.000000
_cell_angle_beta 64.771577
_cell_angle_gamma 90.000000
_cell_volume 1525.584461
_symmetry_space_group_name_H-M "P 2/M"
_symmetry_group_IT_number 10
_symmetry_cell_setting 'monoclinic'
loop_
_space_group_symop_operation_xyz
x,y,z
-x,y,-z
-x,-y,-z
x,-y,z
loop_
_atom_site_type_symbol
_atom_site_label
_atom_site_fract_x
_atom_site_fract_y
_atom_site_fract_z
Si Si1 0.778916 0.893027 0.305253
Si Si2 0.033536 0.849288 0.330489
Si Si3 0.360387 0.608023 0.011587
Si Si4 0.000000 0.500000 0.500000
Si Si5 0.638893 0.772199 0.165482
Si Si6 0.689374 0.101533 0.888330
Si Si7 0.172764 0.329120 0.343544
Si Si8 0.637971 0.186345 0.627137
O O1 0.740576 0.824690 0.204545
O O2 0.682184 0.872277 0.476997
O O3 0.915662 0.869194 0.295684
O O4 0.772769 0.000000 0.268427
O O5 0.159340 0.892023 0.203347
O O6 0.070600 0.742434 0.333736
O O7 0.000000 0.884034 0.500000
O O8 0.350872 0.500000 0.991347
O O9 0.336703 0.667889 0.889657
O O10 0.500000 0.627670 0.000000
O O11 0.261832 0.638612 0.175721
O O12 0.891769 0.418184 0.561987
O O13 0.504112 0.778426 0.307118
O O14 0.639008 0.825877 0.021830
O O15 0.644253 0.126112 0.760617
O O16 0.651818 0.000000 0.949053
O O17 0.260452 0.268097 0.399152
#
# Coordination Sequence:
#
# PCOD9154332 Si02
#       8
#     4   4   4   1   4   4   4   4
#     4  12  26  41  63  92 131 183 218 259 329 395
#     4  11  21  40  63  87 125 167 219 268 320 372
#     4  11  21  40  71  99 126 166 216 262 323 386
#     4  12  20  32  62 108 130 140 210 272 322 380
#     4  12  24  41  61  92 138 161 209 269 326 385
#     4  11  22  36  62  91 121 165 217 270 316 371
#     4  11  20  37  65  96 123 161 208 278 319 367
#     4  11  22  41  63  90 128 171 214 261 322 381
#
# _framework density 19.009107
#
# number of rings (size 3 to 8) (size 9 to 14) (size 15 to 20)
#    0.000    0.690    8.276    2.069    0.000    4.414 
#    0.000    1.379    6.069    1.655    0.000    0.000 
#    0.000    0.000    0.000    0.000    0.000    0.000 
#
# Total GULP energy -161765.306482 kJ/mol
# GULP energy per Si atom -5578.114017 kJ/mol
# Density = 1.896584 g / cm^3
# Si number density = 19.009107 Si / 1000 Ang^3
#
#
#
# Elastic Constant Matrix: (Units=GPa)
#
#
# Indices 1 2 3 4 5 6 
#
# 1 73.8496 38.1939 21.0068 0.0000 -4.1532 0.0000
# 2 38.1939 136.4114 15.7353 0.0000 6.8500 0.0000
# 3 21.0068 15.7353 47.5335 0.0000 -3.5349 0.0000
# 4 0.0000 0.0000 0.0000 17.6782 0.0000 -8.6189
# 5 -4.1532 6.8500 -3.5349 0.0000 38.1464 0.0000
# 6 0.0000 0.0000 0.0000 -8.6189 0.0000 -2.5687
#
#
#
# Elastic Compliance Matrix: (Units=1/GPa)
#
#
# Indices 1 2 3 4 5 6 
#
# 1 0.017672 -0.004338 -0.006216 0.000000 0.002127 0.000000
# 2 -0.004338 0.008787 -0.001152 0.000000 -0.002157 0.000000
# 3 -0.006216 -0.001152 0.024299 0.000000 0.001782 0.000000
# 4 0.000000 0.000000 0.000000 0.021461 0.000000 -0.072006
# 5 0.002127 -0.002157 0.001782 0.000000 0.026999 0.000000
# 6 0.000000 0.000000 0.000000 -0.072006 0.000000 -0.147693
#
#
# Mechanical properties :
#
#
# Convention : Reuss Voigt Hill
#
# Bulk Modulus (GPa) = 36.56839 45.29629 40.93234
# Shear Modulus (GPa) = -313.49495 22.84175 -145.32660
#
# Velocity S-wave (km/s) = -12.85598 3.47020 -8.75311
# Velocity P-wave (km/s) = 14.18060 6.31956 8.97643
#
# Compressibility (1/GPa) = 0.02734602
#
# Stress axis : x y z
#
# Youngs Moduli (GPa) = 56.58582 113.81068 41.15455
#
# Poissons Ratio (x) = 0.49370 0.25581
# Poissons Ratio (y) = 0.24546 0.04741
# Poissons Ratio (z) = 0.35173 0.13111
#
# Static dielectric constant tensor:
#      x y z
#    x 1.679310 0.000000 -0.023380 
#    y 0.000000 1.661970 0.000000 
#    z -0.023380 0.000000 1.663650 
# 
# From -- ./inp_files/24969.got.cif
#   From: 2010.05.17/outbox.cif.g08.bks.cpg/sg10_13_cif.got.tgz:24969.got - 2010.06.03 11:33:40.
