data_PCOD9154269
_publ_section_title
;
Structure prediction by ZEFSAII (Michael W. Deem and Ramdas Pophale) SiO2 
 PCOD9154269
Probable space group: P 2/M
;
_chemical_formula_sum "Si O2"
_cell_formula_units_Z 28
_cell_length_a 13.825795
_cell_length_b 8.764662
_cell_length_c 28.335707
_cell_angle_alpha 90.000000
_cell_angle_beta 149.317243
_cell_angle_gamma 90.000000
_cell_volume 1752.150457
_symmetry_space_group_name_H-M "P 2/M"
_symmetry_group_IT_number 10
_symmetry_cell_setting 'monoclinic'
loop_
_space_group_symop_operation_xyz
x,y,z
-x,y,-z
-x,-y,-z
x,-y,z
loop_
_atom_site_type_symbol
_atom_site_label
_atom_site_fract_x
_atom_site_fract_y
_atom_site_fract_z
Si Si1 0.923265 0.683385 0.572037
Si Si2 0.291663 0.323349 0.612776
Si Si3 0.316048 0.820938 0.724132
Si Si4 0.718725 0.681811 0.902034
Si Si5 0.540708 0.313734 0.463944
Si Si6 0.686376 0.322046 0.720786
Si Si7 0.932637 0.818804 0.901596
O O1 0.941294 0.500000 0.583079
O O2 0.859361 0.716101 0.491162
O O3 0.747325 0.732086 0.531091
O O4 0.122143 0.761515 0.665878
O O5 0.260110 0.500000 0.614494
O O6 0.295261 0.218637 0.659826
O O7 0.494608 0.317396 0.671800
O O8 0.504243 0.734141 0.819926
O O9 0.340183 0.000000 0.740962
O O10 0.730972 0.500000 0.903563
O O11 0.794201 0.753450 0.884469
O O12 0.864489 0.743686 0.002288
O O13 0.500000 0.264004 0.500000
O O14 0.539874 0.500000 0.462534
O O15 0.381432 0.266707 0.359083
O O16 0.743633 0.500000 0.741958
O O17 0.844382 0.228183 0.814618
O O18 0.944523 0.000000 0.911597
#
# Coordination Sequence:
#
# PCOD9154269 Si02
#       7
#     4   4   4   4   4   4   4
#     4   9  18  31  47  67  92 126 161 195 236 284
#     4   9  17  29  44  62  90 128 165 194 225 276
#     4  12  22  30  42  65  95 128 162 199 235 276
#     4  11  21  33  48  64  90 129 167 200 234 278
#     4   8  15  30  53  78  98 120 159 205 239 275
#     4   9  16  28  48  71  96 129 162 195 237 282
#     4  11  20  31  46  69  97 125 160 200 237 278
#
# _framework density 15.980364
#
# number of rings (size 3 to 8) (size 9 to 14) (size 15 to 20)
#    0.000    2.143    1.429    6.857    0.000    2.286 
#    0.000    2.143    0.000    1.714    0.000    1.000 
#    0.000    8.000    0.000    0.000    0.000    0.000 
#
# Total GULP energy -156227.989659 kJ/mol
# GULP energy per Si atom -5579.571059 kJ/mol
# Density = 1.594399 g / cm^3
# Si number density = 15.980364 Si / 1000 Ang^3
#
#
#
# Elastic Constant Matrix: (Units=GPa)
#
#
# Indices 1 2 3 4 5 6 
#
# 1 62.2461 21.3305 46.1309 0.0000 -7.5142 0.0000
# 2 21.3305 76.7026 43.6309 0.0000 3.7989 0.0000
# 3 46.1309 43.6309 126.3548 0.0000 7.1361 0.0000
# 4 0.0000 0.0000 0.0000 -21.6324 0.0000 20.0665
# 5 -7.5142 3.7989 7.1361 0.0000 19.3843 0.0000
# 6 0.0000 0.0000 0.0000 20.0665 0.0000 -16.7897
#
#
#
# Elastic Compliance Matrix: (Units=1/GPa)
#
#
# Indices 1 2 3 4 5 6 
#
# 1 0.025379 -0.002521 -0.009169 0.000000 0.013708 0.000000
# 2 -0.002521 0.016499 -0.004635 0.000000 -0.002504 0.000000
# 3 -0.009169 -0.004635 0.013288 0.000000 -0.007538 0.000000
# 4 0.000000 0.000000 0.000000 0.425459 0.000000 0.508493
# 5 0.013708 -0.002504 -0.007538 0.000000 0.060167 0.000000
# 6 0.000000 0.000000 0.000000 0.508493 0.000000 0.548173
#
#
# Mechanical properties :
#
#
# Convention : Reuss Voigt Hill
#
# Bulk Modulus (GPa) = 44.41434 54.16538 49.28986
# Shear Modulus (GPa) = 4.42821 6.47318 5.45070
#
# Velocity S-wave (km/s) = 1.66645 2.01482 1.84886
# Velocity P-wave (km/s) = 5.61749 6.27545 5.95556
#
# Compressibility (1/GPa) = 0.02251525
#
# Stress axis : x y z
#
# Youngs Moduli (GPa) = 39.40200 60.60877 75.25422
#
# Poissons Ratio (x) = 0.15279 0.69004
# Poissons Ratio (y) = 0.09933 0.34884
# Poissons Ratio (z) = 0.36130 0.28095
#
# Static dielectric constant tensor:
#      x y z
#    x 1.525340 0.000000 0.006870 
#    y 0.000000 1.533910 0.000000 
#    z 0.006870 0.000000 1.555390 
# 
# From -- ./inp_files/95184.got.cif
#   From: 2010.05.17/outbox.cif.g08.bks.cpg/sg10_48_cif.got.tgz:95184.got - 2010.06.03 11:33:40.
