data_PCOD9154729
_publ_section_title
;
Structure prediction by ZEFSAII (Michael W. Deem and Ramdas Pophale) SiO2 
 PCOD9154729
Probable space group: P 2/M
;
_chemical_formula_sum "Si O2"
_cell_formula_units_Z 29
_cell_length_a 14.232216
_cell_length_b 20.170900
_cell_length_c 9.337477
_cell_angle_alpha 90.000000
_cell_angle_beta 29.135575
_cell_angle_gamma 90.000000
_cell_volume 1305.110644
_symmetry_space_group_name_H-M "P 2/M"
_symmetry_group_IT_number 10
_symmetry_cell_setting 'monoclinic'
loop_
_space_group_symop_operation_xyz
x,y,z
-x,y,-z
-x,-y,-z
x,-y,z
loop_
_atom_site_type_symbol
_atom_site_label
_atom_site_fract_x
_atom_site_fract_y
_atom_site_fract_z
Si Si1 0.231282 0.574279 0.204065
Si Si2 0.052595 0.761967 0.759051
Si Si3 0.794790 0.073499 0.189541
Si Si4 0.559677 0.812491 0.657879
Si Si5 0.852285 0.384006 0.381646
Si Si6 0.845863 0.135545 0.827783
Si Si7 0.501083 0.337838 0.659900
Si Si8 0.000000 0.500000 0.000000
O O1 0.300768 0.500000 0.074909
O O2 0.263755 0.590760 0.326584
O O3 0.000000 0.575514 0.500000
O O4 0.328634 0.629546 0.977541
O O5 0.270222 0.791505 0.458873
O O6 0.042268 0.685280 0.729280
O O7 0.920948 0.803730 0.827797
O O8 0.000000 0.766039 0.000000
O O9 0.657580 0.132719 0.424762
O O10 0.719385 0.000000 0.324953
O O11 0.822185 0.080309 0.982589
O O12 0.000000 0.080696 0.000000
O O13 0.507267 0.741784 0.657690
O O14 0.357778 0.844618 0.972140
O O15 0.695809 0.364398 0.471738
O O16 0.982551 0.441985 0.147046
O O17 0.000000 0.120352 0.500000
O O18 0.500000 0.360837 0.500000
#
# Coordination Sequence:
#
# PCOD9154729 Si02
#       8
#     4   4   4   4   4   4   4   1
#     4  11  27  46  67  96 139 184 234 290 355 421
#     4  11  23  43  66 100 139 180 234 289 344 419
#     4  11  23  47  77 102 140 189 231 279 343 421
#     4  11  24  44  72 103 137 182 235 280 340 414
#     4  11  26  42  67  93 137 177 226 293 358 410
#     4  12  26  41  70 106 142 180 223 294 343 410
#     4  11  27  43  69  98 135 177 231 289 343 420
#     4  12  24  40  70  96 120 182 232 280 352 420
#
# _framework density 22.220338000000002
#
# number of rings (size 3 to 8) (size 9 to 14) (size 15 to 20)
#    0.000    0.828    4.138    1.655    8.690    2.759 
#    0.000    0.000    0.000    1.655    0.000    0.000 
#    0.000    0.000    0.000    0.000    0.000    0.000 
#
# Total GULP energy -161944.370335 kJ/mol
# GULP energy per Si atom -5584.288632 kJ/mol
# Density = 2.216976 g / cm^3
# Si number density = 22.220338 Si / 1000 Ang^3
#
#
#
# Elastic Constant Matrix: (Units=GPa)
#
#
# Indices 1 2 3 4 5 6 
#
# 1 50.5014 21.3477 13.4432 0.0000 4.3665 0.0000
# 2 21.3477 174.4834 50.7646 0.0000 5.1484 0.0000
# 3 13.4432 50.7646 100.6472 0.0000 10.6290 0.0000
# 4 0.0000 0.0000 0.0000 11.4263 0.0000 6.9197
# 5 4.3665 5.1484 10.6290 0.0000 32.1157 0.0000
# 6 0.0000 0.0000 0.0000 6.9197 0.0000 21.7771
#
#
#
# Elastic Compliance Matrix: (Units=1/GPa)
#
#
# Indices 1 2 3 4 5 6 
#
# 1 0.021278 -0.002085 -0.001575 0.000000 -0.002037 0.000000
# 2 -0.002085 0.006921 -0.003238 0.000000 0.000246 0.000000
# 3 -0.001575 -0.003238 0.012126 0.000000 -0.003280 0.000000
# 4 0.000000 0.000000 0.000000 0.108371 0.000000 -0.034435
# 5 -0.002037 0.000246 -0.003280 0.000000 0.032461 0.000000
# 6 0.000000 0.000000 0.000000 -0.034435 0.000000 0.056861
#
#
# Mechanical properties :
#
#
# Convention : Reuss Voigt Hill
#
# Bulk Modulus (GPa) = 37.69596 55.19367 46.44481
# Shear Modulus (GPa) = 19.18224 29.06891 24.12558
#
# Velocity S-wave (km/s) = 2.94134 3.62085 3.29864
# Velocity P-wave (km/s) = 5.34198 6.50952 5.95444
#
# Compressibility (1/GPa) = 0.02652804
#
# Stress axis : x y z
#
# Youngs Moduli (GPa) = 46.99634 144.48295 82.46822
#
# Poissons Ratio (x) = 0.30123 0.12992
# Poissons Ratio (y) = 0.09798 0.26707
# Poissons Ratio (z) = 0.07404 0.46790
#
# Static dielectric constant tensor:
#      x y z
#    x 1.852750 0.000000 -0.028670 
#    y 0.000000 1.811680 0.000000 
#    z -0.028670 0.000000 1.844710 
# 
# From -- ./inp_files/30434.got.cif
#   From: 2010.05.17/outbox.cif.g08.bks.cpg/sg10_16_cif.got.tgz:30434.got - 2010.06.03 11:33:40.
