data_PCOD9154930
_publ_section_title
;
Structure prediction by ZEFSAII (Michael W. Deem and Ramdas Pophale) SiO2 
 PCOD9154930
Probable space group: P 2/M
;
_chemical_formula_sum "Si O2"
_cell_formula_units_Z 28
_cell_length_a 6.924512
_cell_length_b 9.247502
_cell_length_c 23.564554
_cell_angle_alpha 90.000000
_cell_angle_beta 125.942845
_cell_angle_gamma 90.000000
_cell_volume 1221.644666
_symmetry_space_group_name_H-M "P 2/M"
_symmetry_group_IT_number 10
_symmetry_cell_setting 'monoclinic'
loop_
_space_group_symop_operation_xyz
x,y,z
-x,y,-z
-x,-y,-z
x,-y,z
loop_
_atom_site_type_symbol
_atom_site_label
_atom_site_fract_x
_atom_site_fract_y
_atom_site_fract_z
Si Si1 0.413562 0.175036 0.271894
Si Si2 0.793182 0.830865 0.422247
Si Si3 0.696710 0.335494 0.982907
Si Si4 0.422668 0.660873 0.422549
Si Si5 0.655760 0.164998 0.152326
Si Si6 0.982123 0.332521 0.718665
Si Si7 0.048384 0.164988 0.117051
O O1 0.678648 0.213952 0.340987
O O2 0.229485 0.267294 0.278625
O O3 0.302242 0.199793 0.190098
O O4 0.385966 0.000000 0.276302
O O5 0.561708 0.794898 0.420075
O O6 0.000000 0.767118 0.500000
O O7 0.850117 0.000000 0.425690
O O8 0.724493 0.500000 0.969007
O O9 0.576323 0.238710 0.913853
O O10 0.500000 0.335047 0.000000
O O11 0.935868 0.271217 0.051570
O O12 0.500000 0.655056 0.500000
O O13 0.483626 0.500000 0.407650
O O14 0.141175 0.677919 0.364051
O O15 0.783943 0.245282 0.225998
O O16 0.855550 0.167663 0.136021
O O17 0.611569 0.000000 0.159319
O O18 0.023935 0.500000 0.739589
O O19 0.049667 0.000000 0.095816
#
# Coordination Sequence:
#
# PCOD9154930 Si02
#       7
#     4   4   4   4   4   4   4
#     4   8  14  24  36  50  71  99 128 159 198 243
#     4   9  17  29  45  65  87 111 142 179 216 254
#     4   9  15  20  27  41  61  86 119 157 192 226
#     4   9  18  31  45  62  85 113 144 177 214 256
#     4   9  15  22  31  43  63  91 122 155 192 236
#     4   9  15  23  36  52  70  94 127 165 200 236
#     4   8  13  20  29  41  60  89 122 153 188 231
#
# _framework density 22.919924000000002
#
# number of rings (size 3 to 8) (size 9 to 14) (size 15 to 20)
#    0.000    3.286    0.000    2.143    0.000    6.286 
#    0.000    0.000    0.000    0.000    0.000    0.000 
#    0.000    0.000    0.000    1.286    0.000   28.286 
#
# Total GULP energy -156014.764242 kJ/mol
# GULP energy per Si atom -5571.955866 kJ/mol
# Density = 2.286776 g / cm^3
# Si number density = 22.919924 Si / 1000 Ang^3
#
#
#
# Elastic Constant Matrix: (Units=GPa)
#
#
# Indices 1 2 3 4 5 6 
#
# 1 54.9235 14.4207 24.3237 0.0000 19.8867 0.0000
# 2 14.4207 90.2371 101.5949 0.0000 12.1648 0.0000
# 3 24.3237 101.5949 262.2268 0.0000 22.3382 0.0000
# 4 0.0000 0.0000 0.0000 32.8223 0.0000 4.3336
# 5 19.8867 12.1648 22.3382 0.0000 35.5686 0.0000
# 6 0.0000 0.0000 0.0000 4.3336 0.0000 -1.7056
#
#
#
# Elastic Compliance Matrix: (Units=1/GPa)
#
#
# Indices 1 2 3 4 5 6 
#
# 1 0.023231 -0.001444 -0.000561 0.000000 -0.012143 0.000000
# 2 -0.001444 0.019888 -0.007460 0.000000 -0.001310 0.000000
# 3 -0.000561 -0.007460 0.006880 0.000000 -0.001456 0.000000
# 4 0.000000 0.000000 0.000000 0.022814 0.000000 0.057965
# 5 -0.012143 -0.001310 -0.001456 0.000000 0.036266 0.000000
# 6 0.000000 0.000000 0.000000 0.057965 0.000000 -0.439020
#
#
# Mechanical properties :
#
#
# Convention : Reuss Voigt Hill
#
# Bulk Modulus (GPa) = 32.18593 76.45178 54.31885
# Shear Modulus (GPa) = -16.63030 31.14025 7.25497
#
# Velocity S-wave (km/s) = -2.69659 3.68999 1.78108
# Velocity P-wave (km/s) = 2.09232 7.18214 5.28966
#
# Compressibility (1/GPa) = 0.03106948
#
# Stress axis : x y z
#
# Youngs Moduli (GPa) = 43.04528 50.28206 145.35621
#
# Poissons Ratio (x) = 0.07260 0.08156
# Poissons Ratio (y) = 0.06215 1.08431
# Poissons Ratio (z) = 0.02415 0.37509
#
# Static dielectric constant tensor:
#      x y z
#    x 1.960060 0.000000 -0.031960 
#    y 0.000000 1.807580 0.000000 
#    z -0.031960 0.000000 1.913860 
# 
# From -- ./inp_files/75744.got.cif
#   From: 2010.05.17/outbox.cif.g08.bks.cpg/sg10_38_cif.got.tgz:75744.got - 2010.06.03 11:33:40.
