data_PCOD9154643
_publ_section_title
;
Structure prediction by ZEFSAII (Michael W. Deem and Ramdas Pophale) SiO2 
 PCOD9154643
Probable space group: P 2/M
;
_chemical_formula_sum "Si O2"
_cell_formula_units_Z 20
_cell_length_a 10.617568
_cell_length_b 10.378940
_cell_length_c 9.020653
_cell_angle_alpha 90.000000
_cell_angle_beta 107.164128
_cell_angle_gamma 90.000000
_cell_volume 949.795364
_symmetry_space_group_name_H-M "P 2/M"
_symmetry_group_IT_number 10
_symmetry_cell_setting 'monoclinic'
loop_
_space_group_symop_operation_xyz
x,y,z
-x,y,-z
-x,-y,-z
x,-y,z
loop_
_atom_site_type_symbol
_atom_site_label
_atom_site_fract_x
_atom_site_fract_y
_atom_site_fract_z
Si Si1 0.532416 0.500000 0.181080
Si Si2 0.559685 0.000000 0.276001
Si Si3 0.356522 0.500000 0.375166
Si Si4 0.292110 0.750740 0.754483
Si Si5 0.928764 0.653370 0.131007
Si Si6 0.825829 0.738886 0.603310
Si Si7 0.295691 0.000000 0.350579
O O1 0.393977 0.500000 0.216977
O O2 0.618521 0.625769 0.245308
O O3 0.500000 0.500000 0.000000
O O4 0.613375 0.125967 0.212035
O O5 0.405068 0.000000 0.259642
O O6 0.627654 0.000000 0.463724
O O7 0.500000 0.500000 0.500000
O O8 0.276833 0.626903 0.388821
O O9 0.204723 0.726680 0.870133
O O10 0.195445 0.764102 0.578492
O O11 0.902492 0.500000 0.122570
O O12 0.034154 0.687112 0.295218
O O13 0.000000 0.685225 0.000000
O O14 0.789634 0.870352 0.675968
#
# Coordination Sequence:
#
# PCOD9154643 Si02
#       7
#     2   2   2   4   4   4   2
#     4  12  26  37  62  91 129 164 203 258 310 370
#     4   9  20  39  64  94 127 161 199 259 303 373
#     4  12  22  37  62  97 121 156 213 252 308 364
#     4  11  22  42  64  93 123 162 210 256 307 363
#     4  11  25  42  63  90 127 165 208 260 313 364
#     4  11  22  39  67  93 123 162 207 261 301 368
#     4   9  20  37  63  95 130 158 200 247 321 363
#
# _framework density 21.057168999999998
#
# number of rings (size 3 to 8) (size 9 to 14) (size 15 to 20)
#    0.000    1.200    4.000    1.800    5.600    1.600 
#    0.000    5.500    0.000    0.000    0.000    0.000 
#    0.000    0.000    0.000    0.000    0.000    0.000 
#
# Total GULP energy -111803.982973 kJ/mol
# GULP energy per Si atom -5590.199149 kJ/mol
# Density = 2.100924 g / cm^3
# Si number density = 21.057169 Si / 1000 Ang^3
#
#
#
# Elastic Constant Matrix: (Units=GPa)
#
#
# Indices 1 2 3 4 5 6 
#
# 1 87.3771 51.1252 18.2949 0.0000 -40.4199 0.0000
# 2 51.1252 157.1640 17.4672 0.0000 -30.1002 0.0000
# 3 18.2949 17.4672 63.0651 0.0000 -26.8697 0.0000
# 4 0.0000 0.0000 0.0000 21.5670 0.0000 -44.3705
# 5 -40.4199 -30.1002 -26.8697 0.0000 48.1091 0.0000
# 6 0.0000 0.0000 0.0000 -44.3705 0.0000 -140.7319
#
#
#
# Elastic Compliance Matrix: (Units=1/GPa)
#
#
# Indices 1 2 3 4 5 6 
#
# 1 0.020752 -0.003885 0.001901 0.000000 0.016066 0.000000
# 2 -0.003885 0.007957 -0.000455 0.000000 0.001460 0.000000
# 3 0.001901 -0.000455 0.020984 0.000000 0.013033 0.000000
# 4 0.000000 0.000000 0.000000 0.028124 0.000000 -0.008867
# 5 0.016066 0.001460 0.013033 0.000000 0.042477 0.000000
# 6 0.000000 0.000000 0.000000 -0.008867 0.000000 -0.004310
#
#
# Mechanical properties :
#
#
# Convention : Reuss Voigt Hill
#
# Bulk Modulus (GPa) = 22.31340 53.48675 37.90008
# Shear Modulus (GPa) = 36.81915 0.50343 18.66129
#
# Velocity S-wave (km/s) = 4.18608 0.48949 2.98018
# Velocity P-wave (km/s) = 5.82958 5.07694 5.46623
#
# Compressibility (1/GPa) = 0.04481612
#
# Stress axis : x y z
#
# Youngs Moduli (GPa) = 48.18872 125.67985 47.65590
#
# Poissons Ratio (x) = 0.48824 -0.09061
# Poissons Ratio (y) = 0.18720 0.02166
# Poissons Ratio (z) = -0.09162 0.05713
#
# Static dielectric constant tensor:
#      x y z
#    x 1.772890 0.000000 0.007280 
#    y 0.000000 1.713010 0.000000 
#    z 0.007280 0.000000 1.836710 
# 
# From -- ./inp_files/22327.got.cif
#   From: 2010.05.17/outbox.cif.g08.bks.cpg/sg10_12_cif.got.tgz:22327.got - 2010.06.03 11:33:40.
