data_PCOD9154787
_publ_section_title
;
Structure prediction by ZEFSAII (Michael W. Deem and Ramdas Pophale) SiO2 
 PCOD9154787
Probable space group: P 2/M
;
_chemical_formula_sum "Si O2"
_cell_formula_units_Z 18
_cell_length_a 12.198777
_cell_length_b 8.474419
_cell_length_c 12.754492
_cell_angle_alpha 90.000000
_cell_angle_beta 140.254126
_cell_angle_gamma 90.000000
_cell_volume 843.045291
_symmetry_space_group_name_H-M "P 2/M"
_symmetry_group_IT_number 10
_symmetry_cell_setting 'monoclinic'
loop_
_space_group_symop_operation_xyz
x,y,z
-x,y,-z
-x,-y,-z
x,-y,z
loop_
_atom_site_type_symbol
_atom_site_label
_atom_site_fract_x
_atom_site_fract_y
_atom_site_fract_z
Si Si1 0.109501 0.687594 0.683303
Si Si2 0.473427 0.186940 0.230532
Si Si3 0.190275 0.686798 0.176510
Si Si4 0.185300 0.813220 0.400124
Si Si5 0.500000 0.219543 0.000000
O O1 0.143203 0.500000 0.703323
O O2 0.292354 0.769988 0.823032
O O3 0.000000 0.734240 0.500000
O O4 0.988233 0.727110 0.692300
O O5 0.325397 0.273433 0.185739
O O6 0.657752 0.240176 0.410762
O O7 0.461290 0.211153 0.097933
O O8 0.459198 0.000000 0.241448
O O9 0.191303 0.500000 0.198122
O O10 0.231781 0.775297 0.314864
O O11 0.000000 0.733281 0.000000
O O12 0.160356 0.000000 0.395765
#
# Coordination Sequence:
#
# PCOD9154787 Si02
#       5
#     4   4   4   4   2
#     4  11  24  43  67  98 136 178 224 277 334 396
#     4  11  25  43  67  99 135 178 226 278 336 400
#     4  11  25  44  67  97 133 174 225 281 340 405
#     4  11  24  44  69  99 135 175 225 280 337 403
#     4  12  24  44  70 102 136 182 228 278 330 406
#
# _framework density 21.351168000000001
#
# number of rings (size 3 to 8) (size 9 to 14) (size 15 to 20)
#    0.000    0.889    2.222    4.000    0.000   13.778 
#    0.000    0.000    0.000    0.000    0.000    0.000 
#    0.000    0.000    0.000    0.000    0.000    0.000 
#
# Total GULP energy -100233.123939 kJ/mol
# GULP energy per Si atom -5568.506886 kJ/mol
# Density = 2.130257 g / cm^3
# Si number density = 21.351168 Si / 1000 Ang^3
#
#
#
# Elastic Constant Matrix: (Units=GPa)
#
#
# Indices 1 2 3 4 5 6 
#
# 1 119.2867 -17.1920 26.0251 0.0000 4.7785 0.0000
# 2 -17.1920 28.6308 11.4490 0.0000 20.2162 0.0000
# 3 26.0251 11.4490 122.4472 0.0000 7.8632 0.0000
# 4 0.0000 0.0000 0.0000 45.4923 0.0000 -99.9940
# 5 4.7785 20.2162 7.8632 0.0000 56.6737 0.0000
# 6 0.0000 0.0000 0.0000 -99.9940 0.0000 238.2487
#
#
#
# Elastic Compliance Matrix: (Units=1/GPa)
#
#
# Indices 1 2 3 4 5 6 
#
# 1 0.010755 0.010703 -0.003010 0.000000 -0.004307 0.000000
# 2 0.010703 0.058720 -0.006419 0.000000 -0.020958 0.000000
# 3 -0.003010 -0.006419 0.009327 0.000000 0.001250 0.000000
# 4 0.000000 0.000000 0.000000 0.283741 0.000000 0.119087
# 5 -0.004307 -0.020958 0.001250 0.000000 0.025311 0.000000
# 6 0.000000 0.000000 0.000000 0.119087 0.000000 0.054179
#
#
# Mechanical properties :
#
#
# Convention : Reuss Voigt Hill
#
# Bulk Modulus (GPa) = 12.29285 34.54765 23.42025
# Shear Modulus (GPa) = 10.71581 84.75511 47.73546
#
# Velocity S-wave (km/s) = 2.24271 6.30729 4.73348
# Velocity P-wave (km/s) = 3.53218 8.32216 6.39276
#
# Compressibility (1/GPa) = 0.08134809
#
# Stress axis : x y z
#
# Youngs Moduli (GPa) = 92.98050 17.03011 107.22130
#
# Poissons Ratio (x) = -0.18227 0.32274
# Poissons Ratio (y) = -0.99516 0.68829
# Poissons Ratio (z) = 0.27987 0.10932
#
# Static dielectric constant tensor:
#      x y z
#    x 1.720970 0.000000 -0.007780 
#    y 0.000000 1.761320 0.000000 
#    z -0.007780 0.000000 1.758980 
# 
# From -- ./inp_files/45371.got.cif
#   From: 2010.05.17/outbox.cif.g08.bks.cpg/sg10_23_cif.got.tgz:45371.got - 2010.06.03 11:33:40.
