data_PCOD9154206
_publ_section_title
;
Structure prediction by ZEFSAII (Michael W. Deem and Ramdas Pophale) SiO2 
 PCOD9154206
Probable space group: P 2/M
;
_chemical_formula_sum "Si O2"
_cell_formula_units_Z 20
_cell_length_a 11.237561
_cell_length_b 11.447708
_cell_length_c 10.743789
_cell_angle_alpha 90.000000
_cell_angle_beta 47.891796
_cell_angle_gamma 90.000000
_cell_volume 1025.372449
_symmetry_space_group_name_H-M "P 2/M"
_symmetry_group_IT_number 10
_symmetry_cell_setting 'monoclinic'
loop_
_space_group_symop_operation_xyz
x,y,z
-x,y,-z
-x,-y,-z
x,-y,z
loop_
_atom_site_type_symbol
_atom_site_label
_atom_site_fract_x
_atom_site_fract_y
_atom_site_fract_z
Si Si1 0.343464 0.228003 0.560040
Si Si2 0.983596 0.360827 0.156800
Si Si3 0.581193 0.142379 0.768464
Si Si4 0.914413 0.000000 0.862171
Si Si5 0.748752 0.000000 0.238908
Si Si6 0.757496 0.219547 0.882815
O O1 0.500000 0.297075 0.500000
O O2 0.368133 0.176258 0.405428
O O3 0.334471 0.118473 0.661348
O O4 0.178801 0.299674 0.681801
O O5 0.967110 0.500000 0.171489
O O6 0.140577 0.323320 0.126429
O O7 0.000000 0.322706 0.000000
O O8 0.693103 0.213388 0.787322
O O9 0.589530 0.000000 0.781953
O O10 0.401412 0.186516 0.926338
O O11 0.881284 0.113205 0.806626
O O12 0.087455 0.000000 0.798976
O O13 0.793247 0.000000 0.063932
#
# Coordination Sequence:
#
# PCOD9154206 Si02
#       6
#     4   4   4   2   2   4
#     4  12  24  38  60  95 128 158 202 257 312 365
#     4  11  25  46  67  86 117 167 218 258 299 354
#     4  11  22  38  61  97 134 163 192 247 316 381
#     4  11  18  32  59  87 121 162 200 247 301 371
#     4  11  21  31  55  92 126 153 199 250 312 368
#     4  11  21  40  62  91 125 166 206 245 304 371
#
# _framework density 19.505106000000001
#
# number of rings (size 3 to 8) (size 9 to 14) (size 15 to 20)
#    0.000    0.800    5.000    4.500    0.000    1.200 
#    0.000    7.000    0.000    0.000    0.000    0.000 
#    0.000    0.000    0.000    0.000    0.000    0.000 
#
# Total GULP energy -111662.391601 kJ/mol
# GULP energy per Si atom -5583.119580 kJ/mol
# Density = 1.946071 g / cm^3
# Si number density = 19.505106 Si / 1000 Ang^3
#
#
#
# Elastic Constant Matrix: (Units=GPa)
#
#
# Indices 1 2 3 4 5 6 
#
# 1 151.3327 34.0763 53.5387 0.0000 -18.2754 0.0000
# 2 34.0763 61.8338 28.3494 0.0000 -8.1169 0.0000
# 3 53.5387 28.3494 87.5720 0.0000 -0.5744 0.0000
# 4 0.0000 0.0000 0.0000 19.4958 0.0000 6.9464
# 5 -18.2754 -8.1169 -0.5744 0.0000 10.7691 0.0000
# 6 0.0000 0.0000 0.0000 6.9464 0.0000 20.3639
#
#
#
# Elastic Compliance Matrix: (Units=1/GPa)
#
#
# Indices 1 2 3 4 5 6 
#
# 1 0.011301 -0.000854 -0.006513 0.000000 0.018186 0.000000
# 2 -0.000854 0.021426 -0.006320 0.000000 0.014362 0.000000
# 3 -0.006513 -0.006320 0.017349 0.000000 -0.014891 0.000000
# 4 0.000000 0.000000 0.000000 0.058390 0.000000 -0.019917
# 5 0.018186 0.014362 -0.014891 0.000000 0.133751 0.000000
# 6 0.000000 0.000000 0.000000 -0.019917 0.000000 0.055901
#
#
# Mechanical properties :
#
#
# Convention : Reuss Voigt Hill
#
# Bulk Modulus (GPa) = 44.04934 59.18525 51.61729
# Shear Modulus (GPa) = 15.01236 22.44403 18.72820
#
# Velocity S-wave (km/s) = 2.77729 3.39584 3.10202
# Velocity P-wave (km/s) = 5.73733 6.76646 6.27304
#
# Compressibility (1/GPa) = 0.02270182
#
# Stress axis : x y z
#
# Youngs Moduli (GPa) = 88.48959 46.67236 57.63966
#
# Poissons Ratio (x) = 0.03988 0.37541
# Poissons Ratio (y) = 0.07561 0.36426
# Poissons Ratio (z) = 0.57633 0.29495
#
# Static dielectric constant tensor:
#      x y z
#    x 1.699020 0.000000 -0.024400 
#    y 0.000000 1.665750 0.000000 
#    z -0.024400 0.000000 1.709940 
# 
# From -- ./inp_files/46446.got.cif
#   From: 2010.05.17/outbox.cif.g08.bks.cpg/sg10_24_cif.got.tgz:46446.got - 2010.06.03 11:33:40.
