data_PCOD9154796
_publ_section_title
;
Structure prediction by ZEFSAII (Michael W. Deem and Ramdas Pophale) SiO2 
 PCOD9154796
Probable space group: P 2/M
;
_chemical_formula_sum "Si O2"
_cell_formula_units_Z 28
_cell_length_a 8.632400
_cell_length_b 18.058776
_cell_length_c 12.871418
_cell_angle_alpha 90.000000
_cell_angle_beta 43.469085
_cell_angle_gamma 90.000000
_cell_volume 1380.420492
_symmetry_space_group_name_H-M "P 2/M"
_symmetry_group_IT_number 10
_symmetry_cell_setting 'monoclinic'
loop_
_space_group_symop_operation_xyz
x,y,z
-x,y,-z
-x,-y,-z
x,-y,z
loop_
_atom_site_type_symbol
_atom_site_label
_atom_site_fract_x
_atom_site_fract_y
_atom_site_fract_z
Si Si1 0.148599 0.413167 0.210955
Si Si2 0.998274 0.266221 0.618061
Si Si3 0.740864 0.174350 0.364216
Si Si4 0.748275 0.715887 0.167705
Si Si5 0.477028 0.802049 0.126306
Si Si6 0.884287 0.912024 0.943206
Si Si7 0.601550 0.415569 0.127029
O O1 0.071210 0.500000 0.258815
O O2 0.007898 0.340281 0.308844
O O3 0.360383 0.405388 0.187705
O O4 0.228419 0.402964 0.052860
O O5 0.787348 0.208894 0.727922
O O6 0.000000 0.292472 0.500000
O O7 0.201277 0.215673 0.557310
O O8 0.500000 0.136508 0.500000
O O9 0.729466 0.238890 0.282534
O O10 0.941945 0.122277 0.225068
O O11 0.594713 0.754650 0.156414
O O12 0.658414 0.632924 0.199646
O O13 0.000000 0.718740 0.000000
O O14 0.500000 0.769200 0.000000
O O15 0.635524 0.875549 0.051314
O O16 0.868017 0.000000 0.940669
O O17 0.000000 0.895955 0.000000
O O18 0.618934 0.500000 0.149195
#
# Coordination Sequence:
#
# PCOD9154796 Si02
#       7
#     4   4   4   4   4   4   4
#     4   9  18  34  57  87 123 162 211 266 314 360
#     4  12  25  39  64  94 122 167 217 263 311 364
#     4  12  25  43  63  91 132 166 205 253 316 379
#     4  12  20  35  61  89 123 167 209 257 312 365
#     4  12  20  39  66  95 122 157 209 261 298 361
#     4  11  24  44  71  99 125 163 203 246 313 381
#     4   9  18  31  55  89 121 159 208 264 316 363
#
# _framework density 20.283673
#
# number of rings (size 3 to 8) (size 9 to 14) (size 15 to 20)
#    0.000    1.000    5.714    3.429    0.000    1.143 
#    0.000    0.714    0.000    1.714    0.000    0.000 
#    0.000    0.000    0.000    0.000    0.000    0.000 
#
# Total GULP energy -156073.618897 kJ/mol
# GULP energy per Si atom -5574.057818 kJ/mol
# Density = 2.023751 g / cm^3
# Si number density = 20.283673 Si / 1000 Ang^3
#
#
#
# Elastic Constant Matrix: (Units=GPa)
#
#
# Indices 1 2 3 4 5 6 
#
# 1 49.9095 1.8955 0.8257 0.0000 -1.7688 0.0000
# 2 1.8955 93.7456 22.1871 0.0000 -9.6317 0.0000
# 3 0.8257 22.1871 31.1300 0.0000 -13.3892 0.0000
# 4 0.0000 0.0000 0.0000 6.9631 0.0000 -2.2419
# 5 -1.7688 -9.6317 -13.3892 0.0000 28.9074 0.0000
# 6 0.0000 0.0000 0.0000 -2.2419 0.0000 37.0282
#
#
#
# Elastic Compliance Matrix: (Units=1/GPa)
#
#
# Indices 1 2 3 4 5 6 
#
# 1 0.020089 -0.000336 0.000233 0.000000 0.001226 0.000000
# 2 -0.000336 0.012837 -0.009128 0.000000 0.000029 0.000000
# 3 0.000233 -0.009128 0.046606 0.000000 0.018559 0.000000
# 4 0.000000 0.000000 0.000000 0.146470 0.000000 0.008868
# 5 0.001226 0.000029 0.018559 0.000000 0.043274 0.000000
# 6 0.000000 0.000000 0.000000 0.008868 0.000000 0.027543
#
#
# Mechanical properties :
#
#
# Convention : Reuss Voigt Hill
#
# Bulk Modulus (GPa) = 16.37443 24.95574 20.66509
# Shear Modulus (GPa) = 14.89708 24.57151 19.73430
#
# Velocity S-wave (km/s) = 2.71299 3.48428 3.12254
# Velocity P-wave (km/s) = 4.23131 5.34014 4.81773
#
# Compressibility (1/GPa) = 0.06107083
#
# Stress axis : x y z
#
# Youngs Moduli (GPa) = 49.77952 77.89801 21.45668
#
# Poissons Ratio (x) = 0.02614 -0.00501
# Poissons Ratio (y) = 0.01670 0.19586
# Poissons Ratio (z) = -0.01162 0.71106
#
# Static dielectric constant tensor:
#      x y z
#    x 1.842490 0.000000 0.052670 
#    y 0.000000 1.738870 0.000000 
#    z 0.052670 0.000000 1.828350 
# 
# From -- ./inp_files/62301.got.cif
#   From: 2010.05.17/outbox.cif.g08.bks.cpg/sg10_32_cif.got.tgz:62301.got - 2010.06.03 11:33:40.
