data_PCOD9154456
_publ_section_title
;
Structure prediction by ZEFSAII (Michael W. Deem and Ramdas Pophale) SiO2 
 PCOD9154456
Probable space group: P 2/M
;
_chemical_formula_sum "Si O2"
_cell_formula_units_Z 26
_cell_length_a 8.722732
_cell_length_b 19.346812
_cell_length_c 12.070410
_cell_angle_alpha 90.000000
_cell_angle_beta 39.900255
_cell_angle_gamma 90.000000
_cell_volume 1306.618595
_symmetry_space_group_name_H-M "P 2/M"
_symmetry_group_IT_number 10
_symmetry_cell_setting 'monoclinic'
loop_
_space_group_symop_operation_xyz
x,y,z
-x,y,-z
-x,-y,-z
x,-y,z
loop_
_atom_site_type_symbol
_atom_site_label
_atom_site_fract_x
_atom_site_fract_y
_atom_site_fract_z
Si Si1 0.123825 0.921792 0.554209
Si Si2 0.267992 0.817439 0.181679
Si Si3 0.615932 0.663749 0.551141
Si Si4 0.521057 0.813247 0.694764
Si Si5 0.000000 0.236405 0.000000
Si Si6 0.911780 0.680131 0.826169
Si Si7 0.268985 0.419894 0.905771
O O1 0.381864 0.885205 0.406519
O O2 0.000000 0.924866 0.500000
O O3 0.956587 0.867193 0.710178
O O4 0.129265 0.000000 0.593271
O O5 0.327426 0.804962 0.276720
O O6 0.228770 0.743499 0.148629
O O7 0.500000 0.852060 0.000000
O O8 0.500000 0.641786 0.500000
O O9 0.582934 0.745879 0.588288
O O10 0.468523 0.622957 0.726481
O O11 0.896396 0.654526 0.370419
O O12 0.240723 0.807911 0.874950
O O13 0.022173 0.283857 0.877173
O O14 0.760106 0.617851 0.960378
O O15 0.336382 0.500000 0.874867
O O16 0.000000 0.418120 0.000000
#
# Coordination Sequence:
#
# PCOD9154456 Si02
#       7
#     4   4   4   4   2   4   4
#     4   9  20  37  56  86 124 157 195 250 303 348
#     4  11  21  35  62  91 115 155 206 247 303 356
#     4  12  20  34  59  86 118 160 204 241 302 352
#     4  11  21  36  60  90 120 154 201 252 294 363
#     4  12  20  36  60  90 122 152 202 256 300 350
#     4  12  21  37  60  89 120 156 200 253 301 350
#     4  11  22  36  55  89 127 157 201 254 298 357
#
# _framework density 19.898690999999999
#
# number of rings (size 3 to 8) (size 9 to 14) (size 15 to 20)
#    0.000    0.923    8.462    0.000    0.000    1.231 
#    0.000    0.385    0.000    8.308    0.000    5.385 
#    0.000    0.000    0.000    0.000    0.000    0.000 
#
# Total GULP energy -145028.051355 kJ/mol
# GULP energy per Si atom -5578.001975 kJ/mol
# Density = 1.985340 g / cm^3
# Si number density = 19.898691 Si / 1000 Ang^3
#
#
#
# Elastic Constant Matrix: (Units=GPa)
#
#
# Indices 1 2 3 4 5 6 
#
# 1 29.9768 22.2266 10.8890 0.0000 -6.4002 0.0000
# 2 22.2266 134.0420 55.1397 0.0000 -19.3692 0.0000
# 3 10.8890 55.1397 138.6388 0.0000 -18.4778 0.0000
# 4 0.0000 0.0000 0.0000 42.4041 0.0000 4.2308
# 5 -6.4002 -19.3692 -18.4778 0.0000 19.3193 0.0000
# 6 0.0000 0.0000 0.0000 4.2308 0.0000 14.5531
#
#
#
# Elastic Compliance Matrix: (Units=1/GPa)
#
#
# Indices 1 2 3 4 5 6 
#
# 1 0.038948 -0.005404 0.000101 0.000000 0.007581 0.000000
# 2 -0.005404 0.010408 -0.002937 0.000000 0.005835 0.000000
# 3 0.000101 -0.002937 0.009152 0.000000 0.005842 0.000000
# 4 0.000000 0.000000 0.000000 0.024287 0.000000 -0.007061
# 5 0.007581 0.005835 0.005842 0.000000 0.065711 0.000000
# 6 0.000000 0.000000 0.000000 -0.007061 0.000000 0.070767
#
#
# Mechanical properties :
#
#
# Convention : Reuss Voigt Hill
#
# Bulk Modulus (GPa) = 23.79462 53.24090 38.51776
# Shear Modulus (GPa) = 20.01895 29.54876 24.78386
#
# Velocity S-wave (km/s) = 3.17526 3.85770 3.53300
# Velocity P-wave (km/s) = 5.04251 6.83056 6.00347
#
# Compressibility (1/GPa) = 0.04202630
#
# Stress axis : x y z
#
# Youngs Moduli (GPa) = 25.67513 96.08031 109.26696
#
# Poissons Ratio (x) = 0.51925 -0.01101
# Poissons Ratio (y) = 0.13876 0.32095
# Poissons Ratio (z) = -0.00259 0.28222
#
# Static dielectric constant tensor:
#      x y z
#    x 1.602550 0.000000 -0.004870 
#    y 0.000000 1.669870 0.000000 
#    z -0.004870 0.000000 1.769750 
# 
# From -- ./inp_files/43562.got.cif
#   From: 2010.05.17/outbox.cif.g08.bks.cpg/sg10_22_cif.got.tgz:43562.got - 2010.06.03 11:33:40.
