data_PCOD9154982
_publ_section_title
;
Structure prediction by ZEFSAII (Michael W. Deem and Ramdas Pophale) SiO2 
 PCOD9154982
Probable space group: P 2/M
;
_chemical_formula_sum "Si O2"
_cell_formula_units_Z 13
_cell_length_a 9.493111
_cell_length_b 14.773160
_cell_length_c 6.546816
_cell_angle_alpha 90.000000
_cell_angle_beta 32.385918
_cell_angle_gamma 90.000000
_cell_volume 491.777078
_symmetry_space_group_name_H-M "P 2/M"
_symmetry_group_IT_number 10
_symmetry_cell_setting 'monoclinic'
loop_
_space_group_symop_operation_xyz
x,y,z
-x,y,-z
-x,-y,-z
x,-y,z
loop_
_atom_site_type_symbol
_atom_site_label
_atom_site_fract_x
_atom_site_fract_y
_atom_site_fract_z
Si Si1 0.422385 0.602170 0.834846
Si Si2 0.500000 0.000000 0.500000
Si Si3 0.077231 0.291477 0.664183
Si Si4 0.205071 0.904075 0.557219
O O1 0.500000 0.598274 0.500000
O O2 0.344726 0.500000 0.986594
O O3 0.684476 0.637124 0.625559
O O4 0.182317 0.672565 0.129476
O O5 0.525595 0.078530 0.649049
O O6 0.174687 0.190886 0.488349
O O7 0.000000 0.284339 0.000000
O O8 0.159208 0.000000 0.501246
O O9 0.000000 0.908068 0.000000
#
# Coordination Sequence:
#
# PCOD9154982 Si02
#       4
#     4   1   4   4
#     4   9  16  23  27  33  39  45  54  59  61  67
#     4   8  14  20  28  30  42  44  50  56  62  68
#     4   9  16  20  30  33  39  47  50  56  66  67
#     4   8  15  19  26  34  40  43  50  56  62  72
#
# _framework density 26.434743999999998
#
# number of rings (size 3 to 8) (size 9 to 14) (size 15 to 20)
#    0.923    2.462    0.000    0.923   10.769    3.692 
#    0.000    0.000    0.000    0.000    0.000    0.000 
#    0.000    0.000    0.000    0.000    0.000    0.000 
#
# Total GULP energy -72369.182583 kJ/mol
# GULP energy per Si atom -5566.860199 kJ/mol
# Density = 2.637458 g / cm^3
# Si number density = 26.434744 Si / 1000 Ang^3
#
#
#
# Elastic Constant Matrix: (Units=GPa)
#
#
# Indices 1 2 3 4 5 6 
#
# 1 137.5632 60.2471 18.0053 0.0000 -46.8260 0.0000
# 2 60.2471 296.6254 52.6693 0.0000 -47.6599 0.0000
# 3 18.0053 52.6693 74.9684 0.0000 -4.9864 0.0000
# 4 0.0000 0.0000 0.0000 20.3347 0.0000 -6.4436
# 5 -46.8260 -47.6599 -4.9864 0.0000 54.9091 0.0000
# 6 0.0000 0.0000 0.0000 -6.4436 0.0000 25.4699
#
#
#
# Elastic Compliance Matrix: (Units=1/GPa)
#
#
# Indices 1 2 3 4 5 6 
#
# 1 0.010573 -0.000504 -0.001624 0.000000 0.008431 0.000000
# 2 -0.000504 0.004490 -0.002820 0.000000 0.003211 0.000000
# 3 -0.001624 -0.002820 0.015549 0.000000 -0.002421 0.000000
# 4 0.000000 0.000000 0.000000 0.053463 0.000000 0.013525
# 5 0.008431 0.003211 -0.002421 0.000000 0.027969 0.000000
# 6 0.000000 0.000000 0.000000 0.013525 0.000000 0.042684
#
#
# Mechanical properties :
#
#
# Convention : Reuss Voigt Hill
#
# Bulk Modulus (GPa) = 48.27347 85.66671 66.97009
# Shear Modulus (GPa) = 29.14931 45.35843 37.25387
#
# Velocity S-wave (km/s) = 3.32428 4.14679 3.75811
# Velocity P-wave (km/s) = 5.74765 7.44346 6.64983
#
# Compressibility (1/GPa) = 0.02071531
#
# Stress axis : x y z
#
# Youngs Moduli (GPa) = 94.58254 222.69698 64.31188
#
# Poissons Ratio (x) = 0.11232 0.10445
# Poissons Ratio (y) = 0.04771 0.18136
# Poissons Ratio (z) = 0.15362 0.62801
#
# Static dielectric constant tensor:
#      x y z
#    x 2.244850 0.000000 0.023440 
#    y 0.000000 1.977380 0.000000 
#    z 0.023440 0.000000 2.215820 
# 
# From -- ./inp_files/51209.got.cif
#   From: 2010.05.17/outbox.cif.g08.bks.cpg/sg10_26_cif.got.tgz:51209.got - 2010.06.03 11:33:40.
