data_PCOD9154776
_publ_section_title
;
Structure prediction by ZEFSAII (Michael W. Deem and Ramdas Pophale) SiO2 
 PCOD9154776
Probable space group: P 2/M
;
_chemical_formula_sum "Si O2"
_cell_formula_units_Z 28
_cell_length_a 14.773330
_cell_length_b 19.347206
_cell_length_c 8.900661
_cell_angle_alpha 90.000000
_cell_angle_beta 31.038824
_cell_angle_gamma 90.000000
_cell_volume 1311.739635
_symmetry_space_group_name_H-M "P 2/M"
_symmetry_group_IT_number 10
_symmetry_cell_setting 'monoclinic'
loop_
_space_group_symop_operation_xyz
x,y,z
-x,y,-z
-x,-y,-z
x,-y,z
loop_
_atom_site_type_symbol
_atom_site_label
_atom_site_fract_x
_atom_site_fract_y
_atom_site_fract_z
Si Si1 0.454833 0.205928 0.403301
Si Si2 0.813573 0.421324 0.176802
Si Si3 0.072337 0.924987 0.634419
Si Si4 0.703475 0.077044 0.976309
Si Si5 0.636631 0.332164 0.678084
Si Si6 0.924519 0.202356 0.967975
Si Si7 0.986044 0.675242 0.695417
O O1 0.500000 0.241073 0.500000
O O2 0.433377 0.261484 0.300698
O O3 0.263956 0.176553 0.715874
O O4 0.581703 0.141975 0.186230
O O5 0.761457 0.500000 0.217456
O O6 0.677296 0.383802 0.482090
O O7 0.000000 0.423571 0.000000
O O8 0.858702 0.377290 0.964263
O O9 0.226617 0.918610 0.293775
O O10 0.884380 0.922150 0.814983
O O11 0.061117 0.858713 0.752444
O O12 0.087007 0.000000 0.687571
O O13 0.623465 0.000000 0.112830
O O14 0.820976 0.324328 0.504116
O O15 0.500000 0.355556 0.000000
O O16 0.914057 0.248203 0.834386
O O17 0.000000 0.247590 0.000000
O O18 0.000000 0.661558 0.500000
#
# Coordination Sequence:
#
# PCOD9154776 Si02
#       7
#     4   4   4   4   4   4   4
#     4  12  24  38  63  94 129 169 216 273 326 382
#     4   9  19  43  71  96 133 173 211 257 312 380
#     4   9  20  38  60  87 122 165 215 267 326 392
#     4   9  20  38  60  90 123 162 214 269 328 393
#     4  11  25  41  63 101 136 166 215 268 320 379
#     4  12  23  40  61  90 130 166 217 274 322 382
#     4  11  24  42  67  96 130 176 219 261 315 384
#
# _framework density 21.345700999999998
#
# number of rings (size 3 to 8) (size 9 to 14) (size 15 to 20)
#    0.000    1.571    4.286    1.286    6.000    1.714 
#    0.000    0.000    0.000    5.143    0.000    0.000 
#    0.000    0.000    0.000    0.000    0.000    0.000 
#
# Total GULP energy -156290.286127 kJ/mol
# GULP energy per Si atom -5581.795933 kJ/mol
# Density = 2.129712 g / cm^3
# Si number density = 21.345701 Si / 1000 Ang^3
#
#
#
# Elastic Constant Matrix: (Units=GPa)
#
#
# Indices 1 2 3 4 5 6 
#
# 1 83.6771 37.6780 34.2828 0.0000 26.8032 0.0000
# 2 37.6780 141.8308 73.3744 0.0000 19.2758 0.0000
# 3 34.2828 73.3744 141.9498 0.0000 24.9973 0.0000
# 4 0.0000 0.0000 0.0000 17.3145 0.0000 -2.6647
# 5 26.8032 19.2758 24.9973 0.0000 34.8708 0.0000
# 6 0.0000 0.0000 0.0000 -2.6647 0.0000 11.2866
#
#
#
# Elastic Compliance Matrix: (Units=1/GPa)
#
#
# Indices 1 2 3 4 5 6 
#
# 1 0.016988 -0.002588 -0.000821 0.000000 -0.011039 0.000000
# 2 -0.002588 0.010143 -0.004556 0.000000 -0.000352 0.000000
# 3 -0.000821 -0.004556 0.010350 0.000000 -0.004270 0.000000
# 4 0.000000 0.000000 0.000000 0.059933 0.000000 0.014150
# 5 -0.011039 -0.000352 -0.004270 0.000000 0.040417 0.000000
# 6 0.000000 0.000000 0.000000 0.014150 0.000000 0.091942
#
#
# Mechanical properties :
#
#
# Convention : Reuss Voigt Hill
#
# Bulk Modulus (GPa) = 46.40184 73.12535 59.76359
# Shear Modulus (GPa) = 19.77169 27.50254 23.63711
#
# Velocity S-wave (km/s) = 3.04676 3.59337 3.33129
# Velocity P-wave (km/s) = 5.84486 7.17972 6.54641
#
# Compressibility (1/GPa) = 0.02155087
#
# Stress axis : x y z
#
# Youngs Moduli (GPa) = 58.86387 98.59112 96.61840
#
# Poissons Ratio (x) = 0.25514 0.07935
# Poissons Ratio (y) = 0.15233 0.44019
# Poissons Ratio (z) = 0.04835 0.44918
#
# Static dielectric constant tensor:
#      x y z
#    x 1.864980 0.000000 -0.013260 
#    y 0.000000 1.782940 0.000000 
#    z -0.013260 0.000000 1.764880 
# 
# From -- ./inp_files/30416.got.cif
#   From: 2010.05.17/outbox.cif.g08.bks.cpg/sg10_16_cif.got.tgz:30416.got - 2010.06.03 11:33:40.
