data_PCOD9154419
_publ_section_title
;
Structure prediction by ZEFSAII (Michael W. Deem and Ramdas Pophale) SiO2 
 PCOD9154419
Probable space group: P 2/M
;
_chemical_formula_sum "Si O2"
_cell_formula_units_Z 28
_cell_length_a 19.331539
_cell_length_b 8.107186
_cell_length_c 15.913831
_cell_angle_alpha 90.000000
_cell_angle_beta 142.164021
_cell_angle_gamma 90.000000
_cell_volume 1529.879706
_symmetry_space_group_name_H-M "P 2/M"
_symmetry_group_IT_number 10
_symmetry_cell_setting 'monoclinic'
loop_
_space_group_symop_operation_xyz
x,y,z
-x,y,-z
-x,-y,-z
x,-y,z
loop_
_atom_site_type_symbol
_atom_site_label
_atom_site_fract_x
_atom_site_fract_y
_atom_site_fract_z
Si Si1 0.153412 0.197412 0.816480
Si Si2 0.494548 0.805628 0.398361
Si Si3 0.896995 0.799288 0.596095
Si Si4 0.727852 0.305303 0.907995
Si Si5 0.136037 0.189948 0.618547
Si Si6 0.872133 0.701672 0.890932
Si Si7 0.738954 0.303154 0.597403
O O1 0.179257 0.264962 0.747593
O O2 0.028432 0.254895 0.725966
O O3 0.143653 0.000000 0.797375
O O4 0.244687 0.232887 0.974874
O O5 0.500000 0.740281 0.500000
O O6 0.394394 0.727433 0.248482
O O7 0.615760 0.775175 0.473113
O O8 0.471292 0.000000 0.380937
O O9 0.847646 0.738825 0.458802
O O10 0.822633 0.739938 0.602014
O O11 0.896364 0.000000 0.594666
O O12 0.744349 0.500000 0.930831
O O13 0.817792 0.240084 0.925685
O O14 0.000000 0.185573 0.500000
O O15 0.176170 0.000000 0.652698
O O16 0.872079 0.500000 0.891883
O O17 0.795543 0.753545 0.739087
O O18 0.000000 0.756136 0.000000
O O19 0.725455 0.500000 0.588449
#
# Coordination Sequence:
#
# PCOD9154419 Si02
#       7
#     4   4   4   4   4   4   4
#     4   9  17  31  52  79 109 140 175 213 255 304
#     4  11  23  39  57  74  97 130 177 225 262 302
#     4   9  17  31  52  79 109 140 175 213 255 304
#     4  11  21  34  53  75 104 138 174 213 257 308
#     4   7  12  26  49  74 103 140 175 207 249 305
#     4   9  18  31  47  70 102 137 166 195 242 305
#     4  11  21  34  53  75 104 138 174 213 257 308
#
# _framework density 18.302091999999998
#
# number of rings (size 3 to 8) (size 9 to 14) (size 15 to 20)
#    0.000    2.429    1.429    3.857    0.000    2.286 
#    0.000    0.714    0.000    6.857    0.000    6.000 
#    0.000    0.000    0.000    0.000    0.000    0.000 
#
# Total GULP energy -156123.097151 kJ/mol
# GULP energy per Si atom -5575.824898 kJ/mol
# Density = 1.826044 g / cm^3
# Si number density = 18.302092 Si / 1000 Ang^3
#
#
#
# Elastic Constant Matrix: (Units=GPa)
#
#
# Indices 1 2 3 4 5 6 
#
# 1 18.2685 -2.3531 18.4421 0.0000 -16.7750 0.0000
# 2 -2.3531 11.8610 -3.0056 0.0000 -4.7038 0.0000
# 3 18.4421 -3.0056 105.8604 0.0000 -18.9392 0.0000
# 4 0.0000 0.0000 0.0000 -3.8159 0.0000 11.5047
# 5 -16.7750 -4.7038 -18.9392 0.0000 36.2348 0.0000
# 6 0.0000 0.0000 0.0000 11.5047 0.0000 6.8960
#
#
#
# Elastic Compliance Matrix: (Units=1/GPa)
#
#
# Indices 1 2 3 4 5 6 
#
# 1 0.123775 0.045031 -0.009914 0.000000 0.057966 0.000000
# 2 0.045031 0.107797 0.001598 0.000000 0.035676 0.000000
# 3 -0.009914 0.001598 0.011511 0.000000 0.001635 0.000000
# 4 0.000000 0.000000 0.000000 -0.043460 0.000000 0.072506
# 5 0.057966 0.035676 0.001635 0.000000 0.059919 0.000000
# 6 0.000000 0.000000 0.000000 0.072506 0.000000 0.024049
#
#
# Mechanical properties :
#
#
# Convention : Reuss Voigt Hill
#
# Bulk Modulus (GPa) = 3.15941 18.01741 10.58841
# Shear Modulus (GPa) = 15.83964 16.05675 15.94820
#
# Velocity S-wave (km/s) = 2.94505 2.96517 2.95513
# Velocity P-wave (km/s) = 3.64616 4.64637 4.17632
#
# Compressibility (1/GPa) = 0.31651436
#
# Stress axis : x y z
#
# Youngs Moduli (GPa) = 8.07920 9.27670 86.87094
#
# Poissons Ratio (x) = -0.41774 0.86123
# Poissons Ratio (y) = -0.36382 -0.13885
# Poissons Ratio (z) = 0.08010 -0.01483
#
# Static dielectric constant tensor:
#      x y z
#    x 1.627370 0.000000 -0.034830 
#    y 0.000000 1.646770 0.000000 
#    z -0.034830 0.000000 1.629740 
# 
# From -- ./inp_files/68704.got.cif
#   From: 2010.05.17/outbox.cif.g08.bks.cpg/sg10_35_cif.got.tgz:68704.got - 2010.06.03 11:33:40.
