data_PCOD9154246
_publ_section_title
;
Structure prediction by ZEFSAII (Michael W. Deem and Ramdas Pophale) SiO2 
 PCOD9154246
Probable space group: P 2/M
;
_chemical_formula_sum "Si O2"
_cell_formula_units_Z 32
_cell_length_a 16.250360
_cell_length_b 9.145772
_cell_length_c 16.250367
_cell_angle_alpha 90.000000
_cell_angle_beta 108.817706
_cell_angle_gamma 90.000000
_cell_volume 2286.072075
_symmetry_space_group_name_H-M "P 2/M"
_symmetry_group_IT_number 10
_symmetry_cell_setting 'monoclinic'
loop_
_space_group_symop_operation_xyz
x,y,z
-x,y,-z
-x,-y,-z
x,-y,z
loop_
_atom_site_type_symbol
_atom_site_label
_atom_site_fract_x
_atom_site_fract_y
_atom_site_fract_z
Si Si1 0.984345 0.667672 0.593871
Si Si2 0.175960 0.675731 0.659121
Si Si3 0.659121 0.675731 0.175960
Si Si4 0.188782 0.173882 0.485704
Si Si5 0.485704 0.173882 0.188781
Si Si6 0.357697 0.673604 0.476813
Si Si7 0.593871 0.667672 0.984345
Si Si8 0.523187 0.673604 0.642303
O O1 0.965145 0.500000 0.611407
O O2 0.901554 0.768370 0.582242
O O3 0.000000 0.668666 0.500000
O O4 0.078614 0.712795 0.658518
O O5 0.175899 0.500000 0.642957
O O6 0.251621 0.707412 0.748379
O O7 0.193317 0.757653 0.579070
O O8 0.642957 0.500000 0.175900
O O9 0.579070 0.757653 0.193316
O O10 0.658518 0.712795 0.078614
O O11 0.271553 0.234729 0.463633
O O12 0.189207 0.000000 0.490393
O O13 0.417758 0.231630 0.098446
O O14 0.463633 0.234729 0.271553
O O15 0.490392 0.000000 0.189208
O O16 0.338434 0.500000 0.475895
O O17 0.429763 0.705984 0.570237
O O18 0.405189 0.700586 0.405189
O O19 0.611407 0.500000 0.965145
O O20 0.500000 0.668667 0.000000
O O21 0.524105 0.500000 0.661566
#
# Coordination Sequence:
#
# PCOD9154246 Si02
#       8
#     4   4   4   4   4   4   4   4
#     4   8  15  28  43  57  76 105 138 169 199 233
#     4   9  17  29  44  60  79 106 140 173 202 235
#     4   9  17  29  44  60  79 106 140 173 202 235
#     4  11  20  27  39  60  85 111 136 164 201 242
#     4  11  20  27  39  60  85 111 136 164 201 242
#     4   9  18  32  47  60  76 103 139 174 204 235
#     4   8  15  28  43  57  76 105 138 169 199 233
#     4   9  18  32  47  60  76 103 139 174 204 235
#
# _framework density 13.997809
#
# number of rings (size 3 to 8) (size 9 to 14) (size 15 to 20)
#    0.000    2.750    0.000    5.250    0.000    9.000 
#    0.000    1.250    0.000    0.000    0.000    0.000 
#    0.000    1.000    0.000   11.500    0.000    3.250 
#
# Total GULP energy -178281.177942 kJ/mol
# GULP energy per Si atom -5571.286811 kJ/mol
# Density = 1.396595 g / cm^3
# Si number density = 13.997809 Si / 1000 Ang^3
#
#
#
# Elastic Constant Matrix: (Units=GPa)
#
#
# Indices 1 2 3 4 5 6 
#
# 1 79.3811 46.7602 33.9583 0.0000 13.3628 0.0000
# 2 46.7602 65.1997 47.2789 0.0000 1.4695 0.0000
# 3 33.9583 47.2789 87.9524 0.0000 10.9405 0.0000
# 4 0.0000 0.0000 0.0000 -1.6696 0.0000 8.3286
# 5 13.3628 1.4695 10.9405 0.0000 18.1987 0.0000
# 6 0.0000 0.0000 0.0000 8.3286 0.0000 -4.6067
#
#
#
# Elastic Compliance Matrix: (Units=1/GPa)
#
#
# Indices 1 2 3 4 5 6 
#
# 1 0.027328 -0.021861 0.003757 0.000000 -0.020560 0.000000
# 2 -0.021861 0.043374 -0.017765 0.000000 0.023229 0.000000
# 3 0.003757 -0.017765 0.021220 0.000000 -0.014081 0.000000
# 4 0.000000 0.000000 0.000000 0.074694 0.000000 0.135042
# 5 -0.020560 0.023229 -0.014081 0.000000 0.076635 0.000000
# 6 0.000000 0.000000 0.000000 0.135042 0.000000 0.027071
#
#
# Mechanical properties :
#
#
# Convention : Reuss Voigt Hill
#
# Bulk Modulus (GPa) = 49.53893 54.28088 51.90991
# Shear Modulus (GPa) = 14.33534 9.35354 11.84444
#
# Velocity S-wave (km/s) = 3.20365 2.58779 2.91205
# Velocity P-wave (km/s) = 7.01084 6.91312 6.96215
#
# Compressibility (1/GPa) = 0.02018614
#
# Stress axis : x y z
#
# Youngs Moduli (GPa) = 36.59199 23.05525 47.12488
#
# Poissons Ratio (x) = 0.50400 -0.17706
# Poissons Ratio (y) = 0.79992 0.83717
# Poissons Ratio (z) = -0.13748 0.40957
#
# Static dielectric constant tensor:
#      x y z
#    x 1.458390 0.000000 0.021940 
#    y 0.000000 1.460360 0.000000 
#    z 0.021940 0.000000 1.466130 
# 
# From -- ./inp_files/66063.got.cif
#   From: 2010.05.17/outbox.cif.g08.bks.cpg/sg10_34_cif.got.tgz:66063.got - 2010.06.03 11:33:40.
