data_PCOD9154655
_publ_section_title
;
Structure prediction by ZEFSAII (Michael W. Deem and Ramdas Pophale) SiO2 
 PCOD9154655
Probable space group: P 2/M
;
_chemical_formula_sum "Si O2"
_cell_formula_units_Z 19
_cell_length_a 12.381909
_cell_length_b 9.858113
_cell_length_c 8.605229
_cell_angle_alpha 90.000000
_cell_angle_beta 102.012216
_cell_angle_gamma 90.000000
_cell_volume 1027.373913
_symmetry_space_group_name_H-M "P 2/M"
_symmetry_group_IT_number 10
_symmetry_cell_setting 'monoclinic'
loop_
_space_group_symop_operation_xyz
x,y,z
-x,y,-z
-x,-y,-z
x,-y,z
loop_
_atom_site_type_symbol
_atom_site_label
_atom_site_fract_x
_atom_site_fract_y
_atom_site_fract_z
Si Si1 0.500000 0.500000 0.500000
Si Si2 0.586387 0.500000 0.166241
Si Si3 0.759863 0.500000 0.675256
Si Si4 0.767440 0.731635 0.179479
Si Si5 0.885850 0.734606 0.531764
Si Si6 0.818452 0.000000 0.034295
Si Si7 0.121741 0.500000 0.968217
Si Si8 0.936228 0.000000 0.745429
O O1 0.536530 0.500000 0.323905
O O2 0.631950 0.500000 0.592188
O O3 0.662741 0.633679 0.168358
O O4 0.500000 0.500000 0.000000
O O5 0.819714 0.629695 0.617463
O O6 0.788210 0.500000 0.866429
O O7 0.810850 0.772330 0.361803
O O8 0.858356 0.633931 0.127154
O O9 0.755826 0.864659 0.070571
O O10 0.917385 0.867008 0.637890
O O11 0.000000 0.673950 0.500000
O O12 0.938553 0.000000 0.154277
O O13 0.850585 0.000000 0.863191
O O14 0.000000 0.500000 0.000000
#
# Coordination Sequence:
#
# PCOD9154655 Si02
#       8
#     1   2   2   4   4   2   2   2
#     4  12  22  44  66 100 124 172 228 280 332 396
#     4  11  25  47  71  95 127 171 230 290 342 383
#     4  12  24  38  65  91 132 164 223 277 324 400
#     4  11  22  41  62  92 131 169 215 265 329 399
#     4  12  21  39  60  96 131 169 206 262 327 392
#     4  11  23  40  60  92 135 175 211 255 326 412
#     4  11  23  37  59  98 129 173 216 275 330 396
#     4  11  24  35  60  93 134 175 207 252 323 397
#
# _framework density 18.493755
#
# number of rings (size 3 to 8) (size 9 to 14) (size 15 to 20)
#    0.000    0.632    4.211    5.684    2.947    0.000 
#    0.000    0.526    0.000    2.526    0.000    0.000 
#    0.000    0.000    0.000    0.000    0.000    0.000 
#
# Total GULP energy -105980.369103 kJ/mol
# GULP energy per Si atom -5577.914163 kJ/mol
# Density = 1.845166 g / cm^3
# Si number density = 18.493755 Si / 1000 Ang^3
#
#
#
# Elastic Constant Matrix: (Units=GPa)
#
#
# Indices 1 2 3 4 5 6 
#
# 1 117.1802 44.4906 39.6215 0.0000 -4.1757 0.0000
# 2 44.4906 112.3185 26.3687 0.0000 -20.6081 0.0000
# 3 39.6215 26.3687 130.2027 0.0000 -1.5066 0.0000
# 4 0.0000 0.0000 0.0000 27.1773 0.0000 -1.6666
# 5 -4.1757 -20.6081 -1.5066 0.0000 39.0942 0.0000
# 6 0.0000 0.0000 0.0000 -1.6666 0.0000 9.7660
#
#
#
# Elastic Compliance Matrix: (Units=1/GPa)
#
#
# Indices 1 2 3 4 5 6 
#
# 1 0.010822 -0.003876 -0.002520 0.000000 -0.000984 0.000000
# 2 -0.003876 0.011758 -0.001135 0.000000 0.005741 0.000000
# 3 -0.002520 -0.001135 0.008671 0.000000 -0.000534 0.000000
# 4 0.000000 0.000000 0.000000 0.037185 0.000000 0.006346
# 5 -0.000984 0.005741 -0.000534 0.000000 0.028480 0.000000
# 6 0.000000 0.000000 0.000000 0.006346 0.000000 0.103478
#
#
# Mechanical properties :
#
#
# Convention : Reuss Voigt Hill
#
# Bulk Modulus (GPa) = 61.76859 64.51812 63.14336
# Shear Modulus (GPa) = 22.63949 31.82221 27.23085
#
# Velocity S-wave (km/s) = 3.50261 4.15263 3.84140
# Velocity P-wave (km/s) = 7.05903 7.61280 7.34114
#
# Compressibility (1/GPa) = 0.01618946
#
# Stress axis : x y z
#
# Youngs Moduli (GPa) = 92.40119 85.04574 115.32851
#
# Poissons Ratio (x) = 0.32963 0.29060
# Poissons Ratio (y) = 0.35814 0.13095
# Poissons Ratio (z) = 0.23283 0.09656
#
# Static dielectric constant tensor:
#      x y z
#    x 1.623610 0.000000 -0.006930 
#    y 0.000000 1.623910 0.000000 
#    z -0.006930 0.000000 1.655510 
# 
# From -- ./inp_files/22252.got.cif
#   From: 2010.05.17/outbox.cif.g08.bks.cpg/sg10_12_cif.got.tgz:22252.got - 2010.06.03 11:33:40.
