data_PCOD9154100
_publ_section_title
;
Structure prediction by ZEFSAII (Michael W. Deem and Ramdas Pophale) SiO2 
 PCOD9154100
Probable space group: P 2/M
;
_chemical_formula_sum "Si O2"
_cell_formula_units_Z 11
_cell_length_a 21.626075
_cell_length_b 5.150179
_cell_length_c 13.103980
_cell_angle_alpha 90.000000
_cell_angle_beta 22.212819
_cell_angle_gamma 90.000000
_cell_volume 551.759869
_symmetry_space_group_name_H-M "P 2/M"
_symmetry_group_IT_number 10
_symmetry_cell_setting 'monoclinic'
loop_
_space_group_symop_operation_xyz
x,y,z
-x,y,-z
-x,-y,-z
x,-y,z
loop_
_atom_site_type_symbol
_atom_site_label
_atom_site_fract_x
_atom_site_fract_y
_atom_site_fract_z
Si Si1 0.500000 0.500000 0.000000
Si Si2 0.935848 0.000000 0.983239
Si Si3 0.805052 0.000000 0.782289
Si Si4 0.347917 0.500000 0.875958
Si Si5 0.723067 0.500000 0.256880
Si Si6 0.266441 0.000000 0.349631
O O1 0.363222 0.735151 0.228787
O O2 0.091306 0.000000 0.671433
O O3 0.824219 0.751018 0.133487
O O4 0.000000 0.000000 0.000000
O O5 0.760609 0.000000 0.731155
O O6 0.000000 0.000000 0.500000
O O7 0.726791 0.749589 0.955020
O O8 0.544254 0.500000 0.581299
O O9 0.302244 0.500000 0.826540
#
# Coordination Sequence:
#
# PCOD9154100 Si02
#       6
#     1   2   2   2   2   2
#     4  10  24  42  64  88 128 170 206 256 308 364
#     4  12  26  43  66  92 127 171 212 259 312 370
#     4  12  24  40  67  98 129 164 206 258 322 378
#     4  11  24  42  68  96 126 167 206 261 319 370
#     4  11  24  44  66  94 129 163 214 261 308 376
#     4  11  24  43  65  94 128 165 211 262 310 373
#
# _framework density 19.936209999999999
#
# number of rings (size 3 to 8) (size 9 to 14) (size 15 to 20)
#    0.000    0.727    0.000    7.636    0.000   11.636 
#    0.000    0.000    0.000    0.000    0.000    0.000 
#    0.000    0.000    0.000    0.000    0.000    0.000 
#
# Total GULP energy -61319.070194 kJ/mol
# GULP energy per Si atom -5574.460927 kJ/mol
# Density = 1.989083 g / cm^3
# Si number density = 19.936210 Si / 1000 Ang^3
#
#
#
# Elastic Constant Matrix: (Units=GPa)
#
#
# Indices 1 2 3 4 5 6 
#
# 1 74.8281 62.5676 74.3241 0.0000 -2.8176 0.0000
# 2 62.5676 274.5807 135.2923 0.0000 -18.7720 0.0000
# 3 74.3241 135.2923 234.3987 0.0000 -16.4297 0.0000
# 4 0.0000 0.0000 0.0000 41.4942 0.0000 -10.4968
# 5 -2.8176 -18.7720 -16.4297 0.0000 35.8882 0.0000
# 6 0.0000 0.0000 0.0000 -10.4968 0.0000 24.3560
#
#
#
# Elastic Compliance Matrix: (Units=1/GPa)
#
#
# Indices 1 2 3 4 5 6 
#
# 1 0.020420 -0.002138 -0.005380 0.000000 -0.001978 0.000000
# 2 -0.002138 0.005378 -0.002315 0.000000 0.001585 0.000000
# 3 -0.005380 -0.002315 0.007432 0.000000 0.001769 0.000000
# 4 0.000000 0.000000 0.000000 0.027049 0.000000 0.011657
# 5 -0.001978 0.001585 0.001769 0.000000 0.029348 0.000000
# 6 0.000000 0.000000 0.000000 0.011657 0.000000 0.046082
#
#
# Mechanical properties :
#
#
# Convention : Reuss Voigt Hill
#
# Bulk Modulus (GPa) = 73.71564 125.35283 99.53424
# Shear Modulus (GPa) = 31.27015 41.12259 36.19637
#
# Velocity S-wave (km/s) = 3.96474 4.54663 4.26562
# Velocity P-wave (km/s) = 7.61675 9.51714 8.61948
#
# Compressibility (1/GPa) = 0.01356564
#
# Stress axis : x y z
#
# Youngs Moduli (GPa) = 48.97059 185.93607 134.54455
#
# Poissons Ratio (x) = 0.39745 0.72383
# Poissons Ratio (y) = 0.10468 0.31151
# Poissons Ratio (z) = 0.26345 0.43050
#
# Static dielectric constant tensor:
#      x y z
#    x 1.641320 0.000000 -0.002650 
#    y 0.000000 1.643920 0.000000 
#    z -0.002650 0.000000 1.669760 
# 
# From -- ./inp_files/26428.got.cif
#   From: 2010.05.17/outbox.cif.g08.bks.cpg/sg10_14_cif.got.tgz:26428.got - 2010.06.03 11:33:40.
