data_PCOD9154773
_publ_section_title
;
Structure prediction by ZEFSAII (Michael W. Deem and Ramdas Pophale) SiO2 
 PCOD9154773
Probable space group: P 2/M
;
_chemical_formula_sum "Si O2"
_cell_formula_units_Z 24
_cell_length_a 17.277204
_cell_length_b 17.799109
_cell_length_c 10.288564
_cell_angle_alpha 90.000000
_cell_angle_beta 25.935953
_cell_angle_gamma 90.000000
_cell_volume 1383.794748
_symmetry_space_group_name_H-M "P 2/M"
_symmetry_group_IT_number 10
_symmetry_cell_setting 'monoclinic'
loop_
_space_group_symop_operation_xyz
x,y,z
-x,y,-z
-x,-y,-z
x,-y,z
loop_
_atom_site_type_symbol
_atom_site_label
_atom_site_fract_x
_atom_site_fract_y
_atom_site_fract_z
Si Si1 0.209218 0.807130 0.693208
Si Si2 0.796795 0.207558 0.812271
Si Si3 0.703230 0.292436 0.687939
Si Si4 0.993251 0.587888 0.166435
Si Si5 0.290818 0.307135 0.806448
Si Si6 0.506691 0.087897 0.333655
O O1 0.271700 0.766269 0.467733
O O2 0.250143 0.749924 0.749512
O O3 0.325200 0.880409 0.547314
O O4 0.000000 0.820990 0.000000
O O5 0.749962 0.250095 0.750281
O O6 0.000000 0.182262 0.500000
O O7 0.771860 0.266093 0.967998
O O8 0.663487 0.139222 0.040523
O O9 0.836505 0.360751 0.459472
O O10 0.500000 0.317717 0.000000
O O11 0.968285 0.500000 0.230326
O O12 0.000000 0.598831 0.000000
O O13 0.174783 0.619569 0.952668
O O14 0.500000 0.321020 0.500000
O O15 0.500000 0.098878 0.500000
O O16 0.531582 0.000000 0.269939
#
# Coordination Sequence:
#
# PCOD9154773 Si02
#       6
#     4   4   4   4   4   4
#     4  12  20  39  66  90 118 164 214 245 292 373
#     4  12  22  37  64  94 119 161 204 252 304 366
#     4  12  22  37  64  94 119 161 204 252 304 366
#     4  11  24  42  63  93 127 160 206 262 308 356
#     4  12  20  39  66  90 118 164 214 245 292 373
#     4  11  24  42  63  93 127 160 206 262 308 356
#
# _framework density 17.343613999999999
#
# number of rings (size 3 to 8) (size 9 to 14) (size 15 to 20)
#    0.000    0.333   10.000    0.000    0.000    1.333 
#    0.000    3.333    0.000    0.000    0.000    0.000 
#    0.000    0.000    0.000    0.000    0.000    0.000 
#
# Total GULP energy -134150.419100 kJ/mol
# GULP energy per Si atom -5589.600796 kJ/mol
# Density = 1.730414 g / cm^3
# Si number density = 17.343614 Si / 1000 Ang^3
#
#
#
# Elastic Constant Matrix: (Units=GPa)
#
#
# Indices 1 2 3 4 5 6 
#
# 1 133.6916 71.5397 69.7465 0.0000 0.5390 0.0000
# 2 71.5397 143.8768 75.0579 0.0000 -3.1582 0.0000
# 3 69.7465 75.0579 152.9250 0.0000 -26.8834 0.0000
# 4 0.0000 0.0000 0.0000 24.7646 0.0000 -4.6591
# 5 0.5390 -3.1582 -26.8834 0.0000 52.4772 0.0000
# 6 0.0000 0.0000 0.0000 -4.6591 0.0000 28.0917
#
#
#
# Elastic Compliance Matrix: (Units=1/GPa)
#
#
# Indices 1 2 3 4 5 6 
#
# 1 0.011490 -0.003791 -0.003781 0.000000 -0.002283 0.000000
# 2 -0.003791 0.010781 -0.003782 0.000000 -0.001250 0.000000
# 3 -0.003781 -0.003782 0.011085 0.000000 0.005490 0.000000
# 4 0.000000 0.000000 0.000000 0.041681 0.000000 0.006913
# 5 -0.002283 -0.001250 0.005490 0.000000 0.021817 0.000000
# 6 0.000000 0.000000 0.000000 0.006913 0.000000 0.036744
#
#
# Mechanical properties :
#
#
# Convention : Reuss Voigt Hill
#
# Bulk Modulus (GPa) = 93.91644 95.90908 94.91276
# Shear Modulus (GPa) = 31.27810 35.34331 33.31071
#
# Velocity S-wave (km/s) = 4.25130 4.51913 4.38726
# Velocity P-wave (km/s) = 8.85246 9.09117 8.97261
#
# Compressibility (1/GPa) = 0.01064776
#
# Stress axis : x y z
#
# Youngs Moduli (GPa) = 87.02978 92.75582 90.20948
#
# Poissons Ratio (x) = 0.35162 0.34112
# Poissons Ratio (y) = 0.32991 0.34120
# Poissons Ratio (z) = 0.32909 0.35083
#
# Static dielectric constant tensor:
#      x y z
#    x 1.586640 0.000000 -0.006180 
#    y 0.000000 1.549720 0.000000 
#    z -0.006180 0.000000 1.590180 
# 
# From -- ./inp_files/30035.got.cif
#   From: 2010.05.17/outbox.cif.g08.bks.cpg/sg10_16_cif.got.tgz:30035.got - 2010.06.03 11:33:40.
