data_PCOD9154470
_publ_section_title
;
Structure prediction by ZEFSAII (Michael W. Deem and Ramdas Pophale) SiO2 
 PCOD9154470
Probable space group: P 2/M
;
_chemical_formula_sum "Si O2"
_cell_formula_units_Z 28
_cell_length_a 17.052717
_cell_length_b 7.829417
_cell_length_c 19.594765
_cell_angle_alpha 90.000000
_cell_angle_beta 31.076823
_cell_angle_gamma 90.000000
_cell_volume 1350.423724
_symmetry_space_group_name_H-M "P 2/M"
_symmetry_group_IT_number 10
_symmetry_cell_setting 'monoclinic'
loop_
_space_group_symop_operation_xyz
x,y,z
-x,y,-z
-x,-y,-z
x,-y,z
loop_
_atom_site_type_symbol
_atom_site_label
_atom_site_fract_x
_atom_site_fract_y
_atom_site_fract_z
Si Si1 0.163779 0.208897 0.405470
Si Si2 0.582414 0.696909 0.269848
Si Si3 0.241203 0.801210 0.500537
Si Si4 0.537052 0.208865 0.896359
Si Si5 0.702174 0.197851 0.038502
Si Si6 0.142521 0.708735 0.846653
Si Si7 0.962966 0.301211 0.222610
O O1 0.200485 0.265799 0.455305
O O2 0.299763 0.262498 0.254154
O O3 0.000000 0.263665 0.500000
O O4 0.164767 0.000000 0.405601
O O5 0.549231 0.500000 0.311513
O O6 0.420674 0.784664 0.380100
O O7 0.672455 0.706074 0.131227
O O8 0.698659 0.768458 0.239478
O O9 0.147071 0.716226 0.631230
O O10 0.199077 0.000000 0.532904
O O11 0.408671 0.262012 0.938158
O O12 0.535935 0.000000 0.898592
O O13 0.500000 0.268219 0.000000
O O14 0.662465 0.000000 0.081357
O O15 0.876417 0.210275 0.886757
O O16 0.146956 0.500000 0.845685
O O17 0.114011 0.761948 0.790169
O O18 0.000000 0.761829 0.000000
O O19 0.999219 0.500000 0.184821
#
# Coordination Sequence:
#
# PCOD9154470 Si02
#       7
#     4   4   4   4   4   4   4
#     4   9  18  33  55  82 114 153 192 232 280 341
#     4  11  21  38  64  86 113 158 199 235 285 348
#     4  11  23  40  59  87 122 152 192 244 295 342
#     4   9  18  32  54  85 116 148 191 236 279 339
#     4  11  21  36  59  90 121 151 191 243 295 339
#     4   9  18  36  60  85 112 150 199 239 276 343
#     4  11  23  40  61  86 116 154 200 240 285 349
#
# _framework density 20.734233
#
# number of rings (size 3 to 8) (size 9 to 14) (size 15 to 20)
#    0.000    1.857    2.857    1.714    2.000    0.571 
#    0.000    6.429    0.000    5.143    0.000    0.000 
#    0.000    0.000    0.000    0.000    0.000    0.000 
#
# Total GULP energy -156448.316045 kJ/mol
# GULP energy per Si atom -5587.439859 kJ/mol
# Density = 2.068704 g / cm^3
# Si number density = 20.734233 Si / 1000 Ang^3
#
#
#
# Elastic Constant Matrix: (Units=GPa)
#
#
# Indices 1 2 3 4 5 6 
#
# 1 175.3327 3.3472 97.5052 0.0000 -14.1954 0.0000
# 2 3.3472 28.6913 -8.0996 0.0000 0.4916 0.0000
# 3 97.5052 -8.0996 147.9990 0.0000 -1.2075 0.0000
# 4 0.0000 0.0000 0.0000 25.9260 0.0000 -0.5044
# 5 -14.1954 0.4916 -1.2075 0.0000 39.6310 0.0000
# 6 0.0000 0.0000 0.0000 -0.5044 0.0000 11.1911
#
#
#
# Elastic Compliance Matrix: (Units=1/GPa)
#
#
# Indices 1 2 3 4 5 6 
#
# 1 0.009634 -0.003011 -0.006485 0.000000 0.003290 0.000000
# 2 -0.003011 0.036348 0.003961 0.000000 -0.001409 0.000000
# 3 -0.006485 0.003961 0.011229 0.000000 -0.002030 0.000000
# 4 0.000000 0.000000 0.000000 0.038605 0.000000 0.001740
# 5 0.003290 -0.001409 -0.002030 0.000000 0.026367 0.000000
# 6 0.000000 0.000000 0.000000 0.001740 0.000000 0.089435
#
#
# Mechanical properties :
#
#
# Convention : Reuss Voigt Hill
#
# Bulk Modulus (GPa) = 21.67229 59.72540 40.69885
# Shear Modulus (GPa) = 21.00248 32.63430 26.81839
#
# Velocity S-wave (km/s) = 3.18612 3.97159 3.60034
# Velocity P-wave (km/s) = 4.90003 7.06393 6.07904
#
# Compressibility (1/GPa) = 0.04614186
#
# Stress axis : x y z
#
# Youngs Moduli (GPa) = 103.80316 27.51218 89.05219
#
# Poissons Ratio (x) = 0.08284 0.57748
# Poissons Ratio (y) = 0.31255 -0.35277
# Poissons Ratio (z) = 0.67314 -0.10899
#
# Static dielectric constant tensor:
#      x y z
#    x 1.728710 0.000000 -0.004550 
#    y 0.000000 1.761550 0.000000 
#    z -0.004550 0.000000 1.682060 
# 
# From -- ./inp_files/85605.got.cif
#   From: 2010.05.17/outbox.cif.g08.bks.cpg/sg10_43_cif.got.tgz:85605.got - 2010.06.03 11:33:40.
