data_PCOD9154546
_publ_section_title
;
Structure prediction by ZEFSAII (Michael W. Deem and Ramdas Pophale) SiO2 
 PCOD9154546
Probable space group: P 2/M
;
_chemical_formula_sum "Si O2"
_cell_formula_units_Z 28
_cell_length_a 14.644840
_cell_length_b 9.665610
_cell_length_c 11.962873
_cell_angle_alpha 90.000000
_cell_angle_beta 129.286263
_cell_angle_gamma 90.000000
_cell_volume 1310.647453
_symmetry_space_group_name_H-M "P 2/M"
_symmetry_group_IT_number 10
_symmetry_cell_setting 'monoclinic'
loop_
_space_group_symop_operation_xyz
x,y,z
-x,y,-z
-x,-y,-z
x,-y,z
loop_
_atom_site_type_symbol
_atom_site_label
_atom_site_fract_x
_atom_site_fract_y
_atom_site_fract_z
Si Si1 0.946961 0.847028 0.752597
Si Si2 0.873234 0.340786 0.999080
Si Si3 0.105597 0.843694 0.656079
Si Si4 0.341050 0.337444 0.314176
Si Si5 0.708229 0.340542 0.093545
Si Si6 0.681150 0.165056 0.487024
Si Si7 0.493207 0.338441 0.776933
O O1 0.821516 0.806860 0.602230
O O2 0.009854 0.743667 0.885476
O O3 0.041438 0.857009 0.725724
O O4 0.931155 0.000000 0.790540
O O5 0.901311 0.500000 0.001762
O O6 0.791375 0.338481 0.047358
O O7 0.786062 0.294042 0.833418
O O8 0.223357 0.755498 0.765799
O O9 0.000000 0.780691 0.500000
O O10 0.131428 0.000000 0.633380
O O11 0.338865 0.500000 0.348243
O O12 0.366986 0.237654 0.437144
O O13 0.427255 0.330927 0.274553
O O14 0.701342 0.500000 0.126300
O O15 0.579576 0.299117 0.946493
O O16 0.615833 0.239375 0.333776
O O17 0.662163 0.000000 0.471401
O O18 0.460011 0.500000 0.764839
#
# Coordination Sequence:
#
# PCOD9154546 Si02
#       7
#     4   4   4   4   4   4   4
#     4   9  19  33  45  64  96 124 146 182 232 276
#     4   8  15  29  48  67  87 116 154 190 225 270
#     4   9  17  31  53  76  94 115 145 181 224 277
#     4   9  18  32  48  66  89 119 158 200 232 258
#     4   8  15  29  49  72  94 115 144 186 231 267
#     4  11  22  31  42  64  94 126 157 190 227 267
#     4   9  18  33  50  66  89 123 160 194 225 259
#
# _framework density 21.363488
#
# number of rings (size 3 to 8) (size 9 to 14) (size 15 to 20)
#    0.000    3.000    0.000    2.571    0.000    5.429 
#    0.000    5.714    0.000    0.857    0.000    6.000 
#    0.000    0.000    0.000    0.000    0.000    0.000 
#
# Total GULP energy -156219.486621 kJ/mol
# GULP energy per Si atom -5579.267379 kJ/mol
# Density = 2.131486 g / cm^3
# Si number density = 21.363488 Si / 1000 Ang^3
#
#
#
# Elastic Constant Matrix: (Units=GPa)
#
#
# Indices 1 2 3 4 5 6 
#
# 1 61.2695 7.5094 11.8382 0.0000 5.0789 0.0000
# 2 7.5094 75.5078 105.7719 0.0000 21.6850 0.0000
# 3 11.8382 105.7719 210.2149 0.0000 34.3621 0.0000
# 4 0.0000 0.0000 0.0000 39.5330 0.0000 7.3240
# 5 5.0789 21.6850 34.3621 0.0000 27.8301 0.0000
# 6 0.0000 0.0000 0.0000 7.3240 0.0000 5.6255
#
#
#
# Elastic Compliance Matrix: (Units=1/GPa)
#
#
# Indices 1 2 3 4 5 6 
#
# 1 0.016634 -0.000723 -0.000212 0.000000 -0.002211 0.000000
# 2 -0.000723 0.046722 -0.021973 0.000000 -0.009142 0.000000
# 3 -0.000212 -0.021973 0.016312 0.000000 -0.002981 0.000000
# 4 0.000000 0.000000 0.000000 0.033336 0.000000 -0.043401
# 5 -0.002211 -0.009142 -0.002981 0.000000 0.047140 0.000000
# 6 0.000000 0.000000 0.000000 -0.043401 0.000000 0.234266
#
#
# Mechanical properties :
#
#
# Convention : Reuss Voigt Hill
#
# Bulk Modulus (GPa) = 29.53999 66.35905 47.94952
# Shear Modulus (GPa) = 11.07397 29.38923 20.23160
#
# Velocity S-wave (km/s) = 2.27922 3.71303 3.08070
# Velocity P-wave (km/s) = 4.55893 7.03644 5.92855
#
# Compressibility (1/GPa) = 0.03385241
#
# Stress axis : x y z
#
# Youngs Moduli (GPa) = 60.11745 21.40340 61.30332
#
# Poissons Ratio (x) = 0.01547 0.01297
# Poissons Ratio (y) = 0.04346 1.34704
# Poissons Ratio (z) = 0.01272 0.47030
#
# Static dielectric constant tensor:
#      x y z
#    x 1.854830 0.000000 0.000970 
#    y 0.000000 1.742510 0.000000 
#    z 0.000970 0.000000 1.791870 
# 
# From -- ./inp_files/54700.got.cif
#   From: 2010.05.17/outbox.cif.g08.bks.cpg/sg10_28_cif.got.tgz:54700.got - 2010.06.03 11:33:40.
