data_PCOD9154235
_publ_section_title
;
Structure prediction by ZEFSAII (Michael W. Deem and Ramdas Pophale) SiO2 
 PCOD9154235
Probable space group: P 2/M
;
_chemical_formula_sum "Si O2"
_cell_formula_units_Z 24
_cell_length_a 9.328110
_cell_length_b 14.869494
_cell_length_c 8.002039
_cell_angle_alpha 90.000000
_cell_angle_beta 84.298706
_cell_angle_gamma 90.000000
_cell_volume 1104.426626
_symmetry_space_group_name_H-M "P 2/M"
_symmetry_group_IT_number 10
_symmetry_cell_setting 'monoclinic'
loop_
_space_group_symop_operation_xyz
x,y,z
-x,y,-z
-x,-y,-z
x,-y,z
loop_
_atom_site_type_symbol
_atom_site_label
_atom_site_fract_x
_atom_site_fract_y
_atom_site_fract_z
Si Si1 0.607660 0.400666 0.334073
Si Si2 0.951955 0.824046 0.335308
Si Si3 0.897066 0.641898 0.225734
Si Si4 0.563247 0.247964 0.820043
Si Si5 0.753808 0.102583 0.620190
Si Si6 0.207256 0.402492 0.132642
O O1 0.500000 0.401494 0.500000
O O2 0.597530 0.500000 0.254594
O O3 0.772410 0.384561 0.368207
O O4 0.561400 0.312790 0.236755
O O5 0.911552 0.749667 0.208442
O O6 0.817435 0.879491 0.425340
O O7 0.000000 0.770516 0.500000
O O8 0.097668 0.880528 0.288803
O O9 0.054581 0.605508 0.242302
O O10 0.838230 0.604504 0.056751
O O11 0.632213 0.172672 0.691785
O O12 0.690422 0.319857 0.838697
O O13 0.500000 0.208926 0.000000
O O14 0.707441 0.000000 0.641936
O O15 0.273760 0.500000 0.159135
#
# Coordination Sequence:
#
# PCOD9154235 Si02
#       6
#     4   4   4   4   4   4
#     4  11  24  38  56  87 126 162 194 240 295 351
#     4   8  17  34  62  88 109 147 190 244 300 352
#     4  11  19  35  58  86 119 151 201 237 286 346
#     4  12  23  39  60  86 118 164 200 246 295 357
#     4   9  19  38  63  88 110 147 199 246 307 360
#     4  11  22  36  58  85 119 163 205 243 283 344
#
# _framework density 21.730730999999999
#
# number of rings (size 3 to 8) (size 9 to 14) (size 15 to 20)
#    1.000    0.500    3.333    4.500    0.000    1.000 
#    0.000    0.000    0.000   16.000    0.000    0.000 
#    0.000    0.000    0.000    0.000    0.000    0.000 
#
# Total GULP energy -133753.757202 kJ/mol
# GULP energy per Si atom -5573.073217 kJ/mol
# Density = 2.168127 g / cm^3
# Si number density = 21.730731 Si / 1000 Ang^3
#
#
#
# Elastic Constant Matrix: (Units=GPa)
#
#
# Indices 1 2 3 4 5 6 
#
# 1 88.5877 17.7681 15.6718 0.0000 -26.9118 0.0000
# 2 17.7681 141.2719 15.1708 0.0000 -6.7264 0.0000
# 3 15.6718 15.1708 27.8567 0.0000 -19.4584 0.0000
# 4 0.0000 0.0000 0.0000 20.3796 0.0000 -4.6349
# 5 -26.9118 -6.7264 -19.4584 0.0000 30.4743 0.0000
# 6 0.0000 0.0000 0.0000 -4.6349 0.0000 9.5682
#
#
#
# Elastic Compliance Matrix: (Units=1/GPa)
#
#
# Indices 1 2 3 4 5 6 
#
# 1 0.015769 -0.001539 0.002629 0.000000 0.015265 0.000000
# 2 -0.001539 0.007719 -0.005591 0.000000 -0.003225 0.000000
# 3 0.002629 -0.005591 0.068997 0.000000 0.045144 0.000000
# 4 0.000000 0.000000 0.000000 0.055144 0.000000 0.026712
# 5 0.015265 -0.003225 0.045144 0.000000 0.074408 0.000000
# 6 0.000000 0.000000 0.000000 0.026712 0.000000 0.117452
#
#
# Mechanical properties :
#
#
# Convention : Reuss Voigt Hill
#
# Bulk Modulus (GPa) = 11.97820 39.43753 25.70787
# Shear Modulus (GPa) = 13.28663 26.02480 19.65571
#
# Velocity S-wave (km/s) = 2.47538 3.46439 3.01077
# Velocity P-wave (km/s) = 3.70055 5.84725 4.89308
#
# Compressibility (1/GPa) = 0.08348499
#
# Stress axis : x y z
#
# Youngs Moduli (GPa) = 63.41552 129.55196 14.49331
#
# Poissons Ratio (x) = 0.19936 -0.03811
# Poissons Ratio (y) = 0.09759 0.08103
# Poissons Ratio (z) = -0.16674 0.72428
#
# Static dielectric constant tensor:
#      x y z
#    x 1.825910 0.000000 -0.013940 
#    y 0.000000 1.775970 0.000000 
#    z -0.013940 0.000000 1.860920 
# 
# From -- ./inp_files/18753.got.cif
#   From: 2010.05.17/outbox.cif.g08.bks.cpg/sg10_10_cif.got.tgz:18753.got - 2010.06.03 11:33:40.
