data_PCOD9154001
_publ_section_title
;
Structure prediction by ZEFSAII (Michael W. Deem and Ramdas Pophale) SiO2 
 PCOD9154001
Probable space group: P 2/M
;
_chemical_formula_sum "Si O2"
_cell_formula_units_Z 20
_cell_length_a 9.875471
_cell_length_b 7.791225
_cell_length_c 13.226254
_cell_angle_alpha 90.000000
_cell_angle_beta 105.257253
_cell_angle_gamma 90.000000
_cell_volume 981.786418
_symmetry_space_group_name_H-M "P 2/M"
_symmetry_group_IT_number 10
_symmetry_cell_setting 'monoclinic'
loop_
_space_group_symop_operation_xyz
x,y,z
-x,y,-z
-x,-y,-z
x,-y,z
loop_
_atom_site_type_symbol
_atom_site_label
_atom_site_fract_x
_atom_site_fract_y
_atom_site_fract_z
Si Si1 0.346403 0.708090 0.007347
Si Si2 0.779066 0.807889 0.805230
Si Si3 0.342156 0.500000 0.346466
Si Si4 0.330386 0.500000 0.585749
Si Si5 0.920661 0.293100 0.177717
Si Si6 0.874561 0.802008 0.396894
O O1 0.345584 0.500000 0.016003
O O2 0.305311 0.781529 0.107892
O O3 0.500000 0.760916 0.000000
O O4 0.224585 0.756237 0.904387
O O5 0.728750 0.666668 0.715780
O O6 0.944039 0.773950 0.855433
O O7 0.759150 0.000000 0.762756
O O8 0.324611 0.500000 0.463139
O O9 0.506976 0.500000 0.352184
O O10 0.249997 0.667428 0.610172
O O11 0.927046 0.500000 0.182813
O O12 0.926699 0.222286 0.292541
O O13 0.000000 0.762307 0.500000
O O14 0.832364 0.000000 0.404511
#
# Coordination Sequence:
#
# PCOD9154001 Si02
#       6
#     4   4   2   2   4   4
#     4  10  23  42  68  99 134 175 222 272 329 399
#     4  12  25  43  69  97 134 176 221 274 333 395
#     4  11  26  46  67  97 132 176 229 269 334 401
#     4  11  25  44  69  94 134 181 218 279 337 386
#     4  11  22  40  69  98 135 180 223 272 330 394
#     4  11  24  41  68 103 135 172 226 276 327 393
#
# _framework density 20.371032
#
# number of rings (size 3 to 8) (size 9 to 14) (size 15 to 20)
#    0.000    1.000    3.000    2.700    2.800    7.600 
#    0.000    2.000    0.000    0.000    0.000    0.000 
#    0.000    0.000    0.000    0.000    0.000    0.000 
#
# Total GULP energy -111943.170583 kJ/mol
# GULP energy per Si atom -5597.158529 kJ/mol
# Density = 2.032467 g / cm^3
# Si number density = 20.371032 Si / 1000 Ang^3
#
#
#
# Elastic Constant Matrix: (Units=GPa)
#
#
# Indices 1 2 3 4 5 6 
#
# 1 156.5735 44.6019 25.1100 0.0000 -2.0229 0.0000
# 2 44.6019 107.6746 15.8486 0.0000 10.6862 0.0000
# 3 25.1100 15.8486 52.1774 0.0000 6.7099 0.0000
# 4 0.0000 0.0000 0.0000 -12.6937 0.0000 -6.8795
# 5 -2.0229 10.6862 6.7099 0.0000 29.0204 0.0000
# 6 0.0000 0.0000 0.0000 -6.8795 0.0000 -6.0466
#
#
#
# Elastic Compliance Matrix: (Units=1/GPa)
#
#
# Indices 1 2 3 4 5 6 
#
# 1 0.007773 -0.002993 -0.003136 0.000000 0.002369 0.000000
# 2 -0.002993 0.011132 -0.001429 0.000000 -0.003977 0.000000
# 3 -0.003136 -0.001429 0.021715 0.000000 -0.004713 0.000000
# 4 0.000000 0.000000 0.000000 -0.205478 0.000000 0.233779
# 5 0.002369 -0.003977 -0.004713 0.000000 0.037178 0.000000
# 6 0.000000 0.000000 0.000000 0.233779 0.000000 -0.431359
#
#
# Mechanical properties :
#
#
# Convention : Reuss Voigt Hill
#
# Bulk Modulus (GPa) = 39.21188 54.17181 46.69184
# Shear Modulus (GPa) = -9.33847 17.44702 4.05427
#
# Velocity S-wave (km/s) = -2.14340 2.92971 1.41228
# Velocity P-wave (km/s) = 3.62838 6.17208 5.06259
#
# Compressibility (1/GPa) = 0.02550248
#
# Stress axis : x y z
#
# Youngs Moduli (GPa) = 128.65009 89.82876 46.05134
#
# Poissons Ratio (x) = 0.26889 0.14442
# Poissons Ratio (y) = 0.38509 0.06582
# Poissons Ratio (z) = 0.40347 0.12840
#
# Static dielectric constant tensor:
#      x y z
#    x 1.708820 0.000000 0.004960 
#    y 0.000000 1.719660 0.000000 
#    z 0.004960 0.000000 1.685110 
# 
# From -- ./inp_files/36635.got.cif
#   From: 2010.05.17/outbox.cif.g08.bks.cpg/sg10_19_cif.got.tgz:36635.got - 2010.06.03 11:33:40.
