data_PCOD9154010
_publ_section_title
;
Structure prediction by ZEFSAII (Michael W. Deem and Ramdas Pophale) SiO2 
 PCOD9154010
Probable space group: P 2/M
;
_chemical_formula_sum "Si O2"
_cell_formula_units_Z 21
_cell_length_a 7.123011
_cell_length_b 7.338971
_cell_length_c 15.401245
_cell_angle_alpha 90.000000
_cell_angle_beta 72.571372
_cell_angle_gamma 90.000000
_cell_volume 768.146969
_symmetry_space_group_name_H-M "P 2/M"
_symmetry_group_IT_number 10
_symmetry_cell_setting 'monoclinic'
loop_
_space_group_symop_operation_xyz
x,y,z
-x,y,-z
-x,-y,-z
x,-y,z
loop_
_atom_site_type_symbol
_atom_site_label
_atom_site_fract_x
_atom_site_fract_y
_atom_site_fract_z
Si Si1 0.778993 0.709974 0.182278
Si Si2 0.751628 0.779891 0.377326
Si Si3 0.811081 0.278576 0.932928
Si Si4 0.288996 0.783663 0.431033
Si Si5 0.661108 0.283090 0.764947
Si Si6 0.500000 0.000000 0.000000
O O1 0.755326 0.500000 0.159748
O O2 0.843597 0.711093 0.275150
O O3 0.561493 0.792843 0.212033
O O4 0.959924 0.774081 0.099293
O O5 0.519131 0.726639 0.402852
O O6 0.811194 0.716232 0.466032
O O7 0.766305 0.000000 0.371366
O O8 0.793127 0.500000 0.945305
O O9 0.746719 0.219331 0.843689
O O10 0.657672 0.161786 0.007933
O O11 0.225988 0.752901 0.340739
O O12 0.286621 0.000000 0.441594
O O13 0.652670 0.500000 0.771823
#
# Coordination Sequence:
#
# PCOD9154010 Si02
#       6
#     4   4   4   4   4   1
#     4   9  18  34  57  82 112 152 188 226 278 325
#     4   8  14  25  44  74 112 151 190 231 268 308
#     4  10  23  43  62  87 118 140 180 238 279 341
#     4   8  14  25  44  74 112 151 190 231 268 308
#     4   9  18  34  57  82 112 152 188 226 278 325
#     4  12  26  44  70  90 106 150 182 212 306 366
#
# _framework density 27.338518000000001
#
# number of rings (size 3 to 8) (size 9 to 14) (size 15 to 20)
#    0.000    3.048    0.000    1.429    2.667    0.762 
#    0.000    6.667    0.000   10.286    0.000    0.000 
#    0.000    0.000    0.000    0.000    0.000    0.000 
#
# Total GULP energy -117126.699316 kJ/mol
# GULP energy per Si atom -5577.461872 kJ/mol
# Density = 2.727629 g / cm^3
# Si number density = 27.338518 Si / 1000 Ang^3
#
#
#
# Elastic Constant Matrix: (Units=GPa)
#
#
# Indices 1 2 3 4 5 6 
#
# 1 103.7957 13.9556 38.2699 0.0000 -9.4836 0.0000
# 2 13.9556 123.1247 -12.5483 0.0000 -13.4289 0.0000
# 3 38.2699 -12.5483 179.5310 0.0000 1.9429 0.0000
# 4 0.0000 0.0000 0.0000 19.3675 0.0000 -9.7945
# 5 -9.4836 -13.4289 1.9429 0.0000 56.9480 0.0000
# 6 0.0000 0.0000 0.0000 -9.7945 0.0000 -28.9056
#
#
#
# Elastic Compliance Matrix: (Units=1/GPa)
#
#
# Indices 1 2 3 4 5 6 
#
# 1 0.010846 -0.001304 -0.002420 0.000000 0.001581 0.000000
# 2 -0.001304 0.008550 0.000856 0.000000 0.001770 0.000000
# 3 -0.002420 0.000856 0.006150 0.000000 -0.000411 0.000000
# 4 0.000000 0.000000 0.000000 0.044079 0.000000 -0.014936
# 5 0.001581 0.001770 -0.000411 0.000000 0.018255 0.000000
# 6 0.000000 0.000000 0.000000 -0.014936 0.000000 -0.029534
#
#
# Mechanical properties :
#
#
# Convention : Reuss Voigt Hill
#
# Bulk Modulus (GPa) = 50.47573 53.97841 52.22707
# Shear Modulus (GPa) = 70.73595 33.93357 52.33476
#
# Velocity S-wave (km/s) = 5.09218 3.52694 4.38004
# Velocity P-wave (km/s) = 7.28540 6.03101 6.68768
#
# Compressibility (1/GPa) = 0.01981150
#
# Stress axis : x y z
#
# Youngs Moduli (GPa) = 92.19596 116.96038 162.59368
#
# Poissons Ratio (x) = 0.15247 0.39353
# Poissons Ratio (y) = 0.12018 -0.13923
# Poissons Ratio (z) = 0.22314 -0.10016
#
# Static dielectric constant tensor:
#      x y z
#    x 2.218230 0.000000 0.050820 
#    y 0.000000 2.073840 0.000000 
#    z 0.050820 0.000000 2.265920 
# 
# From -- ./inp_files/74149.got.cif
#   From: 2010.05.17/outbox.cif.g08.bks.cpg/sg10_38_cif.got.tgz:74149.got - 2010.06.03 11:33:40.
