data_PCOD9154434
_publ_section_title
;
Structure prediction by ZEFSAII (Michael W. Deem and Ramdas Pophale) SiO2 
 PCOD9154434
Probable space group: P 2/M
;
_chemical_formula_sum "Si O2"
_cell_formula_units_Z 24
_cell_length_a 15.258613
_cell_length_b 13.548737
_cell_length_c 12.647211
_cell_angle_alpha 90.000000
_cell_angle_beta 30.056307
_cell_angle_gamma 90.000000
_cell_volume 1309.534788
_symmetry_space_group_name_H-M "P 2/M"
_symmetry_group_IT_number 10
_symmetry_cell_setting 'monoclinic'
loop_
_space_group_symop_operation_xyz
x,y,z
-x,y,-z
-x,-y,-z
x,-y,z
loop_
_atom_site_type_symbol
_atom_site_label
_atom_site_fract_x
_atom_site_fract_y
_atom_site_fract_z
Si Si1 0.235391 0.887281 0.362030
Si Si2 0.813584 0.112219 0.829560
Si Si3 0.314652 0.256850 0.854271
Si Si4 0.788873 0.887239 0.225219
Si Si5 0.305033 0.239080 0.483189
Si Si6 0.998382 0.615005 0.128712
O O1 0.259405 0.869912 0.212109
O O2 0.316188 0.806142 0.354591
O O3 0.025106 0.883953 0.601396
O O4 0.293534 0.000000 0.324606
O O5 0.767146 0.000000 0.909446
O O6 0.747927 0.189627 0.982808
O O7 0.292478 0.187825 0.774153
O O8 0.513712 0.285139 0.667340
O O9 0.185227 0.348167 0.975165
O O10 0.733138 0.853378 0.399652
O O11 0.739269 0.000000 0.254683
O O12 0.000000 0.880083 0.000000
O O13 0.148110 0.315567 0.665786
O O14 0.967164 0.500000 0.182171
O O15 0.000000 0.630217 0.000000
#
# Coordination Sequence:
#
# PCOD9154434 Si02
#       6
#     4   4   4   4   4   4
#     4   9  18  34  57  85 120 161 197 227 267 328
#     4   9  18  34  57  85 120 161 197 227 267 328
#     4  12  22  36  59  86 116 149 188 234 286 342
#     4  11  21  35  55  81 119 158 187 222 274 338
#     4  12  22  36  59  86 116 149 188 234 286 342
#     4  11  24  44  63  82 111 145 190 246 298 346
#
# _framework density 18.327119
#
# number of rings (size 3 to 8) (size 9 to 14) (size 15 to 20)
#    0.000    1.333    5.000    2.500    0.000    7.333 
#    0.000    3.333    0.000    2.000    0.000    2.333 
#    0.000    0.000    0.000    0.000    0.000    0.000 
#
# Total GULP energy -134152.417386 kJ/mol
# GULP energy per Si atom -5589.684058 kJ/mol
# Density = 1.828541 g / cm^3
# Si number density = 18.327119 Si / 1000 Ang^3
#
#
#
# Elastic Constant Matrix: (Units=GPa)
#
#
# Indices 1 2 3 4 5 6 
#
# 1 80.7167 30.4443 13.0429 0.0000 -10.5243 0.0000
# 2 30.4443 71.8571 2.8957 0.0000 0.2562 0.0000
# 3 13.0429 2.8957 31.9226 0.0000 -8.1703 0.0000
# 4 0.0000 0.0000 0.0000 1.6488 0.0000 6.7037
# 5 -10.5243 0.2562 -8.1703 0.0000 36.2880 0.0000
# 6 0.0000 0.0000 0.0000 6.7037 0.0000 12.0484
#
#
#
# Elastic Compliance Matrix: (Units=1/GPa)
#
#
# Indices 1 2 3 4 5 6 
#
# 1 0.016197 -0.006670 -0.005092 0.000000 0.003598 0.000000
# 2 -0.006670 0.016720 0.000725 0.000000 -0.001889 0.000000
# 3 -0.005092 0.000725 0.034977 0.000000 0.006393 0.000000
# 4 0.000000 0.000000 0.000000 -0.480519 0.000000 0.267359
# 5 0.003598 -0.001889 0.006393 0.000000 0.030054 0.000000
# 6 0.000000 0.000000 0.000000 0.267359 0.000000 -0.065760
#
#
# Mechanical properties :
#
#
# Convention : Reuss Voigt Hill
#
# Bulk Modulus (GPa) = 21.82453 30.80692 26.31572
# Shear Modulus (GPa) = -12.16588 19.20463 3.51938
#
# Velocity S-wave (km/s) = -2.57926 3.24061 1.38726
# Velocity P-wave (km/s) = 1.75044 5.55410 4.11777
#
# Compressibility (1/GPa) = 0.04582001
#
# Stress axis : x y z
#
# Youngs Moduli (GPa) = 61.74150 59.80911 28.59057
#
# Poissons Ratio (x) = 0.39891 0.14557
# Poissons Ratio (y) = 0.41180 -0.02073
# Poissons Ratio (z) = 0.31437 -0.04336
#
# Static dielectric constant tensor:
#      x y z
#    x 1.645780 0.000000 -0.027990 
#    y 0.000000 1.583410 0.000000 
#    z -0.027990 0.000000 1.650480 
# 
# From -- ./inp_files/51508.got.cif
#   From: 2010.05.17/outbox.cif.g08.bks.cpg/sg10_26_cif.got.tgz:51508.got - 2010.06.03 11:33:40.
