data_PCOD9154848
_publ_section_title
;
Structure prediction by ZEFSAII (Michael W. Deem and Ramdas Pophale) SiO2 
 PCOD9154848
Probable space group: P 2/M
;
_chemical_formula_sum "Si O2"
_cell_formula_units_Z 28
_cell_length_a 22.592597
_cell_length_b 8.531948
_cell_length_c 15.127261
_cell_angle_alpha 90.000000
_cell_angle_beta 37.095728
_cell_angle_gamma 90.000000
_cell_volume 1758.728983
_symmetry_space_group_name_H-M "P 2/M"
_symmetry_group_IT_number 10
_symmetry_cell_setting 'monoclinic'
loop_
_space_group_symop_operation_xyz
x,y,z
-x,y,-z
-x,-y,-z
x,-y,z
loop_
_atom_site_type_symbol
_atom_site_label
_atom_site_fract_x
_atom_site_fract_y
_atom_site_fract_z
Si Si1 0.410006 0.188853 0.988904
Si Si2 0.750712 0.184508 0.463133
Si Si3 0.430100 0.183840 0.458853
Si Si4 0.633398 0.191680 0.764472
Si Si5 0.888551 0.807789 0.147472
Si Si6 0.366744 0.683745 0.852125
Si Si7 0.281492 0.811425 0.783016
O O1 0.524837 0.237136 0.859089
O O2 0.362401 0.249661 0.956199
O O3 0.409672 0.000000 0.986674
O O4 0.360383 0.238643 0.140463
O O5 0.654913 0.192011 0.514071
O O6 0.716438 0.250416 0.598219
O O7 0.839694 0.248042 0.297802
O O8 0.772039 0.000000 0.451586
O O9 0.525096 0.274313 0.313896
O O10 0.376877 0.238990 0.611866
O O11 0.457566 0.000000 0.435886
O O12 0.634749 0.000000 0.760831
O O13 0.814973 0.760411 0.156046
O O14 0.887172 0.000000 0.150861
O O15 0.000000 0.757859 0.000000
O O16 0.353615 0.500000 0.870516
O O17 0.291908 0.755372 0.870209
O O18 0.282778 0.000000 0.779404
#
# Coordination Sequence:
#
# PCOD9154848 Si02
#       7
#     4   4   4   4   4   4   4
#     4   9  16  27  43  59  80 112 150 181 204 243
#     4   8  12  21  41  65  86 108 137 170 206 252
#     4   9  16  28  44  59  80 114 150 175 199 243
#     4   8  13  23  42  63  79 106 147 182 206 238
#     4   8  14  25  43  69  93 107 127 169 220 259
#     4  12  22  28  37  58  88 119 145 176 213 243
#     4   9  18  30  45  62  82 113 146 173 205 253
#
# _framework density 15.920588
#
# number of rings (size 3 to 8) (size 9 to 14) (size 15 to 20)
#    0.000    3.000    1.429    4.286    0.000    2.286 
#    0.000    1.429    0.000    0.429    0.000    1.000 
#    0.000    8.000    0.000    0.000    0.000    0.000 
#
# Total GULP energy -155918.387666 kJ/mol
# GULP energy per Si atom -5568.513845 kJ/mol
# Density = 1.588435 g / cm^3
# Si number density = 15.920588 Si / 1000 Ang^3
#
#
#
# Elastic Constant Matrix: (Units=GPa)
#
#
# Indices 1 2 3 4 5 6 
#
# 1 93.5011 12.9377 69.4438 0.0000 28.4571 0.0000
# 2 12.9377 6.3976 11.7519 0.0000 3.6684 0.0000
# 3 69.4438 11.7519 120.6698 0.0000 18.9827 0.0000
# 4 0.0000 0.0000 0.0000 -9.0684 0.0000 9.0990
# 5 28.4571 3.6684 18.9827 0.0000 28.3218 0.0000
# 6 0.0000 0.0000 0.0000 9.0990 0.0000 -19.1175
#
#
#
# Elastic Compliance Matrix: (Units=1/GPa)
#
#
# Indices 1 2 3 4 5 6 
#
# 1 0.027257 -0.026156 -0.010467 0.000000 -0.016984 0.000000
# 2 -0.026156 0.220319 -0.006762 0.000000 0.002276 0.000000
# 3 -0.010467 -0.006762 0.014730 0.000000 0.001520 0.000000
# 4 0.000000 0.000000 0.000000 -0.211073 0.000000 -0.100461
# 5 -0.016984 0.002276 0.001520 0.000000 0.051060 0.000000
# 6 0.000000 0.000000 0.000000 -0.100461 0.000000 -0.100123
#
#
# Mechanical properties :
#
#
# Convention : Reuss Voigt Hill
#
# Bulk Modulus (GPa) = 5.69685 45.42615 25.56150
# Shear Modulus (GPa) = 33.90885 8.45617 21.18251
#
# Velocity S-wave (km/s) = 4.62006 2.30716 3.65157
# Velocity P-wave (km/s) = 5.66092 5.97430 5.81972
#
# Compressibility (1/GPa) = 0.17553558
#
# Stress axis : x y z
#
# Youngs Moduli (GPa) = 36.68717 4.53888 67.88745
#
# Poissons Ratio (x) = 0.11872 0.71059
# Poissons Ratio (y) = 0.95958 0.45908
# Poissons Ratio (z) = 0.38401 0.03069
#
# Static dielectric constant tensor:
#      x y z
#    x 1.542490 0.000000 0.030690 
#    y 0.000000 1.529970 0.000000 
#    z 0.030690 0.000000 1.550710 
# 
# From -- ./inp_files/69629.got.cif
#   From: 2010.05.17/outbox.cif.g08.bks.cpg/sg10_35_cif.got.tgz:69629.got - 2010.06.03 11:33:40.
