data_PCOD9154877
_publ_section_title
;
Structure prediction by ZEFSAII (Michael W. Deem and Ramdas Pophale) SiO2 
 PCOD9154877
Probable space group: P 2/M
;
_chemical_formula_sum "Si O2"
_cell_formula_units_Z 32
_cell_length_a 7.334586
_cell_length_b 9.440792
_cell_length_c 23.762608
_cell_angle_alpha 90.000000
_cell_angle_beta 90.000000
_cell_angle_gamma 90.000000
_cell_volume 1645.425177
_symmetry_space_group_name_H-M "P 2/M"
_symmetry_group_IT_number 10
_symmetry_cell_setting 'monoclinic'
loop_
_space_group_symop_operation_xyz
x,y,z
-x,y,-z
-x,-y,-z
x,-y,z
loop_
_atom_site_type_symbol
_atom_site_label
_atom_site_fract_x
_atom_site_fract_y
_atom_site_fract_z
Si Si1 0.283895 0.167766 0.657017
Si Si2 0.722222 0.337365 0.768127
Si Si3 0.287064 0.827785 1.000000
Si Si4 0.283895 0.167766 0.342983
Si Si5 0.722961 0.835609 0.122750
Si Si6 1.000000 0.828074 0.436230
Si Si7 0.277778 0.662635 0.768127
Si Si8 0.722961 0.835609 0.877250
O O1 0.500000 0.187625 0.649276
O O2 0.174080 0.211595 0.601528
O O3 0.223800 0.253714 0.711990
O O4 0.251870 0.000000 0.666688
O O5 0.780177 0.500000 0.766888
O O6 0.776200 0.253714 0.711990
O O7 0.500000 0.335343 0.768769
O O8 0.781695 0.258018 0.824754
O O9 0.213429 0.784592 0.060994
O O10 0.279246 0.000000 1.000000
O O11 0.500000 0.787138 0.000000
O O12 0.213430 0.784592 0.939006
O O13 0.174080 0.211595 0.398472
O O14 0.251870 0.000000 0.333312
O O15 0.781695 0.741982 0.175246
O O16 0.500000 0.834141 0.121419
O O17 0.775462 0.000000 0.130423
O O18 0.000000 0.773940 0.500000
O O19 1.000000 0.000000 0.439518
O O20 0.219823 0.500000 0.766888
O O21 0.775462 0.000000 0.869577
#
# Coordination Sequence:
#
# PCOD9154877 Si02
#       8
#     4   4   4   4   4   4   4   4
#     4   9  17  30  49  71  95 125 157 188 228 276
#     4   9  16  25  38  58  85 117 154 196 237 274
#     4   7  10  16  27  45  71 106 147 190 234 279
#     4   9  17  30  49  71  95 125 157 188 228 276
#     4   8  12  19  32  50  75 110 152 194 236 282
#     4   9  18  32  51  77 103 122 149 192 231 267
#     4   9  16  25  38  58  85 117 154 196 237 274
#     4   8  12  19  32  50  75 110 152 194 236 282
#
# _framework density 19.447862000000001
#
# number of rings (size 3 to 8) (size 9 to 14) (size 15 to 20)
#    0.000    3.500    0.000    2.250    0.000    3.500 
#    0.000    3.750    0.000    5.250    0.000    3.500 
#    0.000    1.000    0.000   11.625    0.000   32.250 
#
# Total GULP energy -178389.920931 kJ/mol
# GULP energy per Si atom -5574.685029 kJ/mol
# Density = 1.940360 g / cm^3
# Si number density = 19.447862 Si / 1000 Ang^3
#
#
#
# Elastic Constant Matrix: (Units=GPa)
#
#
# Indices 1 2 3 4 5 6 
#
# 1 76.7885 25.7564 49.1698 0.0000 0.0001 0.0000
# 2 25.7564 72.1357 93.0245 0.0000 0.0001 0.0000
# 3 49.1698 93.0245 254.6555 0.0000 0.0003 0.0000
# 4 0.0000 0.0000 0.0000 -3.6145 0.0000 0.0000
# 5 0.0001 0.0001 0.0003 0.0000 136.0109 0.0000
# 6 0.0000 0.0000 0.0000 0.0000 0.0000 -5.6777
#
#
#
# Elastic Compliance Matrix: (Units=1/GPa)
#
#
# Indices 1 2 3 4 5 6 
#
# 1 0.015220 -0.003109 -0.001803 0.000000 0.000000 0.000000
# 2 -0.003109 0.026845 -0.009206 0.000000 0.000000 0.000000
# 3 -0.001803 -0.009206 0.007638 0.000000 0.000000 0.000000
# 4 0.000000 0.000000 0.000000 -0.276667 0.000000 0.000000
# 5 0.000000 0.000000 0.000000 0.000000 0.007352 0.000000
# 6 0.000000 0.000000 0.000000 0.000000 0.000000 -0.176129
#
#
# Mechanical properties :
#
#
# Convention : Reuss Voigt Hill
#
# Bulk Modulus (GPa) = 46.58473 82.16458 64.37465
# Shear Modulus (GPa) = -13.87546 41.05235 13.58845
#
# Velocity S-wave (km/s) = -2.67398 4.59943 2.64618
# Velocity P-wave (km/s) = 3.80422 8.39921 6.51992
#
# Compressibility (1/GPa) = 0.02146626
#
# Stress axis : x y z
#
# Youngs Moduli (GPa) = 65.70211 37.25142 130.92725
#
# Poissons Ratio (x) = 0.11583 0.23605
# Poissons Ratio (y) = 0.20430 1.20529
# Poissons Ratio (z) = 0.11845 0.34293
#
# Static dielectric constant tensor:
#      x y z
#    x 1.771830 0.000000 0.000000 
#    y 0.000000 1.632210 0.000000 
#    z 0.000000 0.000000 1.671580 
# 
# From -- ./inp_files/87720.got.cif
#   From: 2010.05.17/outbox.cif.g08.bks.cpg/sg10_44_cif.got.tgz:87720.got - 2010.06.03 11:33:40.
