data_PCOD9154062
_publ_section_title
;
Structure prediction by ZEFSAII (Michael W. Deem and Ramdas Pophale) SiO2 
 PCOD9154062
Probable space group: P 2/M
;
_chemical_formula_sum "Si O2"
_cell_formula_units_Z 26
_cell_length_a 8.927337
_cell_length_b 11.780760
_cell_length_c 15.614127
_cell_angle_alpha 90.000000
_cell_angle_beta 55.177771
_cell_angle_gamma 90.000000
_cell_volume 1348.086843
_symmetry_space_group_name_H-M "P 2/M"
_symmetry_group_IT_number 10
_symmetry_cell_setting 'monoclinic'
loop_
_space_group_symop_operation_xyz
x,y,z
-x,y,-z
-x,-y,-z
x,-y,z
loop_
_atom_site_type_symbol
_atom_site_label
_atom_site_fract_x
_atom_site_fract_y
_atom_site_fract_z
Si Si1 0.866369 0.874150 0.964744
Si Si2 0.072205 0.714757 0.761247
Si Si3 0.544678 0.268553 0.076797
Si Si4 0.280779 0.864150 0.554770
Si Si5 0.000000 0.765552 0.500000
Si Si6 0.258836 0.500000 0.985364
Si Si7 0.834936 0.500000 0.176889
Si Si8 0.790557 0.632127 0.715874
O O1 0.954717 0.787919 0.867286
O O2 0.833144 0.000000 0.938870
O O3 0.690716 0.817254 0.065550
O O4 0.000000 0.884192 0.000000
O O5 0.181500 0.800556 0.665402
O O6 0.196991 0.618506 0.764714
O O7 0.936501 0.644317 0.744588
O O8 0.642371 0.386303 0.019413
O O9 0.382415 0.298121 0.192945
O O10 0.500000 0.213614 0.000000
O O11 0.500000 0.837989 0.500000
O O12 0.155608 0.828366 0.510552
O O13 0.265986 0.000000 0.564729
O O14 0.881495 0.688817 0.603521
O O15 0.263921 0.500000 0.881137
O O16 0.051330 0.500000 0.083928
O O17 0.745107 0.500000 0.717541
#
# Coordination Sequence:
#
# PCOD9154062 Si02
#       8
#     4   4   4   4   2   2   2   4
#     4  11  24  40  58  86 127 166 208 258 313 373
#     4  11  21  39  63  90 124 166 208 252 319 379
#     4  12  22  37  60  91 124 163 209 250 308 381
#     4  10  23  45  70  93 124 166 219 272 317 376
#     4  10  24  42  70  98 126 169 217 268 318 382
#     4  11  21  32  56  87 122 168 205 253 299 370
#     4  11  20  34  57  89 126 164 204 253 304 384
#     4  11  22  40  63  92 130 168 203 256 321 377
#
# _framework density 19.286591999999999
#
# number of rings (size 3 to 8) (size 9 to 14) (size 15 to 20)
#    0.000    1.077    4.615    2.077    0.000    2.769 
#    0.000    3.462    0.000    0.000    0.000    0.000 
#    0.000    0.000    0.000    0.000    0.000    0.000 
#
# Total GULP energy -144914.104902 kJ/mol
# GULP energy per Si atom -5573.619419 kJ/mol
# Density = 1.924269 g / cm^3
# Si number density = 19.286592 Si / 1000 Ang^3
#
#
#
# Elastic Constant Matrix: (Units=GPa)
#
#
# Indices 1 2 3 4 5 6 
#
# 1 99.6100 37.3632 38.2144 0.0000 -3.1933 0.0000
# 2 37.3632 107.4961 55.7876 0.0000 -0.3027 0.0000
# 3 38.2144 55.7876 119.5017 0.0000 -4.9940 0.0000
# 4 0.0000 0.0000 0.0000 21.8373 0.0000 19.3231
# 5 -3.1933 -0.3027 -4.9940 0.0000 31.7861 0.0000
# 6 0.0000 0.0000 0.0000 19.3231 0.0000 25.8373
#
#
#
# Elastic Compliance Matrix: (Units=1/GPa)
#
#
# Indices 1 2 3 4 5 6 
#
# 1 0.012111 -0.002923 -0.002475 0.000000 0.000800 0.000000
# 2 -0.002923 0.013002 -0.005176 0.000000 -0.000983 0.000000
# 3 -0.002475 -0.005176 0.011640 0.000000 0.001531 0.000000
# 4 0.000000 0.000000 0.000000 0.135391 0.000000 -0.101256
# 5 0.000800 -0.000983 0.001531 0.000000 0.031772 0.000000
# 6 0.000000 0.000000 0.000000 -0.101256 0.000000 0.114431
#
#
# Mechanical properties :
#
#
# Convention : Reuss Voigt Hill
#
# Bulk Modulus (GPa) = 64.08258 65.48201 64.78229
# Shear Modulus (GPa) = 14.50555 28.90831 21.70693
#
# Velocity S-wave (km/s) = 2.74543 3.87574 3.35848
# Velocity P-wave (km/s) = 6.58395 7.35216 6.97864
#
# Compressibility (1/GPa) = 0.01560487
#
# Stress axis : x y z
#
# Youngs Moduli (GPa) = 82.57258 76.91051 85.91103
#
# Poissons Ratio (x) = 0.22479 0.21262
# Poissons Ratio (y) = 0.24134 0.44470
# Poissons Ratio (z) = 0.20436 0.39811
#
# Static dielectric constant tensor:
#      x y z
#    x 1.740560 0.000000 -0.015280 
#    y 0.000000 1.668830 0.000000 
#    z -0.015280 0.000000 1.669130 
# 
# From -- ./inp_files/60899.got.cif
#   From: 2010.05.17/outbox.cif.g08.bks.cpg/sg10_31_cif.got.tgz:60899.got - 2010.06.03 11:33:40.
