data_PCOD9154515
_publ_section_title
;
Structure prediction by ZEFSAII (Michael W. Deem and Ramdas Pophale) SiO2 
 PCOD9154515
Probable space group: P 2/M
;
_chemical_formula_sum "Si O2"
_cell_formula_units_Z 20
_cell_length_a 10.020668
_cell_length_b 7.781837
_cell_length_c 19.147668
_cell_angle_alpha 90.000000
_cell_angle_beta 137.224632
_cell_angle_gamma 90.000000
_cell_volume 1014.016272
_symmetry_space_group_name_H-M "P 2/M"
_symmetry_group_IT_number 10
_symmetry_cell_setting 'monoclinic'
loop_
_space_group_symop_operation_xyz
x,y,z
-x,y,-z
-x,-y,-z
x,-y,z
loop_
_atom_site_type_symbol
_atom_site_label
_atom_site_fract_x
_atom_site_fract_y
_atom_site_fract_z
Si Si1 0.752375 0.197789 0.201416
Si Si2 0.070784 0.500000 0.640752
Si Si3 0.054554 0.292698 0.866933
Si Si4 0.323546 0.500000 0.595693
Si Si5 0.379752 0.807956 0.273583
Si Si6 0.670090 0.705721 0.904497
O O1 0.881381 0.331654 0.295518
O O2 0.812489 0.221139 0.144187
O O3 0.527449 0.250388 0.129044
O O4 0.780550 0.000000 0.233439
O O5 0.218232 0.500000 0.631115
O O6 0.850551 0.500000 0.527215
O O7 0.057399 0.500000 0.864766
O O8 0.832339 0.229539 0.774580
O O9 0.146802 0.242383 0.977058
O O10 0.461835 0.666226 0.644140
O O11 0.345990 0.789586 0.177285
O O12 0.445864 0.000000 0.315438
O O13 0.680710 0.500000 0.897411
#
# Coordination Sequence:
#
# PCOD9154515 Si02
#       6
#     4   2   4   2   4   4
#     4  12  23  40  64  94 127 162 208 253 306 365
#     4  11  24  45  68  92 121 156 207 263 314 362
#     4  11  23  39  63  91 131 172 203 246 302 368
#     4  11  24  45  68  92 121 156 207 263 314 362
#     4  12  23  40  64  94 127 162 208 253 306 365
#     4  11  21  39  63  91 129 172 209 244 298 364
#
# _framework density 19.723549999999999
#
# number of rings (size 3 to 8) (size 9 to 14) (size 15 to 20)
#    0.000    0.600    6.000    2.400    0.000    8.800 
#    0.000    4.000    0.000    2.400    0.000    0.000 
#    0.000    0.000    0.000    0.000    0.000    0.000 
#
# Total GULP energy -111917.156466 kJ/mol
# GULP energy per Si atom -5595.857823 kJ/mol
# Density = 1.967866 g / cm^3
# Si number density = 19.723550 Si / 1000 Ang^3
#
#
#
# Elastic Constant Matrix: (Units=GPa)
#
#
# Indices 1 2 3 4 5 6 
#
# 1 40.0994 -26.5029 -19.9898 0.0000 10.2072 0.0000
# 2 -26.5029 123.1347 29.3821 0.0000 8.4712 0.0000
# 3 -19.9898 29.3821 75.4250 0.0000 17.0469 0.0000
# 4 0.0000 0.0000 0.0000 -5.5025 0.0000 -3.3339
# 5 10.2072 8.4712 17.0469 0.0000 23.1336 0.0000
# 6 0.0000 0.0000 0.0000 -3.3339 0.0000 -12.7338
#
#
#
# Elastic Compliance Matrix: (Units=1/GPa)
#
#
# Indices 1 2 3 4 5 6 
#
# 1 0.050181 0.009051 0.018630 0.000000 -0.039184 0.000000
# 2 0.009051 0.010600 0.000059 0.000000 -0.007919 0.000000
# 3 0.018630 0.000059 0.024039 0.000000 -0.025955 0.000000
# 4 0.000000 0.000000 0.000000 -0.215997 0.000000 0.056550
# 5 -0.039184 -0.007919 -0.025955 0.000000 0.082542 0.000000
# 6 0.000000 0.000000 0.000000 0.056550 0.000000 -0.093336
#
#
# Mechanical properties :
#
#
# Convention : Reuss Voigt Hill
#
# Bulk Modulus (GPa) = 7.12760 22.71532 14.92146
# Shear Modulus (GPa) = -33.18187 18.03076 -7.57555
#
# Velocity S-wave (km/s) = -4.10609 3.02681 -1.96194
# Velocity P-wave (km/s) = 4.34263 4.87415 1.56507
#
# Compressibility (1/GPa) = 0.14029970
#
# Stress axis : x y z
#
# Youngs Moduli (GPa) = 19.92779 94.34013 41.59965
#
# Poissons Ratio (x) = -0.85388 -0.77498
# Poissons Ratio (y) = -0.18037 -0.00247
# Poissons Ratio (z) = -0.37124 -0.00560
#
# Static dielectric constant tensor:
#      x y z
#    x 1.682870 0.000000 -0.004500 
#    y 0.000000 1.704570 0.000000 
#    z -0.004500 0.000000 1.656000 
# 
# From -- ./inp_files/74471.got.cif
#   From: 2010.05.17/outbox.cif.g08.bks.cpg/sg10_38_cif.got.tgz:74471.got - 2010.06.03 11:33:40.
