data_PCOD9154813
_publ_section_title
;
Structure prediction by ZEFSAII (Michael W. Deem and Ramdas Pophale) SiO2 
 PCOD9154813
Probable space group: P 2/M
;
_chemical_formula_sum "Si O2"
_cell_formula_units_Z 15
_cell_length_a 4.898246
_cell_length_b 21.471024
_cell_length_c 5.268249
_cell_angle_alpha 90.000000
_cell_angle_beta 92.400313
_cell_angle_gamma 90.000000
_cell_volume 553.577496
_symmetry_space_group_name_H-M "P 2/M"
_symmetry_group_IT_number 10
_symmetry_cell_setting 'monoclinic'
loop_
_space_group_symop_operation_xyz
x,y,z
-x,y,-z
-x,-y,-z
x,-y,z
loop_
_atom_site_type_symbol
_atom_site_label
_atom_site_fract_x
_atom_site_fract_y
_atom_site_fract_z
Si Si1 0.188894 0.766108 0.757352
Si Si2 0.190545 0.632821 0.756494
Si Si3 0.809113 0.500000 0.243536
Si Si4 0.000000 0.000000 0.000000
Si Si5 0.723931 0.098509 0.321942
O O1 0.341656 0.699392 0.760342
O O2 0.351426 0.830532 0.750129
O O3 0.000000 0.765434 0.500000
O O4 0.000000 0.769212 0.000000
O O5 0.000000 0.632552 0.500000
O O6 0.344670 0.566425 0.758428
O O7 0.000000 0.633184 0.000000
O O8 0.000000 0.500000 0.500000
O O9 0.000000 0.500000 0.000000
O O10 0.792632 0.054734 0.093227
O O11 0.500000 0.071616 0.500000
O O12 0.000000 0.099558 0.500000
#
# Coordination Sequence:
#
# PCOD9154813 Si02
#       5
#     4   4   2   1   4
#     4   9  17  34  53  81 114 158 202 256 308 372
#     4   8  13  21  39  62 101 141 190 240 298 355
#     4   8  12  18  30  60  93 138 184 237 291 355
#     4  12  24  46  68  96 128 168 212 262 326 378
#     4  11  25  43  65  95 128 167 213 263 320 384
#
# _framework density 27.09648
#
# number of rings (size 3 to 8) (size 9 to 14) (size 15 to 20)
#    0.000    2.667    1.333    0.800    0.000    2.133 
#    0.000    0.000    0.000    0.000    0.000    0.933 
#    0.000    0.000    0.000   94.400    0.000    6.933 
#
# Total GULP energy -83694.559400 kJ/mol
# GULP energy per Si atom -5579.637293 kJ/mol
# Density = 2.703481 g / cm^3
# Si number density = 27.096480 Si / 1000 Ang^3
#
#
#
# Elastic Constant Matrix: (Units=GPa)
#
#
# Indices 1 2 3 4 5 6 
#
# 1 80.3148 17.4085 54.1736 0.0000 -0.8808 0.0000
# 2 17.4085 328.5174 8.9429 0.0000 -31.1790 0.0000
# 3 54.1736 8.9429 211.9345 0.0000 -6.3785 0.0000
# 4 0.0000 0.0000 0.0000 27.9704 0.0000 -19.5521
# 5 -0.8808 -31.1790 -6.3785 0.0000 79.1018 0.0000
# 6 0.0000 0.0000 0.0000 -19.5521 0.0000 -13.7502
#
#
#
# Elastic Compliance Matrix: (Units=1/GPa)
#
#
# Indices 1 2 3 4 5 6 
#
# 1 0.015219 -0.000742 -0.003872 0.000000 -0.000435 0.000000
# 2 -0.000742 0.003200 0.000093 0.000000 0.001261 0.000000
# 3 -0.003872 0.000093 0.005718 0.000000 0.000454 0.000000
# 4 0.000000 0.000000 0.000000 0.017930 0.000000 -0.025496
# 5 -0.000435 0.001261 0.000454 0.000000 0.013171 0.000000
# 6 0.000000 0.000000 0.000000 -0.025496 0.000000 -0.036473
#
#
# Mechanical properties :
#
#
# Convention : Reuss Voigt Hill
#
# Bulk Modulus (GPa) = 66.25200 86.86853 76.56026
# Shear Modulus (GPa) = 152.25514 54.68051 103.46783
#
# Velocity S-wave (km/s) = 7.50413 4.49708 6.18610
# Velocity P-wave (km/s) = 9.97929 7.68723 8.90729
#
# Compressibility (1/GPa) = 0.01509388
#
# Stress axis : x y z
#
# Youngs Moduli (GPa) = 65.70816 312.45632 174.88849
#
# Poissons Ratio (x) = 0.23196 0.67716
# Poissons Ratio (y) = 0.04878 -0.01620
# Poissons Ratio (z) = 0.25442 -0.02895
#
# Static dielectric constant tensor:
#      x y z
#    x 2.008320 0.000000 0.070590 
#    y 0.000000 2.165010 0.000000 
#    z 0.070590 0.000000 2.093220 
# 
# From -- ./inp_files/1220.got.cif
#   From: 2010.05.17/outbox.cif.g08.bks.cpg/sg10_1_cif.got.tgz:1220.got - 2010.06.03 11:33:40.
