data_PCOD9154308
_publ_section_title
;
Structure prediction by ZEFSAII (Michael W. Deem and Ramdas Pophale) SiO2 
 PCOD9154308
Probable space group: P 2/M
;
_chemical_formula_sum "Si O2"
_cell_formula_units_Z 28
_cell_length_a 23.350944
_cell_length_b 13.647595
_cell_length_c 28.950921
_cell_angle_alpha 90.000000
_cell_angle_beta 168.550842
_cell_angle_gamma 90.000000
_cell_volume 1831.385476
_symmetry_space_group_name_H-M "P 2/M"
_symmetry_group_IT_number 10
_symmetry_cell_setting 'monoclinic'
loop_
_space_group_symop_operation_xyz
x,y,z
-x,y,-z
-x,-y,-z
x,-y,z
loop_
_atom_site_type_symbol
_atom_site_label
_atom_site_fract_x
_atom_site_fract_y
_atom_site_fract_z
Si Si1 0.629306 0.756245 0.486309
Si Si2 0.715476 0.886789 0.714224
Si Si3 0.091397 0.884450 0.799956
Si Si4 0.225531 0.384066 0.316964
Si Si5 0.249882 0.881503 0.663790
Si Si6 0.692543 0.884577 0.396001
Si Si7 0.761460 0.240693 0.908577
O O1 0.431217 0.828357 0.360204
O O2 0.708298 0.666543 0.581823
O O3 0.450795 0.725777 0.300024
O O4 0.905325 0.818210 0.687541
O O5 0.500000 0.881398 0.500000
O O6 0.758626 0.000000 0.760331
O O7 0.011195 0.835859 0.933248
O O8 0.943323 0.875378 0.632598
O O9 0.072126 0.000000 0.797987
O O10 0.425749 0.854752 0.064760
O O11 0.500000 0.366785 0.500000
O O12 0.182395 0.500000 0.286542
O O13 0.950208 0.328281 0.078386
O O14 0.210682 0.856346 0.578933
O O15 0.000000 0.843371 0.500000
O O16 0.238625 0.000000 0.657226
O O17 0.428905 0.817513 0.204465
O O18 0.605981 0.000000 0.326831
#
# Coordination Sequence:
#
# PCOD9154308 Si02
#       7
#     4   4   4   4   4   4   4
#     4  11  20  34  52  70  94 126 163 200 242 285
#     4  11  21  31  47  71  99 130 161 196 236 278
#     4   9  18  30  46  70  99 128 157 194 236 277
#     4  11  23  38  50  66  92 122 165 212 250 285
#     4   9  17  28  44  65  93 133 170 192 218 267
#     4   9  18  30  46  70  99 128 157 194 236 277
#     4  11  20  34  52  70  94 126 163 200 242 285
#
# _framework density 15.288970000000001
#
# number of rings (size 3 to 8) (size 9 to 14) (size 15 to 20)
#    0.000    1.857    2.857    2.143    0.000    3.429 
#    0.000    4.286    0.000    0.000    0.000    0.000 
#    0.000    9.143    0.000   25.143    0.000    1.143 
#
# Total GULP energy -156241.198326 kJ/mol
# GULP energy per Si atom -5580.042797 kJ/mol
# Density = 1.525417 g / cm^3
# Si number density = 15.288970 Si / 1000 Ang^3
#
#
#
# Elastic Constant Matrix: (Units=GPa)
#
#
# Indices 1 2 3 4 5 6 
#
# 1 115.7401 44.7446 48.4249 0.0000 10.4252 0.0000
# 2 44.7446 75.7195 16.5351 0.0000 -6.1003 0.0000
# 3 48.4249 16.5351 29.0866 0.0000 0.8041 0.0000
# 4 0.0000 0.0000 0.0000 0.6268 0.0000 4.1075
# 5 10.4252 -6.1003 0.8041 0.0000 24.4337 0.0000
# 6 0.0000 0.0000 0.0000 4.1075 0.0000 -1.5946
#
#
#
# Elastic Compliance Matrix: (Units=1/GPa)
#
#
# Indices 1 2 3 4 5 6 
#
# 1 0.038831 -0.011823 -0.057439 0.000000 -0.017630 0.000000
# 2 -0.011823 0.019090 0.008569 0.000000 0.009529 0.000000
# 3 -0.057439 0.008569 0.124514 0.000000 0.022550 0.000000
# 4 0.000000 0.000000 0.000000 0.089229 0.000000 0.229839
# 5 -0.017630 0.009529 0.022550 0.000000 0.050086 0.000000
# 6 0.000000 0.000000 0.000000 0.229839 0.000000 -0.035075
#
#
# Mechanical properties :
#
#
# Convention : Reuss Voigt Hill
#
# Bulk Modulus (GPa) = 16.38096 48.88393 32.63245
# Shear Modulus (GPa) = 11.67099 12.08261 11.87680
#
# Velocity S-wave (km/s) = 2.76589 2.81425 2.79018
# Velocity P-wave (km/s) = 4.57578 6.52708 5.63651
#
# Compressibility (1/GPa) = 0.06104647
#
# Stress axis : x y z
#
# Youngs Moduli (GPa) = 25.75247 52.38352 8.03124
#
# Poissons Ratio (x) = 0.61936 0.46131
# Poissons Ratio (y) = 0.30448 -0.06882
# Poissons Ratio (z) = 1.47921 -0.44886
#
# Static dielectric constant tensor:
#      x y z
#    x 1.514420 0.000000 -0.024380 
#    y 0.000000 1.477860 0.000000 
#    z -0.024380 0.000000 1.516610 
# 
# From -- ./inp_files/85898.got.cif
#   From: 2010.05.17/outbox.cif.g08.bks.cpg/sg10_43_cif.got.tgz:85898.got - 2010.06.03 11:33:40.
