data_PCOD9154769
_publ_section_title
;
Structure prediction by ZEFSAII (Michael W. Deem and Ramdas Pophale) SiO2 
 PCOD9154769
Probable space group: P 2/M
;
_chemical_formula_sum "Si O2"
_cell_formula_units_Z 28
_cell_length_a 29.791153
_cell_length_b 9.317605
_cell_length_c 30.676170
_cell_angle_alpha 90.000000
_cell_angle_beta 9.682553
_cell_angle_gamma 90.000000
_cell_volume 1432.157869
_symmetry_space_group_name_H-M "P 2/M"
_symmetry_group_IT_number 10
_symmetry_cell_setting 'monoclinic'
loop_
_space_group_symop_operation_xyz
x,y,z
-x,y,-z
-x,-y,-z
x,-y,z
loop_
_atom_site_type_symbol
_atom_site_label
_atom_site_fract_x
_atom_site_fract_y
_atom_site_fract_z
Si Si1 0.390964 0.324499 0.349350
Si Si2 0.799204 0.500000 0.233815
Si Si3 0.906379 0.331781 0.539481
Si Si4 0.648659 0.832198 0.942281
Si Si5 0.795794 0.000000 0.234611
Si Si6 0.897575 0.756942 0.205685
Si Si7 0.514150 0.174655 0.323265
Si Si8 0.831808 0.829925 0.867215
O O1 0.389576 0.500000 0.349682
O O2 0.437640 0.260585 0.352945
O O3 0.111729 0.254677 0.601077
O O4 0.625015 0.255893 0.095708
O O5 0.500000 0.500000 0.500000
O O6 0.852437 0.624323 0.217472
O O7 0.000000 0.500000 0.000000
O O8 0.885290 0.500000 0.547090
O O9 0.000000 0.326415 0.500000
O O10 0.121657 0.248749 0.304259
O O11 0.625938 0.251310 0.802903
O O12 0.721771 0.828358 0.923357
O O13 0.628457 0.000000 0.948607
O O14 0.500000 0.000000 0.500000
O O15 0.847910 0.126505 0.217010
O O16 0.000000 0.000000 0.000000
O O17 0.688188 0.778200 0.445053
O O18 0.190481 0.777439 0.945266
O O19 0.504478 0.000000 0.326882
O O20 0.860174 0.000000 0.852939
#
# Coordination Sequence:
#
# PCOD9154769 Si02
#       8
#     4   2   4   4   2   4   4   4
#     4  12  27  43  71 102 134 171 220 275 329 398
#     4  12  26  46  66  94 132 170 206 256 320 372
#     4  11  24  41  62  94 134 180 226 277 339 398
#     4  11  24  41  67  96 130 175 225 280 335 394
#     4  12  22  40  64  94 126 158 210 260 298 364
#     4  12  25  42  68  96 127 168 211 254 315 377
#     4  12  24  45  67  96 129 169 210 259 323 381
#     4  11  24  46  68  98 135 176 220 272 338 402
#
# _framework density 19.550916999999998
#
# number of rings (size 3 to 8) (size 9 to 14) (size 15 to 20)
#    0.000    0.429    1.429    7.286    2.000    8.571 
#    0.000    0.000    0.000    0.000    0.000    0.000 
#    0.000    0.000    0.000    0.000    0.000    0.000 
#
# Total GULP energy -156468.244265 kJ/mol
# GULP energy per Si atom -5588.151581 kJ/mol
# Density = 1.950642 g / cm^3
# Si number density = 19.550917 Si / 1000 Ang^3
#
#
#
# Elastic Constant Matrix: (Units=GPa)
#
#
# Indices 1 2 3 4 5 6 
#
# 1 71.0651 42.2028 6.2541 0.0000 -0.5477 0.0000
# 2 42.2028 207.5172 33.3776 0.0000 -1.0991 0.0000
# 3 6.2541 33.3776 117.4412 0.0000 -0.1804 0.0000
# 4 0.0000 0.0000 0.0000 20.5461 0.0000 5.0179
# 5 -0.5477 -1.0991 -0.1804 0.0000 53.8452 0.0000
# 6 0.0000 0.0000 0.0000 5.0179 0.0000 44.1629
#
#
#
# Elastic Compliance Matrix: (Units=1/GPa)
#
#
# Indices 1 2 3 4 5 6 
#
# 1 0.016006 -0.003267 0.000076 0.000000 0.000096 0.000000
# 2 -0.003267 0.005717 -0.001451 0.000000 0.000079 0.000000
# 3 0.000076 -0.001451 0.008923 0.000000 0.000001 0.000000
# 4 0.000000 0.000000 0.000000 0.050060 0.000000 -0.005688
# 5 0.000096 0.000079 0.000001 0.000000 0.018574 0.000000
# 6 0.000000 0.000000 0.000000 -0.005688 0.000000 0.023290
#
#
# Mechanical properties :
#
#
# Convention : Reuss Voigt Hill
#
# Bulk Modulus (GPa) = 46.80941 62.18806 54.49873
# Shear Modulus (GPa) = 35.97802 44.65679 40.31740
#
# Velocity S-wave (km/s) = 4.29443 4.78444 4.54604
# Velocity P-wave (km/s) = 6.97021 7.89927 7.44924
#
# Compressibility (1/GPa) = 0.02136323
#
# Stress axis : x y z
#
# Youngs Moduli (GPa) = 62.47781 174.91663 112.06810
#
# Poissons Ratio (x) = 0.57142 -0.00855
# Poissons Ratio (y) = 0.20410 0.16258
# Poissons Ratio (z) = -0.00476 0.25376
#
# Static dielectric constant tensor:
#      x y z
#    x 1.654860 0.000000 -0.003330 
#    y 0.000000 1.642180 0.000000 
#    z -0.003330 0.000000 1.654950 
# 
# From -- ./inp_files/96031.got.cif
#   From: 2010.05.17/outbox.cif.g08.bks.cpg/sg10_49_cif.got.tgz:96031.got - 2010.06.03 11:33:40.
