data_PCOD9154423
_publ_section_title
;
Structure prediction by ZEFSAII (Michael W. Deem and Ramdas Pophale) SiO2 
 PCOD9154423
Probable space group: P 2/M
;
_chemical_formula_sum "Si O2"
_cell_formula_units_Z 24
_cell_length_a 9.841336
_cell_length_b 11.439153
_cell_length_c 11.260503
_cell_angle_alpha 90.000000
_cell_angle_beta 96.813755
_cell_angle_gamma 90.000000
_cell_volume 1258.715085
_symmetry_space_group_name_H-M "P 2/M"
_symmetry_group_IT_number 10
_symmetry_cell_setting 'monoclinic'
loop_
_space_group_symop_operation_xyz
x,y,z
-x,y,-z
-x,-y,-z
x,-y,z
loop_
_atom_site_type_symbol
_atom_site_label
_atom_site_fract_x
_atom_site_fract_y
_atom_site_fract_z
Si Si1 0.455862 0.639466 0.129949
Si Si2 0.740509 0.287209 0.273162
Si Si3 0.963282 0.358361 0.134512
Si Si4 0.749164 0.280798 0.729045
Si Si5 0.368189 0.500000 0.407289
Si Si6 0.661162 0.860598 0.495774
Si Si7 0.859355 0.500000 0.421589
O O1 0.416544 0.500000 0.127336
O O2 0.593763 0.661550 0.220354
O O3 0.336759 0.730568 0.157677
O O4 0.500000 0.663459 0.000000
O O5 0.836027 0.277283 0.165274
O O6 0.712653 0.193061 0.375192
O O7 0.831283 0.385450 0.345421
O O8 0.936582 0.500000 0.142379
O O9 0.098803 0.323776 0.224361
O O10 0.000000 0.339095 0.000000
O O11 0.654750 0.385615 0.669988
O O12 0.740660 0.187969 0.621018
O O13 0.500000 0.500000 0.500000
O O14 0.248016 0.500000 0.486479
O O15 0.500000 0.830268 0.500000
O O16 0.672779 0.000000 0.492275
O O17 0.000000 0.500000 0.500000
#
# Coordination Sequence:
#
# PCOD9154423 Si02
#       7
#     4   4   4   4   2   4   2
#     4  11  21  34  56  90 125 157 197 247 301 366
#     4  12  22  37  61  89 125 161 201 246 304 369
#     4  11  23  39  60  93 135 171 197 234 297 374
#     4  12  21  37  60  88 124 162 200 246 307 370
#     4  12  20  30  53  88 121 152 190 247 309 371
#     4  11  25  43  65  90 118 158 208 268 319 356
#     4  12  22  32  53  90 129 158 188 233 302 378
#
# _framework density 19.067064999999999
#
# number of rings (size 3 to 8) (size 9 to 14) (size 15 to 20)
#    0.000    0.500    6.667    3.500    0.000    2.667 
#    0.000    1.667    0.000    6.000    0.000    0.000 
#    0.000    0.000    0.000    0.000    0.000    0.000 
#
# Total GULP energy -133717.385146 kJ/mol
# GULP energy per Si atom -5571.557714 kJ/mol
# Density = 1.902367 g / cm^3
# Si number density = 19.067065 Si / 1000 Ang^3
#
#
#
# Elastic Constant Matrix: (Units=GPa)
#
#
# Indices 1 2 3 4 5 6 
#
# 1 99.2038 -0.5766 25.5434 0.0000 -12.3368 0.0000
# 2 -0.5766 55.7547 34.7550 0.0000 -6.7972 0.0000
# 3 25.5434 34.7550 101.0678 0.0000 -23.5904 0.0000
# 4 0.0000 0.0000 0.0000 13.1432 0.0000 2.9855
# 5 -12.3368 -6.7972 -23.5904 0.0000 50.6660 0.0000
# 6 0.0000 0.0000 0.0000 2.9855 0.0000 10.7995
#
#
#
# Elastic Compliance Matrix: (Units=1/GPa)
#
#
# Indices 1 2 3 4 5 6 
#
# 1 0.011120 0.002331 -0.003262 0.000000 0.001502 0.000000
# 2 0.002331 0.023338 -0.008696 0.000000 -0.000350 0.000000
# 3 -0.003262 -0.008696 0.014867 0.000000 0.004961 0.000000
# 4 0.000000 0.000000 0.000000 0.081183 0.000000 -0.022443
# 5 0.001502 -0.000350 0.004961 0.000000 0.022366 0.000000
# 6 0.000000 0.000000 0.000000 -0.022443 0.000000 0.098801
#
#
# Mechanical properties :
#
#
# Convention : Reuss Voigt Hill
#
# Bulk Modulus (GPa) = 33.25346 41.71888 37.48617
# Shear Modulus (GPa) = 17.79661 28.00872 22.90266
#
# Velocity S-wave (km/s) = 3.05842 3.83686 3.46954
# Velocity P-wave (km/s) = 5.47266 6.44641 5.97939
#
# Compressibility (1/GPa) = 0.03007205
#
# Stress axis : x y z
#
# Youngs Moduli (GPa) = 89.92486 42.84843 67.26196
#
# Poissons Ratio (x) = -0.09989 0.21938
# Poissons Ratio (y) = -0.20964 0.58494
# Poissons Ratio (z) = 0.29330 0.37263
#
# Static dielectric constant tensor:
#      x y z
#    x 1.781060 0.000000 -0.172670 
#    y 0.000000 1.633450 0.000000 
#    z -0.172670 0.000000 1.934880 
# 
# From -- ./inp_files/42032.got.cif
#   From: 2010.05.17/outbox.cif.g08.bks.cpg/sg10_22_cif.got.tgz:42032.got - 2010.06.03 11:33:40.
