data_PCOD9154234
_publ_section_title
;
Structure prediction by ZEFSAII (Michael W. Deem and Ramdas Pophale) SiO2 
 PCOD9154234
Probable space group: P 2/M
;
_chemical_formula_sum "Si O2"
_cell_formula_units_Z 24
_cell_length_a 11.853408
_cell_length_b 12.812343
_cell_length_c 19.885488
_cell_angle_alpha 90.000000
_cell_angle_beta 153.194851
_cell_angle_gamma 90.000000
_cell_volume 1361.895864
_symmetry_space_group_name_H-M "P 2/M"
_symmetry_group_IT_number 10
_symmetry_cell_setting 'monoclinic'
loop_
_space_group_symop_operation_xyz
x,y,z
-x,y,-z
-x,-y,-z
x,-y,z
loop_
_atom_site_type_symbol
_atom_site_label
_atom_site_fract_x
_atom_site_fract_y
_atom_site_fract_z
Si Si1 0.574645 0.805803 0.963204
Si Si2 0.253528 0.622531 0.040787
Si Si3 0.428189 0.811854 0.569166
Si Si4 0.711065 0.000000 0.255256
Si Si5 0.122578 0.122286 0.289778
Si Si6 0.306472 0.000000 0.597577
Si Si7 0.327245 0.379474 0.239118
O O1 0.851541 0.854938 0.116638
O O2 0.500000 0.778306 0.000000
O O3 0.604483 0.704941 0.930921
O O4 0.393471 0.896508 0.837580
O O5 0.296549 0.500000 0.046230
O O6 0.323116 0.636091 0.156404
O O7 0.952499 0.640590 0.880722
O O8 0.664142 0.845178 0.649153
O O9 0.186657 0.818403 0.392880
O O10 0.411188 0.896319 0.618799
O O11 0.479671 0.698380 0.624871
O O12 0.628789 0.000000 0.289466
O O13 0.010822 0.000000 0.422547
O O14 0.148952 0.000000 0.318876
O O15 0.384919 0.500000 0.282795
#
# Coordination Sequence:
#
# PCOD9154234 Si02
#       7
#     4   4   4   2   4   2   4
#     4  12  23  37  58  82 114 157 193 231 274 344
#     4   9  19  37  58  84 113 147 189 235 288 334
#     4  11  19  35  58  83 113 151 185 232 288 334
#     4  11  25  39  55  84 116 147 196 230 281 342
#     4  11  21  36  54  83 117 152 191 228 283 340
#     4  11  22  38  59  83 112 150 187 240 283 337
#     4   9  18  35  60  85 115 144 181 241 293 335
#
# _framework density 17.622494
#
# number of rings (size 3 to 8) (size 9 to 14) (size 15 to 20)
#    0.000    1.500    4.167    3.750    0.000    0.333 
#    0.000    3.333    0.000    3.000    0.000   11.667 
#    0.000    0.000    0.000    0.000    0.000    0.000 
#
# Total GULP energy -133945.060434 kJ/mol
# GULP energy per Si atom -5581.044185 kJ/mol
# Density = 1.758238 g / cm^3
# Si number density = 17.622494 Si / 1000 Ang^3
#
#
#
# Elastic Constant Matrix: (Units=GPa)
#
#
# Indices 1 2 3 4 5 6 
#
# 1 88.8560 49.7854 8.1855 0.0000 -16.0979 0.0000
# 2 49.7854 134.8761 43.9747 0.0000 -19.3413 0.0000
# 3 8.1855 43.9747 66.5793 0.0000 -7.5609 0.0000
# 4 0.0000 0.0000 0.0000 43.9693 0.0000 -8.3309
# 5 -16.0979 -19.3413 -7.5609 0.0000 18.7760 0.0000
# 6 0.0000 0.0000 0.0000 -8.3309 0.0000 21.3575
#
#
#
# Elastic Compliance Matrix: (Units=1/GPa)
#
#
# Indices 1 2 3 4 5 6 
#
# 1 0.015626 -0.005339 0.002622 0.000000 0.008954 0.000000
# 2 -0.005339 0.012424 -0.006933 0.000000 0.005429 0.000000
# 3 0.002622 -0.006933 0.019618 0.000000 0.003006 0.000000
# 4 0.000000 0.000000 0.000000 0.024558 0.000000 0.009579
# 5 0.008954 0.005429 0.003006 0.000000 0.067739 0.000000
# 6 0.000000 0.000000 0.000000 0.009579 0.000000 0.050558
#
#
# Mechanical properties :
#
#
# Convention : Reuss Voigt Hill
#
# Bulk Modulus (GPa) = 35.25102 54.91141 45.08121
# Shear Modulus (GPa) = 22.80209 29.37829 26.09019
#
# Velocity S-wave (km/s) = 3.60101 4.08743 3.85191
# Velocity P-wave (km/s) = 6.11037 7.31462 6.73944
#
# Compressibility (1/GPa) = 0.02836797
#
# Stress axis : x y z
#
# Youngs Moduli (GPa) = 63.99601 80.49155 50.97427
#
# Poissons Ratio (x) = 0.42972 -0.13364
# Poissons Ratio (y) = 0.34166 0.35339
# Poissons Ratio (z) = -0.16779 0.55803
#
# Static dielectric constant tensor:
#      x y z
#    x 1.613550 0.000000 0.000670 
#    y 0.000000 1.576020 0.000000 
#    z 0.000670 0.000000 1.598070 
# 
# From -- ./inp_files/76739.got.cif
#   From: 2010.05.17/outbox.cif.g08.bks.cpg/sg10_39_cif.got.tgz:76739.got - 2010.06.03 11:33:40.
