data_PCOD9154824
_publ_section_title
;
Structure prediction by ZEFSAII (Michael W. Deem and Ramdas Pophale) SiO2 
 PCOD9154824
Probable space group: P 2/M
;
_chemical_formula_sum "Si O2"
_cell_formula_units_Z 14
_cell_length_a 5.167718
_cell_length_b 19.910609
_cell_length_c 5.719322
_cell_angle_alpha 90.000000
_cell_angle_beta 90.675757
_cell_angle_gamma 90.000000
_cell_volume 588.433910
_symmetry_space_group_name_H-M "P 2/M"
_symmetry_group_IT_number 10
_symmetry_cell_setting 'monoclinic'
loop_
_space_group_symop_operation_xyz
x,y,z
-x,y,-z
-x,-y,-z
x,-y,z
loop_
_atom_site_type_symbol
_atom_site_label
_atom_site_fract_x
_atom_site_fract_y
_atom_site_fract_z
Si Si1 0.140509 0.000000 0.752373
Si Si2 0.000000 0.389642 0.000000
Si Si3 0.638761 0.149611 0.249873
Si Si4 0.241716 0.500000 0.332080
Si Si5 0.759650 0.293334 0.344607
O O1 0.275171 0.072385 0.757750
O O2 0.000000 0.000000 0.500000
O O3 0.000000 0.000000 0.000000
O O4 0.791836 0.342021 0.127086
O O5 0.181401 0.436344 0.165609
O O6 0.500000 0.152797 0.500000
O O7 0.815131 0.215915 0.268984
O O8 0.500000 0.160272 0.000000
O O9 0.500000 0.500000 0.500000
O O10 0.000000 0.500000 0.500000
O O11 0.500000 0.297383 0.500000
O O12 0.000000 0.315339 0.500000
#
# Coordination Sequence:
#
# PCOD9154824 Si02
#       5
#     2   2   4   2   4
#     4  12  24  40  72 104 150 214 273 333 402 474
#     4  11  28  50  88 111 164 210 264 333 410 494
#     4  11  25  46  70 107 156 209 271 337 402 480
#     4  11  28  55  79 120 157 205 266 325 405 496
#     4  11  28  48  76 117 159 207 268 331 403 484
#
# _framework density 23.791968000000001
#
# number of rings (size 3 to 8) (size 9 to 14) (size 15 to 20)
#    0.000    0.857    0.000    4.286   10.000    9.143 
#    0.000    2.143    0.000    0.000    0.000    0.000 
#    0.000    0.000    0.000    0.000    0.000    0.000 
#
# Total GULP energy -78108.833854 kJ/mol
# GULP energy per Si atom -5579.202418 kJ/mol
# Density = 2.373782 g / cm^3
# Si number density = 23.791968 Si / 1000 Ang^3
#
#
#
# Elastic Constant Matrix: (Units=GPa)
#
#
# Indices 1 2 3 4 5 6 
#
# 1 108.9940 38.2879 50.2873 0.0000 -4.2311 0.0000
# 2 38.2879 207.2574 59.7210 0.0000 -21.4249 0.0000
# 3 50.2873 59.7210 171.9747 0.0000 -5.0947 0.0000
# 4 0.0000 0.0000 0.0000 91.1475 0.0000 -5.0130
# 5 -4.2311 -21.4249 -5.0947 0.0000 45.3844 0.0000
# 6 0.0000 0.0000 0.0000 -5.0130 0.0000 51.6920
#
#
#
# Elastic Compliance Matrix: (Units=1/GPa)
#
#
# Indices 1 2 3 4 5 6 
#
# 1 0.010875 -0.001200 -0.002759 0.000000 0.000138 0.000000
# 2 -0.001200 0.005751 -0.001574 0.000000 0.002426 0.000000
# 3 -0.002759 -0.001574 0.007163 0.000000 -0.000196 0.000000
# 4 0.000000 0.000000 0.000000 0.011030 0.000000 0.001070
# 5 0.000138 0.002426 -0.000196 0.000000 0.023170 0.000000
# 6 0.000000 0.000000 0.000000 0.001070 0.000000 0.019449
#
#
# Mechanical properties :
#
#
# Convention : Reuss Voigt Hill
#
# Bulk Modulus (GPa) = 78.60631 87.20206 82.90419
# Shear Modulus (GPa) = 53.91144 60.30678 57.10911
#
# Velocity S-wave (km/s) = 4.76537 5.04010 4.90465
# Velocity P-wave (km/s) = 7.96172 8.40247 8.18506
#
# Compressibility (1/GPa) = 0.01272162
#
# Stress axis : x y z
#
# Youngs Moduli (GPa) = 91.95739 173.88167 139.61479
#
# Poissons Ratio (x) = 0.20859 0.38522
# Poissons Ratio (y) = 0.11032 0.21982
# Poissons Ratio (z) = 0.25373 0.27377
#
# Static dielectric constant tensor:
#      x y z
#    x 1.914030 0.000000 -0.025960 
#    y 0.000000 2.511870 0.000000 
#    z -0.025960 0.000000 1.403100 
# 
# From -- ./inp_files/881.got.cif
#   From: 2010.05.17/outbox.cif.g08.bks.cpg/sg10_1_cif.got.tgz:881.got - 2010.06.03 11:33:40.
