data_PCOD9154839
_publ_section_title
;
Structure prediction by ZEFSAII (Michael W. Deem and Ramdas Pophale) SiO2 
 PCOD9154839
Probable space group: P 2/M
;
_chemical_formula_sum "Si O2"
_cell_formula_units_Z 9
_cell_length_a 5.506463
_cell_length_b 13.616398
_cell_length_c 5.010316
_cell_angle_alpha 90.000000
_cell_angle_beta 88.624702
_cell_angle_gamma 90.000000
_cell_volume 375.556216
_symmetry_space_group_name_H-M "P 2/M"
_symmetry_group_IT_number 10
_symmetry_cell_setting 'monoclinic'
loop_
_space_group_symop_operation_xyz
x,y,z
-x,y,-z
-x,-y,-z
x,-y,z
loop_
_atom_site_type_symbol
_atom_site_label
_atom_site_fract_x
_atom_site_fract_y
_atom_site_fract_z
Si Si1 0.678120 0.000000 0.246246
Si Si2 0.331381 0.672998 0.250991
Si Si3 0.000000 0.500000 0.500000
Si Si4 0.000000 0.836489 0.000000
O O1 0.500000 0.000000 0.500000
O O2 0.850508 0.905792 0.205104
O O3 0.500000 0.000000 0.000000
O O4 0.500000 0.695800 0.500000
O O5 0.153075 0.585987 0.337516
O O6 0.182556 0.766883 0.155999
O O7 0.500000 0.640681 0.000000
#
# Coordination Sequence:
#
# PCOD9154839 Si02
#       4
#     2   4   1   2
#     4  11  28  51  77 112 151 195 250 313 375 446
#     4  12  28  49  77 112 152 201 252 308 373 446
#     4  12  28  50  76 112 156 198 252 310 372 444
#     4  11  28  51  80 112 152 199 252 309 378 448
#
# _framework density 23.964452999999999
#
# number of rings (size 3 to 8) (size 9 to 14) (size 15 to 20)
#    0.000    0.444    0.000    5.333    0.000   27.556 
#    0.000    3.333    0.000    0.000    0.000    0.000 
#    0.000    0.000    0.000    0.000    0.000    0.000 
#
# Total GULP energy -50302.664778 kJ/mol
# GULP energy per Si atom -5589.184975 kJ/mol
# Density = 2.390991 g / cm^3
# Si number density = 23.964453 Si / 1000 Ang^3
#
#
#
# Elastic Constant Matrix: (Units=GPa)
#
#
# Indices 1 2 3 4 5 6 
#
# 1 112.9967 98.0767 127.6931 0.0000 -46.7081 0.0000
# 2 98.0767 235.2365 107.8941 0.0000 -46.2021 0.0000
# 3 127.6931 107.8941 253.7705 0.0000 -49.8536 0.0000
# 4 0.0000 0.0000 0.0000 12.1210 0.0000 -7.6611
# 5 -46.7081 -46.2021 -49.8536 0.0000 70.6277 0.0000
# 6 0.0000 0.0000 0.0000 -7.6611 0.0000 -77.5251
#
#
#
# Elastic Compliance Matrix: (Units=1/GPa)
#
#
# Indices 1 2 3 4 5 6 
#
# 1 0.029190 -0.005688 -0.010691 0.000000 0.008037 0.000000
# 2 -0.005688 0.006692 0.000160 0.000000 0.000729 0.000000
# 3 -0.010691 0.000160 0.009153 0.000000 -0.000505 0.000000
# 4 0.000000 0.000000 0.000000 0.077651 0.000000 -0.007674
# 5 0.008037 0.000729 -0.000505 0.000000 0.019595 0.000000
# 6 0.000000 0.000000 0.000000 -0.007674 0.000000 -0.012141
#
#
# Mechanical properties :
#
#
# Convention : Reuss Voigt Hill
#
# Bulk Modulus (GPa) = 79.37954 141.03682 110.20818
# Shear Modulus (GPa) = 29.97993 18.93403 24.45698
#
# Velocity S-wave (km/s) = 3.54081 2.81390 3.19807
# Velocity P-wave (km/s) = 7.06486 8.33892 7.72819
#
# Compressibility (1/GPa) = 0.01259770
#
# Stress axis : x y z
#
# Youngs Moduli (GPa) = 34.25773 149.42277 109.25678
#
# Poissons Ratio (x) = 0.84996 1.16804
# Poissons Ratio (y) = 0.19487 -0.01750
# Poissons Ratio (z) = 0.36624 -0.02393
#
# Static dielectric constant tensor:
#      x y z
#    x 1.900550 0.000000 0.022990 
#    y 0.000000 1.853590 0.000000 
#    z 0.022990 0.000000 1.869120 
# 
# From -- ./inp_files/289.got.cif
#   From: 2010.05.17/outbox.cif.g08.bks.cpg/sg10_1_cif.got.tgz:289.got - 2010.06.03 11:33:40.
