data_PCOD9154736
_publ_section_title
;
Structure prediction by ZEFSAII (Michael W. Deem and Ramdas Pophale) SiO2 
 PCOD9154736
Probable space group: P 2/M
;
_chemical_formula_sum "Si O2"
_cell_formula_units_Z 15
_cell_length_a 5.293782
_cell_length_b 20.959032
_cell_length_c 5.330435
_cell_angle_alpha 90.000000
_cell_angle_beta 87.289376
_cell_angle_gamma 90.000000
_cell_volume 590.763604
_symmetry_space_group_name_H-M "P 2/M"
_symmetry_group_IT_number 10
_symmetry_cell_setting 'monoclinic'
loop_
_space_group_symop_operation_xyz
x,y,z
-x,y,-z
-x,-y,-z
x,-y,z
loop_
_atom_site_type_symbol
_atom_site_label
_atom_site_fract_x
_atom_site_fract_y
_atom_site_fract_z
Si Si1 0.740587 0.636478 0.672533
Si Si2 0.358283 0.090395 0.255427
Si Si3 0.257754 0.500000 0.324601
Si Si4 0.000000 0.000000 0.500000
Si Si5 0.839478 0.775099 0.764640
O O1 0.500000 0.637824 0.500000
O O2 0.737255 0.568264 0.815162
O O3 0.739010 0.703494 0.815424
O O4 0.000000 0.635984 0.500000
O O5 0.500000 0.067724 0.500000
O O6 0.351593 0.166985 0.259987
O O7 0.090299 0.056550 0.297742
O O8 0.500000 0.070654 0.000000
O O9 0.500000 0.500000 0.500000
O O10 0.000000 0.500000 0.500000
O O11 0.000000 0.773247 0.500000
O O12 0.000000 0.792823 0.000000
#
# Coordination Sequence:
#
# PCOD9154736 Si02
#       5
#     4   4   2   1   4
#     4   9  18  34  61  94 136 182 237 294 360 424
#     4  12  27  47  75 107 140 189 237 293 362 436
#     4   8  14  28  53  90 130 178 230 291 353 425
#     4  12  28  50  76 104 154 174 242 290 374 422
#     4  11  23  44  69  99 137 183 233 297 356 423
#
# _framework density 25.390865000000002
#
# number of rings (size 3 to 8) (size 9 to 14) (size 15 to 20)
#    0.000    1.600    1.333    3.200    0.000    3.200 
#    0.000    0.667    0.000    0.000    0.000   28.933 
#    0.000    0.000    0.000    0.000    0.000    0.000 
#
# Total GULP energy -83646.853411 kJ/mol
# GULP energy per Si atom -5576.456894 kJ/mol
# Density = 2.533307 g / cm^3
# Si number density = 25.390865 Si / 1000 Ang^3
#
#
#
# Elastic Constant Matrix: (Units=GPa)
#
#
# Indices 1 2 3 4 5 6 
#
# 1 110.1210 1.3943 47.0511 0.0000 -9.7951 0.0000
# 2 1.3943 249.1056 23.8485 0.0000 -10.1859 0.0000
# 3 47.0511 23.8485 163.4264 0.0000 -22.0328 0.0000
# 4 0.0000 0.0000 0.0000 -23.3944 0.0000 14.1893
# 5 -9.7951 -10.1859 -22.0328 0.0000 62.6463 0.0000
# 6 0.0000 0.0000 0.0000 14.1893 0.0000 78.8557
#
#
#
# Elastic Compliance Matrix: (Units=1/GPa)
#
#
# Indices 1 2 3 4 5 6 
#
# 1 0.010391 0.000249 -0.002943 0.000000 0.000630 0.000000
# 2 0.000249 0.004091 -0.000602 0.000000 0.000492 0.000000
# 3 -0.002943 -0.000602 0.007326 0.000000 0.002019 0.000000
# 4 0.000000 0.000000 0.000000 -0.038539 0.000000 0.006935
# 5 0.000630 0.000492 0.002019 0.000000 0.016851 0.000000
# 6 0.000000 0.000000 0.000000 0.006935 0.000000 0.011434
#
#
# Mechanical properties :
#
#
# Convention : Reuss Voigt Hill
#
# Bulk Modulus (GPa) = 65.71969 74.13785 69.92877
# Shear Modulus (GPa) = 215.34819 53.64548 134.49683
#
# Velocity S-wave (km/s) = 9.21940 4.60149 7.28598
# Velocity P-wave (km/s) = 11.80124 7.58246 9.91874
#
# Compressibility (1/GPa) = 0.01521614
#
# Stress axis : x y z
#
# Youngs Moduli (GPa) = 96.23415 244.45304 136.49373
#
# Poissons Ratio (x) = -0.06096 0.40172
# Poissons Ratio (y) = -0.02400 0.08222
# Poissons Ratio (z) = 0.28323 0.14726
#
# Static dielectric constant tensor:
#      x y z
#    x 2.165570 0.000000 0.063830 
#    y 0.000000 2.051140 0.000000 
#    z 0.063830 0.000000 1.929380 
# 
# From -- ./inp_files/1202.got.cif
#   From: 2010.05.17/outbox.cif.g08.bks.cpg/sg10_1_cif.got.tgz:1202.got - 2010.06.03 11:33:40.
