data_PCOD9154941
_publ_section_title
;
Structure prediction by ZEFSAII (Michael W. Deem and Ramdas Pophale) SiO2 
 PCOD9154941
Probable space group: P 2/M
;
_chemical_formula_sum "Si O2"
_cell_formula_units_Z 32
_cell_length_a 13.927864
_cell_length_b 19.679284
_cell_length_c 17.705978
_cell_angle_alpha 90.000000
_cell_angle_beta 22.317588
_cell_angle_gamma 90.000000
_cell_volume 1842.893553
_symmetry_space_group_name_H-M "P 2/M"
_symmetry_group_IT_number 10
_symmetry_cell_setting 'monoclinic'
loop_
_space_group_symop_operation_xyz
x,y,z
-x,y,-z
-x,-y,-z
x,-y,z
loop_
_atom_site_type_symbol
_atom_site_label
_atom_site_fract_x
_atom_site_fract_y
_atom_site_fract_z
Si Si1 0.918992 0.809375 0.192495
Si Si2 0.070935 0.664255 0.105462
Si Si3 0.919177 0.421782 0.671973
Si Si4 0.692229 0.578210 0.288074
Si Si5 0.217613 0.077063 0.906411
Si Si6 0.545440 0.577776 0.090551
Si Si7 0.687805 0.337982 0.529094
Si Si8 0.491668 0.806221 0.378188
O O1 0.741572 0.795887 0.248328
O O2 0.733228 0.815211 0.398355
O O3 0.093025 0.743262 0.070803
O O4 0.078024 0.877829 0.070456
O O5 0.328565 0.628705 0.942607
O O6 0.929580 0.622253 0.143020
O O7 0.878244 0.662807 0.317699
O O8 0.008051 0.500000 0.600065
O O9 0.732120 0.420900 0.881364
O O10 0.145923 0.370919 0.525626
O O11 0.733760 0.406078 0.737096
O O12 0.500000 0.578401 0.500000
O O13 0.754473 0.500000 0.227357
O O14 0.540083 0.613523 0.331357
O O15 0.445610 0.124896 0.712070
O O16 0.287701 0.000000 0.874822
O O17 0.000000 0.073047 0.000000
O O18 0.549686 0.500000 0.115300
O O19 0.581512 0.261666 0.614185
#
# Coordination Sequence:
#
# PCOD9154941 Si02
#       8
#     4   4   4   4   4   4   4   4
#     4   9  16  27  42  61  87 115 142 175 215 254
#     4   9  14  21  33  52  79 110 144 178 213 255
#     4   8  13  20  30  48  78 113 146 184 224 253
#     4   9  14  18  28  49  75 104 141 181 212 246
#     4   9  18  30  44  64  87 114 145 169 202 260
#     4   8  13  20  30  48  78 113 146 184 224 253
#     4   9  14  21  33  52  79 110 144 178 213 255
#     4   9  16  27  42  61  87 115 142 175 215 254
#
# _framework density 17.363997999999999
#
# number of rings (size 3 to 8) (size 9 to 14) (size 15 to 20)
#    0.000    3.250    1.250    1.500    0.000    3.500 
#    0.000    2.500    0.000    0.000    0.000    5.250 
#    0.000    4.000    0.000   10.000    0.000    0.250 
#
# Total GULP energy -178500.448148 kJ/mol
# GULP energy per Si atom -5578.139005 kJ/mol
# Density = 1.732448 g / cm^3
# Si number density = 17.363998 Si / 1000 Ang^3
#
#
#
# Elastic Constant Matrix: (Units=GPa)
#
#
# Indices 1 2 3 4 5 6 
#
# 1 52.3201 55.5914 35.9925 0.0000 -14.9106 0.0000
# 2 55.5914 173.9733 62.3339 0.0000 -20.1611 0.0000
# 3 35.9925 62.3339 89.5224 0.0000 -6.5962 0.0000
# 4 0.0000 0.0000 0.0000 42.5815 0.0000 13.6040
# 5 -14.9106 -20.1611 -6.5962 0.0000 19.8132 0.0000
# 6 0.0000 0.0000 0.0000 13.6040 0.0000 24.2769
#
#
#
# Elastic Compliance Matrix: (Units=1/GPa)
#
#
# Indices 1 2 3 4 5 6 
#
# 1 0.037794 -0.006614 -0.009216 0.000000 0.018644 0.000000
# 2 -0.006614 0.009630 -0.003784 0.000000 0.003562 0.000000
# 3 -0.009216 -0.003784 0.017136 0.000000 -0.005081 0.000000
# 4 0.000000 0.000000 0.000000 0.028606 0.000000 -0.016030
# 5 0.018644 0.003562 -0.005081 0.000000 0.066435 0.000000
# 6 0.000000 0.000000 0.000000 -0.016030 0.000000 0.050174
#
#
# Mechanical properties :
#
#
# Convention : Reuss Voigt Hill
#
# Bulk Modulus (GPa) = 39.47526 69.29458 54.38492
# Shear Modulus (GPa) = 19.42157 28.12751 23.77454
#
# Velocity S-wave (km/s) = 3.34802 4.02913 3.70427
# Velocity P-wave (km/s) = 6.14239 7.85104 7.04868
#
# Compressibility (1/GPa) = 0.02533232
#
# Stress axis : x y z
#
# Youngs Moduli (GPa) = 26.45928 103.84343 58.35735
#
# Poissons Ratio (x) = 0.68683 0.53782
# Poissons Ratio (y) = 0.17500 0.22080
# Poissons Ratio (z) = 0.24385 0.39290
#
# Static dielectric constant tensor:
#      x y z
#    x 1.611670 0.000000 0.062980 
#    y 0.000000 1.568980 0.000000 
#    z 0.062980 0.000000 1.652210 
# 
# From -- ./inp_files/85490.got.cif
#   From: 2010.05.17/outbox.cif.g08.bks.cpg/sg10_43_cif.got.tgz:85490.got - 2010.06.03 11:33:40.
