data_PCOD9154016
_publ_section_title
;
Structure prediction by ZEFSAII (Michael W. Deem and Ramdas Pophale) SiO2 
 PCOD9154016
Probable space group: P 2/M
;
_chemical_formula_sum "Si O2"
_cell_formula_units_Z 32
_cell_length_a 11.961051
_cell_length_b 9.157061
_cell_length_c 31.138503
_cell_angle_alpha 90.000000
_cell_angle_beta 152.456388
_cell_angle_gamma 90.000000
_cell_volume 1577.114464
_symmetry_space_group_name_H-M "P 2/M"
_symmetry_group_IT_number 10
_symmetry_cell_setting 'monoclinic'
loop_
_space_group_symop_operation_xyz
x,y,z
-x,y,-z
-x,-y,-z
x,-y,z
loop_
_atom_site_type_symbol
_atom_site_label
_atom_site_fract_x
_atom_site_fract_y
_atom_site_fract_z
Si Si1 0.819195 0.167813 0.501389
Si Si2 0.633051 0.327456 0.818731
Si Si3 0.630992 0.168379 0.343544
Si Si4 0.209594 0.671885 0.905438
Si Si5 0.400936 0.171307 0.817347
Si Si6 0.891375 0.172196 0.039055
Si Si7 0.993667 0.174552 0.747912
Si Si8 0.515902 0.332415 0.556384
O O1 0.661919 0.193955 0.404708
O O2 0.733399 0.278601 0.507897
O O3 0.098226 0.180934 0.583264
O O4 0.779553 0.000000 0.501577
O O5 0.656776 0.500000 0.830000
O O6 0.538039 0.277230 0.739729
O O7 0.447490 0.265999 0.790998
O O8 0.890400 0.248444 0.911867
O O9 0.550776 0.000000 0.309854
O O10 0.148651 0.500000 0.886822
O O11 0.131488 0.752571 0.922352
O O12 0.089884 0.746746 0.823347
O O13 0.500000 0.684866 0.000000
O O14 0.171310 0.210474 0.768404
O O15 0.380974 0.000000 0.798361
O O16 0.638330 0.188633 0.927974
O O17 0.940180 0.000000 0.060082
O O18 0.727639 0.230045 0.646201
O O19 0.000482 0.000000 0.756259
O O20 0.500000 0.320740 0.500000
O O21 0.566531 0.500000 0.585288
#
# Coordination Sequence:
#
# PCOD9154016 Si02
#       8
#     4   4   4   4   4   4   4   4
#     4   9  20  41  68  92 118 157 207 259 310 369
#     4  12  26  39  60  93 128 165 206 256 319 375
#     4   9  20  41  66  92 120 156 205 261 313 368
#     4  11  23  40  65  97 133 168 206 260 323 382
#     4  10  23  43  65  90 121 164 214 261 309 368
#     4  11  23  42  66  90 124 167 214 260 306 366
#     4  11  24  43  68  95 124 168 221 264 311 377
#     4  11  26  44  63  93 134 170 205 261 326 380
#
# _framework density 20.290220999999999
#
# number of rings (size 3 to 8) (size 9 to 14) (size 15 to 20)
#    0.000    1.500    1.250    3.750    3.500    6.000 
#    0.000    1.250    0.000    0.000    0.000    0.000 
#    0.000    0.000    0.000    0.000    0.000    0.000 
#
# Total GULP energy -179017.090227 kJ/mol
# GULP energy per Si atom -5594.284070 kJ/mol
# Density = 2.024404 g / cm^3
# Si number density = 20.290221 Si / 1000 Ang^3
#
#
#
# Elastic Constant Matrix: (Units=GPa)
#
#
# Indices 1 2 3 4 5 6 
#
# 1 65.8494 36.1255 -13.6555 0.0000 -2.1108 0.0000
# 2 36.1255 92.4403 13.5166 0.0000 -8.2286 0.0000
# 3 -13.6555 13.5166 30.4957 0.0000 1.6519 0.0000
# 4 0.0000 0.0000 0.0000 -6.5526 0.0000 -49.4233
# 5 -2.1108 -8.2286 1.6519 0.0000 16.1245 0.0000
# 6 0.0000 0.0000 0.0000 -49.4233 0.0000 -119.3276
#
#
#
# Elastic Compliance Matrix: (Units=1/GPa)
#
#
# Indices 1 2 3 4 5 6 
#
# 1 0.025933 -0.013187 0.017736 0.000000 -0.005152 0.000000
# 2 -0.013187 0.018984 -0.014833 0.000000 0.009481 0.000000
# 3 0.017736 -0.014833 0.047858 0.000000 -0.010150 0.000000
# 4 0.000000 0.000000 0.000000 0.071852 0.000000 -0.029760
# 5 -0.005152 0.009481 -0.010150 0.000000 0.067221 0.000000
# 6 0.000000 0.000000 0.000000 -0.029760 0.000000 0.003946
#
#
# Mechanical properties :
#
#
# Convention : Reuss Voigt Hill
#
# Bulk Modulus (GPa) = 13.84864 28.97316 21.41090
# Shear Modulus (GPa) = 17.82980 -11.76457 3.03262
#
# Velocity S-wave (km/s) = 2.96757 -2.41055 1.22387
# Velocity P-wave (km/s) = 4.31069 2.56178 3.54576
#
# Compressibility (1/GPa) = 0.07220925
#
# Stress axis : x y z
#
# Youngs Moduli (GPa) = 38.56024 52.67619 20.89527
#
# Poissons Ratio (x) = 0.69463 -0.37061
# Poissons Ratio (y) = 0.50848 0.30993
# Poissons Ratio (z) = -0.68392 0.78133
#
# Static dielectric constant tensor:
#      x y z
#    x 1.715720 0.000000 0.008270 
#    y 0.000000 1.677010 0.000000 
#    z 0.008270 0.000000 1.712840 
# 
# From -- ./inp_files/95058.got.cif
#   From: 2010.05.17/outbox.cif.g08.bks.cpg/sg10_48_cif.got.tgz:95058.got - 2010.06.03 11:33:40.
