data_PCOD9154544
_publ_section_title
;
Structure prediction by ZEFSAII (Michael W. Deem and Ramdas Pophale) SiO2 
 PCOD9154544
Probable space group: P 2/M
;
_chemical_formula_sum "Si O2"
_cell_formula_units_Z 23
_cell_length_a 14.102652
_cell_length_b 8.535693
_cell_length_c 9.556401
_cell_angle_alpha 90.000000
_cell_angle_beta 106.058012
_cell_angle_gamma 90.000000
_cell_volume 1105.475822
_symmetry_space_group_name_H-M "P 2/M"
_symmetry_group_IT_number 10
_symmetry_cell_setting 'monoclinic'
loop_
_space_group_symop_operation_xyz
x,y,z
-x,y,-z
-x,-y,-z
x,-y,z
loop_
_atom_site_type_symbol
_atom_site_label
_atom_site_fract_x
_atom_site_fract_y
_atom_site_fract_z
Si Si1 0.682570 0.000000 0.547846
Si Si2 0.657551 0.000000 0.867556
Si Si3 0.113327 0.327049 0.700604
Si Si4 0.500000 0.500000 0.000000
Si Si5 0.192550 0.681107 0.427860
Si Si6 0.323817 0.254182 0.910917
Si Si7 0.426468 0.000000 0.763836
Si Si8 0.040352 0.818167 0.169112
O O1 0.736922 0.834041 0.536460
O O2 0.587822 0.000000 0.408220
O O3 0.667725 0.000000 0.707105
O O4 0.540365 0.000000 0.851660
O O5 0.701365 0.150182 0.963759
O O6 0.069837 0.500000 0.708134
O O7 0.125091 0.304855 0.539479
O O8 0.223715 0.324236 0.808634
O O9 0.047792 0.202312 0.755119
O O10 0.413089 0.367573 0.983353
O O11 0.232565 0.500000 0.445766
O O12 0.127705 0.710644 0.263264
O O13 0.369346 0.145071 0.808291
O O14 0.072956 0.000000 0.178583
O O15 0.000000 0.775172 0.000000
#
# Coordination Sequence:
#
# PCOD9154544 Si02
#       8
#     2   2   4   1   4   4   2   4
#     4  12  25  44  68  96 137 180 216 282 333 390
#     4  11  25  41  62  98 133 172 222 271 337 400
#     4  11  24  40  65  98 128 171 222 273 323 394
#     4  12  20  42  68 102 136 170 222 292 332 362
#     4  11  25  46  67  97 131 176 227 269 323 398
#     4  11  22  39  69  96 131 171 227 271 323 402
#     4  11  21  45  66  92 127 181 220 268 336 396
#     4  11  26  43  67  98 134 173 216 270 334 398
#
# _framework density 20.805520000000001
#
# number of rings (size 3 to 8) (size 9 to 14) (size 15 to 20)
#    0.000    0.870    5.217    1.826    6.087    3.478 
#    1.565    0.000    0.000    2.087    0.000    0.000 
#    0.000    0.000    0.000    0.000    0.000    0.000 
#
# Total GULP energy -128175.194529 kJ/mol
# GULP energy per Si atom -5572.834545 kJ/mol
# Density = 2.075817 g / cm^3
# Si number density = 20.805520 Si / 1000 Ang^3
#
#
#
# Elastic Constant Matrix: (Units=GPa)
#
#
# Indices 1 2 3 4 5 6 
#
# 1 21.8830 7.3493 -9.0307 0.0000 6.2298 0.0000
# 2 7.3493 112.8151 29.8195 0.0000 -3.2458 0.0000
# 3 -9.0307 29.8195 125.8805 0.0000 -3.2671 0.0000
# 4 0.0000 0.0000 0.0000 13.8240 0.0000 -6.9472
# 5 6.2298 -3.2458 -3.2671 0.0000 32.7342 0.0000
# 6 0.0000 0.0000 0.0000 -6.9472 0.0000 16.1676
#
#
#
# Elastic Compliance Matrix: (Units=1/GPa)
#
#
# Indices 1 2 3 4 5 6 
#
# 1 0.052089 -0.004906 0.004641 0.000000 -0.009937 0.000000
# 2 -0.004906 0.009935 -0.002663 0.000000 0.001653 0.000000
# 3 0.004641 -0.002663 0.008901 0.000000 -0.000259 0.000000
# 4 0.000000 0.000000 0.000000 0.092261 0.000000 0.039645
# 5 -0.009937 0.001653 -0.000259 0.000000 0.032578 0.000000
# 6 0.000000 0.000000 0.000000 0.039645 0.000000 0.078888
#
#
# Mechanical properties :
#
#
# Convention : Reuss Voigt Hill
#
# Bulk Modulus (GPa) = 15.36791 35.20610 25.28700
# Shear Modulus (GPa) = 16.54546 28.04117 22.29332
#
# Velocity S-wave (km/s) = 2.82307 3.67519 3.27694
# Velocity P-wave (km/s) = 4.24603 5.91334 5.14764
#
# Compressibility (1/GPa) = 0.06507067
#
# Stress axis : x y z
#
# Youngs Moduli (GPa) = 19.19776 100.65437 112.34691
#
# Poissons Ratio (x) = 0.49381 -0.52142
# Poissons Ratio (y) = 0.09418 0.29913
# Poissons Ratio (z) = -0.08910 0.26800
#
# Static dielectric constant tensor:
#      x y z
#    x 1.730150 0.000000 0.012340 
#    y 0.000000 1.350950 0.000000 
#    z 0.012340 0.000000 1.732250 
# 
# From -- ./inp_files/27394.got.cif
#   From: 2010.05.17/outbox.cif.g08.bks.cpg/sg10_14_cif.got.tgz:27394.got - 2010.06.03 11:33:40.
