data_PCOD9154562
_publ_section_title
;
Structure prediction by ZEFSAII (Michael W. Deem and Ramdas Pophale) SiO2 
 PCOD9154562
Probable space group: P 2/M
;
_chemical_formula_sum "Si O2"
_cell_formula_units_Z 28
_cell_length_a 21.041378
_cell_length_b 8.850146
_cell_length_c 29.741127
_cell_angle_alpha 90.000000
_cell_angle_beta 19.440555
_cell_angle_gamma 90.000000
_cell_volume 1843.328663
_symmetry_space_group_name_H-M "P 2/M"
_symmetry_group_IT_number 10
_symmetry_cell_setting 'monoclinic'
loop_
_space_group_symop_operation_xyz
x,y,z
-x,y,-z
-x,-y,-z
x,-y,z
loop_
_atom_site_type_symbol
_atom_site_label
_atom_site_fract_x
_atom_site_fract_y
_atom_site_fract_z
Si Si1 0.335179 0.179719 0.576494
Si Si2 0.912143 0.177597 0.854511
Si Si3 0.188474 0.180472 0.404238
Si Si4 0.522106 0.679617 0.122622
Si Si5 0.623080 0.181266 0.873457
Si Si6 0.141998 0.320586 0.627001
Si Si7 0.953529 0.318998 0.409211
O O1 0.500000 0.231958 0.500000
O O2 0.318472 0.263260 0.539712
O O3 0.119292 0.200090 0.739767
O O4 0.359470 0.000000 0.552650
O O5 0.962875 0.236864 0.770374
O O6 0.868343 0.000000 0.882711
O O7 0.736590 0.269044 0.991181
O O8 0.368562 0.256199 0.260042
O O9 0.000000 0.212695 0.500000
O O10 0.150146 0.245540 0.479148
O O11 0.212986 0.000000 0.389318
O O12 0.507586 0.500000 0.129555
O O13 0.475058 0.752677 0.105608
O O14 0.832994 0.252979 0.736217
O O15 0.639048 0.000000 0.858522
O O16 0.500000 0.215749 0.000000
O O17 0.118717 0.500000 0.648000
O O18 0.148547 0.285484 0.570175
O O19 0.963002 0.500000 0.408522
#
# Coordination Sequence:
#
# PCOD9154562 Si02
#       7
#     4   4   4   4   4   4   4
#     4   8  16  31  52  78 107 138 167 198 244 304
#     4   9  18  32  51  74 106 136 166 203 245 297
#     4  11  23  38  55  71  92 129 179 221 257 302
#     4  12  23  35  52  72  99 131 171 215 258 301
#     4  11  23  35  50  70  96 132 173 209 253 301
#     4   9  18  31  49  77 108 134 164 203 251 301
#     4  11  22  35  51  72 100 132 171 215 257 299
#
# _framework density 15.189912
#
# number of rings (size 3 to 8) (size 9 to 14) (size 15 to 20)
#    0.857    1.000    1.429    3.857    0.000    6.571 
#    0.000    0.000    0.000    0.000    0.000    1.000 
#    0.000    8.000    0.000    0.000    0.000    0.000 
#
# Total GULP energy -156033.555638 kJ/mol
# GULP energy per Si atom -5572.626987 kJ/mol
# Density = 1.515534 g / cm^3
# Si number density = 15.189912 Si / 1000 Ang^3
#
#
#
# Elastic Constant Matrix: (Units=GPa)
#
#
# Indices 1 2 3 4 5 6 
#
# 1 85.4652 41.1202 58.5383 0.0000 -5.1608 0.0000
# 2 41.1202 61.9697 45.9216 0.0000 3.3724 0.0000
# 3 58.5383 45.9216 98.4673 0.0000 12.5450 0.0000
# 4 0.0000 0.0000 0.0000 23.9942 0.0000 -9.4672
# 5 -5.1608 3.3724 12.5450 0.0000 18.9051 0.0000
# 6 0.0000 0.0000 0.0000 -9.4672 0.0000 56.4132
#
#
#
# Elastic Compliance Matrix: (Units=1/GPa)
#
#
# Indices 1 2 3 4 5 6 
#
# 1 0.026403 -0.007890 -0.014326 0.000000 0.018121 0.000000
# 2 -0.007890 0.027234 -0.007774 0.000000 -0.001853 0.000000
# 3 -0.014326 -0.007774 0.024708 0.000000 -0.018920 0.000000
# 4 0.000000 0.000000 0.000000 0.044632 0.000000 0.007490
# 5 0.018121 -0.001853 -0.018920 0.000000 0.070728 0.000000
# 6 0.000000 0.000000 0.000000 0.007490 0.000000 0.018983
#
#
# Mechanical properties :
#
#
# Convention : Reuss Voigt Hill
#
# Bulk Modulus (GPa) = 54.44984 59.67359 57.06171
# Shear Modulus (GPa) = 17.93454 26.55064 22.24259
#
# Velocity S-wave (km/s) = 3.43984 4.18534 3.83077
# Velocity P-wave (km/s) = 7.19031 7.92000 7.56396
#
# Compressibility (1/GPa) = 0.01836553
#
# Stress axis : x y z
#
# Youngs Moduli (GPa) = 37.87391 36.71817 40.47249
#
# Poissons Ratio (x) = 0.28972 0.57979
# Poissons Ratio (y) = 0.29884 0.31464
# Poissons Ratio (z) = 0.54256 0.28545
#
# Static dielectric constant tensor:
#      x y z
#    x 1.506080 0.000000 -0.014350 
#    y 0.000000 1.505660 0.000000 
#    z -0.014350 0.000000 1.493490 
# 
# From -- ./inp_files/93525.got.cif
#   From: 2010.05.17/outbox.cif.g08.bks.cpg/sg10_47_cif.got.tgz:93525.got - 2010.06.03 11:33:40.
