data_PCOD9154020
_publ_section_title
;
Structure prediction by ZEFSAII (Michael W. Deem and Ramdas Pophale) SiO2 
 PCOD9154020
Probable space group: P 2/M
;
_chemical_formula_sum "Si O2"
_cell_formula_units_Z 19
_cell_length_a 14.024069
_cell_length_b 7.388494
_cell_length_c 17.244704
_cell_angle_alpha 90.000000
_cell_angle_beta 30.729481
_cell_angle_gamma 90.000000
_cell_volume 913.049027
_symmetry_space_group_name_H-M "P 2/M"
_symmetry_group_IT_number 10
_symmetry_cell_setting 'monoclinic'
loop_
_space_group_symop_operation_xyz
x,y,z
-x,y,-z
-x,-y,-z
x,-y,z
loop_
_atom_site_type_symbol
_atom_site_label
_atom_site_fract_x
_atom_site_fract_y
_atom_site_fract_z
Si Si1 0.967908 0.000000 0.850024
Si Si2 0.851495 0.707118 0.171221
Si Si3 0.951334 0.000000 0.676329
Si Si4 0.546962 0.209811 0.553483
Si Si5 0.531529 0.000000 0.164614
Si Si6 0.500000 0.000000 0.000000
Si Si7 0.252820 0.707691 0.434689
O O1 0.752629 0.000000 0.030049
O O2 0.976696 0.000000 0.751540
O O3 0.077498 0.171306 0.808197
O O4 0.832888 0.500000 0.208513
O O5 0.660253 0.776126 0.267713
O O6 0.000000 0.719086 0.000000
O O7 0.730259 0.000000 0.819487
O O8 0.062256 0.174969 0.564999
O O9 0.500000 0.281517 0.500000
O O10 0.684963 0.297127 0.518099
O O11 0.598535 0.000000 0.509896
O O12 0.413774 0.826801 0.279225
O O13 0.538512 0.000000 0.066599
O O14 0.237948 0.500000 0.417335
#
# Coordination Sequence:
#
# PCOD9154020 Si02
#       7
#     2   4   2   4   2   1   4
#     4  11  21  36  59  84 122 164 213 257 304 363
#     4  11  23  34  51  82 122 168 212 256 302 348
#     4  10  23  43  66  94 120 158 196 253 316 379
#     4  11  21  35  56  86 126 169 213 255 291 341
#     4  10  23  44  68  93 122 164 200 262 320 377
#     4  10  24  50  74  94 128 152 194 254 334 394
#     4  11  23  41  65  95 128 166 211 252 303 368
#
# _framework density 20.809396
#
# number of rings (size 3 to 8) (size 9 to 14) (size 15 to 20)
#    0.000    1.263    3.158    3.474    0.000    8.421 
#    0.000    6.316    0.000    0.000    0.000    0.000 
#    0.000    0.000    0.000    0.000    0.000    0.000 
#
# Total GULP energy -105822.522838 kJ/mol
# GULP energy per Si atom -5569.606465 kJ/mol
# Density = 2.076203 g / cm^3
# Si number density = 20.809396 Si / 1000 Ang^3
#
#
#
# Elastic Constant Matrix: (Units=GPa)
#
#
# Indices 1 2 3 4 5 6 
#
# 1 63.4464 11.3978 8.0213 0.0000 -14.9005 0.0000
# 2 11.3978 127.9388 41.8465 0.0000 -0.1848 0.0000
# 3 8.0213 41.8465 126.8302 0.0000 -26.4403 0.0000
# 4 0.0000 0.0000 0.0000 12.0021 0.0000 0.5009
# 5 -14.9005 -0.1848 -26.4403 0.0000 50.5686 0.0000
# 6 0.0000 0.0000 0.0000 0.5009 0.0000 -6.5633
#
#
#
# Elastic Compliance Matrix: (Units=1/GPa)
#
#
# Indices 1 2 3 4 5 6 
#
# 1 0.017263 -0.001727 0.000603 0.000000 0.005396 0.000000
# 2 -0.001727 0.009061 -0.003344 0.000000 -0.002224 0.000000
# 3 0.000603 -0.003344 0.010083 0.000000 0.005438 0.000000
# 4 0.000000 0.000000 0.000000 0.083054 0.000000 0.006339
# 5 0.005396 -0.002224 0.005438 0.000000 0.024200 0.000000
# 6 0.000000 0.000000 0.000000 0.006339 0.000000 -0.151879
#
#
# Mechanical properties :
#
#
# Convention : Reuss Voigt Hill
#
# Bulk Modulus (GPa) = 36.40344 48.97183 42.68763
# Shear Modulus (GPa) = 506.35281 28.33147 267.34214
#
# Velocity S-wave (km/s) = 15.61593 3.69382 11.34684
# Velocity P-wave (km/s) = 18.51147 6.46351 13.86455
#
# Compressibility (1/GPa) = 0.02746993
#
# Stress axis : x y z
#
# Youngs Moduli (GPa) = 57.92885 110.36738 99.17390
#
# Poissons Ratio (x) = 0.19064 -0.05980
# Poissons Ratio (y) = 0.10006 0.33163
# Poissons Ratio (z) = -0.03493 0.36906
#
# Static dielectric constant tensor:
#      x y z
#    x 1.724540 0.000000 0.021790 
#    y 0.000000 1.755530 0.000000 
#    z 0.021790 0.000000 1.849010 
# 
# From -- ./inp_files/77322.got.cif
#   From: 2010.05.17/outbox.cif.g08.bks.cpg/sg10_39_cif.got.tgz:77322.got - 2010.06.03 11:33:40.
