data_PCOD9154408
_publ_section_title
;
Structure prediction by ZEFSAII (Michael W. Deem and Ramdas Pophale) SiO2 
 PCOD9154408
Probable space group: P 2/M
;
_chemical_formula_sum "Si O2"
_cell_formula_units_Z 28
_cell_length_a 17.213988
_cell_length_b 8.423163
_cell_length_c 22.101139
_cell_angle_alpha 90.000000
_cell_angle_beta 31.041316
_cell_angle_gamma 90.000000
_cell_volume 1652.461956
_symmetry_space_group_name_H-M "P 2/M"
_symmetry_group_IT_number 10
_symmetry_cell_setting 'monoclinic'
loop_
_space_group_symop_operation_xyz
x,y,z
-x,y,-z
-x,-y,-z
x,-y,z
loop_
_atom_site_type_symbol
_atom_site_label
_atom_site_fract_x
_atom_site_fract_y
_atom_site_fract_z
Si Si1 0.504501 0.689387 0.094616
Si Si2 0.691160 0.185624 0.426692
Si Si3 0.241450 0.307427 0.990248
Si Si4 0.365910 0.314845 0.664721
Si Si5 0.258307 0.689419 0.174454
Si Si6 0.169325 0.810189 0.904742
Si Si7 0.988968 0.307542 0.748322
O O1 0.483325 0.500000 0.117609
O O2 0.346296 0.755191 0.174480
O O3 0.596920 0.749178 0.090825
O O4 0.623879 0.705307 0.959833
O O5 0.543752 0.278243 0.547885
O O6 0.699436 0.220048 0.349226
O O7 0.844985 0.240581 0.354835
O O8 0.334157 0.000000 0.546878
O O9 0.244417 0.500000 0.985946
O O10 0.112629 0.263998 0.125240
O O11 0.205510 0.241144 0.948707
O O12 0.342139 0.500000 0.668440
O O13 0.284127 0.265337 0.780471
O O14 0.239657 0.500000 0.196615
O O15 0.101615 0.749040 0.251129
O O16 0.178285 0.000000 0.893815
O O17 0.000000 0.760098 0.000000
O O18 0.994729 0.500000 0.743024
#
# Coordination Sequence:
#
# PCOD9154408 Si02
#       7
#     4   4   4   4   4   4   4
#     4   7  10  19  36  61  91 121 154 191 231 268
#     4  11  21  34  51  71  97 124 151 187 234 282
#     4   9  17  28  45  69  96 127 162 197 230 271
#     4  11  22  37  55  71  89 117 157 198 232 270
#     4   7  10  18  36  62  92 122 152 191 231 266
#     4  11  23  36  49  68  96 127 156 188 230 279
#     4   9  16  27  45  71  99 127 161 195 228 268
#
# _framework density 16.944413999999998
#
# number of rings (size 3 to 8) (size 9 to 14) (size 15 to 20)
#    0.000    2.714    0.000    7.286    0.000    4.000 
#    0.000    0.000    0.000    0.857    0.000    5.000 
#    0.000    8.000    0.000    0.000    0.000    0.000 
#
# Total GULP energy -155951.458631 kJ/mol
# GULP energy per Si atom -5569.694951 kJ/mol
# Density = 1.690585 g / cm^3
# Si number density = 16.944414 Si / 1000 Ang^3
#
#
#
# Elastic Constant Matrix: (Units=GPa)
#
#
# Indices 1 2 3 4 5 6 
#
# 1 147.1392 1.0973 37.2286 0.0000 -23.6679 0.0000
# 2 1.0973 14.7369 4.4219 0.0000 1.0310 0.0000
# 3 37.2286 4.4219 37.0573 0.0000 -5.2249 0.0000
# 4 0.0000 0.0000 0.0000 -11.9325 0.0000 -77.4258
# 5 -23.6679 1.0310 -5.2249 0.0000 23.9587 0.0000
# 6 0.0000 0.0000 0.0000 -77.4258 0.0000 -219.6805
#
#
#
# Elastic Compliance Matrix: (Units=1/GPa)
#
#
# Indices 1 2 3 4 5 6 
#
# 1 0.010544 0.001521 -0.009611 0.000000 0.008255 0.000000
# 2 0.001521 0.071185 -0.010567 0.000000 -0.003865 0.000000
# 3 -0.009611 -0.010567 0.037789 0.000000 -0.000798 0.000000
# 4 0.000000 0.000000 0.000000 0.065121 0.000000 -0.022952
# 5 0.008255 -0.003865 -0.000798 0.000000 0.049885 0.000000
# 6 0.000000 0.000000 0.000000 -0.022952 0.000000 0.003537
#
#
# Mechanical properties :
#
#
# Convention : Reuss Voigt Hill
#
# Bulk Modulus (GPa) = 12.16486 31.60322 21.88404
# Shear Modulus (GPa) = 16.51381 -31.11847 -7.30233
#
# Velocity S-wave (km/s) = 3.12523 -4.29009 -2.07820
# Velocity P-wave (km/s) = 4.49640 2.41832 2.68042
#
# Compressibility (1/GPa) = 0.08220401
#
# Stress axis : x y z
#
# Youngs Moduli (GPa) = 94.83626 14.04798 26.46284
#
# Poissons Ratio (x) = -0.02137 0.25433
# Poissons Ratio (y) = -0.14426 0.27964
# Poissons Ratio (z) = 0.91145 0.14845
#
# Static dielectric constant tensor:
#      x y z
#    x 1.618040 0.000000 -0.026340 
#    y 0.000000 1.574500 0.000000 
#    z -0.026340 0.000000 1.545750 
# 
# From -- ./inp_files/85623.got.cif
#   From: 2010.05.17/outbox.cif.g08.bks.cpg/sg10_43_cif.got.tgz:85623.got - 2010.06.03 11:33:40.
