data_PCOD9154885
_publ_section_title
;
Structure prediction by ZEFSAII (Michael W. Deem and Ramdas Pophale) SiO2 
 PCOD9154885
Probable space group: P 2/M
;
_chemical_formula_sum "Si O2"
_cell_formula_units_Z 24
_cell_length_a 13.013781
_cell_length_b 13.203032
_cell_length_c 24.452024
_cell_angle_alpha 90.000000
_cell_angle_beta 162.583211
_cell_angle_gamma 90.000000
_cell_volume 1257.558774
_symmetry_space_group_name_H-M "P 2/M"
_symmetry_group_IT_number 10
_symmetry_cell_setting 'monoclinic'
loop_
_space_group_symop_operation_xyz
x,y,z
-x,y,-z
-x,-y,-z
x,-y,z
loop_
_atom_site_type_symbol
_atom_site_label
_atom_site_fract_x
_atom_site_fract_y
_atom_site_fract_z
Si Si1 0.683994 0.883956 0.480514
Si Si2 0.943087 0.720745 0.690313
Si Si3 0.301960 0.720713 0.985309
Si Si4 0.960914 0.500000 0.693830
Si Si5 0.572686 0.115064 0.199810
Si Si6 0.676634 0.500000 0.002471
Si Si7 0.372618 0.878320 0.212802
O O1 0.725858 0.809376 0.552639
O O2 0.455059 0.839265 0.314910
O O3 0.061594 0.888318 0.644195
O O4 0.587301 0.000000 0.446136
O O5 0.318935 0.717202 0.851241
O O6 0.782557 0.608936 0.599362
O O7 0.036241 0.737990 0.800995
O O8 0.330788 0.809758 0.043470
O O9 0.235749 0.609548 0.977286
O O10 0.268409 0.500000 0.806046
O O11 0.145560 0.500000 0.847116
O O12 0.612295 0.147835 0.282932
O O13 0.431006 0.000000 0.127923
O O14 0.401371 0.000000 0.234224
O O15 0.000000 0.853692 0.000000
#
# Coordination Sequence:
#
# PCOD9154885 Si02
#       7
#     4   4   4   2   4   2   4
#     4   9  16  25  39  60  83 103 125 158 197 232
#     4   8  13  21  35  57  83 107 128 153 189 230
#     4   8  13  21  35  57  83 107 128 153 189 230
#     4   7  10  18  32  51  77 106 132 155 180 217
#     4   9  16  25  39  60  83 103 125 158 197 232
#     4   7  10  18  32  51  77 106 132 155 180 217
#     4   9  17  29  43  56  73 102 138 167 190 225
#
# _framework density 19.084595
#
# number of rings (size 3 to 8) (size 9 to 14) (size 15 to 20)
#    0.000    3.667    0.000    2.500    0.000    2.667 
#    0.000    3.333    0.000    2.000    0.000   12.833 
#    0.000    4.000    0.000    0.000    0.000    0.000 
#
# Total GULP energy -133608.207239 kJ/mol
# GULP energy per Si atom -5567.008635 kJ/mol
# Density = 1.904116 g / cm^3
# Si number density = 19.084595 Si / 1000 Ang^3
#
#
#
# Elastic Constant Matrix: (Units=GPa)
#
#
# Indices 1 2 3 4 5 6 
#
# 1 29.0455 23.2190 42.0044 0.0000 -1.2993 0.0000
# 2 23.2190 106.9055 62.4898 0.0000 -27.6529 0.0000
# 3 42.0044 62.4898 54.4078 0.0000 -39.2213 0.0000
# 4 0.0000 0.0000 0.0000 -22.3874 0.0000 2.0126
# 5 -1.2993 -27.6529 -39.2213 0.0000 28.5751 0.0000
# 6 0.0000 0.0000 0.0000 2.0126 0.0000 1.5697
#
#
#
# Elastic Compliance Matrix: (Units=1/GPa)
#
#
# Indices 1 2 3 4 5 6 
#
# 1 0.005413 -0.009486 0.026141 0.000000 0.026947 0.000000
# 2 -0.009486 0.015590 -0.001676 0.000000 0.012355 0.000000
# 3 0.026141 -0.001676 -0.017924 0.000000 -0.025035 0.000000
# 4 0.000000 0.000000 0.000000 -0.040051 0.000000 0.051352
# 5 0.026947 0.012355 -0.025035 0.000000 0.013814 0.000000
# 6 0.000000 0.000000 0.000000 0.051352 0.000000 0.571232
#
#
# Mechanical properties :
#
#
# Convention : Reuss Voigt Hill
#
# Bulk Modulus (GPa) = 30.26918 49.53169 39.90044
# Shear Modulus (GPa) = 9.44951 5.72783 7.58867
#
# Velocity S-wave (km/s) = 2.22758 1.73430 1.99624
# Velocity P-wave (km/s) = 4.74459 5.47910 5.12502
#
# Compressibility (1/GPa) = 0.03303690
#
# Stress axis : x y z
#
# Youngs Moduli (GPa) = 184.73364 64.14423 -55.79173
#
# Poissons Ratio (x) = 0.60845 1.45844
# Poissons Ratio (y) = 1.75232 -0.09353
# Poissons Ratio (z) = -4.82909 0.10753
#
# Static dielectric constant tensor:
#      x y z
#    x 1.683940 0.000000 0.050510 
#    y 0.000000 1.688710 0.000000 
#    z 0.050510 0.000000 1.707830 
# 
# From -- ./inp_files/64852.got.cif
#   From: 2010.05.17/outbox.cif.g08.bks.cpg/sg10_33_cif.got.tgz:64852.got - 2010.06.03 11:33:40.
