data_PCOD9154490
_publ_section_title
;
Structure prediction by ZEFSAII (Michael W. Deem and Ramdas Pophale) SiO2 
 PCOD9154490
Probable space group: P 2/M
;
_chemical_formula_sum "Si O2"
_cell_formula_units_Z 18
_cell_length_a 7.838950
_cell_length_b 22.783389
_cell_length_c 9.253467
_cell_angle_alpha 90.000000
_cell_angle_beta 146.766432
_cell_angle_gamma 90.000000
_cell_volume 905.740004
_symmetry_space_group_name_H-M "P 2/M"
_symmetry_group_IT_number 10
_symmetry_cell_setting 'monoclinic'
loop_
_space_group_symop_operation_xyz
x,y,z
-x,y,-z
-x,-y,-z
x,-y,z
loop_
_atom_site_type_symbol
_atom_site_label
_atom_site_fract_x
_atom_site_fract_y
_atom_site_fract_z
Si Si1 0.927259 0.881085 0.615920
Si Si2 0.868125 0.000000 0.745915
Si Si3 0.628722 0.689711 0.753985
Si Si4 0.372614 0.562928 0.246676
Si Si5 0.303394 0.815198 0.111074
O O1 0.575201 0.855997 0.368228
O O2 0.000000 0.889701 0.500000
O O3 0.961130 0.941637 0.726064
O O4 0.168621 0.836761 0.863100
O O5 0.500000 0.000000 0.500000
O O6 0.000000 0.000000 0.000000
O O7 0.500000 0.696899 0.500000
O O8 0.527832 0.626251 0.745328
O O9 0.564660 0.748890 0.796347
O O10 0.000000 0.686721 0.000000
O O11 0.500000 0.563084 0.500000
O O12 0.464511 0.500000 0.243308
O O13 0.000000 0.562703 0.000000
O O14 0.000000 0.817072 0.000000
#
# Coordination Sequence:
#
# PCOD9154490 Si02
#       5
#     4   2   4   4   4
#     4  12  25  41  59  84 114 141 174 221 271 314
#     4  12  25  42  65  86 107 140 181 216 259 320
#     4   9  16  26  44  70  99 134 175 217 259 309
#     4   8  13  21  34  57  93 132 165 204 260 313
#     4  11  21  37  59  82 109 145 185 221 263 320
#
# _framework density 19.873253999999999
#
# number of rings (size 3 to 8) (size 9 to 14) (size 15 to 20)
#    0.000    1.778    0.000    7.667    0.000    0.000 
#    0.000    3.333    0.000    0.000    0.000    0.000 
#    0.000    5.333    0.000    0.000    0.000    0.000 
#
# Total GULP energy -100391.129147 kJ/mol
# GULP energy per Si atom -5577.284953 kJ/mol
# Density = 1.982802 g / cm^3
# Si number density = 19.873254 Si / 1000 Ang^3
#
#
#
# Elastic Constant Matrix: (Units=GPa)
#
#
# Indices 1 2 3 4 5 6 
#
# 1 44.6436 42.4208 22.8500 0.0000 -15.7299 0.0000
# 2 42.4208 213.0577 59.1749 0.0000 -24.0875 0.0000
# 3 22.8500 59.1749 169.4369 0.0000 -11.4277 0.0000
# 4 0.0000 0.0000 0.0000 33.2203 0.0000 -1.1235
# 5 -15.7299 -24.0875 -11.4277 0.0000 30.3821 0.0000
# 6 0.0000 0.0000 0.0000 -1.1235 0.0000 -6.2615
#
#
#
# Elastic Compliance Matrix: (Units=1/GPa)
#
#
# Indices 1 2 3 4 5 6 
#
# 1 0.031929 -0.004432 -0.001929 0.000000 0.012292 0.000000
# 2 -0.004432 0.006209 -0.001430 0.000000 0.002091 0.000000
# 3 -0.001929 -0.001430 0.006687 0.000000 0.000383 0.000000
# 4 0.000000 0.000000 0.000000 0.029921 0.000000 -0.005369
# 5 0.012292 0.002091 0.000383 0.000000 0.041080 0.000000
# 6 0.000000 0.000000 0.000000 -0.005369 0.000000 -0.158742
#
#
# Mechanical properties :
#
#
# Convention : Reuss Voigt Hill
#
# Bulk Modulus (GPa) = 34.19494 75.11439 54.65467
# Shear Modulus (GPa) = -284.31404 31.64766 -126.33319
#
# Velocity S-wave (km/s) = -11.97390 3.99491 -7.98170
# Velocity P-wave (km/s) = 13.18794 7.69142 7.57509
#
# Compressibility (1/GPa) = 0.02924409
#
# Stress axis : x y z
#
# Youngs Moduli (GPa) = 31.31944 161.04440 149.53749
#
# Poissons Ratio (x) = 0.71371 0.28848
# Poissons Ratio (y) = 0.13880 0.21383
# Poissons Ratio (z) = 0.06042 0.23029
#
# Static dielectric constant tensor:
#      x y z
#    x 1.671930 0.000000 0.009140 
#    y 0.000000 1.824300 0.000000 
#    z 0.009140 0.000000 1.657990 
# 
# From -- ./inp_files/15435.got.cif
#   From: 2010.05.17/outbox.cif.g08.bks.cpg/sg10_8_cif.got.tgz:15435.got - 2010.06.03 11:33:40.
