data_PCOD9154294
_publ_section_title
;
Structure prediction by ZEFSAII (Michael W. Deem and Ramdas Pophale) SiO2 
 PCOD9154294
Probable space group: P 2/M
;
_chemical_formula_sum "Si O2"
_cell_formula_units_Z 28
_cell_length_a 12.206160
_cell_length_b 13.339251
_cell_length_c 10.007861
_cell_angle_alpha 90.000000
_cell_angle_beta 55.456503
_cell_angle_gamma 90.000000
_cell_volume 1342.204532
_symmetry_space_group_name_H-M "P 2/M"
_symmetry_group_IT_number 10
_symmetry_cell_setting 'monoclinic'
loop_
_space_group_symop_operation_xyz
x,y,z
-x,y,-z
-x,-y,-z
x,-y,z
loop_
_atom_site_type_symbol
_atom_site_label
_atom_site_fract_x
_atom_site_fract_y
_atom_site_fract_z
Si Si1 0.005019 0.393521 0.835790
Si Si2 0.316711 0.613996 0.607789
Si Si3 0.355039 0.748330 0.839072
Si Si4 0.653585 0.742885 0.658388
Si Si5 0.903258 0.114616 0.446427
Si Si6 0.341259 0.387875 0.095528
Si Si7 0.922587 0.178935 0.912364
O O1 0.950729 0.500000 0.825951
O O2 0.940606 0.290670 0.838382
O O3 0.159094 0.388527 0.695536
O O4 0.000000 0.394442 0.000000
O O5 0.355996 0.500000 0.617905
O O6 0.345560 0.698747 0.698717
O O7 0.370622 0.652086 0.429481
O O8 0.503519 0.787946 0.769703
O O9 0.324662 0.654916 0.958675
O O10 0.235033 0.827246 0.948079
O O11 0.771090 0.816484 0.528098
O O12 0.699742 0.693647 0.765564
O O13 0.000000 0.148600 0.500000
O O14 0.996177 0.114637 0.250344
O O15 0.861606 0.000000 0.503647
O O16 0.290663 0.500000 0.155232
O O17 0.500000 0.393109 0.000000
O O18 0.000000 0.173226 0.000000
#
# Coordination Sequence:
#
# PCOD9154294 Si02
#       7
#     4   4   4   4   4   4   4
#     4   9  16  29  51  81 122 162 196 232 273 328
#     4  11  20  32  56  91 128 166 203 235 275 337
#     4  11  21  34  59  88 123 161 199 236 285 340
#     4  11  22  39  59  87 120 156 196 250 298 348
#     4  11  25  46  68  86 110 148 195 251 317 373
#     4   9  19  34  52  79 120 163 197 230 278 342
#     4  11  20  39  62  89 119 155 196 242 286 355
#
# _framework density 20.861203
#
# number of rings (size 3 to 8) (size 9 to 14) (size 15 to 20)
#    0.000    1.571    4.286    2.143    0.000    3.143 
#    0.000    0.714    0.000   12.000    0.000    0.000 
#    0.000    0.000    0.000    0.000    0.000    0.000 
#
# Total GULP energy -156067.282115 kJ/mol
# GULP energy per Si atom -5573.831504 kJ/mol
# Density = 2.081372 g / cm^3
# Si number density = 20.861203 Si / 1000 Ang^3
#
#
#
# Elastic Constant Matrix: (Units=GPa)
#
#
# Indices 1 2 3 4 5 6 
#
# 1 103.5016 19.7568 29.1770 0.0000 -25.3000 0.0000
# 2 19.7568 55.8119 11.0933 0.0000 -10.2216 0.0000
# 3 29.1770 11.0933 77.7906 0.0000 -6.8881 0.0000
# 4 0.0000 0.0000 0.0000 20.8774 0.0000 -0.9829
# 5 -25.3000 -10.2216 -6.8881 0.0000 46.0911 0.0000
# 6 0.0000 0.0000 0.0000 -0.9829 0.0000 16.4786
#
#
#
# Elastic Compliance Matrix: (Units=1/GPa)
#
#
# Indices 1 2 3 4 5 6 
#
# 1 0.012673 -0.002658 -0.003862 0.000000 0.005790 0.000000
# 2 -0.002658 0.019659 -0.001570 0.000000 0.002666 0.000000
# 3 -0.003862 -0.001570 0.014501 0.000000 -0.000301 0.000000
# 4 0.000000 0.000000 0.000000 0.048034 0.000000 0.002865
# 5 0.005790 0.002666 -0.000301 0.000000 0.025420 0.000000
# 6 0.000000 0.000000 0.000000 0.002865 0.000000 0.060856
#
#
# Mechanical properties :
#
#
# Convention : Reuss Voigt Hill
#
# Bulk Modulus (GPa) = 32.62417 39.68426 36.15421
# Shear Modulus (GPa) = 24.09179 28.49454 26.29317
#
# Velocity S-wave (km/s) = 3.40201 3.69983 3.55404
# Velocity P-wave (km/s) = 5.57711 6.10868 5.84894
#
# Compressibility (1/GPa) = 0.03065212
#
# Stress axis : x y z
#
# Youngs Moduli (GPa) = 78.90865 50.86815 68.96233
#
# Poissons Ratio (x) = 0.13522 0.26630
# Poissons Ratio (y) = 0.20975 0.10830
# Poissons Ratio (z) = 0.30471 0.07988
#
# Static dielectric constant tensor:
#      x y z
#    x 1.846870 0.000000 -0.031600 
#    y 0.000000 1.749260 0.000000 
#    z -0.031600 0.000000 1.758010 
# 
# From -- ./inp_files/25157.got.cif
#   From: 2010.05.17/outbox.cif.g08.bks.cpg/sg10_13_cif.got.tgz:25157.got - 2010.06.03 11:33:40.
