data_PCOD9154070
_publ_section_title
;
Structure prediction by ZEFSAII (Michael W. Deem and Ramdas Pophale) SiO2 
 PCOD9154070
Probable space group: P 2/M
;
_chemical_formula_sum "Si O2"
_cell_formula_units_Z 30
_cell_length_a 9.479971
_cell_length_b 29.570102
_cell_length_c 5.480745
_cell_angle_alpha 90.000000
_cell_angle_beta 71.954378
_cell_angle_gamma 90.000000
_cell_volume 1460.808344
_symmetry_space_group_name_H-M "P 2/M"
_symmetry_group_IT_number 10
_symmetry_cell_setting 'monoclinic'
loop_
_space_group_symop_operation_xyz
x,y,z
-x,y,-z
-x,-y,-z
x,-y,z
loop_
_atom_site_type_symbol
_atom_site_label
_atom_site_fract_x
_atom_site_fract_y
_atom_site_fract_z
Si Si1 0.902298 0.500000 0.800852
Si Si2 0.094183 0.051185 0.698927
Si Si3 0.671647 0.417604 0.901021
Si Si4 0.648845 0.215403 0.768594
Si Si5 0.847343 0.189984 0.056274
Si Si6 0.149958 0.724225 0.582655
Si Si7 0.341274 0.126428 0.567434
Si Si8 0.672991 0.360049 0.397594
O O1 0.793608 0.456707 0.850203
O O2 0.000000 0.500000 0.500000
O O3 0.000000 0.500000 0.000000
O O4 0.217553 0.089298 0.592447
O O5 0.000000 0.052198 0.500000
O O6 0.156300 0.000000 0.688513
O O7 0.000000 0.058419 0.000000
O O8 0.692223 0.389171 0.637725
O O9 0.500000 0.434571 0.000000
O O10 0.686395 0.387868 0.138930
O O11 0.688832 0.261997 0.618253
O O12 0.638300 0.168696 0.626752
O O13 0.500000 0.220794 0.000000
O O14 0.805293 0.209855 0.823051
O O15 0.864889 0.232017 0.230915
O O16 0.714924 0.155093 0.171748
O O17 0.000000 0.163934 0.000000
O O18 0.197037 0.677629 0.681954
O O19 0.000000 0.719158 0.500000
O O20 0.500000 0.103826 0.500000
O O21 0.500000 0.343788 0.500000
#
# Coordination Sequence:
#
# PCOD9154070 Si02
#       8
#     2   4   4   4   4   4   4   4
#     4  12  25  42  71 106 136 168 212 270 333 384
#     4  10  24  45  69  97 128 167 210 257 321 391
#     4  10  23  46  68  97 131 175 218 263 323 393
#     4  11  24  40  61  89 128 168 215 271 321 379
#     4  11  23  40  59  87 124 166 213 264 323 384
#     4  11  25  39  59  91 122 171 219 268 323 379
#     4  11  24  38  62  95 124 163 213 266 324 378
#     4  10  24  41  67  96 128 171 223 268 321 381
#
# _framework density 20.536574000000002
#
# number of rings (size 3 to 8) (size 9 to 14) (size 15 to 20)
#    0.000    1.333    2.667    1.400    7.467    2.400 
#    0.000    2.667    0.000    2.800    0.000    0.000 
#    0.000    0.000    0.000    0.000    0.000    0.000 
#
# Total GULP energy -167037.837348 kJ/mol
# GULP energy per Si atom -5567.927912 kJ/mol
# Density = 2.048983 g / cm^3
# Si number density = 20.536574 Si / 1000 Ang^3
#
#
#
# Elastic Constant Matrix: (Units=GPa)
#
#
# Indices 1 2 3 4 5 6 
#
# 1 109.4154 61.0280 33.5489 0.0000 -7.1654 0.0000
# 2 61.0280 96.1646 22.6210 0.0000 -4.0733 0.0000
# 3 33.5489 22.6210 84.3491 0.0000 0.3531 0.0000
# 4 0.0000 0.0000 0.0000 845.9948 0.0000 343.6727
# 5 -7.1654 -4.0733 0.3531 0.0000 35.1298 0.0000
# 6 0.0000 0.0000 0.0000 343.6727 0.0000 142.6909
#
#
#
# Elastic Compliance Matrix: (Units=1/GPa)
#
#
# Indices 1 2 3 4 5 6 
#
# 1 0.015305 -0.008739 -0.003753 0.000000 0.002146 0.000000
# 2 -0.008739 0.016150 -0.000856 0.000000 0.000099 0.000000
# 3 -0.003753 -0.000856 0.013582 0.000000 -0.001001 0.000000
# 4 0.000000 0.000000 0.000000 0.054780 0.000000 -0.131939
# 5 0.002146 0.000099 -0.001001 0.000000 0.028925 0.000000
# 6 0.000000 0.000000 0.000000 -0.131939 0.000000 0.324786
#
#
# Mechanical properties :
#
#
# Convention : Reuss Voigt Hill
#
# Bulk Modulus (GPa) = 54.51998 58.25834 56.38916
# Shear Modulus (GPa) = 10.28092 216.27850 113.27971
#
# Velocity S-wave (km/s) = 2.23987 10.27339 7.43503
# Velocity P-wave (km/s) = 5.77016 13.00588 10.06101
#
# Compressibility (1/GPa) = 0.01834190
#
# Stress axis : x y z
#
# Youngs Moduli (GPa) = 65.33738 61.91774 73.62812
#
# Poissons Ratio (x) = 0.54112 0.27631
# Poissons Ratio (y) = 0.57100 0.06301
# Poissons Ratio (z) = 0.24519 0.05298
#
# Static dielectric constant tensor:
#      x y z
#    x 1.724320 0.000000 0.007410 
#    y 0.000000 1.723150 0.000000 
#    z 0.007410 0.000000 1.782420 
# 
# From -- ./inp_files/5524.got.cif
#   From: 2010.05.17/outbox.cif.g08.bks.cpg/sg10_3_cif.got.tgz:5524.got - 2010.06.03 11:33:40.
