data_PCOD9154068
_publ_section_title
;
Structure prediction by ZEFSAII (Michael W. Deem and Ramdas Pophale) SiO2 
 PCOD9154068
Probable space group: P 2/M
;
_chemical_formula_sum "Si O2"
_cell_formula_units_Z 16
_cell_length_a 5.243709
_cell_length_b 12.657438
_cell_length_c 12.684216
_cell_angle_alpha 90.000000
_cell_angle_beta 129.579642
_cell_angle_gamma 90.000000
_cell_volume 648.867076
_symmetry_space_group_name_H-M "P 2/M"
_symmetry_group_IT_number 10
_symmetry_cell_setting 'monoclinic'
loop_
_space_group_symop_operation_xyz
x,y,z
-x,y,-z
-x,-y,-z
x,-y,z
loop_
_atom_site_type_symbol
_atom_site_label
_atom_site_fract_x
_atom_site_fract_y
_atom_site_fract_z
Si Si1 0.544144 0.884101 0.173811
Si Si2 0.631472 0.656943 0.923252
Si Si3 0.625534 0.620221 0.370717
Si Si4 0.311769 0.167470 0.344941
O O1 0.362630 0.784955 0.074262
O O2 0.471195 0.876655 0.279717
O O3 0.931960 0.864838 0.254812
O O4 0.442852 0.000000 0.109522
O O5 0.411888 0.625970 0.765406
O O6 0.500000 0.620217 0.000000
O O7 0.000000 0.619211 0.000000
O O8 0.565155 0.500000 0.389326
O O9 0.368915 0.705808 0.348346
O O10 0.000000 0.651206 0.500000
O O11 0.500000 0.133290 0.500000
#
# Coordination Sequence:
#
# PCOD9154068 Si02
#       4
#     4   4   4   4
#     4  11  24  41  64  95 132 178 227 275 331 395
#     4  11  24  44  68  98 139 179 222 277 334 397
#     4  10  23  45  73 102 135 178 225 276 337 402
#     4  11  22  40  64  96 138 175 220 279 334 397
#
# _framework density 24.658365
#
# number of rings (size 3 to 8) (size 9 to 14) (size 15 to 20)
#    0.000    1.250    0.000    7.500    0.000    5.500 
#    0.000   12.500    0.000    0.000    0.000    0.000 
#    0.000    0.000    0.000    0.000    0.000    0.000 
#
# Total GULP energy -89728.525592 kJ/mol
# GULP energy per Si atom -5608.032849 kJ/mol
# Density = 2.460224 g / cm^3
# Si number density = 24.658365 Si / 1000 Ang^3
#
#
#
# Elastic Constant Matrix: (Units=GPa)
#
#
# Indices 1 2 3 4 5 6 
#
# 1 201.7598 24.6747 73.8947 0.0000 -12.4311 0.0000
# 2 24.6747 161.4834 -12.4012 0.0000 15.5544 0.0000
# 3 73.8947 -12.4012 129.0233 0.0000 -12.1179 0.0000
# 4 0.0000 0.0000 0.0000 -50.6823 0.0000 -28.5817
# 5 -12.4311 15.5544 -12.1179 0.0000 51.1241 0.0000
# 6 0.0000 0.0000 0.0000 -28.5817 0.0000 -30.7227
#
#
#
# Elastic Compliance Matrix: (Units=1/GPa)
#
#
# Indices 1 2 3 4 5 6 
#
# 1 0.006592 -0.001408 -0.003804 0.000000 0.001129 0.000000
# 2 -0.001408 0.006705 0.001255 0.000000 -0.002085 0.000000
# 3 -0.003804 0.001255 0.010153 0.000000 0.001100 0.000000
# 4 0.000000 0.000000 0.000000 -0.041507 0.000000 0.038614
# 5 0.001129 -0.002085 0.001100 0.000000 0.020730 0.000000
# 6 0.000000 0.000000 0.000000 0.038614 0.000000 -0.068473
#
#
# Mechanical properties :
#
#
# Convention : Reuss Voigt Hill
#
# Bulk Modulus (GPa) = 64.37083 73.84476 69.10779
# Shear Modulus (GPa) = -94.86461 21.01704 -36.92378
#
# Velocity S-wave (km/s) = -6.20927 2.92263 -3.87384
# Velocity P-wave (km/s) = 5.02444 6.43438 2.84220
#
# Compressibility (1/GPa) = 0.01553499
#
# Stress axis : x y z
#
# Youngs Moduli (GPa) = 151.70917 149.14338 98.48976
#
# Poissons Ratio (x) = 0.21002 0.37470
# Poissons Ratio (y) = 0.21363 -0.12362
# Poissons Ratio (z) = 0.57716 -0.18719
#
# Static dielectric constant tensor:
#      x y z
#    x 1.901290 0.000000 -0.061230 
#    y 0.000000 2.029640 0.000000 
#    z -0.061230 0.000000 1.762800 
# 
# From -- ./inp_files/47536.got.cif
#   From: 2010.05.17/outbox.cif.g08.bks.cpg/sg10_24_cif.got.tgz:47536.got - 2010.06.03 11:33:40.
