data_PCOD9154959
_publ_section_title
;
Structure prediction by ZEFSAII (Michael W. Deem and Ramdas Pophale) SiO2 
 PCOD9154959
Probable space group: P 2/M
;
_chemical_formula_sum "Si O2"
_cell_formula_units_Z 28
_cell_length_a 23.953435
_cell_length_b 9.537994
_cell_length_c 21.093964
_cell_angle_alpha 90.000000
_cell_angle_beta 163.440047
_cell_angle_gamma 90.000000
_cell_volume 1373.586648
_symmetry_space_group_name_H-M "P 2/M"
_symmetry_group_IT_number 10
_symmetry_cell_setting 'monoclinic'
loop_
_space_group_symop_operation_xyz
x,y,z
-x,y,-z
-x,-y,-z
x,-y,z
loop_
_atom_site_type_symbol
_atom_site_label
_atom_site_fract_x
_atom_site_fract_y
_atom_site_fract_z
Si Si1 0.986369 0.669606 0.056442
Si Si2 0.315092 0.338333 0.871375
Si Si3 0.889294 0.338179 0.477915
Si Si4 0.340585 0.334123 0.534048
Si Si5 0.758607 0.664641 0.923324
Si Si6 0.508104 0.161339 0.829037
Si Si7 0.064063 0.839638 0.774319
O O1 0.994648 0.500000 0.060519
O O2 0.165702 0.709741 0.297338
O O3 0.000000 0.725744 0.000000
O O4 0.794951 0.703904 0.889782
O O5 0.381095 0.500000 0.944406
O O6 0.266598 0.298934 0.746135
O O7 0.102365 0.336005 0.674870
O O8 0.456227 0.242163 0.066382
O O9 0.856900 0.500000 0.462069
O O10 0.913325 0.235546 0.563008
O O11 0.319984 0.500000 0.527435
O O12 0.539204 0.318088 0.709243
O O13 0.370817 0.244045 0.630312
O O14 0.807945 0.500000 0.984190
O O15 0.898513 0.752168 0.121607
O O16 0.451409 0.000000 0.776163
O O17 0.723925 0.161428 0.030427
O O18 0.012927 0.000000 0.731407
#
# Coordination Sequence:
#
# PCOD9154959 Si02
#       7
#     4   4   4   4   4   4   4
#     4   9  18  32  51  77 102 121 152 197 237 280
#     4   8  13  21  34  55  86 123 161 201 243 285
#     4   8  13  21  34  55  86 123 161 201 243 285
#     4   9  17  30  49  71  96 127 159 193 236 283
#     4   9  17  30  49  71  96 127 159 193 236 283
#     4   9  16  25  39  61  90 124 162 202 239 279
#     4   9  16  25  39  61  90 124 162 202 239 279
#
# _framework density 20.384589999999999
#
# number of rings (size 3 to 8) (size 9 to 14) (size 15 to 20)
#    0.000    3.286    0.000    1.714    0.000    4.571 
#    0.000    6.429    0.000    1.714    0.000    5.000 
#    0.000    8.000    0.000    0.857    0.000    0.000 
#
# Total GULP energy -156320.161734 kJ/mol
# GULP energy per Si atom -5582.862919 kJ/mol
# Density = 2.033819 g / cm^3
# Si number density = 20.384590 Si / 1000 Ang^3
#
#
#
# Elastic Constant Matrix: (Units=GPa)
#
#
# Indices 1 2 3 4 5 6 
#
# 1 112.3491 46.8228 22.5493 0.0000 -12.9803 0.0000
# 2 46.8228 63.6429 21.2473 0.0000 -16.1330 0.0000
# 3 22.5493 21.2473 69.4749 0.0000 -3.0866 0.0000
# 4 0.0000 0.0000 0.0000 -2.7937 0.0000 4.0846
# 5 -12.9803 -16.1330 -3.0866 0.0000 29.5269 0.0000
# 6 0.0000 0.0000 0.0000 4.0846 0.0000 -1.3979
#
#
#
# Elastic Compliance Matrix: (Units=1/GPa)
#
#
# Indices 1 2 3 4 5 6 
#
# 1 0.012977 -0.008881 -0.001465 0.000000 0.000699 0.000000
# 2 -0.008881 0.026364 -0.004736 0.000000 0.010006 0.000000
# 3 -0.001465 -0.004736 0.016249 0.000000 -0.001533 0.000000
# 4 0.000000 0.000000 0.000000 0.109394 0.000000 0.319640
# 5 0.000699 0.010006 -0.001533 0.000000 0.039481 0.000000
# 6 0.000000 0.000000 0.000000 0.319640 0.000000 0.218621
#
#
# Mechanical properties :
#
#
# Convention : Reuss Voigt Hill
#
# Bulk Modulus (GPa) = 39.32822 47.41175 43.36999
# Shear Modulus (GPa) = 10.82896 15.39022 13.10959
#
# Velocity S-wave (km/s) = 2.30735 2.75069 2.53872
# Velocity P-wave (km/s) = 5.14135 5.77906 5.46951
#
# Compressibility (1/GPa) = 0.02542703
#
# Stress axis : x y z
#
# Youngs Moduli (GPa) = 77.06032 37.93073 61.54103
#
# Poissons Ratio (x) = 0.33686 0.09014
# Poissons Ratio (y) = 0.68437 0.29144
# Poissons Ratio (z) = 0.11287 0.17963
#
# Static dielectric constant tensor:
#      x y z
#    x 1.749980 0.000000 0.068440 
#    y 0.000000 1.673440 0.000000 
#    z 0.068440 0.000000 1.752850 
# 
# From -- ./inp_files/86550.got.cif
#   From: 2010.05.17/outbox.cif.g08.bks.cpg/sg10_44_cif.got.tgz:86550.got - 2010.06.03 11:33:40.
