data_PCOD9154180
_publ_section_title
;
Structure prediction by ZEFSAII (Michael W. Deem and Ramdas Pophale) SiO2 
 PCOD9154180
Probable space group: P 2/M
;
_chemical_formula_sum "Si O2"
_cell_formula_units_Z 27
_cell_length_a 8.891781
_cell_length_b 22.517389
_cell_length_c 8.746707
_cell_angle_alpha 90.000000
_cell_angle_beta 128.504065
_cell_angle_gamma 90.000000
_cell_volume 1370.475342
_symmetry_space_group_name_H-M "P 2/M"
_symmetry_group_IT_number 10
_symmetry_cell_setting 'monoclinic'
loop_
_space_group_symop_operation_xyz
x,y,z
-x,y,-z
-x,-y,-z
x,-y,z
loop_
_atom_site_type_symbol
_atom_site_label
_atom_site_fract_x
_atom_site_fract_y
_atom_site_fract_z
Si Si1 0.000000 0.500000 0.500000
Si Si2 0.260614 0.192581 0.550243
Si Si3 0.835017 0.698204 0.018938
Si Si4 0.500000 0.894974 0.500000
Si Si5 0.718615 0.605171 0.203457
Si Si6 0.213771 0.934424 0.068274
Si Si7 0.836417 0.823986 0.176086
Si Si8 0.576021 0.318641 0.389494
O O1 0.861262 0.551466 0.330486
O O2 0.404236 0.148589 0.561097
O O3 0.283007 0.192144 0.747395
O O4 0.296701 0.259252 0.511265
O O5 0.052895 0.167223 0.373670
O O6 0.818607 0.651130 0.147681
O O7 0.859882 0.765335 0.089971
O O8 0.623156 0.699234 0.814401
O O9 0.000000 0.682574 0.000000
O O10 0.351027 0.930628 0.302522
O O11 0.682730 0.637802 0.342364
O O12 0.500000 0.590820 0.000000
O O13 0.234731 0.000000 0.009919
O O14 0.239191 0.880314 0.965655
O O15 0.000000 0.928154 0.000000
O O16 0.500000 0.345553 0.500000
#
# Coordination Sequence:
#
# PCOD9154180 Si02
#       8
#     1   4   4   2   4   4   4   4
#     4  12  26  44  80  90 140 186 220 264 324 370
#     4  11  23  37  64  98 133 166 216 273 340 403
#     4  11  23  38  67  97 136 169 217 279 336 390
#     4  12  23  42  66  96 124 173 224 272 338 399
#     4  10  25  46  69 101 134 178 224 267 322 389
#     4  11  24  44  65  90 128 175 224 275 332 397
#     4  11  23  41  62  97 133 173 216 275 340 397
#     4  11  22  39  64 100 137 167 217 274 331 390
#
# _framework density 19.701195999999999
#
# number of rings (size 3 to 8) (size 9 to 14) (size 15 to 20)
#    0.000    1.037    3.704    2.667    4.148    1.778 
#    0.000    4.444    0.000    0.000    0.000    0.000 
#    0.000    0.000    0.000    0.000    0.000    0.000 
#
# Total GULP energy -150463.694097 kJ/mol
# GULP energy per Si atom -5572.729411 kJ/mol
# Density = 1.965635 g / cm^3
# Si number density = 19.701196 Si / 1000 Ang^3
#
#
#
# Elastic Constant Matrix: (Units=GPa)
#
#
# Indices 1 2 3 4 5 6 
#
# 1 114.0157 44.8614 24.1539 0.0000 -22.9820 0.0000
# 2 44.8614 124.1698 48.9705 0.0000 -7.2496 0.0000
# 3 24.1539 48.9705 89.6728 0.0000 -4.7782 0.0000
# 4 0.0000 0.0000 0.0000 -14.0822 0.0000 5.3680
# 5 -22.9820 -7.2496 -4.7782 0.0000 30.4693 0.0000
# 6 0.0000 0.0000 0.0000 5.3680 0.0000 -6.6073
#
#
#
# Elastic Compliance Matrix: (Units=1/GPa)
#
#
# Indices 1 2 3 4 5 6 
#
# 1 0.011958 -0.003504 -0.000879 0.000000 0.008048 0.000000
# 2 -0.003504 0.011366 -0.005304 0.000000 -0.000770 0.000000
# 3 -0.000879 -0.005304 0.014302 0.000000 0.000318 0.000000
# 4 0.000000 0.000000 0.000000 -0.102870 0.000000 -0.083575
# 5 0.008048 -0.000770 0.000318 0.000000 0.038757 0.000000
# 6 0.000000 0.000000 0.000000 -0.083575 0.000000 -0.219246
#
#
# Mechanical properties :
#
#
# Convention : Reuss Voigt Hill
#
# Bulk Modulus (GPa) = 54.78753 62.64777 58.71765
# Shear Modulus (GPa) = -22.69895 15.94746 -3.37575
#
# Velocity S-wave (km/s) = -3.39803 2.84820 -1.31042
# Velocity P-wave (km/s) = 3.53187 6.53332 5.25159
#
# Compressibility (1/GPa) = 0.01825233
#
# Stress axis : x y z
#
# Youngs Moduli (GPa) = 83.62823 87.97850 69.92003
#
# Poissons Ratio (x) = 0.30826 0.06143
# Poissons Ratio (y) = 0.29302 0.37089
# Poissons Ratio (z) = 0.07348 0.46668
#
# Static dielectric constant tensor:
#      x y z
#    x 1.712250 0.000000 -0.006680 
#    y 0.000000 1.657390 0.000000 
#    z -0.006680 0.000000 1.816200 
# 
# From -- ./inp_files/20495.got.cif
#   From: 2010.05.17/outbox.cif.g08.bks.cpg/sg10_11_cif.got.tgz:20495.got - 2010.06.03 11:33:40.
