data_PCOD9154857
_publ_section_title
;
Structure prediction by ZEFSAII (Michael W. Deem and Ramdas Pophale) SiO2 
 PCOD9154857
Probable space group: P 2/M
;
_chemical_formula_sum "Si O2"
_cell_formula_units_Z 25
_cell_length_a 8.628412
_cell_length_b 23.130167
_cell_length_c 8.620639
_cell_angle_alpha 90.000000
_cell_angle_beta 52.223125
_cell_angle_gamma 90.000000
_cell_volume 1359.869736
_symmetry_space_group_name_H-M "P 2/M"
_symmetry_group_IT_number 10
_symmetry_cell_setting 'monoclinic'
loop_
_space_group_symop_operation_xyz
x,y,z
-x,y,-z
-x,-y,-z
x,-y,z
loop_
_atom_site_type_symbol
_atom_site_label
_atom_site_fract_x
_atom_site_fract_y
_atom_site_fract_z
Si Si1 0.862083 0.305874 0.445114
Si Si2 0.817877 0.000000 0.715820
Si Si3 0.500000 0.500000 0.500000
Si Si4 0.448361 0.000000 0.712730
Si Si5 0.800372 0.600795 0.211620
Si Si6 0.308932 0.899291 0.004813
Si Si7 0.112712 0.775382 0.092074
Si Si8 0.550257 0.681003 0.140396
O O1 0.855331 0.352366 0.310573
O O2 0.644718 0.299132 0.648650
O O3 0.000000 0.327294 0.500000
O O4 0.963873 0.247791 0.315606
O O5 0.819180 0.056313 0.818931
O O6 0.000000 0.000000 0.500000
O O7 0.628961 0.000000 0.722298
O O8 0.669181 0.550295 0.363993
O O9 0.500000 0.000000 0.500000
O O10 0.350417 0.938483 0.825173
O O11 0.662803 0.633781 0.172502
O O12 0.000000 0.582716 0.000000
O O13 0.195076 0.839978 0.051729
O O14 0.500000 0.889384 0.000000
O O15 0.300780 0.733638 0.977555
O O16 0.000000 0.767672 0.000000
O O17 0.500000 0.657992 0.000000
#
# Coordination Sequence:
#
# PCOD9154857 Si02
#       8
#     4   2   1   2   4   4   4   4
#     4  12  23  41  69  94 129 177 214 259 330 387
#     4   9  19  39  64  82 118 165 206 258 322 377
#     4  12  26  40  76  98 132 178 214 274 316 366
#     4   9  19  41  64  86 116 170 203 261 333 372
#     4  12  23  46  69  99 133 169 221 263 323 385
#     4   9  21  41  60  86 126 161 212 263 316 388
#     4  12  24  40  61  97 128 170 214 270 318 387
#     4  12  22  42  69  92 133 174 211 266 324 382
#
# _framework density 18.384112999999999
#
# number of rings (size 3 to 8) (size 9 to 14) (size 15 to 20)
#    0.000    0.960    6.400    1.680    0.000    1.920 
#    5.760    2.400    0.000    0.000    0.000    0.000 
#    0.000    0.000    0.000    0.000    0.000    0.000 
#
# Total GULP energy -139189.315079 kJ/mol
# GULP energy per Si atom -5567.572603 kJ/mol
# Density = 1.834227 g / cm^3
# Si number density = 18.384113 Si / 1000 Ang^3
#
#
#
# Elastic Constant Matrix: (Units=GPa)
#
#
# Indices 1 2 3 4 5 6 
#
# 1 93.1760 38.9049 38.9577 0.0000 12.1922 0.0000
# 2 38.9049 115.0929 40.9527 0.0000 2.0216 0.0000
# 3 38.9577 40.9527 136.0473 0.0000 -12.6635 0.0000
# 4 0.0000 0.0000 0.0000 45.0404 0.0000 -41.1623
# 5 12.1922 2.0216 -12.6635 0.0000 47.6614 0.0000
# 6 0.0000 0.0000 0.0000 -41.1623 0.0000 27.7066
#
#
#
# Elastic Compliance Matrix: (Units=1/GPa)
#
#
# Indices 1 2 3 4 5 6 
#
# 1 0.014201 -0.003506 -0.003420 0.000000 -0.004393 0.000000
# 2 -0.003506 0.010666 -0.002220 0.000000 -0.000145 0.000000
# 3 -0.003420 -0.002220 0.009319 0.000000 0.003445 0.000000
# 4 0.000000 0.000000 0.000000 -0.062064 0.000000 -0.092206
# 5 -0.004393 -0.000145 0.003445 0.000000 0.023027 0.000000
# 6 0.000000 0.000000 0.000000 -0.092206 0.000000 -0.100893
#
#
# Mechanical properties :
#
#
# Convention : Reuss Voigt Hill
#
# Bulk Modulus (GPa) = 62.92024 64.66075 63.79050
# Shear Modulus (GPa) = -60.86191 39.11507 -10.87342
#
# Velocity S-wave (km/s) = -5.76000 4.61766 -2.43463
# Velocity P-wave (km/s) = 3.15232 7.97990 5.18371
#
# Compressibility (1/GPa) = 0.01589314
#
# Stress axis : x y z
#
# Youngs Moduli (GPa) = 70.41686 93.75171 107.31093
#
# Poissons Ratio (x) = 0.32873 0.36700
# Poissons Ratio (y) = 0.24691 0.23826
# Poissons Ratio (z) = 0.24082 0.20815
#
# Static dielectric constant tensor:
#      x y z
#    x 1.637260 0.000000 -0.004200 
#    y 0.000000 1.604450 0.000000 
#    z -0.004200 0.000000 1.648180 
# 
# From -- ./inp_files/20207.got.cif
#   From: 2010.05.17/outbox.cif.g08.bks.cpg/sg10_11_cif.got.tgz:20207.got - 2010.06.03 11:33:40.
