data_PCOD9154997
_publ_section_title
;
Structure prediction by ZEFSAII (Michael W. Deem and Ramdas Pophale) SiO2 
 PCOD9154997
Probable space group: P 2/M
;
_chemical_formula_sum "Si O2"
_cell_formula_units_Z 28
_cell_length_a 7.567630
_cell_length_b 20.957833
_cell_length_c 15.003901
_cell_angle_alpha 90.000000
_cell_angle_beta 40.837549
_cell_angle_gamma 90.000000
_cell_volume 1556.083126
_symmetry_space_group_name_H-M "P 2/M"
_symmetry_group_IT_number 10
_symmetry_cell_setting 'monoclinic'
loop_
_space_group_symop_operation_xyz
x,y,z
-x,y,-z
-x,-y,-z
x,-y,z
loop_
_atom_site_type_symbol
_atom_site_label
_atom_site_fract_x
_atom_site_fract_y
_atom_site_fract_z
Si Si1 0.548454 0.829049 0.166097
Si Si2 0.019464 0.687506 0.842987
Si Si3 0.723328 0.428932 0.659151
Si Si4 0.299218 0.428932 0.659151
Si Si5 0.250445 0.073088 0.166370
Si Si6 0.548425 0.312494 0.157013
Si Si7 0.953254 0.170951 0.166097
O O1 0.356630 0.885958 0.209128
O O2 0.422967 0.758307 0.206256
O O3 0.684530 0.838019 0.210313
O O4 0.798370 0.827757 0.000000
O O5 0.041735 0.758307 0.793744
O O6 0.095632 0.629215 0.750572
O O7 0.236138 0.688154 0.842575
O O8 0.728899 0.679151 1.000000
O O9 0.735733 0.500000 0.695444
O O10 0.486411 0.430286 0.675726
O O11 0.652652 0.370785 0.750572
O O12 0.000000 0.418381 0.500000
O O13 0.500000 0.418381 0.500000
O O14 0.177935 0.500000 0.695444
O O15 0.015987 0.114042 0.209128
O O16 0.181141 0.000000 0.212572
O O17 0.500000 0.071998 0.000000
#
# Coordination Sequence:
#
# PCOD9154997 Si02
#       7
#     4   4   4   4   4   4   4
#     4   8  14  25  39  56  82 114 145 181 223 261
#     4   8  14  26  44  63  83 113 151 187 222 262
#     4   9  17  29  44  62  87 117 145 181 228 269
#     4   9  17  29  44  62  87 117 145 181 228 269
#     4   9  16  24  36  58  87 117 147 175 213 272
#     4   8  14  26  44  63  83 113 151 187 222 262
#     4   8  14  25  39  56  82 114 145 181 223 261
#
# _framework density 17.993897
#
# number of rings (size 3 to 8) (size 9 to 14) (size 15 to 20)
#    0.000    3.571    0.000    1.714    0.000    1.143 
#    2.571    5.714    0.000    0.000    0.000    4.000 
#    0.000    1.143    0.571    0.000    0.000    0.000 
#
# Total GULP energy -155933.607800 kJ/mol
# GULP energy per Si atom -5569.057421 kJ/mol
# Density = 1.795294 g / cm^3
# Si number density = 17.993897 Si / 1000 Ang^3
#
#
#
# Elastic Constant Matrix: (Units=GPa)
#
#
# Indices 1 2 3 4 5 6 
#
# 1 67.7901 62.8411 13.4455 0.0000 -0.4203 0.0000
# 2 62.8411 227.6974 62.6265 0.0000 -0.0027 0.0000
# 3 13.4455 62.6265 25.7690 0.0000 -0.1020 0.0000
# 4 0.0000 0.0000 0.0000 -14.7016 0.0000 -0.1209
# 5 -0.4203 -0.0027 -0.1020 0.0000 10.2704 0.0000
# 6 0.0000 0.0000 0.0000 -0.1209 0.0000 -4.9839
#
#
#
# Elastic Compliance Matrix: (Units=1/GPa)
#
#
# Indices 1 2 3 4 5 6 
#
# 1 0.020533 -0.008207 0.009236 0.000000 0.000930 0.000000
# 2 -0.008207 0.016527 -0.035886 0.000000 -0.000688 0.000000
# 3 0.009236 -0.035886 0.121208 0.000000 0.001573 0.000000
# 4 0.000000 0.000000 0.000000 -0.068033 0.000000 0.001650
# 5 0.000930 -0.000688 0.001573 0.000000 0.097421 0.000000
# 6 0.000000 0.000000 0.000000 0.001650 0.000000 -0.200686
#
#
# Mechanical properties :
#
#
# Convention : Reuss Voigt Hill
#
# Bulk Modulus (GPa) = 11.29266 66.56476 38.92871
# Shear Modulus (GPa) = 58.00218 10.27320 34.13769
#
# Velocity S-wave (km/s) = 5.68369 2.39200 4.36039
# Velocity P-wave (km/s) = 7.02580 6.68597 6.85799
#
# Compressibility (1/GPa) = 0.08855307
#
# Stress axis : x y z
#
# Youngs Moduli (GPa) = 48.70142 60.50677 8.25027
#
# Poissons Ratio (x) = 0.49658 -0.07620
# Poissons Ratio (y) = 0.39970 0.29607
# Poissons Ratio (z) = -0.44979 2.17136
#
# Static dielectric constant tensor:
#      x y z
#    x 1.673530 0.000000 -0.001260 
#    y 0.000000 1.632170 0.000000 
#    z -0.001260 0.000000 1.572000 
# 
# From -- ./inp_files/75279.got.cif
#   From: 2010.05.17/outbox.cif.g08.bks.cpg/sg10_38_cif.got.tgz:75279.got - 2010.06.03 11:33:40.
