data_PCOD9154042
_publ_section_title
;
Structure prediction by ZEFSAII (Michael W. Deem and Ramdas Pophale) SiO2 
 PCOD9154042
Probable space group: P 2/M
;
_chemical_formula_sum "Si O2"
_cell_formula_units_Z 13
_cell_length_a 12.992716
_cell_length_b 9.523683
_cell_length_c 4.873317
_cell_angle_alpha 90.000000
_cell_angle_beta 100.637729
_cell_angle_gamma 90.000000
_cell_volume 592.653530
_symmetry_space_group_name_H-M "P 2/M"
_symmetry_group_IT_number 10
_symmetry_cell_setting 'monoclinic'
loop_
_space_group_symop_operation_xyz
x,y,z
-x,y,-z
-x,-y,-z
x,-y,z
loop_
_atom_site_type_symbol
_atom_site_label
_atom_site_fract_x
_atom_site_fract_y
_atom_site_fract_z
Si Si1 0.094356 0.766046 0.219687
Si Si2 0.772033 0.159977 0.208212
Si Si3 0.575428 0.339651 0.297284
Si Si4 0.000000 0.500000 0.500000
O O1 0.142407 0.842112 0.506612
O O2 0.049953 0.622436 0.322685
O O3 0.184378 0.754877 0.032420
O O4 0.000000 0.835020 0.000000
O O5 0.672509 0.240670 0.280938
O O6 0.748697 0.000000 0.112737
O O7 0.500000 0.286826 0.500000
O O8 0.610782 0.500000 0.382047
O O9 0.500000 0.347048 0.000000
#
# Coordination Sequence:
#
# PCOD9154042 Si02
#       4
#     4   4   4   1
#     4  12  26  45  69 100 141 178 237 278 338 407
#     4  12  27  44  70 104 140 187 226 277 350 410
#     4  10  23  44  68 100 134 175 230 287 338 399
#     4  12  26  48  68 104 130 194 228 292 342 392
#
# _framework density 21.935241999999999
#
# number of rings (size 3 to 8) (size 9 to 14) (size 15 to 20)
#    0.000    0.615    3.077    3.231    4.308    4.923 
#    0.000    0.000    0.000    0.000    0.000    0.000 
#    0.000    0.000    0.000    0.000    0.000    0.000 
#
# Total GULP energy -72409.001072 kJ/mol
# GULP energy per Si atom -5569.923159 kJ/mol
# Density = 2.188532 g / cm^3
# Si number density = 21.935242 Si / 1000 Ang^3
#
#
#
# Elastic Constant Matrix: (Units=GPa)
#
#
# Indices 1 2 3 4 5 6 
#
# 1 101.2016 75.7139 53.8146 0.0000 -39.4493 0.0000
# 2 75.7139 139.2174 45.7981 0.0000 -28.8244 0.0000
# 3 53.8146 45.7981 158.7285 0.0000 -49.3908 0.0000
# 4 0.0000 0.0000 0.0000 15.2903 0.0000 9.9505
# 5 -39.4493 -28.8244 -49.3908 0.0000 59.6283 0.0000
# 6 0.0000 0.0000 0.0000 9.9505 0.0000 -56.1222
#
#
#
# Elastic Compliance Matrix: (Units=1/GPa)
#
#
# Indices 1 2 3 4 5 6 
#
# 1 0.020667 -0.008988 -0.002036 0.000000 0.007642 0.000000
# 2 -0.008988 0.012159 -0.000650 0.000000 -0.000607 0.000000
# 3 -0.002036 -0.000650 0.008974 0.000000 0.005772 0.000000
# 4 0.000000 0.000000 0.000000 0.058635 0.000000 0.010396
# 5 0.007642 -0.000607 0.005772 0.000000 0.026314 0.000000
# 6 0.000000 0.000000 0.000000 0.010396 0.000000 -0.015975
#
#
# Mechanical properties :
#
#
# Convention : Reuss Voigt Hill
#
# Bulk Modulus (GPa) = 54.19088 83.31117 68.75103
# Shear Modulus (GPa) = 35.64487 18.68070 27.16278
#
# Velocity S-wave (km/s) = 4.03551 2.92143 3.52279
# Velocity P-wave (km/s) = 6.81706 7.03155 6.92514
#
# Compressibility (1/GPa) = 0.01845329
#
# Stress axis : x y z
#
# Youngs Moduli (GPa) = 48.38650 82.24183 111.43489
#
# Poissons Ratio (x) = 0.73918 0.22683
# Poissons Ratio (y) = 0.43489 0.07242
# Poissons Ratio (z) = 0.09849 0.05345
#
# Static dielectric constant tensor:
#      x y z
#    x 1.818640 0.000000 0.008140 
#    y 0.000000 1.783170 0.000000 
#    z 0.008140 0.000000 1.794440 
# 
# From -- ./inp_files/5792.got.cif
#   From: 2010.05.17/outbox.cif.g08.bks.cpg/sg10_3_cif.got.tgz:5792.got - 2010.06.03 11:33:40.
