data_PCOD9154834
_publ_section_title
;
Structure prediction by ZEFSAII (Michael W. Deem and Ramdas Pophale) SiO2 
 PCOD9154834
Probable space group: P 2/M
;
_chemical_formula_sum "Si O2"
_cell_formula_units_Z 11
_cell_length_a 4.913059
_cell_length_b 17.800983
_cell_length_c 5.185576
_cell_angle_alpha 90.000000
_cell_angle_beta 92.066457
_cell_angle_gamma 90.000000
_cell_volume 453.221438
_symmetry_space_group_name_H-M "P 2/M"
_symmetry_group_IT_number 10
_symmetry_cell_setting 'monoclinic'
loop_
_space_group_symop_operation_xyz
x,y,z
-x,y,-z
-x,-y,-z
x,-y,z
loop_
_atom_site_type_symbol
_atom_site_label
_atom_site_fract_x
_atom_site_fract_y
_atom_site_fract_z
Si Si1 0.500000 0.629583 0.000000
Si Si2 0.000000 0.732620 0.000000
Si Si3 0.688390 0.141701 0.259662
Si Si4 0.000000 0.000000 0.500000
Si Si5 0.810463 0.500000 0.248220
O O1 0.624826 0.573743 0.216870
O O2 0.746751 0.680997 0.909995
O O3 0.115452 0.788455 0.788014
O O4 0.500000 0.154812 0.500000
O O5 0.854021 0.066164 0.320325
O O6 0.500000 0.132879 0.000000
O O7 0.000000 0.500000 0.500000
O O8 0.000000 0.500000 0.000000
#
# Coordination Sequence:
#
# PCOD9154834 Si02
#       5
#     2   2   4   1   2
#     4  11  26  54  86 123 166 216 270 341 400 498
#     4  12  26  56  80 128 168 212 278 342 414 474
#     4  12  28  53  80 116 164 216 276 341 411 481
#     4  12  28  50  84 114 164 218 282 332 412 490
#     4  11  26  56  83 121 162 221 267 326 409 487
#
# _framework density 24.270695
#
# number of rings (size 3 to 8) (size 9 to 14) (size 15 to 20)
#    0.000    0.364    3.636    3.273    0.000    8.000 
#   16.364    0.000    0.000    0.000    0.000    0.000 
#    0.000    0.000    0.000    0.000    0.000    0.000 
#
# Total GULP energy -61467.588373 kJ/mol
# GULP energy per Si atom -5587.962579 kJ/mol
# Density = 2.421545 g / cm^3
# Si number density = 24.270695 Si / 1000 Ang^3
#
#
#
# Elastic Constant Matrix: (Units=GPa)
#
#
# Indices 1 2 3 4 5 6 
#
# 1 176.2134 126.3183 99.8718 0.0000 25.0156 0.0000
# 2 126.3183 252.7829 79.7616 0.0000 17.3453 0.0000
# 3 99.8718 79.7616 208.2730 0.0000 25.6064 0.0000
# 4 0.0000 0.0000 0.0000 -68.2563 0.0000 -96.2188
# 5 25.0156 17.3453 25.6064 0.0000 56.6583 0.0000
# 6 0.0000 0.0000 0.0000 -96.2188 0.0000 -188.3871
#
#
#
# Elastic Compliance Matrix: (Units=1/GPa)
#
#
# Indices 1 2 3 4 5 6 
#
# 1 0.010913 -0.004257 -0.003357 0.000000 -0.001998 0.000000
# 2 -0.004257 0.006182 -0.000344 0.000000 0.000142 0.000000
# 3 -0.003357 -0.000344 0.006721 0.000000 -0.001450 0.000000
# 4 0.000000 0.000000 0.000000 -0.052322 0.000000 0.026723
# 5 -0.001998 0.000142 -0.001450 0.000000 0.019144 0.000000
# 6 0.000000 0.000000 0.000000 0.026723 0.000000 -0.018957
#
#
# Mechanical properties :
#
#
# Convention : Reuss Voigt Hill
#
# Bulk Modulus (GPa) = 126.57460 138.79698 132.68579
# Shear Modulus (GPa) = -511.70659 -17.90916 -264.80787
#
# Velocity S-wave (km/s) = -14.53585 -2.71936 -10.45671
# Velocity P-wave (km/s) = 15.14783 6.88849 9.53953
#
# Compressibility (1/GPa) = 0.00790048
#
# Stress axis : x y z
#
# Youngs Moduli (GPa) = 91.63608 161.76425 148.78557
#
# Poissons Ratio (x) = 0.68861 0.49948
# Poissons Ratio (y) = 0.39008 0.05113
# Poissons Ratio (z) = 0.30763 0.05559
#
# Static dielectric constant tensor:
#      x y z
#    x 1.993090 0.000000 -0.014160 
#    y 0.000000 1.890860 0.000000 
#    z -0.014160 0.000000 1.915760 
# 
# From -- ./inp_files/647.got.cif
#   From: 2010.05.17/outbox.cif.g08.bks.cpg/sg10_1_cif.got.tgz:647.got - 2010.06.03 11:33:40.
