data_PCOD9154680
_publ_section_title
;
Structure prediction by ZEFSAII (Michael W. Deem and Ramdas Pophale) SiO2 
 PCOD9154680
Probable space group: P 2/M
;
_chemical_formula_sum "Si O2"
_cell_formula_units_Z 32
_cell_length_a 12.986168
_cell_length_b 8.820362
_cell_length_c 17.613076
_cell_angle_alpha 90.000000
_cell_angle_beta 89.978207
_cell_angle_gamma 90.000000
_cell_volume 2017.449183
_symmetry_space_group_name_H-M "P 2/M"
_symmetry_group_IT_number 10
_symmetry_cell_setting 'monoclinic'
loop_
_space_group_symop_operation_xyz
x,y,z
-x,y,-z
-x,-y,-z
x,-y,z
loop_
_atom_site_type_symbol
_atom_site_label
_atom_site_fract_x
_atom_site_fract_y
_atom_site_fract_z
Si Si1 0.877718 0.183327 0.333662
Si Si2 0.620005 0.818328 0.911442
Si Si3 0.619274 0.181665 0.089020
Si Si4 0.806545 0.680205 0.821175
Si Si5 0.124835 0.822288 0.499983
Si Si6 0.122355 0.816675 0.333628
Si Si7 0.000445 0.181456 0.910190
Si Si8 0.194209 0.680203 0.821020
O O1 0.843542 0.238863 0.417618
O O2 0.818745 0.257258 0.264108
O O3 0.000036 0.216010 0.324984
O O4 0.867652 0.000000 0.331091
O O5 0.500427 0.782704 0.895372
O O6 0.700205 0.733030 0.858792
O O7 0.633168 0.000000 0.902775
O O8 0.639540 0.782875 0.000267
O O9 0.699147 0.266953 0.141900
O O10 0.632344 0.000000 0.097731
O O11 0.815530 0.500000 0.821685
O O12 0.818713 0.742693 0.735965
O O13 0.899747 0.751143 0.870137
O O14 0.156494 0.761143 0.417571
O O15 0.000000 0.817329 0.500000
O O16 0.153331 0.000000 0.499980
O O17 0.132433 0.000000 0.331049
O O18 0.101406 0.248954 0.870489
O O19 0.000535 0.000000 0.900026
O O20 0.000000 0.214332 0.000000
O O21 0.185267 0.500000 0.821536
#
# Coordination Sequence:
#
# PCOD9154680 Si02
#       8
#     4   4   4   4   4   4   4   4
#     4   9  16  29  49  70  97 132 168 203 239 285
#     4   9  19  37  58  75  92 122 168 214 250 289
#     4   9  19  37  58  75  92 122 168 214 250 289
#     4  12  23  32  47  74 106 133 160 198 248 300
#     4   7  12  24  45  71  92 121 167 208 238 274
#     4   9  16  29  49  70  97 132 168 203 239 285
#     4  11  23  37  51  66  91 132 175 207 240 287
#     4  12  23  32  47  74 106 133 160 198 248 300
#
# _framework density 15.861613999999999
#
# number of rings (size 3 to 8) (size 9 to 14) (size 15 to 20)
#    0.000    2.250    1.250    5.625    0.000    5.000 
#    0.000    1.875    0.000    2.250    0.000    0.875 
#    0.000    7.000    0.000    0.000    0.000    0.000 
#
# Total GULP energy -178465.217665 kJ/mol
# GULP energy per Si atom -5577.038052 kJ/mol
# Density = 1.582551 g / cm^3
# Si number density = 15.861614 Si / 1000 Ang^3
#
#
#
# Elastic Constant Matrix: (Units=GPa)
#
#
# Indices 1 2 3 4 5 6 
#
# 1 65.1605 37.0140 72.8376 0.0000 1.2507 0.0000
# 2 37.0140 46.3183 63.1063 0.0000 0.8193 0.0000
# 3 72.8376 63.1063 165.3344 0.0000 1.9939 0.0000
# 4 0.0000 0.0000 0.0000 -17.5408 0.0000 -0.1861
# 5 1.2507 0.8193 1.9939 0.0000 10.6342 0.0000
# 6 0.0000 0.0000 0.0000 -0.1861 0.0000 -7.5934
#
#
#
# Elastic Compliance Matrix: (Units=1/GPa)
#
#
# Indices 1 2 3 4 5 6 
#
# 1 0.034196 -0.014168 -0.009644 0.000000 -0.001122 0.000000
# 2 -0.014168 0.050852 -0.013171 0.000000 0.000218 0.000000
# 3 -0.009644 -0.013171 0.015333 0.000000 -0.000726 0.000000
# 4 0.000000 0.000000 0.000000 -0.057025 0.000000 0.001398
# 5 -0.001122 0.000218 -0.000726 0.000000 0.094288 0.000000
# 6 0.000000 0.000000 0.000000 0.001398 0.000000 -0.131728
#
#
# Mechanical properties :
#
#
# Convention : Reuss Voigt Hill
#
# Bulk Modulus (GPa) = 37.85544 69.19213 53.52378
# Shear Modulus (GPa) = 56.37808 4.02369 30.20089
#
# Velocity S-wave (km/s) = 5.96832 1.59445 4.36825
# Velocity P-wave (km/s) = 8.45059 6.86344 7.69802
#
# Compressibility (1/GPa) = 0.02641628
#
# Stress axis : x y z
#
# Youngs Moduli (GPa) = 29.24287 19.66478 65.22003
#
# Poissons Ratio (x) = 0.27861 0.62897
# Poissons Ratio (y) = 0.41432 0.85899
# Poissons Ratio (z) = 0.28201 0.25900
#
# Static dielectric constant tensor:
#      x y z
#    x 1.499890 0.000000 0.000040 
#    y 0.000000 1.521460 0.000000 
#    z 0.000040 0.000000 1.552390 
# 
# From -- ./inp_files/75996.got.cif
#   From: 2010.05.17/outbox.cif.g08.bks.cpg/sg10_38_cif.got.tgz:75996.got - 2010.06.03 11:33:40.
