data_PCOD9154519
_publ_section_title
;
Structure prediction by ZEFSAII (Michael W. Deem and Ramdas Pophale) SiO2 
 PCOD9154519
Probable space group: P 2/M
;
_chemical_formula_sum "Si O2"
_cell_formula_units_Z 20
_cell_length_a 9.417039
_cell_length_b 11.733263
_cell_length_c 19.128102
_cell_angle_alpha 90.000000
_cell_angle_beta 29.658806
_cell_angle_gamma 90.000000
_cell_volume 1045.838446
_symmetry_space_group_name_H-M "P 2/M"
_symmetry_group_IT_number 10
_symmetry_cell_setting 'monoclinic'
loop_
_space_group_symop_operation_xyz
x,y,z
-x,y,-z
-x,-y,-z
x,-y,z
loop_
_atom_site_type_symbol
_atom_site_label
_atom_site_fract_x
_atom_site_fract_y
_atom_site_fract_z
Si Si1 0.997698 0.865107 0.083195
Si Si2 0.743626 0.500000 0.055282
Si Si3 0.346731 0.500000 0.350527
Si Si4 0.464453 0.289380 0.932967
Si Si5 0.904558 0.636103 0.351042
Si Si6 0.604591 0.304842 0.337357
O O1 0.758475 0.798078 0.230901
O O2 0.954368 0.000000 0.107021
O O3 0.000000 0.832592 0.000000
O O4 0.307936 0.826620 0.979476
O O5 0.457948 0.500000 0.224178
O O6 0.739515 0.388622 0.009631
O O7 0.000000 0.500000 0.000000
O O8 0.492853 0.393345 0.327187
O O9 0.000000 0.500000 0.500000
O O10 0.781273 0.315105 0.769201
O O11 0.500000 0.298953 0.000000
O O12 0.877669 0.500000 0.378634
O O13 0.681271 0.708463 0.492868
O O14 0.821649 0.648921 0.304541
#
# Coordination Sequence:
#
# PCOD9154519 Si02
#       6
#     4   2   2   4   4   4
#     4  11  26  48  68  91 128 175 224 276 328 380
#     4  12  25  34  56  95 135 169 207 256 327 398
#     4  12  22  35  60  93 134 167 206 252 319 406
#     4  12  23  40  65  96 132 169 220 273 324 386
#     4  11  21  39  64  99 140 168 205 261 332 396
#     4  11  21  41  64  94 132 175 212 262 323 389
#
# _framework density 19.123411000000001
#
# number of rings (size 3 to 8) (size 9 to 14) (size 15 to 20)
#    0.000    0.600    5.000    5.100    0.000    0.400 
#    0.000    3.000    0.000    3.000    0.000    0.000 
#    0.000    0.000    0.000    0.000    0.000    0.000 
#
# Total GULP energy -111687.882375 kJ/mol
# GULP energy per Si atom -5584.394119 kJ/mol
# Density = 1.907989 g / cm^3
# Si number density = 19.123411 Si / 1000 Ang^3
#
#
#
# Elastic Constant Matrix: (Units=GPa)
#
#
# Indices 1 2 3 4 5 6 
#
# 1 128.6115 46.2367 47.7327 0.0000 1.0218 0.0000
# 2 46.2367 86.7149 56.7705 0.0000 2.9392 0.0000
# 3 47.7327 56.7705 146.2871 0.0000 -3.5422 0.0000
# 4 0.0000 0.0000 0.0000 26.8504 0.0000 10.0694
# 5 1.0218 2.9392 -3.5422 0.0000 43.5053 0.0000
# 6 0.0000 0.0000 0.0000 10.0694 0.0000 13.4673
#
#
#
# Elastic Compliance Matrix: (Units=1/GPa)
#
#
# Indices 1 2 3 4 5 6 
#
# 1 0.009885 -0.004230 -0.001586 0.000000 -0.000075 0.000000
# 2 -0.004230 0.017373 -0.005398 0.000000 -0.001514 0.000000
# 3 -0.001586 -0.005398 0.009477 0.000000 0.001174 0.000000
# 4 0.000000 0.000000 0.000000 0.051755 0.000000 -0.038697
# 5 -0.000075 -0.001514 0.001174 0.000000 0.023185 0.000000
# 6 0.000000 0.000000 0.000000 -0.038697 0.000000 0.103188
#
#
# Mechanical properties :
#
#
# Convention : Reuss Voigt Hill
#
# Bulk Modulus (GPa) = 69.89863 73.67701 71.78782
# Shear Modulus (GPa) = 20.65595 30.82284 25.73940
#
# Velocity S-wave (km/s) = 3.29011 4.01906 3.67272
# Velocity P-wave (km/s) = 7.14590 7.75551 7.45693
#
# Compressibility (1/GPa) = 0.01430643
#
# Stress axis : x y z
#
# Youngs Moduli (GPa) = 101.16091 57.55997 105.52171
#
# Poissons Ratio (x) = 0.24349 0.16733
# Poissons Ratio (y) = 0.42793 0.56966
# Poissons Ratio (z) = 0.16041 0.31074
#
# Static dielectric constant tensor:
#      x y z
#    x 1.685790 0.000000 -0.000830 
#    y 0.000000 1.638080 0.000000 
#    z -0.000830 0.000000 1.734360 
# 
# From -- ./inp_files/74963.got.cif
#   From: 2010.05.17/outbox.cif.g08.bks.cpg/sg10_38_cif.got.tgz:74963.got - 2010.06.03 11:33:40.
