data_PCOD9154075
_publ_section_title
;
Structure prediction by ZEFSAII (Michael W. Deem and Ramdas Pophale) SiO2 
 PCOD9154075
Probable space group: P 2/M
;
_chemical_formula_sum "Si O2"
_cell_formula_units_Z 21
_cell_length_a 12.099396
_cell_length_b 12.403259
_cell_length_c 7.355265
_cell_angle_alpha 90.000000
_cell_angle_beta 74.943763
_cell_angle_gamma 90.000000
_cell_volume 1065.926264
_symmetry_space_group_name_H-M "P 2/M"
_symmetry_group_IT_number 10
_symmetry_cell_setting 'monoclinic'
loop_
_space_group_symop_operation_xyz
x,y,z
-x,y,-z
-x,-y,-z
x,-y,z
loop_
_atom_site_type_symbol
_atom_site_label
_atom_site_fract_x
_atom_site_fract_y
_atom_site_fract_z
Si Si1 0.772120 0.705411 0.813200
Si Si2 0.019407 0.376521 0.774597
Si Si3 0.743716 0.276950 0.409724
Si Si4 0.365819 0.500000 0.530286
Si Si5 0.300890 0.118410 0.882812
Si Si6 0.500000 0.000000 0.000000
Si Si7 0.365757 0.500000 0.098955
O O1 0.726268 0.736758 0.633115
O O2 0.696004 0.609830 0.934067
O O3 0.899593 0.658432 0.738438
O O4 0.768375 0.806492 0.948575
O O5 0.048464 0.500000 0.708438
O O6 0.121852 0.296303 0.683208
O O7 0.000000 0.375626 0.000000
O O8 0.686629 0.389816 0.374472
O O9 0.694693 0.181047 0.309177
O O10 0.500000 0.500000 0.500000
O O11 0.344052 0.500000 0.324348
O O12 0.246826 0.000000 0.881112
O O13 0.422995 0.092464 0.924128
O O14 0.500000 0.500000 0.000000
#
# Coordination Sequence:
#
# PCOD9154075 Si02
#       7
#     4   4   4   2   4   1   2
#     4  11  23  40  65 100 131 174 220 270 327 398
#     4  11  21  37  67 101 138 182 214 258 334 411
#     4  11  23  41  66  97 139 172 216 272 331 400
#     4  10  24  37  58 101 133 167 211 266 329 405
#     4  10  24  45  67  91 125 170 231 272 331 379
#     4   8  24  48  70  88 120 178 220 292 316 384
#     4  10  24  35  60  93 133 175 209 263 336 388
#
# _framework density 19.701174999999999
#
# number of rings (size 3 to 8) (size 9 to 14) (size 15 to 20)
#    0.571    0.952    3.810    0.571    4.000    3.048 
#    0.000    2.857    0.000    2.286    0.000    0.000 
#    0.000    0.000    0.000    0.000    0.000    0.000 
#
# Total GULP energy -116973.527698 kJ/mol
# GULP energy per Si atom -5570.167986 kJ/mol
# Density = 1.965633 g / cm^3
# Si number density = 19.701175 Si / 1000 Ang^3
#
#
#
# Elastic Constant Matrix: (Units=GPa)
#
#
# Indices 1 2 3 4 5 6 
#
# 1 91.8771 28.2763 4.1206 0.0000 -3.9972 0.0000
# 2 28.2763 136.0858 34.4885 0.0000 6.1604 0.0000
# 3 4.1206 34.4885 76.0331 0.0000 17.2499 0.0000
# 4 0.0000 0.0000 0.0000 12.0118 0.0000 16.5345
# 5 -3.9972 6.1604 17.2499 0.0000 34.0428 0.0000
# 6 0.0000 0.0000 0.0000 16.5345 0.0000 21.8889
#
#
#
# Elastic Compliance Matrix: (Units=1/GPa)
#
#
# Indices 1 2 3 4 5 6 
#
# 1 0.011741 -0.002550 0.000116 0.000000 0.001781 0.000000
# 2 -0.002550 0.008863 -0.003898 0.000000 0.000072 0.000000
# 3 0.000116 -0.003898 0.016667 0.000000 -0.007726 0.000000
# 4 0.000000 0.000000 0.000000 -2.092000 0.000000 1.580260
# 5 0.001781 0.000072 -0.007726 0.000000 0.033486 0.000000
# 6 0.000000 0.000000 0.000000 1.580260 0.000000 -1.148016
#
#
# Mechanical properties :
#
#
# Convention : Reuss Voigt Hill
#
# Bulk Modulus (GPa) = 40.63857 48.64075 44.63966
# Shear Modulus (GPa) = -1.58811 29.39609 13.90399
#
# Velocity S-wave (km/s) = -0.89880 3.86696 2.65947
# Velocity P-wave (km/s) = 4.42664 6.68436 5.66903
#
# Compressibility (1/GPa) = 0.02460716
#
# Stress axis : x y z
#
# Youngs Moduli (GPa) = 85.17111 112.83150 59.99864
#
# Poissons Ratio (x) = 0.28768 -0.00697
# Poissons Ratio (y) = 0.21716 0.23389
# Poissons Ratio (z) = -0.00989 0.43985
#
# Static dielectric constant tensor:
#      x y z
#    x 1.690210 0.000000 0.016030 
#    y 0.000000 1.684280 0.000000 
#    z 0.016030 0.000000 1.705660 
# 
# From -- ./inp_files/23544.got.cif
#   From: 2010.05.17/outbox.cif.g08.bks.cpg/sg10_12_cif.got.tgz:23544.got - 2010.06.03 11:33:40.
