data_PCOD9154691
_publ_section_title
;
Structure prediction by ZEFSAII (Michael W. Deem and Ramdas Pophale) SiO2 
 PCOD9154691
Probable space group: P 2/M
;
_chemical_formula_sum "Si O2"
_cell_formula_units_Z 24
_cell_length_a 8.554996
_cell_length_b 17.445784
_cell_length_c 13.872011
_cell_angle_alpha 90.000000
_cell_angle_beta 143.295614
_cell_angle_gamma 90.000000
_cell_volume 1237.437259
_symmetry_space_group_name_H-M "P 2/M"
_symmetry_group_IT_number 10
_symmetry_cell_setting 'monoclinic'
loop_
_space_group_symop_operation_xyz
x,y,z
-x,y,-z
-x,-y,-z
x,-y,z
loop_
_atom_site_type_symbol
_atom_site_label
_atom_site_fract_x
_atom_site_fract_y
_atom_site_fract_z
Si Si1 0.076061 0.794565 0.388737
Si Si2 0.741748 0.666149 0.671339
Si Si3 0.205856 0.087945 0.307951
Si Si4 0.387127 0.203544 0.244935
Si Si5 0.183607 0.412383 0.995309
Si Si6 0.519723 0.732669 0.124846
O O1 0.191726 0.733601 0.370135
O O2 0.027357 0.869909 0.299544
O O3 0.307935 0.811981 0.577815
O O4 0.816464 0.753868 0.297022
O O5 0.500000 0.624641 0.500000
O O6 0.675163 0.714412 0.735086
O O7 0.984919 0.612260 0.812324
O O8 0.500000 0.090573 0.500000
O O9 0.226885 0.138378 0.221543
O O10 0.136133 0.000000 0.256751
O O11 0.350658 0.213182 0.112717
O O12 0.271362 0.500000 0.031511
O O13 0.419848 0.352068 0.103290
O O14 0.000000 0.406298 0.000000
O O15 0.500000 0.743503 0.000000
#
# Coordination Sequence:
#
# PCOD9154691 Si02
#       6
#     4   4   4   4   4   4
#     4   9  18  33  55  86 109 142 180 229 275 326
#     4   9  17  35  58  79 104 140 185 228 274 328
#     4   8  15  32  60  89 112 141 186 235 275 315
#     4   9  18  33  57  81 111 142 188 226 265 323
#     4  11  23  39  57  79 107 143 187 235 282 330
#     4  12  22  34  55  81 110 151 184 224 271 332
#
# _framework density 19.394925000000001
#
# number of rings (size 3 to 8) (size 9 to 14) (size 15 to 20)
#    0.000    2.333    3.333    2.500    0.000    0.667 
#    0.000    0.833    0.000    9.000    0.000    0.000 
#    0.000    0.000    0.000    0.000    0.000    0.000 
#
# Total GULP energy -133657.608958 kJ/mol
# GULP energy per Si atom -5569.067040 kJ/mol
# Density = 1.935078 g / cm^3
# Si number density = 19.394925 Si / 1000 Ang^3
#
#
#
# Elastic Constant Matrix: (Units=GPa)
#
#
# Indices 1 2 3 4 5 6 
#
# 1 90.4657 49.0170 28.2634 0.0000 -17.8045 0.0000
# 2 49.0170 123.6707 45.7902 0.0000 -0.5848 0.0000
# 3 28.2634 45.7902 38.4417 0.0000 4.4665 0.0000
# 4 0.0000 0.0000 0.0000 17.9494 0.0000 3.6905
# 5 -17.8045 -0.5848 4.4665 0.0000 41.5081 0.0000
# 6 0.0000 0.0000 0.0000 3.6905 0.0000 20.0576
#
#
#
# Elastic Compliance Matrix: (Units=1/GPa)
#
#
# Indices 1 2 3 4 5 6 
#
# 1 0.017663 -0.003185 -0.010195 0.000000 0.008629 0.000000
# 2 -0.003185 0.015221 -0.015853 0.000000 0.000554 0.000000
# 3 -0.010195 -0.015853 0.053596 0.000000 -0.010364 0.000000
# 4 0.000000 0.000000 0.000000 0.057903 0.000000 -0.010654
# 5 0.008629 0.000554 -0.010364 0.000000 0.028916 0.000000
# 6 0.000000 0.000000 0.000000 -0.010654 0.000000 0.051817
#
#
# Mechanical properties :
#
#
# Convention : Reuss Voigt Hill
#
# Bulk Modulus (GPa) = 35.69593 55.41325 45.55459
# Shear Modulus (GPa) = 17.06955 24.53684 20.80319
#
# Velocity S-wave (km/s) = 2.96987 3.56071 3.27863
# Velocity P-wave (km/s) = 5.49590 6.74818 6.15397
#
# Compressibility (1/GPa) = 0.02801440
#
# Stress axis : x y z
#
# Youngs Moduli (GPa) = 56.61554 65.69976 18.65801
#
# Poissons Ratio (x) = 0.20927 0.19021
# Poissons Ratio (y) = 0.18033 0.29578
# Poissons Ratio (z) = 0.57718 1.04153
#
# Static dielectric constant tensor:
#      x y z
#    x 1.753700 0.000000 0.003820 
#    y 0.000000 1.657160 0.000000 
#    z 0.003820 0.000000 1.752100 
# 
# From -- ./inp_files/25738.got.cif
#   From: 2010.05.17/outbox.cif.g08.bks.cpg/sg10_13_cif.got.tgz:25738.got - 2010.06.03 11:33:40.
