data_PCOD9154482
_publ_section_title
;
Structure prediction by ZEFSAII (Michael W. Deem and Ramdas Pophale) SiO2 
 PCOD9154482
Probable space group: P 2/M
;
_chemical_formula_sum "Si O2"
_cell_formula_units_Z 28
_cell_length_a 9.948478
_cell_length_b 20.641200
_cell_length_c 12.825188
_cell_angle_alpha 90.000000
_cell_angle_beta 143.934192
_cell_angle_gamma 90.000000
_cell_volume 1550.457064
_symmetry_space_group_name_H-M "P 2/M"
_symmetry_group_IT_number 10
_symmetry_cell_setting 'monoclinic'
loop_
_space_group_symop_operation_xyz
x,y,z
-x,y,-z
-x,-y,-z
x,-y,z
loop_
_atom_site_type_symbol
_atom_site_label
_atom_site_fract_x
_atom_site_fract_y
_atom_site_fract_z
Si Si1 0.162484 0.251266 0.498812
Si Si2 0.105259 0.341326 0.815554
Si Si3 0.254393 0.425724 0.289980
Si Si4 0.526539 0.000000 0.190226
Si Si5 0.576574 0.650811 0.797314
Si Si6 0.117210 0.000000 0.781566
Si Si7 0.761983 0.426958 0.288014
Si Si8 0.177782 0.898500 0.514496
O O1 0.385566 0.296065 0.650583
O O2 0.222408 0.176315 0.519579
O O3 0.000000 0.256692 0.500000
O O4 0.023028 0.280798 0.315073
O O5 0.239354 0.375959 0.805885
O O6 0.927059 0.394999 0.744979
O O7 0.263328 0.323211 0.010904
O O8 0.500000 0.426724 0.500000
O O9 0.195740 0.500000 0.225089
O O10 0.281147 0.377448 0.209412
O O11 0.699646 0.000000 0.199270
O O12 0.602117 0.061836 0.306866
O O13 0.272814 0.000000 0.982736
O O14 0.438430 0.589858 0.758158
O O15 0.953179 0.061874 0.658463
O O16 0.745142 0.500000 0.238032
O O17 0.000000 0.420216 0.500000
O O18 0.000000 0.899714 0.500000
#
# Coordination Sequence:
#
# PCOD9154482 Si02
#       8
#     4   4   4   2   4   2   4   4
#     4  11  21  37  51  76 113 148 185 219 265 324
#     4  12  23  37  56  78 105 138 179 226 275 330
#     4  11  23  41  61  78 101 135 178 234 291 333
#     4   8  13  25  44  71 101 136 181 218 252 298
#     4  12  23  37  56  78 105 138 179 226 275 330
#     4   8  13  25  44  71 101 136 181 218 252 298
#     4  11  21  37  57  76 103 137 174 222 277 329
#     4   8  16  27  45  68 103 144 177 217 256 300
#
# _framework density 18.059190999999998
#
# number of rings (size 3 to 8) (size 9 to 14) (size 15 to 20)
#    0.000    1.571    4.286    2.571    0.000    6.857 
#    0.000    2.857    0.000    0.000    0.000    0.000 
#    0.000    9.143    0.000   16.000    0.000    4.000 
#
# Total GULP energy -156284.500143 kJ/mol
# GULP energy per Si atom -5581.589291 kJ/mol
# Density = 1.801809 g / cm^3
# Si number density = 18.059191 Si / 1000 Ang^3
#
#
#
# Elastic Constant Matrix: (Units=GPa)
#
#
# Indices 1 2 3 4 5 6 
#
# 1 33.1161 10.5280 2.8929 0.0000 -0.2736 0.0000
# 2 10.5280 134.4096 50.5818 0.0000 -13.3866 0.0000
# 3 2.8929 50.5818 133.1369 0.0000 -16.5011 0.0000
# 4 0.0000 0.0000 0.0000 -1.1929 0.0000 -8.1975
# 5 -0.2736 -13.3866 -16.5011 0.0000 20.4890 0.0000
# 6 0.0000 0.0000 0.0000 -8.1975 0.0000 11.4641
#
#
#
# Elastic Compliance Matrix: (Units=1/GPa)
#
#
# Indices 1 2 3 4 5 6 
#
# 1 0.031001 -0.002609 0.000175 0.000000 -0.001150 0.000000
# 2 -0.002609 0.009113 -0.002968 0.000000 0.003529 0.000000
# 3 0.000175 -0.002968 0.009326 0.000000 0.005574 0.000000
# 4 0.000000 0.000000 0.000000 -0.141751 0.000000 -0.101361
# 5 -0.001150 0.003529 0.005574 0.000000 0.055586 0.000000
# 6 0.000000 0.000000 0.000000 -0.101361 0.000000 0.014750
#
#
# Mechanical properties :
#
#
# Convention : Reuss Voigt Hill
#
# Bulk Modulus (GPa) = 25.88241 47.62978 36.75609
# Shear Modulus (GPa) = 2930.67351 21.92937 1476.30144
#
# Velocity S-wave (km/s) = 40.32789 3.48847 28.62261
# Velocity P-wave (km/s) = 46.72060 6.53126 33.35770
#
# Compressibility (1/GPa) = 0.03863629
#
# Stress axis : x y z
#
# Youngs Moduli (GPa) = 32.25669 109.73733 107.23025
#
# Poissons Ratio (x) = 0.28626 -0.01876
# Poissons Ratio (y) = 0.08414 0.31827
# Poissons Ratio (z) = -0.00564 0.32571
#
# Static dielectric constant tensor:
#      x y z
#    x 1.599500 0.000000 -0.004290 
#    y 0.000000 1.596290 0.000000 
#    z -0.004290 0.000000 1.649230 
# 
# From -- ./inp_files/43671.got.cif
#   From: 2010.05.17/outbox.cif.g08.bks.cpg/sg10_22_cif.got.tgz:43671.got - 2010.06.03 11:33:40.
