data_PCOD9154790
_publ_section_title
;
Structure prediction by ZEFSAII (Michael W. Deem and Ramdas Pophale) SiO2 
 PCOD9154790
Probable space group: P 2/M
;
_chemical_formula_sum "Si O2"
_cell_formula_units_Z 17
_cell_length_a 7.885677
_cell_length_b 9.981695
_cell_length_c 10.588546
_cell_angle_alpha 90.000000
_cell_angle_beta 61.958939
_cell_angle_gamma 90.000000
_cell_volume 735.612167
_symmetry_space_group_name_H-M "P 2/M"
_symmetry_group_IT_number 10
_symmetry_cell_setting 'monoclinic'
loop_
_space_group_symop_operation_xyz
x,y,z
-x,y,-z
-x,-y,-z
x,-y,z
loop_
_atom_site_type_symbol
_atom_site_label
_atom_site_fract_x
_atom_site_fract_y
_atom_site_fract_z
Si Si1 0.384342 0.854932 0.908508
Si Si2 0.966422 0.744956 0.830325
Si Si3 0.314336 0.340465 0.300984
Si Si4 0.723295 0.149383 0.459420
Si Si5 0.000000 0.500000 0.000000
O O1 0.481921 0.731647 0.801581
O O2 0.408031 0.000000 0.835967
O O3 0.500000 0.861125 0.000000
O O4 0.169273 0.829236 0.028590
O O5 0.826208 0.693900 0.766206
O O6 0.139275 0.825746 0.707549
O O7 0.035605 0.616304 0.880930
O O8 0.333128 0.500000 0.308543
O O9 0.239234 0.264720 0.451140
O O10 0.500000 0.156937 0.500000
O O11 0.762098 0.000000 0.497525
#
# Coordination Sequence:
#
# PCOD9154790 Si02
#       5
#     4   4   4   4   1
#     4   9  20  39  67 101 134 176 230 283 339 408
#     4  11  25  44  72  99 143 186 235 281 350 412
#     4  11  24  43  73 105 139 182 233 285 347 418
#     4  11  27  48  71 103 142 183 233 291 349 410
#     4  12  28  44  68 112 142 182 228 302 338 422
#
# _framework density 23.110004
#
# number of rings (size 3 to 8) (size 9 to 14) (size 15 to 20)
#    0.000    1.412    1.176    2.118    6.588    6.588 
#    0.000    1.176    0.000    0.000    0.000    0.000 
#    0.000    0.000    0.000    0.000    0.000    0.000 
#
# Total GULP energy -94894.643387 kJ/mol
# GULP energy per Si atom -5582.037846 kJ/mol
# Density = 2.305740 g / cm^3
# Si number density = 23.110004 Si / 1000 Ang^3
#
#
#
# Elastic Constant Matrix: (Units=GPa)
#
#
# Indices 1 2 3 4 5 6 
#
# 1 85.0772 44.5710 36.0360 0.0000 -16.0548 0.0000
# 2 44.5710 193.9957 45.0196 0.0000 -13.0117 0.0000
# 3 36.0360 45.0196 113.8561 0.0000 -33.9606 0.0000
# 4 0.0000 0.0000 0.0000 39.6188 0.0000 2.5004
# 5 -16.0548 -13.0117 -33.9606 0.0000 44.6650 0.0000
# 6 0.0000 0.0000 0.0000 2.5004 0.0000 -12.2776
#
#
#
# Elastic Compliance Matrix: (Units=1/GPa)
#
#
# Indices 1 2 3 4 5 6 
#
# 1 0.014789 -0.002551 -0.002985 0.000000 0.002303 0.000000
# 2 -0.002551 0.006116 -0.001750 0.000000 -0.000466 0.000000
# 3 -0.002985 -0.001750 0.012865 0.000000 0.008199 0.000000
# 4 0.000000 0.000000 0.000000 0.024920 0.000000 0.005075
# 5 0.002303 -0.000466 0.008199 0.000000 0.029315 0.000000
# 6 0.000000 0.000000 0.000000 0.005075 0.000000 -0.080416
#
#
# Mechanical properties :
#
#
# Convention : Reuss Voigt Hill
#
# Bulk Modulus (GPa) = 52.08658 71.57579 61.83118
# Shear Modulus (GPa) = 175.06144 32.22143 103.64143
#
# Velocity S-wave (km/s) = 8.71297 3.73803 6.70406
# Velocity P-wave (km/s) = 11.12693 7.04766 9.31338
#
# Compressibility (1/GPa) = 0.01919880
#
# Stress axis : x y z
#
# Youngs Moduli (GPa) = 67.61589 163.51657 77.72765
#
# Poissons Ratio (x) = 0.41707 0.23205
# Poissons Ratio (y) = 0.17246 0.13600
# Poissons Ratio (z) = 0.20186 0.28611
#
# Static dielectric constant tensor:
#      x y z
#    x 1.928900 0.000000 0.010930 
#    y 0.000000 1.789960 0.000000 
#    z 0.010930 0.000000 1.857010 
# 
# From -- ./inp_files/40690.got.cif
#   From: 2010.05.17/outbox.cif.g08.bks.cpg/sg10_21_cif.got.tgz:40690.got - 2010.06.03 11:33:40.
