data_PCOD9154380
_publ_section_title
;
Structure prediction by ZEFSAII (Michael W. Deem and Ramdas Pophale) SiO2 
 PCOD9154380
Probable space group: P 2/M
;
_chemical_formula_sum "Si O2"
_cell_formula_units_Z 28
_cell_length_a 14.922290
_cell_length_b 14.446703
_cell_length_c 9.663050
_cell_angle_alpha 90.000000
_cell_angle_beta 49.538648
_cell_angle_gamma 90.000000
_cell_volume 1584.944254
_symmetry_space_group_name_H-M "P 2/M"
_symmetry_group_IT_number 10
_symmetry_cell_setting 'monoclinic'
loop_
_space_group_symop_operation_xyz
x,y,z
-x,y,-z
-x,-y,-z
x,-y,z
loop_
_atom_site_type_symbol
_atom_site_label
_atom_site_fract_x
_atom_site_fract_y
_atom_site_fract_z
Si Si1 0.376906 0.398783 0.205738
Si Si2 0.636726 0.802592 0.403999
Si Si3 0.003620 0.112040 0.837119
Si Si4 0.742520 0.109096 0.039300
Si Si5 0.621797 0.398354 0.464192
Si Si6 0.750356 0.890863 0.539156
Si Si7 0.360799 0.794956 0.106395
O O1 0.318453 0.500000 0.245621
O O2 0.397916 0.387442 0.349996
O O3 0.320246 0.307037 0.197166
O O4 0.500000 0.403487 0.000000
O O5 0.500000 0.804352 0.500000
O O6 0.681506 0.696385 0.353697
O O7 0.655576 0.839198 0.539058
O O8 0.708029 0.870091 0.232047
O O9 0.120555 0.142012 0.639162
O O10 0.880348 0.133148 0.886643
O O11 0.008330 0.000000 0.838933
O O12 0.000000 0.145498 0.000000
O O13 0.663940 0.177395 0.025929
O O14 0.723675 0.000000 0.028195
O O15 0.500000 0.401292 0.500000
O O16 0.678556 0.500000 0.387037
O O17 0.716483 0.866912 0.728507
O O18 0.743007 0.000000 0.523500
O O19 0.500000 0.803272 0.000000
#
# Coordination Sequence:
#
# PCOD9154380 Si02
#       7
#     4   4   4   4   4   4   4
#     4   9  18  33  52  74 105 143 177 216 266 318
#     4  11  21  32  51  81 109 143 178 212 269 333
#     4   9  18  36  57  76  98 134 191 240 263 295
#     4  11  23  37  54  76 109 147 183 225 264 309
#     4   9  18  32  51  77 106 137 178 224 264 312
#     4  11  21  35  55  76 106 145 184 222 264 316
#     4  11  23  36  51  81 116 146 175 215 269 331
#
# _framework density 17.666236999999999
#
# number of rings (size 3 to 8) (size 9 to 14) (size 15 to 20)
#    0.000    1.857    2.857    1.714    6.000    4.000 
#    0.000    2.143    0.000    0.000    0.000    6.000 
#    0.000    0.000    0.000    0.000    0.000    0.000 
#
# Total GULP energy -155956.782818 kJ/mol
# GULP energy per Si atom -5569.885101 kJ/mol
# Density = 1.762603 g / cm^3
# Si number density = 17.666237 Si / 1000 Ang^3
#
#
#
# Elastic Constant Matrix: (Units=GPa)
#
#
# Indices 1 2 3 4 5 6 
#
# 1 39.9293 17.7488 -0.5454 0.0000 -1.6138 0.0000
# 2 17.7488 97.5235 -1.6418 0.0000 -2.9959 0.0000
# 3 -0.5454 -1.6418 44.1179 0.0000 -6.9320 0.0000
# 4 0.0000 0.0000 0.0000 19.6149 0.0000 14.1828
# 5 -1.6138 -2.9959 -6.9320 0.0000 25.7159 0.0000
# 6 0.0000 0.0000 0.0000 14.1828 0.0000 3.7448
#
#
#
# Elastic Compliance Matrix: (Units=1/GPa)
#
#
# Indices 1 2 3 4 5 6 
#
# 1 0.027287 -0.004922 0.000348 0.000000 0.001233 0.000000
# 2 -0.004922 0.011194 0.000535 0.000000 0.001139 0.000000
# 3 0.000348 0.000535 0.023708 0.000000 0.006475 0.000000
# 4 0.000000 0.000000 0.000000 -0.029325 0.000000 0.111065
# 5 0.001233 0.001139 0.006475 0.000000 0.040842 0.000000
# 6 0.000000 0.000000 0.000000 0.111065 0.000000 -0.153604
#
#
# Mechanical properties :
#
#
# Convention : Reuss Voigt Hill
#
# Bulk Modulus (GPa) = 18.48117 23.63267 21.05692
# Shear Modulus (GPa) = -92.96773 20.88239 -36.04267
#
# Velocity S-wave (km/s) = -7.26215 3.44183 -4.52176
# Velocity P-wave (km/s) = 7.73527 5.40382 3.91364
#
# Compressibility (1/GPa) = 0.05410913
#
# Stress axis : x y z
#
# Youngs Moduli (GPa) = 36.64771 89.33525 42.17972
#
# Poissons Ratio (x) = 0.43974 -0.01467
# Poissons Ratio (y) = 0.18039 -0.02255
# Poissons Ratio (z) = -0.01275 -0.04777
#
# Static dielectric constant tensor:
#      x y z
#    x 1.594260 0.000000 0.000450 
#    y 0.000000 1.641000 0.000000 
#    z 0.000450 0.000000 1.584450 
# 
# From -- ./inp_files/24934.got.cif
#   From: 2010.05.17/outbox.cif.g08.bks.cpg/sg10_13_cif.got.tgz:24934.got - 2010.06.03 11:33:40.
