data_PCOD9154547
_publ_section_title
;
Structure prediction by ZEFSAII (Michael W. Deem and Ramdas Pophale) SiO2 
 PCOD9154547
Probable space group: P 2/M
;
_chemical_formula_sum "Si O2"
_cell_formula_units_Z 32
_cell_length_a 15.260563
_cell_length_b 14.389738
_cell_length_c 7.667173
_cell_angle_alpha 90.000000
_cell_angle_beta 64.552318
_cell_angle_gamma 90.000000
_cell_volume 1520.323060
_symmetry_space_group_name_H-M "P 2/M"
_symmetry_group_IT_number 10
_symmetry_cell_setting 'monoclinic'
loop_
_space_group_symop_operation_xyz
x,y,z
-x,y,-z
-x,-y,-z
x,-y,z
loop_
_atom_site_type_symbol
_atom_site_label
_atom_site_fract_x
_atom_site_fract_y
_atom_site_fract_z
Si Si1 0.580828 0.751264 0.773060
Si Si2 0.884866 0.891453 0.922815
Si Si3 0.793692 0.755538 0.268159
Si Si4 0.965859 0.254929 0.333433
Si Si5 0.306710 0.109170 0.112621
Si Si6 0.308954 0.608762 0.111672
Si Si7 0.118040 0.608360 0.076156
Si Si8 0.608082 0.250345 0.240068
O O1 0.649116 0.839659 0.756282
O O2 0.647412 0.662006 0.759066
O O3 0.507856 0.750590 0.673047
O O4 0.500000 0.751934 0.000000
O O5 0.807962 0.878654 0.828581
O O6 0.979962 0.831027 0.806905
O O7 0.904264 0.000000 0.926060
O O8 0.830669 0.847421 0.135434
O O9 0.851709 0.749794 0.397540
O O10 0.678360 0.751005 0.348434
O O11 0.836132 0.670789 0.115511
O O12 0.000000 0.250815 0.500000
O O13 0.015059 0.347280 0.211304
O O14 0.327665 0.000000 0.096806
O O15 0.356627 0.161522 0.905875
O O16 0.331352 0.500000 0.097649
O O17 0.193882 0.619593 0.173200
O O18 0.357759 0.659581 0.902713
O O19 0.113028 0.500000 0.037725
#
# Coordination Sequence:
#
# PCOD9154547 Si02
#       8
#     4   4   4   4   4   4   4   4
#     4   8  13  19  32  57  88 113 133 164 207 253
#     4   9  17  31  50  68  87 115 149 181 216 260
#     4   9  18  32  46  64  90 117 150 183 214 257
#     4  11  22  32  45  66  90 115 145 185 227 265
#     4   8  13  22  38  60  84 109 137 170 208 250
#     4   8  13  22  38  60  84 109 137 170 208 250
#     4   9  17  31  50  68  87 115 149 181 216 260
#     4   8  15  23  34  57  86 113 138 170 207 249
#
# _framework density 21.048157
#
# number of rings (size 3 to 8) (size 9 to 14) (size 15 to 20)
#    0.000    3.500    0.000    3.750    0.000    7.000 
#    0.000    0.000    0.000    0.000    0.000    3.500 
#    0.000    4.000    0.000    0.000    0.000    0.000 
#
# Total GULP energy -178332.701617 kJ/mol
# GULP energy per Si atom -5572.896926 kJ/mol
# Density = 2.100025 g / cm^3
# Si number density = 21.048157 Si / 1000 Ang^3
#
#
#
# Elastic Constant Matrix: (Units=GPa)
#
#
# Indices 1 2 3 4 5 6 
#
# 1 194.6940 35.3618 34.0049 0.0000 29.6096 0.0000
# 2 35.3618 139.9866 1.0804 0.0000 6.8037 0.0000
# 3 34.0049 1.0804 34.2418 0.0000 11.4590 0.0000
# 4 0.0000 0.0000 0.0000 -1.9721 0.0000 3.0676
# 5 29.6096 6.8037 11.4590 0.0000 41.8367 0.0000
# 6 0.0000 0.0000 0.0000 3.0676 0.0000 19.6672
#
#
#
# Elastic Compliance Matrix: (Units=1/GPa)
#
#
# Indices 1 2 3 4 5 6 
#
# 1 0.006888 -0.001548 -0.005774 0.000000 -0.003042 0.000000
# 2 -0.001548 0.007549 0.001479 0.000000 -0.000537 0.000000
# 3 -0.005774 0.001479 0.036995 0.000000 -0.006287 0.000000
# 4 0.000000 0.000000 0.000000 -0.408072 0.000000 0.063649
# 5 -0.003042 -0.000537 -0.006287 0.000000 0.027865 0.000000
# 6 0.000000 0.000000 0.000000 0.063649 0.000000 0.040918
#
#
# Mechanical properties :
#
#
# Convention : Reuss Voigt Hill
#
# Bulk Modulus (GPa) = 25.15920 56.64631 40.90275
# Shear Modulus (GPa) = -19.01711 31.80471 6.39380
#
# Velocity S-wave (km/s) = -3.00910 3.89143 1.74479
# Velocity P-wave (km/s) = 0.30623 6.86747 4.85120
#
# Compressibility (1/GPa) = 0.03974689
#
# Stress axis : x y z
#
# Youngs Moduli (GPa) = 145.16973 132.46442 27.03045
#
# Poissons Ratio (x) = 0.20501 0.15607
# Poissons Ratio (y) = 0.22468 -0.03997
# Poissons Ratio (z) = 0.83820 -0.19586
#
# Static dielectric constant tensor:
#      x y z
#    x 1.826300 0.000000 0.048230 
#    y 0.000000 1.702590 0.000000 
#    z 0.048230 0.000000 1.822580 
# 
# From -- ./inp_files/29028.got.cif
#   From: 2010.05.17/outbox.cif.g08.bks.cpg/sg10_15_cif.got.tgz:29028.got - 2010.06.03 11:33:40.
