data_PCOD9154471
_publ_section_title
;
Structure prediction by ZEFSAII (Michael W. Deem and Ramdas Pophale) SiO2 
 PCOD9154471
Probable space group: P 2/M
;
_chemical_formula_sum "Si O2"
_cell_formula_units_Z 24
_cell_length_a 11.440559
_cell_length_b 11.844050
_cell_length_c 17.182928
_cell_angle_alpha 90.000000
_cell_angle_beta 32.750391
_cell_angle_gamma 90.000000
_cell_volume 1259.580784
_symmetry_space_group_name_H-M "P 2/M"
_symmetry_group_IT_number 10
_symmetry_cell_setting 'monoclinic'
loop_
_space_group_symop_operation_xyz
x,y,z
-x,y,-z
-x,-y,-z
x,-y,z
loop_
_atom_site_type_symbol
_atom_site_label
_atom_site_fract_x
_atom_site_fract_y
_atom_site_fract_z
Si Si1 0.573795 0.500000 0.046445
Si Si2 0.523192 0.633237 0.652515
Si Si3 0.037991 0.717350 0.644455
Si Si4 0.622650 0.132354 0.848858
Si Si5 0.126572 0.500000 0.349123
Si Si6 0.115985 0.638388 0.776463
Si Si7 0.304008 0.290662 0.934359
O O1 0.380628 0.500000 0.216954
O O2 0.687616 0.384058 0.001311
O O3 0.500000 0.500000 0.000000
O O4 0.590859 0.500000 0.613161
O O5 0.731123 0.714052 0.528511
O O6 0.357798 0.650308 0.674282
O O7 0.393630 0.661078 0.803640
O O8 0.091401 0.690626 0.704242
O O9 0.862886 0.814789 0.725256
O O10 0.921359 0.608356 0.674647
O O11 0.466368 0.193884 0.873502
O O12 0.639279 0.000000 0.822018
O O13 0.500000 0.146801 0.000000
O O14 0.000000 0.500000 0.500000
O O15 0.079821 0.500000 0.798650
O O16 0.956332 0.713122 0.921319
#
# Coordination Sequence:
#
# PCOD9154471 Si02
#       7
#     2   4   4   4   2   4   4
#     4  12  20  30  53  88 119 148 194 241 294 364
#     4  11  23  37  57  92 135 165 187 236 300 363
#     4  12  22  37  61  88 123 162 198 241 301 364
#     4  11  25  43  65  88 113 155 207 263 308 345
#     4  12  22  32  53  90 131 160 182 235 307 371
#     4  11  21  36  59  91 127 164 203 235 286 365
#     4  12  21  37  60  89 123 159 198 244 302 357
#
# _framework density 19.053958000000002
#
# number of rings (size 3 to 8) (size 9 to 14) (size 15 to 20)
#    0.000    0.500    6.667    3.500    0.000    2.667 
#    0.000    1.667    0.000    6.000    0.000    0.000 
#    0.000    0.000    0.000    0.000    0.000    0.000 
#
# Total GULP energy -133826.697080 kJ/mol
# GULP energy per Si atom -5576.112378 kJ/mol
# Density = 1.901059 g / cm^3
# Si number density = 19.053958 Si / 1000 Ang^3
#
#
#
# Elastic Constant Matrix: (Units=GPa)
#
#
# Indices 1 2 3 4 5 6 
#
# 1 61.0197 28.2843 -6.1125 0.0000 -8.1995 0.0000
# 2 28.2843 85.7170 8.1060 0.0000 -14.7692 0.0000
# 3 -6.1125 8.1060 75.1175 0.0000 -10.0825 0.0000
# 4 0.0000 0.0000 0.0000 215.6007 0.0000 -88.1510
# 5 -8.1995 -14.7692 -10.0825 0.0000 38.1305 0.0000
# 6 0.0000 0.0000 0.0000 -88.1510 0.0000 55.5986
#
#
#
# Elastic Compliance Matrix: (Units=1/GPa)
#
#
# Indices 1 2 3 4 5 6 
#
# 1 0.019960 -0.006404 0.002653 0.000000 0.002513 0.000000
# 2 -0.006404 0.014593 -0.001578 0.000000 0.003858 0.000000
# 3 0.002653 -0.001578 0.014197 0.000000 0.003713 0.000000
# 4 0.000000 0.000000 0.000000 0.013186 0.000000 0.020906
# 5 0.002513 0.003858 0.003713 0.000000 0.029242 0.000000
# 6 0.000000 0.000000 0.000000 0.020906 0.000000 0.051133
#
#
# Mechanical properties :
#
#
# Convention : Reuss Voigt Hill
#
# Bulk Modulus (GPa) = 26.25271 31.37886 28.81578
# Shear Modulus (GPa) = 30.18088 74.63773 52.40930
#
# Velocity S-wave (km/s) = 3.98423 6.26553 5.25028
# Velocity P-wave (km/s) = 5.91383 8.29738 7.20486
#
# Compressibility (1/GPa) = 0.03809131
#
# Stress axis : x y z
#
# Youngs Moduli (GPa) = 50.10009 68.52376 70.43739
#
# Poissons Ratio (x) = 0.43883 -0.18684
# Poissons Ratio (y) = 0.32085 0.11116
# Poissons Ratio (z) = -0.13289 0.10814
#
# Static dielectric constant tensor:
#      x y z
#    x 1.701060 0.000000 -0.063880 
#    y 0.000000 1.617780 0.000000 
#    z -0.063880 0.000000 1.800590 
# 
# From -- ./inp_files/53722.got.cif
#   From: 2010.05.17/outbox.cif.g08.bks.cpg/sg10_27_cif.got.tgz:53722.got - 2010.06.03 11:33:40.
