data_PCOD9154336
_publ_section_title
;
Structure prediction by ZEFSAII (Michael W. Deem and Ramdas Pophale) SiO2 
 PCOD9154336
Probable space group: P 2/M
;
_chemical_formula_sum "Si O2"
_cell_formula_units_Z 28
_cell_length_a 9.003449
_cell_length_b 13.851400
_cell_length_c 11.192577
_cell_angle_alpha 90.000000
_cell_angle_beta 72.931369
_cell_angle_gamma 90.000000
_cell_volume 1334.349509
_symmetry_space_group_name_H-M "P 2/M"
_symmetry_group_IT_number 10
_symmetry_cell_setting 'monoclinic'
loop_
_space_group_symop_operation_xyz
x,y,z
-x,y,-z
-x,-y,-z
x,-y,z
loop_
_atom_site_type_symbol
_atom_site_label
_atom_site_fract_x
_atom_site_fract_y
_atom_site_fract_z
Si Si1 0.765985 0.387659 0.086952
Si Si2 0.502424 0.000000 0.805787
Si Si3 0.327417 0.394993 0.477720
Si Si4 0.567028 0.675577 0.779104
Si Si5 0.180589 0.775741 0.122047
Si Si6 0.760939 0.000000 0.929909
Si Si7 0.862316 0.275675 0.300380
Si Si8 0.425239 0.166129 0.646521
O O1 0.808388 0.500000 0.052448
O O2 0.577700 0.378892 0.127404
O O3 0.822257 0.352821 0.204661
O O4 0.826602 0.303372 0.983496
O O5 0.668390 0.000000 0.827766
O O6 0.479984 0.911857 0.725160
O O7 0.368321 0.000000 0.936344
O O8 0.500000 0.388276 0.500000
O O9 0.269243 0.500000 0.528413
O O10 0.330636 0.390372 0.332567
O O11 0.210424 0.317719 0.561280
O O12 0.660637 0.744881 0.846797
O O13 0.490112 0.738394 0.692304
O O14 0.168839 0.889148 0.083800
O O15 0.040420 0.751811 0.245081
O O16 0.759360 0.179074 0.307129
O O17 0.500000 0.151358 0.500000
#
# Coordination Sequence:
#
# PCOD9154336 Si02
#       8
#     4   2   4   4   4   2   4   4
#     4  11  24  43  66  96 134 178 224 270 324 393
#     4  11  23  37  72  94 118 165 228 282 323 379
#     4  11  20  38  68  94 123 173 225 273 324 384
#     4  11  21  40  65  95 128 171 218 270 326 392
#     4  12  27  42  66  96 140 176 218 273 341 395
#     4  11  24  45  64  98 133 174 217 278 340 391
#     4  11  23  41  64  96 132 175 213 271 330 399
#     4  11  20  41  65  94 122 163 222 275 321 388
#
# _framework density 20.984006999999998
#
# number of rings (size 3 to 8) (size 9 to 14) (size 15 to 20)
#    0.000    0.857    5.714    3.643    2.000    4.571 
#    0.000    2.857    0.000    1.714    0.000    0.000 
#    0.000    0.000    0.000    0.000    0.000    0.000 
#
# Total GULP energy -156009.974206 kJ/mol
# GULP energy per Si atom -5571.784793 kJ/mol
# Density = 2.093625 g / cm^3
# Si number density = 20.984007 Si / 1000 Ang^3
#
#
#
# Elastic Constant Matrix: (Units=GPa)
#
#
# Indices 1 2 3 4 5 6 
#
# 1 47.8294 11.3195 10.8009 0.0000 -16.2770 0.0000
# 2 11.3195 126.8354 29.6268 0.0000 -3.6510 0.0000
# 3 10.8009 29.6268 73.5241 0.0000 -12.0526 0.0000
# 4 0.0000 0.0000 0.0000 15.5219 0.0000 4.2532
# 5 -16.2770 -3.6510 -12.0526 0.0000 30.3090 0.0000
# 6 0.0000 0.0000 0.0000 4.2532 0.0000 5.5196
#
#
#
# Elastic Compliance Matrix: (Units=1/GPa)
#
#
# Indices 1 2 3 4 5 6 
#
# 1 0.026100 -0.001724 -0.000937 0.000000 0.013436 0.000000
# 2 -0.001724 0.008821 -0.003508 0.000000 -0.001258 0.000000
# 3 -0.000937 -0.003508 0.016046 0.000000 0.005455 0.000000
# 4 0.000000 0.000000 0.000000 0.081669 0.000000 -0.062931
# 5 0.013436 -0.001258 0.005455 0.000000 0.042227 0.000000
# 6 0.000000 0.000000 0.000000 -0.062931 0.000000 0.229666
#
#
# Mechanical properties :
#
#
# Convention : Reuss Voigt Hill
#
# Bulk Modulus (GPa) = 25.88610 39.07590 32.48100
# Shear Modulus (GPa) = 11.63489 23.36621 17.50055
#
# Velocity S-wave (km/s) = 2.35726 3.34057 2.89103
# Velocity P-wave (km/s) = 4.44655 5.79149 5.16300
#
# Compressibility (1/GPa) = 0.03863077
#
# Stress axis : x y z
#
# Youngs Moduli (GPa) = 38.31463 113.36383 62.31985
#
# Poissons Ratio (x) = 0.19540 0.05839
# Poissons Ratio (y) = 0.06604 0.21859
# Poissons Ratio (z) = 0.03590 0.39762
#
# Static dielectric constant tensor:
#      x y z
#    x 1.784640 0.000000 -0.024270 
#    y 0.000000 1.629640 0.000000 
#    z -0.024270 0.000000 1.802990 
# 
# From -- ./inp_files/42689.got.cif
#   From: 2010.05.17/outbox.cif.g08.bks.cpg/sg10_22_cif.got.tgz:42689.got - 2010.06.03 11:33:40.
