data_PCOD9154171
_publ_section_title
;
Structure prediction by ZEFSAII (Michael W. Deem and Ramdas Pophale) SiO2 
 PCOD9154171
Probable space group: P 2/M
;
_chemical_formula_sum "Si O2"
_cell_formula_units_Z 30
_cell_length_a 14.579349
_cell_length_b 16.786784
_cell_length_c 11.633584
_cell_angle_alpha 90.000000
_cell_angle_beta 148.929571
_cell_angle_gamma 90.000000
_cell_volume 1469.419262
_symmetry_space_group_name_H-M "P 2/M"
_symmetry_group_IT_number 10
_symmetry_cell_setting 'monoclinic'
loop_
_space_group_symop_operation_xyz
x,y,z
-x,y,-z
-x,-y,-z
x,-y,z
loop_
_atom_site_type_symbol
_atom_site_label
_atom_site_fract_x
_atom_site_fract_y
_atom_site_fract_z
Si Si1 0.236683 0.500000 0.446475
Si Si2 0.594589 0.162771 0.725854
Si Si3 0.845759 0.655016 0.488920
Si Si4 0.331894 0.407879 0.905461
Si Si5 0.702894 0.641811 0.671465
Si Si6 0.033661 0.911182 0.899033
Si Si7 0.257338 0.214571 0.464147
Si Si8 0.775009 0.670674 0.989802
O O1 0.203280 0.570287 0.507460
O O2 0.270620 0.569769 0.385989
O O3 0.500000 0.161236 0.500000
O O4 0.428326 0.158284 0.632982
O O5 0.757796 0.102145 0.901058
O O6 0.686803 0.246741 0.857552
O O7 0.810852 0.643237 0.317510
O O8 0.727996 0.727163 0.411964
O O9 0.039952 0.675834 0.745643
O O10 0.278702 0.500000 0.861014
O O11 0.352865 0.375521 0.057785
O O12 0.500000 0.404645 0.000000
O O13 0.500000 0.644472 0.500000
O O14 0.748550 0.723602 0.651641
O O15 0.811914 0.629228 0.906574
O O16 0.915072 0.841037 0.718803
O O17 0.980340 0.000000 0.804847
O O18 0.000000 0.905415 0.000000
#
# Coordination Sequence:
#
# PCOD9154171 Si02
#       8
#     2   4   4   4   4   4   4   4
#     4  10  25  37  56  84 128 154 224 261 324 372
#     4  12  21  39  62  90 128 170 212 252 314 383
#     4  11  24  41  62  85 123 169 217 273 323 377
#     4  11  26  43  61  83 122 165 221 281 332 372
#     4  11  22  36  59  89 121 168 214 263 315 374
#     4  11  23  37  60  99 136 169 206 252 318 391
#     4  11  21  39  65  88 132 170 212 258 313 383
#     4  12  23  37  62  87 118 164 216 267 316 380
#
# _framework density 20.416229000000001
#
# number of rings (size 3 to 8) (size 9 to 14) (size 15 to 20)
#    0.000    0.800    6.000    1.400    3.733    3.467 
#    0.000    0.000    0.000    0.000    0.000    1.867 
#    0.000    3.200    0.000    0.000    0.000    0.000 
#
# Total GULP energy -167063.134419 kJ/mol
# GULP energy per Si atom -5568.771147 kJ/mol
# Density = 2.036976 g / cm^3
# Si number density = 20.416229 Si / 1000 Ang^3
#
#
#
# Elastic Constant Matrix: (Units=GPa)
#
#
# Indices 1 2 3 4 5 6 
#
# 1 72.4463 28.8734 13.9441 0.0000 -8.1144 0.0000
# 2 28.8734 110.1274 20.5553 0.0000 -1.2649 0.0000
# 3 13.9441 20.5553 76.8305 0.0000 8.1793 0.0000
# 4 0.0000 0.0000 0.0000 33.9897 0.0000 22.1439
# 5 -8.1144 -1.2649 8.1793 0.0000 37.0549 0.0000
# 6 0.0000 0.0000 0.0000 22.1439 0.0000 36.2866
#
#
#
# Elastic Compliance Matrix: (Units=1/GPa)
#
#
# Indices 1 2 3 4 5 6 
#
# 1 0.016196 -0.003762 -0.002352 0.000000 0.003938 0.000000
# 2 -0.003762 0.010462 -0.002116 0.000000 0.000000 0.000000
# 3 -0.002352 -0.002116 0.014410 0.000000 -0.003768 0.000000
# 4 0.000000 0.000000 0.000000 0.048837 0.000000 -0.029803
# 5 0.003938 0.000000 -0.003768 0.000000 0.028681 0.000000
# 6 0.000000 0.000000 0.000000 -0.029803 0.000000 0.045745
#
#
# Mechanical properties :
#
#
# Convention : Reuss Voigt Hill
#
# Bulk Modulus (GPa) = 40.63877 42.90556 41.77217
# Shear Modulus (GPa) = 26.45578 34.53501 30.49539
#
# Velocity S-wave (km/s) = 3.60366 4.11730 3.86901
# Velocity P-wave (km/s) = 6.10438 6.60787 6.36111
#
# Compressibility (1/GPa) = 0.02460704
#
# Stress axis : x y z
#
# Youngs Moduli (GPa) = 61.74175 95.58626 69.39686
#
# Poissons Ratio (x) = 0.35961 0.16323
# Poissons Ratio (y) = 0.23228 0.14686
# Poissons Ratio (z) = 0.14523 0.20228
#
# Static dielectric constant tensor:
#      x y z
#    x 1.789940 0.000000 0.066540 
#    y 0.000000 1.694040 0.000000 
#    z 0.066540 0.000000 1.857480 
# 
# From -- ./inp_files/51893.got.cif
#   From: 2010.05.17/outbox.cif.g08.bks.cpg/sg10_26_cif.got.tgz:51893.got - 2010.06.03 11:33:40.
