data_PCOD9154512
_publ_section_title
;
Structure prediction by ZEFSAII (Michael W. Deem and Ramdas Pophale) SiO2 
 PCOD9154512
Probable space group: P 2/M
;
_chemical_formula_sum "Si O2"
_cell_formula_units_Z 22
_cell_length_a 15.034941
_cell_length_b 12.231095
_cell_length_c 12.180872
_cell_angle_alpha 90.000000
_cell_angle_beta 29.275161
_cell_angle_gamma 90.000000
_cell_volume 1095.363246
_symmetry_space_group_name_H-M "P 2/M"
_symmetry_group_IT_number 10
_symmetry_cell_setting 'monoclinic'
loop_
_space_group_symop_operation_xyz
x,y,z
-x,y,-z
-x,-y,-z
x,-y,z
loop_
_atom_site_type_symbol
_atom_site_label
_atom_site_fract_x
_atom_site_fract_y
_atom_site_fract_z
Si Si1 0.435822 0.722982 0.885147
Si Si2 0.914096 0.500000 0.414538
Si Si3 0.297701 0.500000 0.128012
Si Si4 0.000000 0.301129 0.000000
Si Si5 0.851806 0.261437 0.386552
Si Si6 0.888784 0.125757 0.732541
Si Si7 0.653147 0.374975 0.248974
O O1 0.644134 0.758042 0.646663
O O2 0.360655 0.696917 0.844131
O O3 0.408219 0.609914 0.981421
O O4 0.303315 0.814003 0.076719
O O5 0.782945 0.500000 0.662295
O O6 0.882490 0.390514 0.379091
O O7 0.118887 0.500000 0.241965
O O8 0.104792 0.239748 0.788233
O O9 0.155327 0.367667 0.896198
O O10 0.990592 0.192172 0.310064
O O11 0.000000 0.129441 0.500000
O O12 0.864010 0.000000 0.792636
O O13 0.500000 0.340338 0.500000
O O14 0.613245 0.500000 0.259913
#
# Coordination Sequence:
#
# PCOD9154512 Si02
#       7
#     4   2   2   2   4   4   4
#     4  12  23  41  66  98 133 173 211 271 324 393
#     4  11  23  38  62  95 132 179 209 256 324 400
#     4  11  21  39  61  92 135 172 215 259 325 388
#     4  12  23  38  63  92 128 174 215 257 316 386
#     4  12  26  40  67  98 133 170 215 264 330 387
#     4  11  26  48  71  94 125 170 224 276 325 381
#     4  11  22  36  60  95 136 175 215 259 313 389
#
# _framework density 20.084662000000002
#
# number of rings (size 3 to 8) (size 9 to 14) (size 15 to 20)
#    0.000    0.545    6.364    1.909    2.545    4.364 
#    0.000    2.273    0.000    1.636    0.000    0.000 
#    0.000    0.000    0.000    0.000    0.000    0.000 
#
# Total GULP energy -123075.240158 kJ/mol
# GULP energy per Si atom -5594.329098 kJ/mol
# Density = 2.003895 g / cm^3
# Si number density = 20.084662 Si / 1000 Ang^3
#
#
#
# Elastic Constant Matrix: (Units=GPa)
#
#
# Indices 1 2 3 4 5 6 
#
# 1 57.2734 12.0661 27.3720 0.0000 -5.5577 0.0000
# 2 12.0661 104.9412 45.5642 0.0000 -5.2082 0.0000
# 3 27.3720 45.5642 168.7655 0.0000 -7.6730 0.0000
# 4 0.0000 0.0000 0.0000 -22.1006 0.0000 -5.1996
# 5 -5.5577 -5.2082 -7.6730 0.0000 43.2639 0.0000
# 6 0.0000 0.0000 0.0000 -5.1996 0.0000 2.0196
#
#
#
# Elastic Compliance Matrix: (Units=1/GPa)
#
#
# Indices 1 2 3 4 5 6 
#
# 1 0.019159 -0.000904 -0.002779 0.000000 0.001860 0.000000
# 2 -0.000904 0.010864 -0.002754 0.000000 0.000703 0.000000
# 3 -0.002779 -0.002754 0.007146 0.000000 0.000579 0.000000
# 4 0.000000 0.000000 0.000000 -0.028179 0.000000 -0.072550
# 5 0.001860 0.000703 0.000579 0.000000 0.023540 0.000000
# 6 0.000000 0.000000 0.000000 -0.072550 0.000000 0.308369
#
#
# Mechanical properties :
#
#
# Convention : Reuss Voigt Hill
#
# Bulk Modulus (GPa) = 41.16187 55.66498 48.41342
# Shear Modulus (GPa) = 13.81705 21.03508 17.42606
#
# Velocity S-wave (km/s) = 2.62571 3.23974 2.94875
# Velocity P-wave (km/s) = 5.45262 6.46297 5.97917
#
# Compressibility (1/GPa) = 0.02429433
#
# Stress axis : x y z
#
# Youngs Moduli (GPa) = 52.19463 92.04740 139.93731
#
# Poissons Ratio (x) = 0.08322 0.38885
# Poissons Ratio (y) = 0.04719 0.38546
# Poissons Ratio (z) = 0.14504 0.25354
#
# Static dielectric constant tensor:
#      x y z
#    x 1.712220 0.000000 0.004220 
#    y 0.000000 1.661140 0.000000 
#    z 0.004220 0.000000 1.750110 
# 
# From -- ./inp_files/51026.got.cif
#   From: 2010.05.17/outbox.cif.g08.bks.cpg/sg10_26_cif.got.tgz:51026.got - 2010.06.03 11:33:40.
