data_PCOD9154659
_publ_section_title
;
Structure prediction by ZEFSAII (Michael W. Deem and Ramdas Pophale) SiO2 
 PCOD9154659
Probable space group: P 2/M
;
_chemical_formula_sum "Si O2"
_cell_formula_units_Z 18
_cell_length_a 11.993825
_cell_length_b 9.881415
_cell_length_c 9.089885
_cell_angle_alpha 90.000000
_cell_angle_beta 123.235664
_cell_angle_gamma 90.000000
_cell_volume 901.075886
_symmetry_space_group_name_H-M "P 2/M"
_symmetry_group_IT_number 10
_symmetry_cell_setting 'monoclinic'
loop_
_space_group_symop_operation_xyz
x,y,z
-x,y,-z
-x,-y,-z
x,-y,z
loop_
_atom_site_type_symbol
_atom_site_label
_atom_site_fract_x
_atom_site_fract_y
_atom_site_fract_z
Si Si1 0.040472 0.766530 0.186115
Si Si2 0.753043 0.289082 0.095953
Si Si3 0.877503 0.000000 0.531603
Si Si4 0.339688 0.000000 0.875555
Si Si5 0.204007 0.500000 0.307515
Si Si6 0.598988 0.500000 0.789968
Si Si7 0.700818 0.500000 0.309775
O O1 0.106624 0.870370 0.349317
O O2 0.130866 0.637824 0.210469
O O3 0.907628 0.709468 0.166960
O O4 0.000000 0.831947 0.000000
O O5 0.725147 0.369524 0.226402
O O6 0.709592 0.135031 0.080121
O O7 0.667509 0.369663 0.914535
O O8 0.739473 0.000000 0.338932
O O9 0.000000 0.000000 0.500000
O O10 0.500000 0.000000 0.000000
O O11 0.350244 0.500000 0.340287
O O12 0.204028 0.500000 0.482809
O O13 0.447324 0.500000 0.731072
#
# Coordination Sequence:
#
# PCOD9154659 Si02
#       7
#     4   4   2   2   2   2   2
#     4  12  24  43  67  97 134 173 220 278 337 384
#     4  11  22  41  68  92 127 172 224 268 332 388
#     4  12  25  44  69  99 135 170 223 278 329 396
#     4  12  24  42  68 102 130 168 219 276 330 397
#     4  12  24  38  66  95 134 167 222 274 330 389
#     4  11  22  43  59  93 134 178 212 265 334 401
#     4  11  24  38  63  94 131 176 218 274 324 398
#
# _framework density 19.976119000000001
#
# number of rings (size 3 to 8) (size 9 to 14) (size 15 to 20)
#    0.000    0.444    4.444    6.333    0.000    0.889 
#    0.000    0.000    0.000    1.333    0.000    0.000 
#    0.000    0.000    0.000    0.000    0.000    0.000 
#
# Total GULP energy -100593.129696 kJ/mol
# GULP energy per Si atom -5588.507205 kJ/mol
# Density = 1.993065 g / cm^3
# Si number density = 19.976119 Si / 1000 Ang^3
#
#
#
# Elastic Constant Matrix: (Units=GPa)
#
#
# Indices 1 2 3 4 5 6 
#
# 1 132.8172 28.2727 38.1765 0.0000 -2.4126 0.0000
# 2 28.2727 135.2740 37.7705 0.0000 -9.8842 0.0000
# 3 38.1765 37.7705 100.8609 0.0000 -2.0927 0.0000
# 4 0.0000 0.0000 0.0000 14.0684 0.0000 -7.0593
# 5 -2.4126 -9.8842 -2.0927 0.0000 36.1529 0.0000
# 6 0.0000 0.0000 0.0000 -7.0593 0.0000 6.2749
#
#
#
# Elastic Compliance Matrix: (Units=1/GPa)
#
#
# Indices 1 2 3 4 5 6 
#
# 1 0.008566 -0.000978 -0.002873 0.000000 0.000138 0.000000
# 2 -0.000978 0.008527 -0.002779 0.000000 0.002105 0.000000
# 3 -0.002873 -0.002779 0.012038 0.000000 -0.000255 0.000000
# 4 0.000000 0.000000 0.000000 0.163224 0.000000 0.183629
# 5 0.000138 0.002105 -0.000255 0.000000 0.028230 0.000000
# 6 0.000000 0.000000 0.000000 0.183629 0.000000 0.365949
#
#
# Mechanical properties :
#
#
# Convention : Reuss Voigt Hill
#
# Bulk Modulus (GPa) = 63.01447 64.15461 63.58454
# Shear Modulus (GPa) = 8.26332 28.94805 18.60569
#
# Velocity S-wave (km/s) = 2.03607 3.81088 3.05519
# Velocity P-wave (km/s) = 6.09433 7.17977 6.65920
#
# Compressibility (1/GPa) = 0.01586937
#
# Stress axis : x y z
#
# Youngs Moduli (GPa) = 116.74536 117.27985 83.07306
#
# Poissons Ratio (x) = 0.11470 0.23867
# Poissons Ratio (y) = 0.11417 0.23088
# Poissons Ratio (z) = 0.33542 0.32595
#
# Static dielectric constant tensor:
#      x y z
#    x 1.692290 0.000000 0.015070 
#    y 0.000000 7.066060 0.000000 
#    z 0.015070 0.000000 1.726850 
# 
# From -- ./inp_files/22080.got.cif
#   From: 2010.05.17/outbox.cif.g08.bks.cpg/sg10_12_cif.got.tgz:22080.got - 2010.06.03 11:33:40.
