data_PCOD9154193
_publ_section_title
;
Structure prediction by ZEFSAII (Michael W. Deem and Ramdas Pophale) SiO2 
 PCOD9154193
Probable space group: P 2/M
;
_chemical_formula_sum "Si O2"
_cell_formula_units_Z 14
_cell_length_a 11.077078
_cell_length_b 8.971925
_cell_length_c 8.975886
_cell_angle_alpha 90.000000
_cell_angle_beta 39.448203
_cell_angle_gamma 90.000000
_cell_volume 566.789744
_symmetry_space_group_name_H-M "P 2/M"
_symmetry_group_IT_number 10
_symmetry_cell_setting 'monoclinic'
loop_
_space_group_symop_operation_xyz
x,y,z
-x,y,-z
-x,-y,-z
x,-y,z
loop_
_atom_site_type_symbol
_atom_site_label
_atom_site_fract_x
_atom_site_fract_y
_atom_site_fract_z
Si Si1 0.500000 0.246927 0.500000
Si Si2 0.794666 0.000000 0.108837
Si Si3 0.500000 0.500000 0.000000
Si Si4 0.331674 0.500000 0.461137
Si Si5 0.000000 0.747799 0.500000
Si Si6 0.000000 0.500000 0.000000
Si Si7 0.132802 0.500000 0.152975
Si Si8 0.724046 0.000000 0.817503
O O1 0.672975 0.142880 0.278217
O O2 0.420550 0.349952 0.444292
O O3 0.786865 0.000000 0.933926
O O4 0.000000 0.000000 0.000000
O O5 0.672770 0.500000 0.711392
O O6 0.649771 0.500000 0.991470
O O7 0.114877 0.500000 0.733138
O O8 0.051547 0.650031 0.308678
O O9 0.180075 0.856520 0.349642
O O10 0.815826 0.500000 0.073413
O O11 0.500000 0.000000 0.000000
#
# Coordination Sequence:
#
# PCOD9154193 Si02
#       8
#     2   2   1   2   2   1   2   2
#     4  10  26  52  74 116 156 204 262 324 396 464
#     4  11  28  47  78 111 155 206 260 321 388 473
#     4  12  28  48  76 124 156 200 256 328 404 456
#     4  11  26  47  83 116 155 204 261 332 389 464
#     4  10  26  50  76 118 154 202 268 322 390 470
#     4  12  28  48  76 124 156 200 256 328 404 456
#     4  11  26  47  79 112 153 200 256 333 387 459
#     4  11  28  49  76 109 157 210 256 319 392 473
#
# _framework density 24.700517000000001
#
# number of rings (size 3 to 8) (size 9 to 14) (size 15 to 20)
#    0.000    1.143    0.000    3.429   12.000    9.143 
#    0.000    0.000    0.000    0.000    0.000    0.000 
#    0.000    0.000    0.000    0.000    0.000    0.000 
#
# Total GULP energy -77946.341909 kJ/mol
# GULP energy per Si atom -5567.595851 kJ/mol
# Density = 2.464430 g / cm^3
# Si number density = 24.700517 Si / 1000 Ang^3
#
#
#
# Elastic Constant Matrix: (Units=GPa)
#
#
# Indices 1 2 3 4 5 6 
#
# 1 153.0444 32.0986 23.1123 0.0000 11.9439 0.0000
# 2 32.0986 143.6874 30.6134 0.0000 -7.7280 0.0000
# 3 23.1123 30.6134 110.7776 0.0000 -14.9265 0.0000
# 4 0.0000 0.0000 0.0000 14.0919 0.0000 10.2269
# 5 11.9439 -7.7280 -14.9265 0.0000 70.3836 0.0000
# 6 0.0000 0.0000 0.0000 10.2269 0.0000 0.4908
#
#
#
# Elastic Compliance Matrix: (Units=1/GPa)
#
#
# Indices 1 2 3 4 5 6 
#
# 1 0.007158 -0.001405 -0.001328 0.000000 -0.001650 0.000000
# 2 -0.001405 0.007681 -0.001733 0.000000 0.000714 0.000000
# 3 -0.001328 -0.001733 0.010076 0.000000 0.002172 0.000000
# 4 0.000000 0.000000 0.000000 -0.005025 0.000000 0.104706
# 5 -0.001650 0.000714 0.002172 0.000000 0.015027 0.000000
# 6 0.000000 0.000000 0.000000 0.104706 0.000000 -0.144277
#
#
# Mechanical properties :
#
#
# Convention : Reuss Voigt Hill
#
# Bulk Modulus (GPa) = 62.56587 64.35088 63.45838
# Shear Modulus (GPa) = -52.57590 38.43894 -7.06848
#
# Velocity S-wave (km/s) = -4.61861 3.94915 -1.69348
# Velocity P-wave (km/s) = 1.74851 6.84860 4.68220
#
# Compressibility (1/GPa) = 0.01598315
#
# Stress axis : x y z
#
# Youngs Moduli (GPa) = 139.70360 130.18950 99.24868
#
# Poissons Ratio (x) = 0.18291 0.13176
# Poissons Ratio (y) = 0.19628 0.17203
# Poissons Ratio (z) = 0.18546 0.22566
#
# Static dielectric constant tensor:
#      x y z
#    x 2.037370 0.000000 -0.070720 
#    y 0.000000 1.923510 0.000000 
#    z -0.070720 0.000000 2.019320 
# 
# From -- ./inp_files/21931.got.cif
#   From: 2010.05.17/outbox.cif.g08.bks.cpg/sg10_11_cif.got.tgz:21931.got - 2010.06.03 11:33:40.
