data_PCOD9154464
_publ_section_title
;
Structure prediction by ZEFSAII (Michael W. Deem and Ramdas Pophale) SiO2 
 PCOD9154464
Probable space group: P 2/M
;
_chemical_formula_sum "Si O2"
_cell_formula_units_Z 32
_cell_length_a 14.433030
_cell_length_b 22.669289
_cell_length_c 14.202267
_cell_angle_alpha 90.000000
_cell_angle_beta 159.798282
_cell_angle_gamma 90.000000
_cell_volume 1604.659130
_symmetry_space_group_name_H-M "P 2/M"
_symmetry_group_IT_number 10
_symmetry_cell_setting 'monoclinic'
loop_
_space_group_symop_operation_xyz
x,y,z
-x,y,-z
-x,-y,-z
x,-y,z
loop_
_atom_site_type_symbol
_atom_site_label
_atom_site_fract_x
_atom_site_fract_y
_atom_site_fract_z
Si Si1 0.818407 0.619769 0.737895
Si Si2 0.439474 0.567638 0.813765
Si Si3 0.685453 0.433701 0.843626
Si Si4 0.061962 0.236563 0.350993
Si Si5 0.776032 0.239777 0.712297
Si Si6 0.929677 0.351871 0.331709
Si Si7 0.519431 0.816510 0.904672
Si Si8 0.272879 0.065177 0.704378
O O1 0.535358 0.592626 0.438415
O O2 0.774782 0.688801 0.708912
O O3 0.000000 0.598017 0.000000
O O4 0.046964 0.603632 0.880849
O O5 0.437636 0.500000 0.846290
O O6 0.530723 0.564146 0.793300
O O7 0.150103 0.596907 0.537600
O O8 0.650298 0.613321 0.060567
O O9 0.761370 0.500000 0.887834
O O10 0.956010 0.301936 0.276743
O O11 0.146974 0.225427 0.322992
O O12 0.326921 0.228442 0.666895
O O13 0.821681 0.193540 0.156801
O O14 0.500000 0.220900 0.500000
O O15 0.000000 0.220313 0.000000
O O16 0.000000 0.321930 0.500000
O O17 0.388250 0.880455 0.755196
O O18 0.500000 0.809605 0.000000
O O19 0.000000 0.080986 0.500000
O O20 0.233786 0.000000 0.622742
O O21 0.500000 0.058881 0.000000
#
# Coordination Sequence:
#
# PCOD9154464 Si02
#       8
#     4   4   4   4   4   4   4   4
#     4  11  22  36  54  75  99 128 165 215 280 346
#     4  11  24  41  59  76 100 138 184 231 277 335
#     4  11  22  36  53  75 101 128 162 208 269 340
#     4  12  24  39  60  86 120 155 193 242 299 354
#     4  11  23  41  61  80 104 141 191 242 291 346
#     4  12  25  40  59  83 110 143 182 228 288 355
#     4  11  21  36  57  89 130 167 199 233 281 341
#     4   9  17  31  53  83 124 174 215 241 269 316
#
# _framework density 19.941931
#
# number of rings (size 3 to 8) (size 9 to 14) (size 15 to 20)
#    0.000    1.000    0.000    9.375    0.000    5.000 
#    0.000    0.000    0.000    0.000    0.000    0.000 
#    0.000   10.000    0.000    0.000    0.000    0.000 
#
# Total GULP energy -178529.822223 kJ/mol
# GULP energy per Si atom -5579.056944 kJ/mol
# Density = 1.989654 g / cm^3
# Si number density = 19.941931 Si / 1000 Ang^3
#
#
#
# Elastic Constant Matrix: (Units=GPa)
#
#
# Indices 1 2 3 4 5 6 
#
# 1 119.5304 22.5253 39.1064 0.0000 5.4078 0.0000
# 2 22.5253 56.4595 12.5200 0.0000 -0.8459 0.0000
# 3 39.1064 12.5200 131.9517 0.0000 17.6035 0.0000
# 4 0.0000 0.0000 0.0000 25.1513 0.0000 4.0859
# 5 5.4078 -0.8459 17.6035 0.0000 32.5659 0.0000
# 6 0.0000 0.0000 0.0000 4.0859 0.0000 -5.5541
#
#
#
# Elastic Compliance Matrix: (Units=1/GPa)
#
#
# Indices 1 2 3 4 5 6 
#
# 1 0.009852 -0.003369 -0.002554 0.000000 -0.000343 0.000000
# 2 -0.003369 0.019314 -0.001051 0.000000 0.001629 0.000000
# 3 -0.002554 -0.001051 0.009034 0.000000 -0.004486 0.000000
# 4 0.000000 0.000000 0.000000 0.035515 0.000000 0.026127
# 5 -0.000343 0.001629 -0.004486 0.000000 0.033231 0.000000
# 6 0.000000 0.000000 0.000000 0.026127 0.000000 -0.160828
#
#
# Mechanical properties :
#
#
# Convention : Reuss Voigt Hill
#
# Bulk Modulus (GPa) = 41.23822 50.69388 45.96605
# Shear Modulus (GPa) = -156.99341 26.01863 -65.48739
#
# Velocity S-wave (km/s) = -8.88235 3.61601 -5.73675
# Velocity P-wave (km/s) = 9.19080 6.55057 4.55856
#
# Compressibility (1/GPa) = 0.02424935
#
# Stress axis : x y z
#
# Youngs Moduli (GPa) = 101.49936 51.77696 110.69441
#
# Poissons Ratio (x) = 0.17446 0.28277
# Poissons Ratio (y) = 0.34199 0.11638
# Poissons Ratio (z) = 0.25928 0.05444
#
# Static dielectric constant tensor:
#      x y z
#    x 1.907680 0.000000 0.005040 
#    y 0.000000 1.744150 0.000000 
#    z 0.005040 0.000000 1.729080 
# 
# From -- ./inp_files/67971.got.cif
#   From: 2010.05.17/outbox.cif.g08.bks.cpg/sg10_34_cif.got.tgz:67971.got - 2010.06.03 11:33:40.
