data_PCOD9154124
_publ_section_title
;
Structure prediction by ZEFSAII (Michael W. Deem and Ramdas Pophale) SiO2 
 PCOD9154124
Probable space group: P 2/M
;
_chemical_formula_sum "Si O2"
_cell_formula_units_Z 18
_cell_length_a 19.700983
_cell_length_b 7.574416
_cell_length_c 14.345006
_cell_angle_alpha 90.000000
_cell_angle_beta 159.587488
_cell_angle_gamma 90.000000
_cell_volume 746.595334
_symmetry_space_group_name_H-M "P 2/M"
_symmetry_group_IT_number 10
_symmetry_cell_setting 'monoclinic'
loop_
_space_group_symop_operation_xyz
x,y,z
-x,y,-z
-x,-y,-z
x,-y,z
loop_
_atom_site_type_symbol
_atom_site_label
_atom_site_fract_x
_atom_site_fract_y
_atom_site_fract_z
Si Si1 0.894004 0.795928 0.960590
Si Si2 0.031052 0.293571 0.749993
Si Si3 0.430516 0.799261 0.182806
Si Si4 0.675576 0.212458 0.162050
Si Si5 0.364489 0.500000 0.432814
O O1 0.721789 0.655175 0.749057
O O2 0.835173 0.000000 0.878560
O O3 0.032160 0.771167 0.228571
O O4 0.000000 0.744205 0.000000
O O5 0.071397 0.500000 0.806326
O O6 0.875099 0.264545 0.468293
O O7 0.230615 0.195904 0.983734
O O8 0.566309 0.656882 0.406118
O O9 0.511668 0.000000 0.282054
O O10 0.364141 0.735945 0.994963
O O11 0.673642 0.000000 0.159558
O O12 0.500000 0.278266 0.000000
#
# Coordination Sequence:
#
# PCOD9154124 Si02
#       5
#     4   4   4   4   2
#     4  11  26  46  71 101 139 184 227 282 343 404
#     4  12  25  44  71 100 139 182 228 283 344 404
#     4  11  25  45  71 102 141 183 223 282 345 407
#     4  10  24  44  70 102 136 177 228 282 343 410
#     4  12  25  45  70 104 136 182 230 290 322 419
#
# _framework density 24.109445999999998
#
# number of rings (size 3 to 8) (size 9 to 14) (size 15 to 20)
#    0.000    0.889    2.222    3.667    4.667    4.889 
#    0.000    2.222    0.000    0.000    0.000    0.000 
#    0.000    0.000    0.000    0.000    0.000    0.000 
#
# Total GULP energy -100284.631699 kJ/mol
# GULP energy per Si atom -5571.368428 kJ/mol
# Density = 2.405457 g / cm^3
# Si number density = 24.109446 Si / 1000 Ang^3
#
#
#
# Elastic Constant Matrix: (Units=GPa)
#
#
# Indices 1 2 3 4 5 6 
#
# 1 90.6485 1.8968 21.5685 0.0000 -32.9671 0.0000
# 2 1.8968 145.2225 38.8325 0.0000 -15.5453 0.0000
# 3 21.5685 38.8325 100.0200 0.0000 -44.5222 0.0000
# 4 0.0000 0.0000 0.0000 2.8747 0.0000 -48.3347
# 5 -32.9671 -15.5453 -44.5222 0.0000 54.6767 0.0000
# 6 0.0000 0.0000 0.0000 -48.3347 0.0000 1.9307
#
#
#
# Elastic Compliance Matrix: (Units=1/GPa)
#
#
# Indices 1 2 3 4 5 6 
#
# 1 0.014262 0.000582 0.000941 0.000000 0.009531 0.000000
# 2 0.000582 0.007713 -0.003118 0.000000 0.000005 0.000000
# 3 0.000941 -0.003118 0.017040 0.000000 0.013556 0.000000
# 4 0.000000 0.000000 0.000000 -0.000828 0.000000 -0.020738
# 5 0.009531 0.000005 0.013556 0.000000 0.035076 0.000000
# 6 0.000000 0.000000 0.000000 -0.020738 0.000000 -0.001233
#
#
# Mechanical properties :
#
#
# Convention : Reuss Voigt Hill
#
# Bulk Modulus (GPa) = 27.91311 51.16519 39.53915
# Shear Modulus (GPa) = 57.36662 30.13598 43.75130
#
# Velocity S-wave (km/s) = 4.88323 3.53932 4.26455
# Velocity P-wave (km/s) = 6.58767 6.16202 6.37840
#
# Compressibility (1/GPa) = 0.03582546
#
# Stress axis : x y z
#
# Youngs Moduli (GPa) = 70.11780 129.65806 58.68610
#
# Poissons Ratio (x) = -0.07550 -0.05522
# Poissons Ratio (y) = -0.04083 0.18296
# Poissons Ratio (z) = -0.06598 0.40423
#
# Static dielectric constant tensor:
#      x y z
#    x 2.014610 0.000000 0.047440 
#    y 0.000000 1.839690 0.000000 
#    z 0.047440 0.000000 1.943870 
# 
# From -- ./inp_files/70122.got.cif
#   From: 2010.05.17/outbox.cif.g08.bks.cpg/sg10_36_cif.got.tgz:70122.got - 2010.06.03 11:33:40.
