data_PCOD9154978
_publ_section_title
;
Structure prediction by ZEFSAII (Michael W. Deem and Ramdas Pophale) SiO2 
 PCOD9154978
Probable space group: P 2/M
;
_chemical_formula_sum "Si O2"
_cell_formula_units_Z 24
_cell_length_a 25.315776
_cell_length_b 7.474413
_cell_length_c 19.256446
_cell_angle_alpha 90.000000
_cell_angle_beta 161.188005
_cell_angle_gamma 90.000000
_cell_volume 1174.966637
_symmetry_space_group_name_H-M "P 2/M"
_symmetry_group_IT_number 10
_symmetry_cell_setting 'monoclinic'
loop_
_space_group_symop_operation_xyz
x,y,z
-x,y,-z
-x,-y,-z
x,-y,z
loop_
_atom_site_type_symbol
_atom_site_label
_atom_site_fract_x
_atom_site_fract_y
_atom_site_fract_z
Si Si1 0.995120 0.280447 0.073547
Si Si2 0.995627 0.208849 0.417560
Si Si3 0.669151 0.282332 0.245327
Si Si4 0.860215 0.787396 0.110254
Si Si5 0.810079 0.703150 0.559480
Si Si6 0.665900 0.285201 0.741228
O O1 0.998787 0.500000 0.079818
O O2 0.143916 0.218035 0.308391
O O3 0.824856 0.221783 0.896522
O O4 0.000000 0.225352 0.000000
O O5 0.174789 0.223838 0.605723
O O6 0.000000 0.289482 0.500000
O O7 0.871951 0.279099 0.204098
O O8 0.952502 0.000000 0.372466
O O9 0.672808 0.500000 0.251727
O O10 0.693731 0.217132 0.355334
O O11 0.500000 0.225791 0.000000
O O12 0.012566 0.700667 0.258575
O O13 0.892371 0.000000 0.150951
O O14 0.700222 0.756927 0.864669
O O15 0.753808 0.500000 0.501360
O O16 0.500000 0.217179 0.500000
O O17 0.663810 0.500000 0.733304
#
# Coordination Sequence:
#
# PCOD9154978 Si02
#       6
#     4   4   4   4   4   4
#     4   8  13  23  41  61  78 102 137 170 200 240
#     4   9  18  32  48  66  89 119 155 190 224 267
#     4   9  17  29  45  67  92 115 144 184 227 268
#     4   9  16  27  45  65  84 111 147 181 214 256
#     4   8  14  26  43  60  82 112 142 173 211 257
#     4   9  17  29  44  63  87 113 141 174 212 256
#
# _framework density 20.426112
#
# number of rings (size 3 to 8) (size 9 to 14) (size 15 to 20)
#    0.000    3.333    0.000    1.500    0.000    1.667 
#    0.000    1.667    0.000   12.000    0.000    0.000 
#    0.000    0.000    0.000    0.000    0.000    0.000 
#
# Total GULP energy -133617.079147 kJ/mol
# GULP energy per Si atom -5567.378298 kJ/mol
# Density = 2.037962 g / cm^3
# Si number density = 20.426112 Si / 1000 Ang^3
#
#
#
# Elastic Constant Matrix: (Units=GPa)
#
#
# Indices 1 2 3 4 5 6 
#
# 1 132.3240 -1.9144 70.6931 0.0000 -62.6041 0.0000
# 2 -1.9144 63.7294 -3.6396 0.0000 -2.3096 0.0000
# 3 70.6931 -3.6396 161.1867 0.0000 -61.8520 0.0000
# 4 0.0000 0.0000 0.0000 23.5531 0.0000 4.7798
# 5 -62.6041 -2.3096 -61.8520 0.0000 44.8573 0.0000
# 6 0.0000 0.0000 0.0000 4.7798 0.0000 15.7094
#
#
#
# Elastic Compliance Matrix: (Units=1/GPa)
#
#
# Indices 1 2 3 4 5 6 
#
# 1 0.024358 0.002530 0.005243 0.000000 0.041355 0.000000
# 2 0.002530 0.016137 0.001972 0.000000 0.007080 0.000000
# 3 0.005243 0.001972 0.014432 0.000000 0.027319 0.000000
# 4 0.000000 0.000000 0.000000 0.045251 0.000000 -0.013768
# 5 0.041355 0.007080 0.027319 0.000000 0.118043 0.000000
# 6 0.000000 0.000000 0.000000 -0.013768 0.000000 0.067845
#
#
# Mechanical properties :
#
#
# Convention : Reuss Voigt Hill
#
# Bulk Modulus (GPa) = 13.43788 54.16871 33.80330
# Shear Modulus (GPa) = 17.15963 36.29737 26.72850
#
# Velocity S-wave (km/s) = 2.90156 4.22003 3.62131
# Velocity P-wave (km/s) = 4.22119 7.09379 5.83696
#
# Compressibility (1/GPa) = 0.07441650
#
# Stress axis : x y z
#
# Youngs Moduli (GPa) = 41.05398 61.97113 69.29060
#
# Poissons Ratio (x) = -0.15678 -0.36331
# Poissons Ratio (y) = -0.10386 -0.13663
# Poissons Ratio (z) = -0.21526 -0.12219
#
# Static dielectric constant tensor:
#      x y z
#    x 1.733200 0.000000 -0.074070 
#    y 0.000000 1.754730 0.000000 
#    z -0.074070 0.000000 1.747640 
# 
# From -- ./inp_files/52870.got.cif
#   From: 2010.05.17/outbox.cif.g08.bks.cpg/sg10_27_cif.got.tgz:52870.got - 2010.06.03 11:33:40.
