data_PCOD9154735
_publ_section_title
;
Structure prediction by ZEFSAII (Michael W. Deem and Ramdas Pophale) SiO2 
 PCOD9154735
Probable space group: P 2/M
;
_chemical_formula_sum "Si O2"
_cell_formula_units_Z 15
_cell_length_a 5.269693
_cell_length_b 20.948135
_cell_length_c 5.268649
_cell_angle_alpha 90.000000
_cell_angle_beta 87.613714
_cell_angle_gamma 90.000000
_cell_volume 581.103074
_symmetry_space_group_name_H-M "P 2/M"
_symmetry_group_IT_number 10
_symmetry_cell_setting 'monoclinic'
loop_
_space_group_symop_operation_xyz
x,y,z
-x,y,-z
-x,-y,-z
x,-y,z
loop_
_atom_site_type_symbol
_atom_site_label
_atom_site_fract_x
_atom_site_fract_y
_atom_site_fract_z
Si Si1 0.263965 0.775465 0.335914
Si Si2 0.500000 0.000000 0.500000
Si Si3 0.175126 0.636266 0.241171
Si Si4 0.178637 0.500000 0.243271
Si Si5 0.757043 0.088360 0.850747
O O1 0.500000 0.792217 0.500000
O O2 0.315345 0.703903 0.234529
O O3 0.238741 0.834906 0.151420
O O4 0.000000 0.773267 0.500000
O O5 0.292335 0.943862 0.418748
O O6 0.320787 0.568222 0.240009
O O7 0.000000 0.636089 0.500000
O O8 0.000000 0.636539 0.000000
O O9 0.000000 0.500000 0.500000
O O10 0.000000 0.500000 0.000000
O O11 0.500000 0.066820 0.000000
O O12 0.000000 0.067662 0.000000
#
# Coordination Sequence:
#
# PCOD9154735 Si02
#       5
#     4   1   4   2   4
#     4  11  23  44  69  99 134 177 226 286 345 412
#     4  12  28  50  72 104 146 174 230 286 362 410
#     4   9  18  34  59  93 130 178 226 285 345 413
#     4   8  14  28  53  86 128 170 224 278 342 407
#     4  12  27  47  74 104 136 183 232 285 349 423
#
# _framework density 25.812974000000001
#
# number of rings (size 3 to 8) (size 9 to 14) (size 15 to 20)
#    0.000    1.600    1.333    3.200    0.000    3.200 
#    0.000    0.667    0.000    0.000    0.000   28.933 
#    0.000    0.000    0.000    0.000    0.000    0.000 
#
# Total GULP energy -83632.520282 kJ/mol
# GULP energy per Si atom -5575.501352 kJ/mol
# Density = 2.575422 g / cm^3
# Si number density = 25.812974 Si / 1000 Ang^3
#
#
#
# Elastic Constant Matrix: (Units=GPa)
#
#
# Indices 1 2 3 4 5 6 
#
# 1 154.2688 20.7133 56.0471 0.0000 26.2844 0.0000
# 2 20.7133 286.0729 9.5455 0.0000 14.9411 0.0000
# 3 56.0471 9.5455 132.9117 0.0000 21.1861 0.0000
# 4 0.0000 0.0000 0.0000 56.8927 0.0000 19.7441
# 5 26.2844 14.9411 21.1861 0.0000 68.5245 0.0000
# 6 0.0000 0.0000 0.0000 19.7441 0.0000 -1.8245
#
#
#
# Elastic Compliance Matrix: (Units=1/GPa)
#
#
# Indices 1 2 3 4 5 6 
#
# 1 0.007974 -0.000370 -0.003010 0.000000 -0.002048 0.000000
# 2 -0.000370 0.003555 0.000002 0.000000 -0.000634 0.000000
# 3 -0.003010 0.000002 0.009055 0.000000 -0.001646 0.000000
# 4 0.000000 0.000000 0.000000 0.003696 0.000000 0.039998
# 5 -0.002048 -0.000634 -0.001646 0.000000 0.016026 0.000000
# 6 0.000000 0.000000 0.000000 0.039998 0.000000 -0.115253
#
#
# Mechanical properties :
#
#
# Convention : Reuss Voigt Hill
#
# Bulk Modulus (GPa) = 72.31277 82.87391 77.59334
# Shear Modulus (GPa) = -78.63946 57.18171 -10.72888
#
# Velocity S-wave (km/s) = -5.52551 4.71173 -2.04093
# Velocity P-wave (km/s) = 3.55435 7.85976 4.95693
#
# Compressibility (1/GPa) = 0.01382882
#
# Stress axis : x y z
#
# Youngs Moduli (GPa) = 125.40504 281.25827 110.43501
#
# Poissons Ratio (x) = 0.10407 0.33237
# Poissons Ratio (y) = 0.04640 -0.00019
# Poissons Ratio (z) = 0.37743 -0.00048
#
# Static dielectric constant tensor:
#      x y z
#    x 1.957900 0.000000 -0.104260 
#    y 0.000000 2.098150 0.000000 
#    z -0.104260 0.000000 2.235500 
# 
# From -- ./inp_files/1169.got.cif
#   From: 2010.05.17/outbox.cif.g08.bks.cpg/sg10_1_cif.got.tgz:1169.got - 2010.06.03 11:33:40.
