data_PCOD9154793
_publ_section_title
;
Structure prediction by ZEFSAII (Michael W. Deem and Ramdas Pophale) SiO2 
 PCOD9154793
Probable space group: P 2/M
;
_chemical_formula_sum "Si O2"
_cell_formula_units_Z 16
_cell_length_a 5.443336
_cell_length_b 15.837681
_cell_length_c 8.909653
_cell_angle_alpha 90.000000
_cell_angle_beta 73.340627
_cell_angle_gamma 90.000000
_cell_volume 735.859373
_symmetry_space_group_name_H-M "P 2/M"
_symmetry_group_IT_number 10
_symmetry_cell_setting 'monoclinic'
loop_
_space_group_symop_operation_xyz
x,y,z
-x,y,-z
-x,-y,-z
x,-y,z
loop_
_atom_site_type_symbol
_atom_site_label
_atom_site_fract_x
_atom_site_fract_y
_atom_site_fract_z
Si Si1 0.704032 0.500000 0.107069
Si Si2 0.304800 0.338344 0.674367
Si Si3 0.371922 0.909790 0.360252
Si Si4 0.298423 0.815352 0.902794
Si Si5 0.000000 0.756823 0.500000
O O1 0.679739 0.419720 0.222702
O O2 0.500000 0.500000 0.000000
O O3 0.000000 0.500000 0.000000
O O4 0.500000 0.343913 0.500000
O O5 0.338823 0.260828 0.780284
O O6 0.053923 0.307493 0.627483
O O7 0.500000 0.912778 0.500000
O O8 0.598764 0.897098 0.201852
O O9 0.199998 0.825706 0.398410
O O10 0.238556 0.000000 0.353429
O O11 0.500000 0.801627 0.000000
O O12 0.000000 0.819701 0.000000
#
# Coordination Sequence:
#
# PCOD9154793 Si02
#       5
#     2   4   4   4   2
#     4  12  31  53  76 118 160 189 236 307 385 446
#     4  12  26  47  78 108 144 200 253 305 362 451
#     4  11  24  44  70 105 147 200 260 316 368 439
#     4  12  25  44  70 105 151 197 247 308 385 443
#     4  12  21  45  78 106 144 190 270 303 367 424
#
# _framework density 21.743286000000001
#
# number of rings (size 3 to 8) (size 9 to 14) (size 15 to 20)
#    0.000    0.250    5.000    3.750    3.500    1.500 
#    0.000    0.000    0.000    0.000    0.000    0.000 
#    0.000    0.000    0.000    0.000    0.000    0.000 
#
# Total GULP energy -89184.701605 kJ/mol
# GULP energy per Si atom -5574.043850 kJ/mol
# Density = 2.169380 g / cm^3
# Si number density = 21.743286 Si / 1000 Ang^3
#
#
#
# Elastic Constant Matrix: (Units=GPa)
#
#
# Indices 1 2 3 4 5 6 
#
# 1 127.2866 40.0672 77.6699 0.0000 4.0572 0.0000
# 2 40.0672 117.2705 47.8314 0.0000 8.9531 0.0000
# 3 77.6699 47.8314 165.7838 0.0000 1.5684 0.0000
# 4 0.0000 0.0000 0.0000 168.8381 0.0000 40.2691
# 5 4.0572 8.9531 1.5684 0.0000 67.3531 0.0000
# 6 0.0000 0.0000 0.0000 40.2691 0.0000 40.3622
#
#
#
# Elastic Compliance Matrix: (Units=1/GPa)
#
#
# Indices 1 2 3 4 5 6 
#
# 1 0.011385 -0.001917 -0.004778 0.000000 -0.000320 0.000000
# 2 -0.001917 0.010089 -0.002002 0.000000 -0.001179 0.000000
# 3 -0.004778 -0.002002 0.008845 0.000000 0.000348 0.000000
# 4 0.000000 0.000000 0.000000 0.007772 0.000000 -0.007754
# 5 -0.000320 -0.001179 0.000348 0.000000 0.015015 0.000000
# 6 0.000000 0.000000 0.000000 -0.007754 0.000000 0.032512
#
#
# Mechanical properties :
#
#
# Convention : Reuss Voigt Hill
#
# Bulk Modulus (GPa) = 77.36388 82.38642 79.87515
# Shear Modulus (GPa) = 46.58994 71.62885 59.10940
#
# Velocity S-wave (km/s) = 4.63398 5.74582 5.21959
# Velocity P-wave (km/s) = 8.01808 9.05495 8.55224
#
# Compressibility (1/GPa) = 0.01292593
#
# Stress axis : x y z
#
# Youngs Moduli (GPa) = 87.83213 99.12203 113.06267
#
# Poissons Ratio (x) = 0.18999 0.54022
# Poissons Ratio (y) = 0.16835 0.22630
# Poissons Ratio (z) = 0.41966 0.19840
#
# Static dielectric constant tensor:
#      x y z
#    x 1.945220 0.000000 -0.014110 
#    y 0.000000 1.818540 0.000000 
#    z -0.014110 0.000000 1.800770 
# 
# From -- ./inp_files/14311.got.cif
#   From: 2010.05.17/outbox.cif.g08.bks.cpg/sg10_8_cif.got.tgz:14311.got - 2010.06.03 11:33:40.
