data_PCOD9154262
_publ_section_title
;
Structure prediction by ZEFSAII (Michael W. Deem and Ramdas Pophale) SiO2 
 PCOD9154262
Probable space group: P 2/M
;
_chemical_formula_sum "Si O2"
_cell_formula_units_Z 24
_cell_length_a 14.510572
_cell_length_b 10.965454
_cell_length_c 20.912360
_cell_angle_alpha 90.000000
_cell_angle_beta 155.635975
_cell_angle_gamma 90.000000
_cell_volume 1372.689823
_symmetry_space_group_name_H-M "P 2/M"
_symmetry_group_IT_number 10
_symmetry_cell_setting 'monoclinic'
loop_
_space_group_symop_operation_xyz
x,y,z
-x,y,-z
-x,-y,-z
x,-y,z
loop_
_atom_site_type_symbol
_atom_site_label
_atom_site_fract_x
_atom_site_fract_y
_atom_site_fract_z
Si Si1 0.387067 0.000000 0.859258
Si Si2 0.403686 0.733251 0.827811
Si Si3 0.023079 0.643491 0.679205
Si Si4 0.833445 0.647472 0.953109
Si Si5 0.895024 0.000000 0.505181
Si Si6 0.336909 0.741141 0.641689
Si Si7 0.103008 0.358187 0.866344
O O1 0.456111 0.122947 0.866098
O O2 0.500000 0.000000 0.000000
O O3 0.115658 0.000000 0.689256
O O4 0.296632 0.708056 0.690853
O O5 0.231996 0.704263 0.775482
O O6 0.631069 0.657848 0.976613
O O7 0.071639 0.500000 0.714478
O O8 0.809850 0.663882 0.500047
O O9 0.993975 0.693727 0.732882
O O10 0.791834 0.500000 0.930669
O O11 0.597670 0.715079 0.795612
O O12 0.934596 0.689045 0.085599
O O13 0.000000 0.668931 0.000000
O O14 0.747828 0.879452 0.420351
O O15 0.000000 0.000000 0.500000
O O16 0.040320 0.500000 0.829367
#
# Coordination Sequence:
#
# PCOD9154262 Si02
#       7
#     2   4   4   4   2   4   4
#     4  12  22  32  50  74 104 149 184 204 246 305
#     4  11  20  32  48  72 109 144 177 207 249 315
#     4  11  20  30  47  76 109 139 171 211 260 316
#     4   9  19  38  60  79 101 133 178 227 271 317
#     4  12  20  38  51  76 114 145 175 218 255 304
#     4  11  21  34  53  76 104 141 179 217 261 310
#     4   9  19  33  50  75 106 138 171 214 264 311
#
# _framework density 17.483920000000001
#
# number of rings (size 3 to 8) (size 9 to 14) (size 15 to 20)
#    0.000    1.500    3.333    3.000    0.000    4.000 
#    0.000    1.250    0.000    4.000    0.000    1.167 
#    0.000    0.000    0.000    0.000    0.000    0.000 
#
# Total GULP energy -133843.110402 kJ/mol
# GULP energy per Si atom -5576.796267 kJ/mol
# Density = 1.744413 g / cm^3
# Si number density = 17.483920 Si / 1000 Ang^3
#
#
#
# Elastic Constant Matrix: (Units=GPa)
#
#
# Indices 1 2 3 4 5 6 
#
# 1 125.4502 15.2840 49.6595 0.0000 -18.6974 0.0000
# 2 15.2840 39.6167 5.1205 0.0000 4.6897 0.0000
# 3 49.6595 5.1205 68.5926 0.0000 -31.9511 0.0000
# 4 0.0000 0.0000 0.0000 19.5305 0.0000 5.0595
# 5 -18.6974 4.6897 -31.9511 0.0000 34.4341 0.0000
# 6 0.0000 0.0000 0.0000 5.0595 0.0000 9.2968
#
#
#
# Elastic Compliance Matrix: (Units=1/GPa)
#
#
# Indices 1 2 3 4 5 6 
#
# 1 0.011658 -0.003170 -0.008901 0.000000 -0.001497 0.000000
# 2 -0.003170 0.028129 -0.004211 0.000000 -0.009460 0.000000
# 3 -0.008901 -0.004211 0.034085 0.000000 0.027368 0.000000
# 4 0.000000 0.000000 0.000000 0.059605 0.000000 -0.032438
# 5 -0.001497 -0.009460 0.027368 0.000000 0.054911 0.000000
# 6 0.000000 0.000000 0.000000 -0.032438 0.000000 0.125218
#
#
# Mechanical properties :
#
#
# Convention : Reuss Voigt Hill
#
# Bulk Modulus (GPa) = 24.20826 41.53194 32.87010
# Shear Modulus (GPa) = 13.89123 23.55864 18.72494
#
# Velocity S-wave (km/s) = 2.82177 3.67474 3.27613
# Velocity P-wave (km/s) = 4.94900 6.46613 5.75775
#
# Compressibility (1/GPa) = 0.04130822
#
# Stress axis : x y z
#
# Youngs Moduli (GPa) = 85.78039 35.55057 29.33803
#
# Poissons Ratio (x) = 0.11269 0.26113
# Poissons Ratio (y) = 0.27191 0.12355
# Poissons Ratio (z) = 0.76350 0.14972
#
# Static dielectric constant tensor:
#      x y z
#    x 1.602130 0.000000 -0.052450 
#    y 0.000000 1.610310 0.000000 
#    z -0.052450 0.000000 1.602960 
# 
# From -- ./inp_files/27806.got.cif
#   From: 2010.05.17/outbox.cif.g08.bks.cpg/sg10_14_cif.got.tgz:27806.got - 2010.06.03 11:33:40.
