data_PCOD9154454
_publ_section_title
;
Structure prediction by ZEFSAII (Michael W. Deem and Ramdas Pophale) SiO2 
 PCOD9154454
Probable space group: P 2/M
;
_chemical_formula_sum "Si O2"
_cell_formula_units_Z 30
_cell_length_a 17.607154
_cell_length_b 7.435391
_cell_length_c 20.188635
_cell_angle_alpha 90.000000
_cell_angle_beta 152.735020
_cell_angle_gamma 90.000000
_cell_volume 1210.782754
_symmetry_space_group_name_H-M "P 2/M"
_symmetry_group_IT_number 10
_symmetry_cell_setting 'monoclinic'
loop_
_space_group_symop_operation_xyz
x,y,z
-x,y,-z
-x,-y,-z
x,-y,z
loop_
_atom_site_type_symbol
_atom_site_label
_atom_site_fract_x
_atom_site_fract_y
_atom_site_fract_z
Si Si1 0.186796 0.280057 0.164485
Si Si2 0.320770 0.219016 0.771835
Si Si3 0.294876 0.216758 0.900798
Si Si4 0.155746 0.785738 0.925733
Si Si5 0.196063 0.190575 0.466657
Si Si6 0.563831 0.711556 0.758016
Si Si7 0.833824 0.500000 0.454678
Si Si8 0.811048 0.301044 0.690638
O O1 0.183502 0.500000 0.163989
O O2 0.321913 0.228050 0.214583
O O3 0.242411 0.218756 0.280981
O O4 0.000000 0.221505 0.000000
O O5 0.257651 0.268559 0.796886
O O6 0.228179 0.340544 0.646390
O O7 0.305085 0.000000 0.749195
O O8 0.517637 0.264321 0.930897
O O9 0.168866 0.274389 0.860153
O O10 0.297102 0.000000 0.902735
O O11 0.010207 0.691709 0.852910
O O12 0.129737 0.000000 0.909270
O O13 0.326793 0.739080 0.092717
O O14 0.524665 0.500000 0.719569
O O15 0.391971 0.191370 0.633769
O O16 0.127632 0.345672 0.459078
O O17 0.200422 0.214068 0.390190
O O18 0.883866 0.000000 0.579660
O O19 0.736694 0.500000 0.627168
#
# Coordination Sequence:
#
# PCOD9154454 Si02
#       8
#     4   4   4   4   4   4   2   4
#     4   9  18  36  64  92 127 164 205 262 317 369
#     4   9  18  36  59  89 131 169 205 256 314 377
#     4   8  17  33  55  89 132 169 204 256 316 371
#     4  11  21  35  60  94 132 170 209 262 320 373
#     4  12  26  44  63  91 130 167 214 270 321 378
#     4  11  21  39  63  96 125 166 218 263 314 373
#     4  12  22  39  62  90 118 162 214 253 322 376
#     4  11  22  43  64  90 124 171 217 260 319 384
#
# _framework density 24.777359000000001
#
# number of rings (size 3 to 8) (size 9 to 14) (size 15 to 20)
#    0.000    1.733    2.667    3.200    0.000    2.667 
#    3.600    6.000    0.000    1.600    0.000    3.733 
#    0.000    0.000    0.000    0.000    0.000    0.000 
#
# Total GULP energy -167301.808742 kJ/mol
# GULP energy per Si atom -5576.726958 kJ/mol
# Density = 2.472096 g / cm^3
# Si number density = 24.777359 Si / 1000 Ang^3
#
#
#
# Elastic Constant Matrix: (Units=GPa)
#
#
# Indices 1 2 3 4 5 6 
#
# 1 138.8253 32.6353 15.4826 0.0000 -35.8813 0.0000
# 2 32.6353 134.1590 -2.5811 0.0000 -23.0640 0.0000
# 3 15.4826 -2.5811 63.3689 0.0000 -28.7070 0.0000
# 4 0.0000 0.0000 0.0000 -4.5089 0.0000 -31.9925
# 5 -35.8813 -23.0640 -28.7070 0.0000 50.9086 0.0000
# 6 0.0000 0.0000 0.0000 -31.9925 0.0000 25.1183
#
#
#
# Elastic Compliance Matrix: (Units=1/GPa)
#
#
# Indices 1 2 3 4 5 6 
#
# 1 0.008992 -0.001123 0.000534 0.000000 0.006130 0.000000
# 2 -0.001123 0.008575 0.002720 0.000000 0.004627 0.000000
# 3 0.000534 0.002720 0.022147 0.000000 0.014097 0.000000
# 4 0.000000 0.000000 0.000000 -0.022096 0.000000 -0.028143
# 5 0.006130 0.004627 0.014097 0.000000 0.034009 0.000000
# 6 0.000000 0.000000 0.000000 -0.028143 0.000000 0.003966
#
#
# Mechanical properties :
#
#
# Convention : Reuss Voigt Hill
#
# Bulk Modulus (GPa) = 22.73984 47.49189 35.11586
# Shear Modulus (GPa) = 75.76812 33.69137 54.72974
#
# Velocity S-wave (km/s) = 5.53588 3.69150 4.70495
# Velocity P-wave (km/s) = 7.07523 6.11381 6.61202
#
# Compressibility (1/GPa) = 0.04397568
#
# Stress axis : x y z
#
# Youngs Moduli (GPa) = 111.20714 116.62058 45.15252
#
# Poissons Ratio (x) = 0.13100 -0.02413
# Poissons Ratio (y) = 0.12491 -0.12280
# Poissons Ratio (z) = -0.05942 -0.31717
#
# Static dielectric constant tensor:
#      x y z
#    x 1.952930 0.000000 -0.004090 
#    y 0.000000 2.226980 0.000000 
#    z -0.004090 0.000000 1.988560 
# 
# From -- ./inp_files/85738.got.cif
#   From: 2010.05.17/outbox.cif.g08.bks.cpg/sg10_43_cif.got.tgz:85738.got - 2010.06.03 11:33:40.
