data_PCOD9154355
_publ_section_title
;
Structure prediction by ZEFSAII (Michael W. Deem and Ramdas Pophale) SiO2 
 PCOD9154355
Probable space group: P 2/M
;
_chemical_formula_sum "Si O2"
_cell_formula_units_Z 28
_cell_length_a 18.560953
_cell_length_b 17.673822
_cell_length_c 13.232639
_cell_angle_alpha 90.000000
_cell_angle_beta 21.174550
_cell_angle_gamma 90.000000
_cell_volume 1567.968990
_symmetry_space_group_name_H-M "P 2/M"
_symmetry_group_IT_number 10
_symmetry_cell_setting 'monoclinic'
loop_
_space_group_symop_operation_xyz
x,y,z
-x,y,-z
-x,-y,-z
x,-y,z
loop_
_atom_site_type_symbol
_atom_site_label
_atom_site_fract_x
_atom_site_fract_y
_atom_site_fract_z
Si Si1 0.877932 0.913985 0.265324
Si Si2 0.921014 0.636644 0.806546
Si Si3 0.410260 0.197458 0.457301
Si Si4 0.166002 0.587455 0.858957
Si Si5 0.456182 0.500000 0.216423
Si Si6 0.827522 0.500000 0.604002
Si Si7 0.476287 0.356490 0.321327
Si Si8 0.833126 0.203124 0.014871
O O1 0.677552 0.871240 0.492403
O O2 0.847310 0.000000 0.340285
O O3 0.000000 0.917303 0.000000
O O4 0.008445 0.863821 0.172486
O O5 0.058052 0.580330 0.560492
O O6 0.898106 0.593864 0.942807
O O7 0.711103 0.639452 0.024304
O O8 0.942144 0.723907 0.820661
O O9 0.411649 0.271462 0.384357
O O10 0.634473 0.185944 0.207635
O O11 0.264673 0.214450 0.744509
O O12 0.188752 0.500000 0.803701
O O13 0.375749 0.625536 0.560596
O O14 0.000000 0.620734 0.000000
O O15 0.326222 0.500000 0.287205
O O16 0.406111 0.423258 0.340989
O O17 0.690987 0.500000 0.882280
#
# Coordination Sequence:
#
# PCOD9154355 Si02
#       8
#     4   4   4   4   2   2   4   4
#     4   9  18  30  46  69  99 138 170 195 241 304
#     4  11  21  33  51  72  98 131 171 215 253 294
#     4   9  18  30  46  72 102 131 167 209 248 292
#     4  11  21  29  45  73  98 127 166 209 257 293
#     4  11  25  40  51  68  97 135 175 213 256 305
#     4  11  25  40  51  68  97 135 175 213 256 305
#     4  11  21  33  51  72  98 131 171 215 253 294
#     4   9  18  30  46  72 102 131 167 209 248 292
#
# _framework density 17.857496000000001
#
# number of rings (size 3 to 8) (size 9 to 14) (size 15 to 20)
#    0.000    1.857    2.857    1.714    4.000    2.286 
#    0.000    2.857    0.000    0.000    0.000    0.000 
#    0.000    2.286    0.000    6.286    0.000    0.286 
#
# Total GULP energy -155886.411880 kJ/mol
# GULP energy per Si atom -5567.371853 kJ/mol
# Density = 1.781685 g / cm^3
# Si number density = 17.857496 Si / 1000 Ang^3
#
#
#
# Elastic Constant Matrix: (Units=GPa)
#
#
# Indices 1 2 3 4 5 6 
#
# 1 34.5600 45.7002 2.4667 0.0000 -7.5573 0.0000
# 2 45.7002 152.3889 43.7992 0.0000 -26.9410 0.0000
# 3 2.4667 43.7992 56.6755 0.0000 -4.5849 0.0000
# 4 0.0000 0.0000 0.0000 16.4625 0.0000 -8.1155
# 5 -7.5573 -26.9410 -4.5849 0.0000 15.3816 0.0000
# 6 0.0000 0.0000 0.0000 -8.1155 0.0000 13.7642
#
#
#
# Elastic Compliance Matrix: (Units=1/GPa)
#
#
# Indices 1 2 3 4 5 6 
#
# 1 0.055206 -0.021744 0.013848 0.000000 -0.006833 0.000000
# 2 -0.021744 0.020749 -0.013334 0.000000 0.021684 0.000000
# 3 0.013848 -0.013334 0.026650 0.000000 -0.008608 0.000000
# 4 0.000000 0.000000 0.000000 0.085635 0.000000 0.050491
# 5 -0.006833 0.021684 -0.008608 0.000000 0.097070 0.000000
# 6 0.000000 0.000000 0.000000 0.050491 0.000000 0.102422
#
#
# Mechanical properties :
#
#
# Convention : Reuss Voigt Hill
#
# Bulk Modulus (GPa) = 16.62657 47.50628 32.06643
# Shear Modulus (GPa) = 11.10518 19.23221 15.16870
#
# Velocity S-wave (km/s) = 2.49645 3.28530 2.91766
# Velocity P-wave (km/s) = 4.20007 6.40716 5.41721
#
# Compressibility (1/GPa) = 0.06014468
#
# Stress axis : x y z
#
# Youngs Moduli (GPa) = 18.11412 48.19474 37.52315
#
# Poissons Ratio (x) = 1.04795 -0.51963
# Poissons Ratio (y) = 0.39387 0.50035
# Poissons Ratio (z) = -0.25085 0.64265
#
# Static dielectric constant tensor:
#      x y z
#    x 1.603250 0.000000 -0.026350 
#    y 0.000000 1.638710 0.000000 
#    z -0.026350 0.000000 1.653860 
# 
# From -- ./inp_files/70823.got.cif
#   From: 2010.05.17/outbox.cif.g08.bks.cpg/sg10_36_cif.got.tgz:70823.got - 2010.06.03 11:33:40.
