data_PCOD9154245
_publ_section_title
;
Structure prediction by ZEFSAII (Michael W. Deem and Ramdas Pophale) SiO2 
 PCOD9154245
Probable space group: P 2/M
;
_chemical_formula_sum "Si O2"
_cell_formula_units_Z 32
_cell_length_a 31.225221
_cell_length_b 9.059746
_cell_length_c 16.379572
_cell_angle_alpha 90.000000
_cell_angle_beta 29.923245
_cell_angle_gamma 90.000000
_cell_volume 2311.451794
_symmetry_space_group_name_H-M "P 2/M"
_symmetry_group_IT_number 10
_symmetry_cell_setting 'monoclinic'
loop_
_space_group_symop_operation_xyz
x,y,z
-x,y,-z
-x,-y,-z
x,-y,z
loop_
_atom_site_type_symbol
_atom_site_label
_atom_site_fract_x
_atom_site_fract_y
_atom_site_fract_z
Si Si1 0.659902 0.821568 0.858522
Si Si2 0.512331 0.675738 0.786142
Si Si3 0.592223 0.169072 0.801353
Si Si4 0.169685 0.176704 0.324767
Si Si5 0.475156 0.821363 0.408304
Si Si6 0.182022 0.822366 0.112519
Si Si7 0.635823 0.821058 0.253834
Si Si8 0.006151 0.670364 0.390791
O O1 0.656618 0.785934 0.767374
O O2 0.748873 0.782234 0.754817
O O3 0.647618 0.000000 0.885679
O O4 0.579840 0.743075 0.034487
O O5 0.507694 0.500000 0.791179
O O6 0.579631 0.728981 0.744024
O O7 0.534981 0.743563 0.661148
O O8 0.609617 0.000000 0.747401
O O9 0.500000 0.168873 0.000000
O O10 0.188667 0.212777 0.198308
O O11 0.080652 0.252898 0.496375
O O12 0.158787 0.000000 0.347327
O O13 0.566410 0.780138 0.299195
O O14 0.403236 0.779176 0.594027
O O15 0.474082 0.000000 0.400378
O O16 0.094621 0.751879 0.223568
O O17 0.176256 0.000000 0.115509
O O18 0.268704 0.770196 0.925021
O O19 0.637412 0.000000 0.250475
O O20 0.009186 0.500000 0.361677
O O21 0.000000 0.677590 0.500000
#
# Coordination Sequence:
#
# PCOD9154245 Si02
#       8
#     4   4   4   4   4   4   4   4
#     4   9  17  29  44  60  78 103 136 169 201 236
#     4  11  20  27  38  58  83 110 137 163 196 236
#     4   8  15  28  43  57  75 102 134 166 198 233
#     4   9  16  26  42  61  79 101 130 165 199 232
#     4   9  16  29  45  59  78 104 136 171 204 235
#     4   9  15  25  41  59  78 102 134 166 197 231
#     4   8  15  27  45  63  76  99 137 176 205 231
#     4   9  17  27  37  53  79 108 134 159 190 230
#
# _framework density 13.844113
#
# number of rings (size 3 to 8) (size 9 to 14) (size 15 to 20)
#    0.000    3.000    0.000    3.750    0.000    6.250 
#    0.000    5.000    0.000    0.000    0.000    0.000 
#    0.000    1.000    0.000   11.500    0.000    4.500 
#
# Total GULP energy -178176.640286 kJ/mol
# GULP energy per Si atom -5568.020009 kJ/mol
# Density = 1.381260 g / cm^3
# Si number density = 13.844113 Si / 1000 Ang^3
#
#
#
# Elastic Constant Matrix: (Units=GPa)
#
#
# Indices 1 2 3 4 5 6 
#
# 1 104.7150 43.1655 51.7214 0.0000 -4.5804 0.0000
# 2 43.1655 40.3114 36.3389 0.0000 0.2547 0.0000
# 3 51.7214 36.3389 93.9011 0.0000 -10.4441 0.0000
# 4 0.0000 0.0000 0.0000 4.9961 0.0000 -0.2688
# 5 -4.5804 0.2547 -10.4441 0.0000 22.5362 0.0000
# 6 0.0000 0.0000 0.0000 -0.2688 0.0000 5.1288
#
#
#
# Elastic Compliance Matrix: (Units=1/GPa)
#
#
# Indices 1 2 3 4 5 6 
#
# 1 0.018025 -0.016271 -0.003378 0.000000 0.002282 0.000000
# 2 -0.016271 0.054080 -0.013076 0.000000 -0.009978 0.000000
# 3 -0.003378 -0.013076 0.018462 0.000000 0.008017 0.000000
# 4 0.000000 0.000000 0.000000 0.200721 0.000000 0.010519
# 5 0.002282 -0.009978 0.008017 0.000000 0.048665 0.000000
# 6 0.000000 0.000000 0.000000 0.010519 0.000000 0.195530
#
#
# Mechanical properties :
#
#
# Convention : Reuss Voigt Hill
#
# Bulk Modulus (GPa) = 39.81261 55.70877 47.76069
# Shear Modulus (GPa) = 8.20606 13.71235 10.95920
#
# Velocity S-wave (km/s) = 2.43728 3.15061 2.81662
# Velocity P-wave (km/s) = 6.06141 7.31864 6.71949
#
# Compressibility (1/GPa) = 0.02511767
#
# Stress axis : x y z
#
# Youngs Moduli (GPa) = 55.47849 18.49102 54.16444
#
# Poissons Ratio (x) = 0.30086 0.18296
# Poissons Ratio (y) = 0.90267 0.70828
# Poissons Ratio (z) = 0.18740 0.24180
#
# Static dielectric constant tensor:
#      x y z
#    x 1.459250 0.000000 -0.004650 
#    y 0.000000 1.457040 0.000000 
#    z -0.004650 0.000000 1.441780 
# 
# From -- ./inp_files/68208.got.cif
#   From: 2010.05.17/outbox.cif.g08.bks.cpg/sg10_35_cif.got.tgz:68208.got - 2010.06.03 11:33:40.
