data_PCOD9154057
_publ_section_title
;
Structure prediction by ZEFSAII (Michael W. Deem and Ramdas Pophale) SiO2 
 PCOD9154057
Probable space group: P 2/M
;
_chemical_formula_sum "Si O2"
_cell_formula_units_Z 24
_cell_length_a 8.787072
_cell_length_b 11.434611
_cell_length_c 23.556979
_cell_angle_alpha 90.000000
_cell_angle_beta 149.726652
_cell_angle_gamma 90.000000
_cell_volume 1193.230171
_symmetry_space_group_name_H-M "P 2/M"
_symmetry_group_IT_number 10
_symmetry_cell_setting 'monoclinic'
loop_
_space_group_symop_operation_xyz
x,y,z
-x,y,-z
-x,-y,-z
x,-y,z
loop_
_atom_site_type_symbol
_atom_site_label
_atom_site_fract_x
_atom_site_fract_y
_atom_site_fract_z
Si Si1 0.103188 0.133428 0.788271
Si Si2 0.844061 0.238068 0.816763
Si Si3 0.799491 0.000000 0.512405
Si Si4 0.275765 0.788285 0.054310
Si Si5 0.523064 0.000000 0.297074
Si Si6 0.801271 0.767373 0.578039
Si Si7 0.605937 0.362550 0.259018
O O1 0.458792 0.137672 0.888577
O O2 0.994614 0.216443 0.804400
O O3 0.950310 0.177664 0.681883
O O4 0.017372 0.000000 0.774280
O O5 0.676836 0.114662 0.777185
O O6 0.580235 0.330819 0.744005
O O7 0.104562 0.268382 0.945782
O O8 0.700879 0.878522 0.508294
O O9 0.666611 0.000000 0.406427
O O10 0.165715 0.000000 0.638245
O O11 0.431731 0.700686 0.149968
O O12 0.000000 0.848440 0.000000
O O13 0.500000 0.700532 0.500000
O O14 0.059849 0.692363 0.631323
O O15 0.616214 0.500000 0.252967
#
# Coordination Sequence:
#
# PCOD9154057 Si02
#       7
#     4   4   2   4   2   4   4
#     4  11  22  35  58  93 132 164 194 245 304 376
#     4  11  21  38  58  93 124 163 200 250 311 367
#     4  11  21  38  61  92 131 169 197 248 312 375
#     4   9  22  38  59  88 122 162 204 248 298 369
#     4  11  22  34  61  93 130 163 199 253 309 372
#     4  11  22  38  63  94 125 161 209 249 309 374
#     4  10  23  45  65  85 117 165 219 264 305 356
#
# _framework density 20.113468999999998
#
# number of rings (size 3 to 8) (size 9 to 14) (size 15 to 20)
#    0.000    1.500    3.333    1.750    1.167    4.333 
#    0.000    3.333    0.000   15.000    0.000    0.000 
#    0.000    0.000    0.000    0.000    0.000    0.000 
#
# Total GULP energy -133872.635269 kJ/mol
# GULP energy per Si atom -5578.026470 kJ/mol
# Density = 2.006769 g / cm^3
# Si number density = 20.113469 Si / 1000 Ang^3
#
#
#
# Elastic Constant Matrix: (Units=GPa)
#
#
# Indices 1 2 3 4 5 6 
#
# 1 117.6621 27.7469 25.7383 0.0000 19.6043 0.0000
# 2 27.7469 79.3715 13.7571 0.0000 9.5853 0.0000
# 3 25.7383 13.7571 60.6695 0.0000 28.9112 0.0000
# 4 0.0000 0.0000 0.0000 2.6874 0.0000 -5.7673
# 5 19.6043 9.5853 28.9112 0.0000 44.4636 0.0000
# 6 0.0000 0.0000 0.0000 -5.7673 0.0000 8.7084
#
#
#
# Elastic Compliance Matrix: (Units=1/GPa)
#
#
# Indices 1 2 3 4 5 6 
#
# 1 0.010093 -0.002815 -0.002626 0.000000 -0.002136 0.000000
# 2 -0.002815 0.013951 -0.001634 0.000000 -0.000704 0.000000
# 3 -0.002626 -0.001634 0.024991 0.000000 -0.014740 0.000000
# 4 0.000000 0.000000 0.000000 -0.883323 0.000000 -0.584993
# 5 -0.002136 -0.000704 -0.014740 0.000000 0.033168 0.000000
# 6 0.000000 0.000000 0.000000 -0.584993 0.000000 -0.272588
#
#
# Mechanical properties :
#
#
# Convention : Reuss Voigt Hill
#
# Bulk Modulus (GPa) = 28.66441 43.57640 36.12041
# Shear Modulus (GPa) = -4.77131 23.86927 9.54898
#
# Velocity S-wave (km/s) = -1.54187 3.44863 2.18125
# Velocity P-wave (km/s) = 3.33354 6.12942 4.93367
#
# Compressibility (1/GPa) = 0.03488647
#
# Stress axis : x y z
#
# Youngs Moduli (GPa) = 99.07809 71.67763 40.01399
#
# Poissons Ratio (x) = 0.20180 0.10506
# Poissons Ratio (y) = 0.27894 0.06537
# Poissons Ratio (z) = 0.26014 0.11710
#
# Static dielectric constant tensor:
#      x y z
#    x 1.769590 0.000000 0.042050 
#    y 0.000000 1.678220 0.000000 
#    z 0.042050 0.000000 1.740820 
# 
# From -- ./inp_files/88135.got.cif
#   From: 2010.05.17/outbox.cif.g08.bks.cpg/sg10_45_cif.got.tgz:88135.got - 2010.06.03 11:33:40.
