data_PCOD9154756
_publ_section_title
;
Structure prediction by ZEFSAII (Michael W. Deem and Ramdas Pophale) SiO2 
 PCOD9154756
Probable space group: P 2/M
;
_chemical_formula_sum "Si O2"
_cell_formula_units_Z 21
_cell_length_a 5.069404
_cell_length_b 15.911951
_cell_length_c 14.099334
_cell_angle_alpha 90.000000
_cell_angle_beta 68.607950
_cell_angle_gamma 90.000000
_cell_volume 1058.956847
_symmetry_space_group_name_H-M "P 2/M"
_symmetry_group_IT_number 10
_symmetry_cell_setting 'monoclinic'
loop_
_space_group_symop_operation_xyz
x,y,z
-x,y,-z
-x,-y,-z
x,-y,z
loop_
_atom_site_type_symbol
_atom_site_label
_atom_site_fract_x
_atom_site_fract_y
_atom_site_fract_z
Si Si1 0.082221 0.655614 0.094079
Si Si2 0.852898 0.902977 0.121868
Si Si3 0.374558 0.599853 0.695564
Si Si4 0.500000 0.500000 0.000000
Si Si5 0.730221 0.807765 0.803239
Si Si6 0.042905 0.692766 0.384195
O O1 0.272443 0.573392 0.059886
O O2 0.243743 0.727935 0.129993
O O3 0.801331 0.629918 0.189374
O O4 0.000000 0.684454 0.000000
O O5 0.586196 0.841267 0.165798
O O6 0.079532 0.878660 0.172093
O O7 0.762927 0.000000 0.142264
O O8 0.000000 0.893316 0.000000
O O9 0.348195 0.500000 0.688022
O O10 0.698970 0.626989 0.661884
O O11 0.230113 0.649961 0.627922
O O12 0.863517 0.774213 0.687919
O O13 0.000000 0.710048 0.500000
#
# Coordination Sequence:
#
# PCOD9154756 Si02
#       6
#     4   4   4   1   4   4
#     4  11  26  38  58  91 132 172 216 252 308 367
#     4  11  24  42  67 100 132 160 196 245 307 382
#     4  11  24  40  60  86 122 165 219 269 314 365
#     4  12  26  36  60  86 132 186 210 260 294 364
#     4  11  24  42  66  92 124 168 207 253 310 378
#     4  11  25  43  63  88 118 162 215 271 322 363
#
# _framework density 19.830836999999999
#
# number of rings (size 3 to 8) (size 9 to 14) (size 15 to 20)
#    0.000    0.952    0.952    5.429   10.667    3.810 
#    0.000    0.000    0.000    3.429    0.000    0.000 
#    0.000    0.000    0.000    0.000    0.000    0.000 
#
# Total GULP energy -117355.437172 kJ/mol
# GULP energy per Si atom -5588.354151 kJ/mol
# Density = 1.978570 g / cm^3
# Si number density = 19.830837 Si / 1000 Ang^3
#
#
#
# Elastic Constant Matrix: (Units=GPa)
#
#
# Indices 1 2 3 4 5 6 
#
# 1 42.4140 -9.0423 2.1883 0.0000 -3.2977 0.0000
# 2 -9.0423 83.4837 18.8748 0.0000 -1.5666 0.0000
# 3 2.1883 18.8748 112.0714 0.0000 21.2098 0.0000
# 4 0.0000 0.0000 0.0000 7.5092 0.0000 -17.1330
# 5 -3.2977 -1.5666 21.2098 0.0000 28.5830 0.0000
# 6 0.0000 0.0000 0.0000 -17.1330 0.0000 18.7337
#
#
#
# Elastic Compliance Matrix: (Units=1/GPa)
#
#
# Indices 1 2 3 4 5 6 
#
# 1 0.024691 0.003175 -0.001848 0.000000 0.004394 0.000000
# 2 0.003175 0.013030 -0.002863 0.000000 0.003205 0.000000
# 3 -0.001848 -0.002863 0.011065 0.000000 -0.008581 0.000000
# 4 0.000000 0.000000 0.000000 -0.122551 0.000000 -0.112080
# 5 0.004394 0.003205 -0.008581 0.000000 0.042036 0.000000
# 6 0.000000 0.000000 0.000000 -0.112080 0.000000 -0.049123
#
#
# Mechanical properties :
#
#
# Convention : Reuss Voigt Hill
#
# Bulk Modulus (GPa) = 21.87588 29.11229 25.49409
# Shear Modulus (GPa) = -79.94663 26.02838 -26.95913
#
# Velocity S-wave (km/s) = -6.35624 3.62680 -3.69108
# Velocity P-wave (km/s) = 6.54323 5.67895 2.29820
#
# Compressibility (1/GPa) = 0.04571244
#
# Stress axis : x y z
#
# Youngs Moduli (GPa) = 40.50063 76.74793 90.37403
#
# Poissons Ratio (x) = -0.24365 0.16705
# Poissons Ratio (y) = -0.12858 0.25874
# Poissons Ratio (z) = 0.07486 0.21972
#
# Static dielectric constant tensor:
#      x y z
#    x 1.712270 0.000000 0.012860 
#    y 0.000000 1.668700 0.000000 
#    z 0.012860 0.000000 1.692700 
# 
# From -- ./inp_files/58998.got.cif
#   From: 2010.05.17/outbox.cif.g08.bks.cpg/sg10_30_cif.got.tgz:58998.got - 2010.06.03 11:33:40.
