data_PCOD9154270
_publ_section_title
;
Structure prediction by ZEFSAII (Michael W. Deem and Ramdas Pophale) SiO2 
 PCOD9154270
Probable space group: P 2/M
;
_chemical_formula_sum "Si O2"
_cell_formula_units_Z 28
_cell_length_a 9.087474
_cell_length_b 14.480679
_cell_length_c 15.037515
_cell_angle_alpha 90.000000
_cell_angle_beta 123.263737
_cell_angle_gamma 90.000000
_cell_volume 1654.606796
_symmetry_space_group_name_H-M "P 2/M"
_symmetry_group_IT_number 10
_symmetry_cell_setting 'monoclinic'
loop_
_space_group_symop_operation_xyz
x,y,z
-x,y,-z
-x,-y,-z
x,-y,z
loop_
_atom_site_type_symbol
_atom_site_label
_atom_site_fract_x
_atom_site_fract_y
_atom_site_fract_z
Si Si1 0.352419 0.203852 0.015404
Si Si2 0.800363 0.602771 0.042680
Si Si3 0.998758 0.888390 0.640725
Si Si4 0.004166 0.110804 0.154980
Si Si5 0.632990 0.207174 0.772970
Si Si6 0.209261 0.602324 0.176499
Si Si7 0.708524 0.111607 0.406183
O O1 0.413928 0.206873 0.137767
O O2 0.500000 0.162255 0.000000
O O3 0.308015 0.307490 0.966356
O O4 0.169159 0.148922 0.950313
O O5 0.742881 0.500000 0.053080
O O6 0.005314 0.615076 0.136367
O O7 0.794732 0.603260 0.932880
O O8 0.008908 0.859396 0.745811
O O9 0.165153 0.862109 0.635071
O O10 0.819933 0.861133 0.530456
O O11 0.998303 0.000000 0.640247
O O12 0.183090 0.153144 0.176249
O O13 0.009611 0.000000 0.151487
O O14 0.672322 0.311997 0.756464
O O15 0.478745 0.158894 0.667210
O O16 0.267100 0.500000 0.223769
O O17 0.688389 0.000000 0.399384
#
# Coordination Sequence:
#
# PCOD9154270 Si02
#       7
#     4   4   4   4   4   4   4
#     4  11  22  33  46  69 101 132 161 191 234 294
#     4   8  14  28  48  67  90 121 157 198 236 272
#     4   8  17  34  52  70  94 126 162 199 238 277
#     4  11  22  34  48  68  97 130 164 200 233 274
#     4  11  20  31  49  74  97 125 161 197 240 281
#     4   8  14  27  47  68  92 122 155 192 237 282
#     4   9  17  32  53  74  97 124 157 197 239 282
#
# _framework density 16.922449
#
# number of rings (size 3 to 8) (size 9 to 14) (size 15 to 20)
#    0.000    2.571    1.429    3.429    0.000    2.857 
#    0.000    2.143    0.000    0.000    0.000    5.000 
#    0.000    0.000    0.000    0.000    0.000    0.000 
#
# Total GULP energy -156043.366070 kJ/mol
# GULP energy per Si atom -5572.977360 kJ/mol
# Density = 1.688393 g / cm^3
# Si number density = 16.922449 Si / 1000 Ang^3
#
#
#
# Elastic Constant Matrix: (Units=GPa)
#
#
# Indices 1 2 3 4 5 6 
#
# 1 34.2604 9.3230 5.0025 0.0000 17.0334 0.0000
# 2 9.3230 72.9412 15.8212 0.0000 16.7868 0.0000
# 3 5.0025 15.8212 46.9784 0.0000 14.0688 0.0000
# 4 0.0000 0.0000 0.0000 5.1240 0.0000 12.6390
# 5 17.0334 16.7868 14.0688 0.0000 29.0694 0.0000
# 6 0.0000 0.0000 0.0000 12.6390 0.0000 14.4557
#
#
#
# Elastic Compliance Matrix: (Units=1/GPa)
#
#
# Indices 1 2 3 4 5 6 
#
# 1 0.041636 -0.000073 0.003373 0.000000 -0.025987 0.000000
# 2 -0.000073 0.016189 -0.003108 0.000000 -0.007802 0.000000
# 3 0.003373 -0.003108 0.025762 0.000000 -0.012650 0.000000
# 4 0.000000 0.000000 0.000000 -0.168732 0.000000 0.147527
# 5 -0.025987 -0.007802 -0.012650 0.000000 0.060256 0.000000
# 6 0.000000 0.000000 0.000000 0.147527 0.000000 -0.059810
#
#
# Mechanical properties :
#
#
# Convention : Reuss Voigt Hill
#
# Bulk Modulus (GPa) = 11.90866 23.83037 17.86951
# Shear Modulus (GPa) = -87.57419 17.99870 -34.78775
#
# Velocity S-wave (km/s) = -7.20157 3.26482 -4.53892
# Velocity P-wave (km/s) = 7.88021 5.32210 4.10932
#
# Compressibility (1/GPa) = 0.08397253
#
# Stress axis : x y z
#
# Youngs Moduli (GPa) = 24.01788 61.77199 38.81655
#
# Poissons Ratio (x) = 0.00448 -0.13094
# Poissons Ratio (y) = 0.00174 0.12063
# Poissons Ratio (z) = -0.08102 0.19197
#
# Static dielectric constant tensor:
#      x y z
#    x 1.583010 0.000000 -0.004670 
#    y 0.000000 1.591280 0.000000 
#    z -0.004670 0.000000 1.550690 
# 
# From -- ./inp_files/28968.got.cif
#   From: 2010.05.17/outbox.cif.g08.bks.cpg/sg10_15_cif.got.tgz:28968.got - 2010.06.03 11:33:40.
