data_PCOD9154695
_publ_section_title
;
Structure prediction by ZEFSAII (Michael W. Deem and Ramdas Pophale) SiO2 
 PCOD9154695
Probable space group: P 2/M
;
_chemical_formula_sum "Si O2"
_cell_formula_units_Z 32
_cell_length_a 9.122441
_cell_length_b 23.044321
_cell_length_c 14.572987
_cell_angle_alpha 90.000000
_cell_angle_beta 149.166854
_cell_angle_gamma 90.000000
_cell_volume 1570.185858
_symmetry_space_group_name_H-M "P 2/M"
_symmetry_group_IT_number 10
_symmetry_cell_setting 'monoclinic'
loop_
_space_group_symop_operation_xyz
x,y,z
-x,y,-z
-x,-y,-z
x,-y,z
loop_
_atom_site_type_symbol
_atom_site_label
_atom_site_fract_x
_atom_site_fract_y
_atom_site_fract_z
Si Si1 0.650427 0.343148 0.677776
Si Si2 0.887819 0.563697 0.044887
Si Si3 0.320948 0.383087 0.678371
Si Si4 0.052215 0.775183 0.128882
Si Si5 0.552215 0.724817 0.128882
Si Si6 0.849573 0.843148 0.322224
Si Si7 0.179052 0.116913 0.321629
Si Si8 0.612181 0.063697 0.955113
O O1 0.500000 0.335249 0.500000
O O2 0.446529 0.372231 0.644130
O O3 0.745861 0.281063 0.768511
O O4 0.928107 0.384294 0.813471
O O5 0.938824 0.500000 0.113222
O O6 0.553538 0.578178 0.856935
O O7 0.000000 0.562334 0.000000
O O8 0.324007 0.322107 0.734741
O O9 0.000000 0.406070 0.500000
O O10 0.175993 0.822107 0.265259
O O11 0.000000 0.800782 0.000000
O O12 0.750000 0.750000 1.000000
O O13 0.754139 0.781063 0.231489
O O14 0.500000 0.699218 0.000000
O O15 0.571893 0.884294 0.186529
O O16 0.000000 0.835249 0.500000
O O17 0.053471 0.872231 0.355870
O O18 0.500000 0.093930 0.500000
O O19 0.946462 0.078178 0.143065
O O20 0.561176 0.000000 0.886778
O O21 0.500000 0.062334 0.000000
#
# Coordination Sequence:
#
# PCOD9154695 Si02
#       8
#     4   4   4   4   4   4   4   4
#     4  11  23  39  60  89 120 157 200 238 293 359
#     4   9  19  40  63  83 116 159 200 244 292 348
#     4  11  24  38  60  92 120 154 196 246 298 347
#     4  12  22  39  63  87 121 159 196 240 294 354
#     4  12  22  39  63  87 121 159 196 240 294 354
#     4  11  23  39  60  89 120 157 200 238 293 359
#     4  11  24  38  60  92 120 154 196 246 298 347
#     4   9  19  40  63  83 116 159 200 244 292 348
#
# _framework density 20.379753000000001
#
# number of rings (size 3 to 8) (size 9 to 14) (size 15 to 20)
#    0.000    1.250    5.000    1.500    3.500    3.000 
#    0.000    0.000    0.000    5.250    0.000    0.000 
#    0.000    0.000    0.000    0.000    0.000    0.000 
#
# Total GULP energy -178776.429040 kJ/mol
# GULP energy per Si atom -5586.763407 kJ/mol
# Density = 2.033337 g / cm^3
# Si number density = 20.379753 Si / 1000 Ang^3
#
#
#
# Elastic Constant Matrix: (Units=GPa)
#
#
# Indices 1 2 3 4 5 6 
#
# 1 58.4029 -12.4625 27.0300 0.0000 -0.2477 0.0000
# 2 -12.4625 71.9480 15.9924 0.0000 3.1024 0.0000
# 3 27.0300 15.9924 112.9277 0.0000 10.3448 0.0000
# 4 0.0000 0.0000 0.0000 5.6489 0.0000 -7.2699
# 5 -0.2477 3.1024 10.3448 0.0000 40.6195 0.0000
# 6 0.0000 0.0000 0.0000 -7.2699 0.0000 7.4870
#
#
#
# Elastic Compliance Matrix: (Units=1/GPa)
#
#
# Indices 1 2 3 4 5 6 
#
# 1 0.020839 0.004843 -0.005787 0.000000 0.001231 0.000000
# 2 0.004843 0.015490 -0.003325 0.000000 -0.000307 0.000000
# 3 -0.005787 -0.003325 0.010946 0.000000 -0.002569 0.000000
# 4 0.000000 0.000000 0.000000 -0.709116 0.000000 -0.688554
# 5 0.001231 -0.000307 -0.002569 0.000000 0.025304 0.000000
# 6 0.000000 0.000000 0.000000 -0.688554 0.000000 -0.535024
#
#
# Mechanical properties :
#
#
# Convention : Reuss Voigt Hill
#
# Bulk Modulus (GPa) = 25.81396 33.82206 29.81801
# Shear Modulus (GPa) = -4.34741 24.93234 10.29247
#
# Velocity S-wave (km/s) = -1.46213 3.50149 2.24973
# Velocity P-wave (km/s) = 3.13744 5.74275 4.62724
#
# Compressibility (1/GPa) = 0.03873873
#
# Stress axis : x y z
#
# Youngs Moduli (GPa) = 47.98652 64.55776 91.35375
#
# Poissons Ratio (x) = -0.31264 0.52863
# Poissons Ratio (y) = -0.23239 0.30372
# Poissons Ratio (z) = 0.27768 0.21463
#
# Static dielectric constant tensor:
#      x y z
#    x 1.723920 0.000000 0.026130 
#    y 0.000000 1.739190 0.000000 
#    z 0.026130 0.000000 1.707600 
# 
# From -- ./inp_files/62709.got.cif
#   From: 2010.05.17/outbox.cif.g08.bks.cpg/sg10_32_cif.got.tgz:62709.got - 2010.06.03 11:33:40.
