data_PCOD9154357
_publ_section_title
;
Structure prediction by ZEFSAII (Michael W. Deem and Ramdas Pophale) SiO2 
 PCOD9154357
Probable space group: P 2/M
;
_chemical_formula_sum "Si O2"
_cell_formula_units_Z 28
_cell_length_a 21.082093
_cell_length_b 7.563786
_cell_length_c 6.890876
_cell_angle_alpha 90.000000
_cell_angle_beta 110.529145
_cell_angle_gamma 90.000000
_cell_volume 1029.040239
_symmetry_space_group_name_H-M "P 2/M"
_symmetry_group_IT_number 10
_symmetry_cell_setting 'monoclinic'
loop_
_space_group_symop_operation_xyz
x,y,z
-x,y,-z
-x,-y,-z
x,-y,z
loop_
_atom_site_type_symbol
_atom_site_label
_atom_site_fract_x
_atom_site_fract_y
_atom_site_fract_z
Si Si1 0.519651 0.717403 0.800217
Si Si2 0.378621 0.296084 0.541501
Si Si3 0.909382 0.284335 0.722540
Si Si4 0.232683 0.301171 0.347223
Si Si5 0.804929 0.802680 0.099906
Si Si6 0.338576 0.701470 0.947390
Si Si7 0.052999 0.710938 0.785781
O O1 0.519969 0.500000 0.793564
O O2 0.454645 0.776291 0.604845
O O3 0.500000 0.768553 0.000000
O O4 0.598276 0.773593 0.856700
O O5 0.381010 0.500000 0.472608
O O6 0.306575 0.214696 0.403802
O O7 0.367326 0.301942 0.761741
O O8 0.905690 0.500000 0.701112
O O9 0.832079 0.219161 0.613210
O O10 0.975997 0.222555 0.677113
O O11 0.928618 0.246669 0.969225
O O12 0.243653 0.500000 0.441458
O O13 0.207246 0.317293 0.100139
O O14 0.808504 0.000000 0.026642
O O15 0.735103 0.787945 0.141664
O O16 0.879618 0.762819 0.259994
O O17 0.326931 0.500000 0.996841
O O18 0.048471 0.500000 0.762679
#
# Coordination Sequence:
#
# PCOD9154357 Si02
#       7
#     4   4   4   4   4   4   4
#     4   7  11  22  43  70  91 106 136 183 222 253
#     4   8  14  26  49  75  90 106 142 187 223 259
#     4   7  11  21  41  65  85 107 138 178 219 258
#     4   9  16  29  48  69  92 115 141 178 224 266
#     4  11  21  30  41  63  93 121 150 181 215 257
#     4   9  16  29  49  69  89 115 146 181 221 260
#     4   8  13  25  43  61  82 111 146 181 218 255
#
# _framework density 27.209820000000001
#
# number of rings (size 3 to 8) (size 9 to 14) (size 15 to 20)
#    0.000    3.571    0.000    4.714    0.000    0.000 
#    0.000    7.143    0.000    9.857    0.000    6.000 
#    0.000    0.000    0.000    0.000    0.000    0.000 
#
# Total GULP energy -156164.345038 kJ/mol
# GULP energy per Si atom -5577.298037 kJ/mol
# Density = 2.714789 g / cm^3
# Si number density = 27.209820 Si / 1000 Ang^3
#
#
#
# Elastic Constant Matrix: (Units=GPa)
#
#
# Indices 1 2 3 4 5 6 
#
# 1 286.5367 18.9170 74.4803 0.0000 71.8836 0.0000
# 2 18.9170 77.3897 3.5806 0.0000 14.2438 0.0000
# 3 74.4803 3.5806 132.4676 0.0000 62.8614 0.0000
# 4 0.0000 0.0000 0.0000 -27.8316 0.0000 -30.7545
# 5 71.8836 14.2438 62.8614 0.0000 81.0136 0.0000
# 6 0.0000 0.0000 0.0000 -30.7545 0.0000 0.7343
#
#
#
# Elastic Compliance Matrix: (Units=1/GPa)
#
#
# Indices 1 2 3 4 5 6 
#
# 1 0.004593 -0.000492 -0.001070 0.000000 -0.003158 0.000000
# 2 -0.000492 0.013526 0.001318 0.000000 -0.002964 0.000000
# 3 -0.001070 0.001318 0.012306 0.000000 -0.008830 0.000000
# 4 0.000000 0.000000 0.000000 -0.000760 0.000000 -0.031828
# 5 -0.003158 -0.002964 -0.008830 0.000000 0.022519 0.000000
# 6 0.000000 0.000000 0.000000 -0.031828 0.000000 0.028803
#
#
# Mechanical properties :
#
#
# Convention : Reuss Voigt Hill
#
# Bulk Modulus (GPa) = 33.40507 76.70554 55.05531
# Shear Modulus (GPa) = 54.67189 37.41101 46.04145
#
# Velocity S-wave (km/s) = 4.48735 3.71200 4.11796
# Velocity P-wave (km/s) = 6.25715 6.82814 6.54887
#
# Compressibility (1/GPa) = 0.02993557
#
# Stress axis : x y z
#
# Youngs Moduli (GPa) = 217.72320 73.92930 81.26430
#
# Poissons Ratio (x) = 0.03636 0.08698
# Poissons Ratio (y) = 0.10709 -0.10707
# Poissons Ratio (z) = 0.23304 -0.09740
#
# Static dielectric constant tensor:
#      x y z
#    x 2.234410 0.000000 0.019590 
#    y 0.000000 1.997810 0.000000 
#    z 0.019590 0.000000 2.235910 
# 
# From -- ./inp_files/54532.got.cif
#   From: 2010.05.17/outbox.cif.g08.bks.cpg/sg10_28_cif.got.tgz:54532.got - 2010.06.03 11:33:40.
