data_PCOD9154386
_publ_section_title
;
Structure prediction by ZEFSAII (Michael W. Deem and Ramdas Pophale) SiO2 
 PCOD9154386
Probable space group: P 2/M
;
_chemical_formula_sum "Si O2"
_cell_formula_units_Z 24
_cell_length_a 25.799964
_cell_length_b 14.168713
_cell_length_c 23.667652
_cell_angle_alpha 90.000000
_cell_angle_beta 169.035120
_cell_angle_gamma 90.000000
_cell_volume 1645.628392
_symmetry_space_group_name_H-M "P 2/M"
_symmetry_group_IT_number 10
_symmetry_cell_setting 'monoclinic'
loop_
_space_group_symop_operation_xyz
x,y,z
-x,y,-z
-x,-y,-z
x,-y,z
loop_
_atom_site_type_symbol
_atom_site_label
_atom_site_fract_x
_atom_site_fract_y
_atom_site_fract_z
Si Si1 0.407411 0.112042 0.283085
Si Si2 0.001028 0.196876 0.069398
Si Si3 0.961744 0.114602 0.218143
Si Si4 0.810477 0.396065 0.852426
Si Si5 0.437023 0.884954 0.110163
Si Si6 0.694210 0.885003 0.157259
O O1 0.697275 0.164145 0.590527
O O2 0.458992 0.000000 0.333814
O O3 0.211218 0.142620 0.021625
O O4 0.234708 0.133627 0.154795
O O5 0.000000 0.191852 0.000000
O O6 0.924038 0.303906 0.005069
O O7 0.273704 0.146105 0.554905
O O8 0.966824 0.000000 0.222548
O O9 0.805143 0.143626 0.107395
O O10 0.500000 0.378199 0.500000
O O11 0.816752 0.500000 0.887141
O O12 0.000000 0.402273 0.000000
O O13 0.438179 0.000000 0.110645
O O14 0.394295 0.854038 0.999907
O O15 0.000000 0.857457 0.500000
O O16 0.685741 0.000000 0.147322
O O17 0.500000 0.853585 0.000000
#
# Coordination Sequence:
#
# PCOD9154386 Si02
#       6
#     4   4   4   4   4   4
#     4  11  22  33  44  59  82 110 140 173 204 239
#     4  11  21  33  47  64  83 104 131 164 210 259
#     4   9  17  28  39  50  65  93 132 165 192 221
#     4   9  17  31  50  68  84 101 123 155 198 250
#     4   9  15  24  37  49  64  89 122 158 195 234
#     4   9  15  21  30  47  68  86 107 144 198 246
#
# _framework density 14.584094
#
# number of rings (size 3 to 8) (size 9 to 14) (size 15 to 20)
#    0.000    2.333    0.000    5.000    0.000    8.667 
#    0.000    0.000    0.000    0.000    0.000    0.000 
#    0.000    0.000    0.000    0.000    0.000    0.000 
#
# Total GULP energy -133680.099304 kJ/mol
# GULP energy per Si atom -5570.004138 kJ/mol
# Density = 1.455090 g / cm^3
# Si number density = 14.584094 Si / 1000 Ang^3
#
#
#
# Elastic Constant Matrix: (Units=GPa)
#
#
# Indices 1 2 3 4 5 6 
#
# 1 39.1696 3.6050 3.0924 0.0000 3.2077 0.0000
# 2 3.6050 37.8484 19.1409 0.0000 -5.7074 0.0000
# 3 3.0924 19.1409 78.7681 0.0000 8.7938 0.0000
# 4 0.0000 0.0000 0.0000 12.3509 0.0000 6.5763
# 5 3.2077 -5.7074 8.7938 0.0000 28.4018 0.0000
# 6 0.0000 0.0000 0.0000 6.5763 0.0000 2.4851
#
#
#
# Elastic Compliance Matrix: (Units=1/GPa)
#
#
# Indices 1 2 3 4 5 6 
#
# 1 0.026100 -0.003097 0.000131 0.000000 -0.003611 0.000000
# 2 -0.003097 0.032674 -0.008898 0.000000 0.009671 0.000000
# 3 0.000131 -0.008898 0.015593 0.000000 -0.006631 0.000000
# 4 0.000000 0.000000 0.000000 -0.197945 0.000000 0.523820
# 5 -0.003611 0.009671 -0.006631 0.000000 0.039613 0.000000
# 6 0.000000 0.000000 0.000000 0.523820 0.000000 -0.983783
#
#
# Mechanical properties :
#
#
# Convention : Reuss Voigt Hill
#
# Bulk Modulus (GPa) = 19.74727 23.05143 21.39935
# Shear Modulus (GPa) = -4.86789 17.31075 6.22143
#
# Velocity S-wave (km/s) = -1.82895 3.44897 2.06765
# Velocity P-wave (km/s) = 3.01821 5.63034 4.51721
#
# Compressibility (1/GPa) = 0.05063990
#
# Stress axis : x y z
#
# Youngs Moduli (GPa) = 38.31367 30.60498 64.13191
#
# Poissons Ratio (x) = 0.09477 -0.00840
# Poissons Ratio (y) = 0.11865 0.57065
# Poissons Ratio (z) = -0.00502 0.27232
#
# Static dielectric constant tensor:
#      x y z
#    x 1.479900 0.000000 0.004490 
#    y 0.000000 1.486010 0.000000 
#    z 0.004490 0.000000 1.476810 
# 
# From -- ./inp_files/90901.got.cif
#   From: 2010.05.17/outbox.cif.g08.bks.cpg/sg10_46_cif.got.tgz:90901.got - 2010.06.03 11:33:40.
