data_PCOD9154323
_publ_section_title
;
Structure prediction by ZEFSAII (Michael W. Deem and Ramdas Pophale) SiO2 
 PCOD9154323
Probable space group: P 2/M
;
_chemical_formula_sum "Si O2"
_cell_formula_units_Z 24
_cell_length_a 8.102637
_cell_length_b 11.983462
_cell_length_c 12.124636
_cell_angle_alpha 90.000000
_cell_angle_beta 97.757533
_cell_angle_gamma 90.000000
_cell_volume 1166.499353
_symmetry_space_group_name_H-M "P 2/M"
_symmetry_group_IT_number 10
_symmetry_cell_setting 'monoclinic'
loop_
_space_group_symop_operation_xyz
x,y,z
-x,y,-z
-x,-y,-z
x,-y,z
loop_
_atom_site_type_symbol
_atom_site_label
_atom_site_fract_x
_atom_site_fract_y
_atom_site_fract_z
Si Si1 0.794259 0.000000 0.135646
Si Si2 0.255470 0.631646 0.459712
Si Si3 0.607441 0.632578 0.751439
Si Si4 0.818335 0.756403 0.922864
Si Si5 0.836182 0.000000 0.871323
Si Si6 0.683873 0.757575 0.146158
Si Si7 0.114957 0.368474 0.672062
O O1 0.697777 0.109847 0.163052
O O2 0.990020 0.000000 0.181314
O O3 0.820021 0.000000 0.004863
O O4 0.291073 0.500000 0.475520
O O5 0.376305 0.672601 0.374071
O O6 0.233047 0.673682 0.581976
O O7 0.071807 0.640574 0.389293
O O8 0.576715 0.500000 0.748295
O O9 0.778099 0.658269 0.833959
O O10 0.466731 0.697349 0.806297
O O11 0.777402 0.871568 0.852859
O O12 0.696671 0.741137 0.016571
O O13 0.000000 0.765089 0.000000
O O14 0.845747 0.702555 0.217447
O O15 0.147508 0.500000 0.694693
#
# Coordination Sequence:
#
# PCOD9154323 Si02
#       7
#     2   4   4   4   2   4   4
#     4   9  18  35  56  79 103 136 186 227 261 313
#     4   8  17  34  54  79 106 139 186 222 254 313
#     4  11  24  36  50  81 119 146 174 212 267 335
#     4  11  20  36  59  78 105 143 181 225 269 308
#     4   9  16  37  60  80  96 129 196 239 251 301
#     4  11  21  34  55  79 111 143 175 219 273 319
#     4   9  17  33  59  82 103 138 182 226 267 312
#
# _framework density 20.574380000000001
#
# number of rings (size 3 to 8) (size 9 to 14) (size 15 to 20)
#    0.000    2.167    3.333    3.000    0.000    3.667 
#    0.000    5.000    0.000    5.000    0.000    0.000 
#    0.000    0.000    0.000    0.000    0.000    0.000 
#
# Total GULP energy -133667.103175 kJ/mol
# GULP energy per Si atom -5569.462632 kJ/mol
# Density = 2.052755 g / cm^3
# Si number density = 20.574380 Si / 1000 Ang^3
#
#
#
# Elastic Constant Matrix: (Units=GPa)
#
#
# Indices 1 2 3 4 5 6 
#
# 1 70.2933 19.7383 8.9568 0.0000 -18.9558 0.0000
# 2 19.7383 85.2847 29.6590 0.0000 -10.5922 0.0000
# 3 8.9568 29.6590 73.2658 0.0000 -18.4684 0.0000
# 4 0.0000 0.0000 0.0000 -3.6114 0.0000 -5.5189
# 5 -18.9558 -10.5922 -18.4684 0.0000 39.6696 0.0000
# 6 0.0000 0.0000 0.0000 -5.5189 0.0000 35.3188
#
#
#
# Elastic Compliance Matrix: (Units=1/GPa)
#
#
# Indices 1 2 3 4 5 6 
#
# 1 0.017151 -0.003436 0.001279 0.000000 0.007874 0.000000
# 2 -0.003436 0.014387 -0.005494 0.000000 -0.000358 0.000000
# 3 0.001279 -0.005494 0.017562 0.000000 0.007320 0.000000
# 4 0.000000 0.000000 0.000000 -0.223524 0.000000 -0.034928
# 5 0.007874 -0.000358 0.007320 0.000000 0.032283 0.000000
# 6 0.000000 0.000000 0.000000 -0.034928 0.000000 0.022856
#
#
# Mechanical properties :
#
#
# Convention : Reuss Voigt Hill
#
# Bulk Modulus (GPa) = 29.58852 38.39468 33.99160
# Shear Modulus (GPa) = -53.92807 25.64137 -14.14335
#
# Velocity S-wave (km/s) = -5.12525 3.53409 -2.62472
# Velocity P-wave (km/s) = 4.54002 5.94601 2.71507
#
# Compressibility (1/GPa) = 0.03379690
#
# Stress axis : x y z
#
# Youngs Moduli (GPa) = 58.30460 69.50743 56.94124
#
# Poissons Ratio (x) = 0.23886 -0.07283
# Poissons Ratio (y) = 0.20036 0.31285
# Poissons Ratio (z) = -0.07458 0.38189
#
# Static dielectric constant tensor:
#      x y z
#    x 1.899460 0.000000 0.018210 
#    y 0.000000 1.714190 0.000000 
#    z 0.018210 0.000000 1.725400 
# 
# From -- ./inp_files/42041.got.cif
#   From: 2010.05.17/outbox.cif.g08.bks.cpg/sg10_22_cif.got.tgz:42041.got - 2010.06.03 11:33:40.
