data_PCOD9154264
_publ_section_title
;
Structure prediction by ZEFSAII (Michael W. Deem and Ramdas Pophale) SiO2 
 PCOD9154264
Probable space group: P 2/M
;
_chemical_formula_sum "Si O2"
_cell_formula_units_Z 28
_cell_length_a 9.697420
_cell_length_b 11.521514
_cell_length_c 22.219255
_cell_angle_alpha 90.000000
_cell_angle_beta 41.259961
_cell_angle_gamma 90.000000
_cell_volume 1637.173040
_symmetry_space_group_name_H-M "P 2/M"
_symmetry_group_IT_number 10
_symmetry_cell_setting 'monoclinic'
loop_
_space_group_symop_operation_xyz
x,y,z
-x,y,-z
-x,-y,-z
x,-y,z
loop_
_atom_site_type_symbol
_atom_site_label
_atom_site_fract_x
_atom_site_fract_y
_atom_site_fract_z
Si Si1 0.968610 0.760370 0.442903
Si Si2 0.280568 0.000000 0.640714
Si Si3 0.222210 0.000000 0.527092
Si Si4 0.596148 0.139478 0.736646
Si Si5 0.438127 0.362374 0.454359
Si Si6 0.850445 0.142945 0.888921
Si Si7 0.294529 0.210118 0.725264
Si Si8 0.518248 0.139222 0.898439
O O1 0.805137 0.671620 0.468954
O O2 0.000000 0.720246 0.500000
O O3 0.190818 0.788145 0.341057
O O4 0.852982 0.885148 0.480991
O O5 0.242974 0.887596 0.692432
O O6 0.156504 0.000000 0.618853
O O7 0.529674 0.000000 0.551199
O O8 0.442007 0.167499 0.731583
O O9 0.510332 0.171232 0.830949
O O10 0.639499 0.000000 0.720633
O O11 0.500000 0.315781 0.500000
O O12 0.467370 0.500000 0.442752
O O13 0.575432 0.305072 0.355766
O O14 0.727936 0.171491 0.866784
O O15 0.058864 0.220220 0.828043
O O16 0.887291 0.000000 0.879380
O O17 0.684302 0.171755 0.996052
O O18 0.521297 0.000000 0.898555
#
# Coordination Sequence:
#
# PCOD9154264 Si02
#       8
#     4   2   2   4   4   4   4   4
#     4  12  22  35  54  79 113 144 176 218 270 323
#     4  11  20  30  48  81 109 134 183 214 261 323
#     4  11  21  30  50  77 110 145 171 215 265 320
#     4  11  21  32  48  83 120 148 177 214 265 324
#     4  11  26  44  57  75 104 143 190 233 270 319
#     4   9  17  32  52  78 111 149 180 213 259 321
#     4  12  21  34  54  80 107 145 183 223 267 322
#     4   8  18  32  48  76 117 150 177 209 259 325
#
# _framework density 17.102651999999999
#
# number of rings (size 3 to 8) (size 9 to 14) (size 15 to 20)
#    0.000    1.429    5.000    1.929    4.000    0.857 
#    0.000    2.143    0.000    0.000    0.000    5.000 
#    0.000    0.000    0.000    0.000    0.000    0.000 
#
# Total GULP energy -155969.558916 kJ/mol
# GULP energy per Si atom -5570.341390 kJ/mol
# Density = 1.706373 g / cm^3
# Si number density = 17.102652 Si / 1000 Ang^3
#
#
#
# Elastic Constant Matrix: (Units=GPa)
#
#
# Indices 1 2 3 4 5 6 
#
# 1 106.0987 7.1359 54.5193 0.0000 2.8438 0.0000
# 2 7.1359 22.8223 17.8688 0.0000 0.5193 0.0000
# 3 54.5193 17.8688 102.3364 0.0000 -3.4314 0.0000
# 4 0.0000 0.0000 0.0000 29.6887 0.0000 -8.1205
# 5 2.8438 0.5193 -3.4314 0.0000 33.1689 0.0000
# 6 0.0000 0.0000 0.0000 -8.1205 0.0000 24.6840
#
#
#
# Elastic Compliance Matrix: (Units=1/GPa)
#
#
# Indices 1 2 3 4 5 6 
#
# 1 0.013147 0.001699 -0.007365 0.000000 -0.001916 0.000000
# 2 0.001699 0.051073 -0.009889 0.000000 -0.001968 0.000000
# 3 -0.007365 -0.009889 0.015502 0.000000 0.002390 0.000000
# 4 0.000000 0.000000 0.000000 0.037013 0.000000 0.012177
# 5 -0.001916 -0.001968 0.002390 0.000000 0.030591 0.000000
# 6 0.000000 0.000000 0.000000 0.012177 0.000000 0.044518
#
#
# Mechanical properties :
#
#
# Convention : Reuss Voigt Hill
#
# Bulk Modulus (GPa) = 20.57077 43.36725 31.96901
# Shear Modulus (GPa) = 20.90675 27.62388 24.26532
#
# Velocity S-wave (km/s) = 3.50012 4.02329 3.77079
# Velocity P-wave (km/s) = 5.32807 6.85526 6.13934
#
# Compressibility (1/GPa) = 0.04861266
#
# Stress axis : x y z
#
# Youngs Moduli (GPa) = 76.06494 19.57983 64.50748
#
# Poissons Ratio (x) = -0.03327 0.47508
# Poissons Ratio (y) = -0.12925 0.63792
# Poissons Ratio (z) = 0.56020 0.19363
#
# Static dielectric constant tensor:
#      x y z
#    x 1.595520 0.000000 0.002000 
#    y 0.000000 1.563500 0.000000 
#    z 0.002000 0.000000 1.694110 
# 
# From -- ./inp_files/82466.got.cif
#   From: 2010.05.17/outbox.cif.g08.bks.cpg/sg10_42_cif.got.tgz:82466.got - 2010.06.03 11:33:40.
