data_PCOD9154021
_publ_section_title
;
Structure prediction by ZEFSAII (Michael W. Deem and Ramdas Pophale) SiO2 
 PCOD9154021
Probable space group: P 2/M
;
_chemical_formula_sum "Si O2"
_cell_formula_units_Z 20
_cell_length_a 9.011950
_cell_length_b 12.210401
_cell_length_c 9.810800
_cell_angle_alpha 90.000000
_cell_angle_beta 106.183543
_cell_angle_gamma 90.000000
_cell_volume 1036.796249
_symmetry_space_group_name_H-M "P 2/M"
_symmetry_group_IT_number 10
_symmetry_cell_setting 'monoclinic'
loop_
_space_group_symop_operation_xyz
x,y,z
-x,y,-z
-x,-y,-z
x,-y,z
loop_
_atom_site_type_symbol
_atom_site_label
_atom_site_fract_x
_atom_site_fract_y
_atom_site_fract_z
Si Si1 0.382323 0.797082 0.091447
Si Si2 0.142273 0.630742 0.132702
Si Si3 0.839551 0.000000 0.043905
Si Si4 0.156197 0.631385 0.454842
Si Si5 0.391417 0.814218 0.599325
Si Si6 0.155963 0.000000 0.625656
O O1 0.288380 0.689593 0.106409
O O2 0.490559 0.821561 0.246453
O O3 0.500000 0.779331 0.000000
O O4 0.263142 0.894201 0.023740
O O5 0.155252 0.500000 0.131063
O O6 0.127530 0.661425 0.288454
O O7 0.000000 0.663725 0.000000
O O8 0.865131 0.000000 0.214992
O O9 0.000000 0.000000 0.000000
O O10 0.182945 0.500000 0.469908
O O11 0.303627 0.699188 0.546908
O O12 0.000000 0.655564 0.500000
O O13 0.500000 0.843146 0.500000
O O14 0.254740 0.896390 0.601733
O O15 0.000000 0.000000 0.500000
#
# Coordination Sequence:
#
# PCOD9154021 Si02
#       6
#     4   4   2   4   4   2
#     4  12  25  44  68  94 132 171 212 266 326 381
#     4  10  23  43  66  95 131 173 219 262 313 382
#     4  12  28  47  68  92 131 175 211 262 325 384
#     4  10  23  43  66  95 133 173 214 263 319 379
#     4  12  25  43  68  99 129 168 214 268 325 379
#     4  12  28  46  68  96 129 168 219 264 315 390
#
# _framework density 19.290192999999999
#
# number of rings (size 3 to 8) (size 9 to 14) (size 15 to 20)
#    0.000    0.800    4.000    2.400    5.600    4.800 
#    0.000    0.000    0.000    0.000    0.000    0.000 
#    0.000    0.000    0.000    0.000    0.000    0.000 
#
# Total GULP energy -111741.615288 kJ/mol
# GULP energy per Si atom -5587.080764 kJ/mol
# Density = 1.924629 g / cm^3
# Si number density = 19.290193 Si / 1000 Ang^3
#
#
#
# Elastic Constant Matrix: (Units=GPa)
#
#
# Indices 1 2 3 4 5 6 
#
# 1 172.5712 44.2674 103.5414 0.0000 -11.9710 0.0000
# 2 44.2674 34.0642 44.9398 0.0000 -0.4163 0.0000
# 3 103.5414 44.9398 193.5503 0.0000 -9.7092 0.0000
# 4 0.0000 0.0000 0.0000 11.1641 0.0000 -5.3533
# 5 -11.9710 -0.4163 -9.7092 0.0000 50.8642 0.0000
# 6 0.0000 0.0000 0.0000 -5.3533 0.0000 53.7936
#
#
#
# Elastic Compliance Matrix: (Units=1/GPa)
#
#
# Indices 1 2 3 4 5 6 
#
# 1 0.010154 -0.008823 -0.003299 0.000000 0.001688 0.000000
# 2 -0.008823 0.050106 -0.007065 0.000000 -0.003015 0.000000
# 3 -0.003299 -0.007065 0.008612 0.000000 0.000810 0.000000
# 4 0.000000 0.000000 0.000000 0.094061 0.000000 0.009361
# 5 0.001688 -0.003015 0.000810 0.000000 0.020187 0.000000
# 6 0.000000 0.000000 0.000000 0.009361 0.000000 0.019521
#
#
# Mechanical properties :
#
#
# Convention : Reuss Voigt Hill
#
# Bulk Modulus (GPa) = 32.78830 87.29810 60.04320
# Shear Modulus (GPa) = 19.90576 36.99354 28.44965
#
# Velocity S-wave (km/s) = 3.21582 4.38395 3.84451
# Velocity P-wave (km/s) = 5.55184 8.42489 7.13448
#
# Compressibility (1/GPa) = 0.03049868
#
# Stress axis : x y z
#
# Youngs Moduli (GPa) = 98.47949 19.95749 116.11089
#
# Poissons Ratio (x) = 0.17609 0.38304
# Poissons Ratio (y) = 0.86890 0.82035
# Poissons Ratio (z) = 0.32487 0.14100
#
# Static dielectric constant tensor:
#      x y z
#    x 1.584630 0.000000 -0.036590 
#    y 0.000000 1.631260 0.000000 
#    z -0.036590 0.000000 1.569420 
# 
# From -- ./inp_files/17806.got.cif
#   From: 2010.05.17/outbox.cif.g08.bks.cpg/sg10_9_cif.got.tgz:17806.got - 2010.06.03 11:33:40.
