data_PCOD9154931
_publ_section_title
;
Structure prediction by ZEFSAII (Michael W. Deem and Ramdas Pophale) SiO2 
 PCOD9154931
Probable space group: P 2/M
;
_chemical_formula_sum "Si O2"
_cell_formula_units_Z 32
_cell_length_a 23.051778
_cell_length_b 7.357555
_cell_length_c 6.845795
_cell_angle_alpha 90.000000
_cell_angle_beta 79.536335
_cell_angle_gamma 90.000000
_cell_volume 1141.770750
_symmetry_space_group_name_H-M "P 2/M"
_symmetry_group_IT_number 10
_symmetry_cell_setting 'monoclinic'
loop_
_space_group_symop_operation_xyz
x,y,z
-x,y,-z
-x,-y,-z
x,-y,z
loop_
_atom_site_type_symbol
_atom_site_label
_atom_site_fract_x
_atom_site_fract_y
_atom_site_fract_z
Si Si1 0.955602 0.785864 0.243308
Si Si2 0.921908 0.214329 0.717737
Si Si3 0.172284 0.207859 0.722497
Si Si4 0.546254 0.282892 0.206326
Si Si5 0.420880 0.281352 0.369178
Si Si6 0.672888 0.217743 0.033976
Si Si7 0.705609 0.215418 0.448530
Si Si8 0.793210 0.208902 0.847756
O O1 0.943299 0.776321 0.483100
O O2 0.892824 0.708711 0.210074
O O3 0.023322 0.715665 0.183701
O O4 0.958629 0.000000 0.188881
O O5 0.914974 0.000000 0.775105
O O6 0.856030 0.292489 0.752299
O O7 0.226824 0.284436 0.560253
O O8 0.198716 0.199872 0.922403
O O9 0.160492 0.000000 0.663148
O O10 0.541200 0.500000 0.211117
O O11 0.479195 0.216193 0.216923
O O12 0.564244 0.223927 0.415294
O O13 0.603795 0.248833 0.039540
O O14 0.420861 0.500000 0.360940
O O15 0.352579 0.230414 0.382126
O O16 0.684450 0.287739 0.249001
O O17 0.727552 0.289014 0.871176
O O18 0.679806 0.000000 0.030394
O O19 0.714555 0.000000 0.423538
O O20 0.791159 0.000000 0.774275
#
# Coordination Sequence:
#
# PCOD9154931 Si02
#       8
#     4   4   4   4   4   4   4   4
#     4   8  13  20  29  42  62  88 115 141 170 205
#     4   8  13  20  29  42  62  88 115 141 170 205
#     4   8  13  20  29  42  62  88 115 141 170 205
#     4   8  13  20  29  42  62  88 115 141 170 205
#     4   8  13  20  29  42  62  88 115 141 170 205
#     4   8  13  20  29  42  62  88 115 141 170 205
#     4   8  13  20  29  42  62  88 115 141 170 205
#     4   8  13  20  29  42  62  88 115 141 170 205
#
# _framework density 28.02664
#
# number of rings (size 3 to 8) (size 9 to 14) (size 15 to 20)
#    0.000    4.000    0.000    3.000    0.000    1.000 
#    0.000    5.000    0.000    0.000    0.000    0.000 
#    0.000    3.000    0.000   25.000    0.000   29.000 
#
# Total GULP energy -178467.676185 kJ/mol
# GULP energy per Si atom -5577.114881 kJ/mol
# Density = 2.796285 g / cm^3
# Si number density = 28.026640 Si / 1000 Ang^3
#
#
#
# Elastic Constant Matrix: (Units=GPa)
#
#
# Indices 1 2 3 4 5 6 
#
# 1 266.0341 6.0367 82.3149 0.0000 -83.2224 0.0000
# 2 6.0367 99.8844 1.2158 0.0000 -13.8145 0.0000
# 3 82.3149 1.2158 198.3684 0.0000 -87.2419 0.0000
# 4 0.0000 0.0000 0.0000 22.3234 0.0000 -29.0312
# 5 -83.2224 -13.8145 -87.2419 0.0000 90.3761 0.0000
# 6 0.0000 0.0000 0.0000 -29.0312 0.0000 4.6761
#
#
#
# Elastic Compliance Matrix: (Units=1/GPa)
#
#
# Indices 1 2 3 4 5 6 
#
# 1 0.005293 0.000355 -0.000054 0.000000 0.004876 0.000000
# 2 0.000355 0.010388 0.001097 0.000000 0.002974 0.000000
# 3 -0.000054 0.001097 0.008878 0.000000 0.008688 0.000000
# 4 0.000000 0.000000 0.000000 -0.006333 0.000000 -0.039315
# 5 0.004876 0.002974 0.008688 0.000000 0.024396 0.000000
# 6 0.000000 0.000000 0.000000 -0.039315 0.000000 -0.030231
#
#
# Mechanical properties :
#
#
# Convention : Reuss Voigt Hill
#
# Bulk Modulus (GPa) = 36.55730 82.60244 59.57987
# Shear Modulus (GPa) = 267.19048 55.12309 161.15679
#
# Velocity S-wave (km/s) = 9.77453 4.43969 7.59119
# Velocity P-wave (km/s) = 11.85161 7.47114 9.90653
#
# Compressibility (1/GPa) = 0.02735432
#
# Stress axis : x y z
#
# Youngs Moduli (GPa) = 188.93038 96.26472 112.64281
#
# Poissons Ratio (x) = -0.03419 0.00609
# Poissons Ratio (y) = -0.06710 -0.12354
# Poissons Ratio (z) = 0.01021 -0.10558
#
# Static dielectric constant tensor:
#      x y z
#    x 2.294940 0.000000 -0.019640 
#    y 0.000000 2.107790 0.000000 
#    z -0.019640 0.000000 2.281680 
# 
# From -- ./inp_files/55474.got.cif
#   From: 2010.05.17/outbox.cif.g08.bks.cpg/sg10_28_cif.got.tgz:55474.got - 2010.06.03 11:33:40.
