data_PCOD9154465
_publ_section_title
;
Structure prediction by ZEFSAII (Michael W. Deem and Ramdas Pophale) SiO2 
 PCOD9154465
Probable space group: P 2/M
;
_chemical_formula_sum "Si O2"
_cell_formula_units_Z 28
_cell_length_a 21.809276
_cell_length_b 11.246271
_cell_length_c 18.739398
_cell_angle_alpha 90.000000
_cell_angle_beta 19.019387
_cell_angle_gamma 90.000000
_cell_volume 1497.869190
_symmetry_space_group_name_H-M "P 2/M"
_symmetry_group_IT_number 10
_symmetry_cell_setting 'monoclinic'
loop_
_space_group_symop_operation_xyz
x,y,z
-x,y,-z
-x,-y,-z
x,-y,z
loop_
_atom_site_type_symbol
_atom_site_label
_atom_site_fract_x
_atom_site_fract_y
_atom_site_fract_z
Si Si1 0.495474 0.360544 0.825199
Si Si2 0.997470 0.500000 0.918127
Si Si3 0.679334 0.138465 0.255873
Si Si4 0.877489 0.356301 0.700513
Si Si5 0.935687 0.640585 0.354530
Si Si6 0.476345 0.745363 0.359601
Si Si7 0.432300 0.500000 0.656282
Si Si8 0.062419 0.250413 0.797005
O O1 0.460396 0.500000 0.846282
O O2 0.710953 0.352470 0.611944
O O3 0.474709 0.287565 0.775189
O O4 0.342111 0.323646 0.052501
O O5 0.101074 0.384130 0.778960
O O6 0.792889 0.500000 0.106833
O O7 0.000000 0.500000 0.000000
O O8 0.500000 0.183020 0.500000
O O9 0.612166 0.163032 0.249485
O O10 0.704058 0.000000 0.244577
O O11 0.882154 0.201870 0.037918
O O12 0.884584 0.500000 0.687358
O O13 0.000000 0.308621 0.500000
O O14 0.963942 0.326854 0.682554
O O15 0.980084 0.500000 0.289386
O O16 0.981787 0.728416 0.238050
O O17 0.504464 0.620512 0.372766
O O18 0.266496 0.803501 0.588753
O O19 0.500000 0.500000 0.500000
#
# Coordination Sequence:
#
# PCOD9154465 Si02
#       8
#     4   2   4   4   4   4   2   4
#     4   9  17  29  47  74 105 134 170 208 260 314
#     4  12  24  32  54  87 113 132 167 219 280 332
#     4  11  26  43  55  72 101 143 187 224 270 320
#     4   9  17  26  41  65 101 147 185 206 231 291
#     4   9  17  30  48  73 103 135 169 211 263 315
#     4  11  21  36  58  80 104 137 175 223 272 321
#     4  12  22  34  52  83 112 133 162 219 281 325
#     4  11  22  37  58  80 107 138 175 224 277 326
#
# _framework density 18.693221000000001
#
# number of rings (size 3 to 8) (size 9 to 14) (size 15 to 20)
#    0.000    1.714    2.857    2.571    2.000    1.143 
#    0.000    4.286    0.000    0.000    0.000    0.000 
#    0.000    9.143    0.000   25.143    0.000    1.143 
#
# Total GULP energy -156103.903650 kJ/mol
# GULP energy per Si atom -5575.139416 kJ/mol
# Density = 1.865067 g / cm^3
# Si number density = 18.693221 Si / 1000 Ang^3
#
#
#
# Elastic Constant Matrix: (Units=GPa)
#
#
# Indices 1 2 3 4 5 6 
#
# 1 35.1958 -0.1676 26.5342 0.0000 -6.0123 0.0000
# 2 -0.1676 22.6425 5.8111 0.0000 0.9059 0.0000
# 3 26.5342 5.8111 115.4197 0.0000 2.5236 0.0000
# 4 0.0000 0.0000 0.0000 3.7051 0.0000 4.5472
# 5 -6.0123 0.9059 2.5236 0.0000 24.6714 0.0000
# 6 0.0000 0.0000 0.0000 4.5472 0.0000 4.1645
#
#
#
# Elastic Compliance Matrix: (Units=1/GPa)
#
#
# Indices 1 2 3 4 5 6 
#
# 1 0.036690 0.002128 -0.008755 0.000000 0.009759 0.000000
# 2 0.002128 0.044916 -0.002732 0.000000 -0.000851 0.000000
# 3 -0.008755 -0.002732 0.010883 0.000000 -0.003147 0.000000
# 4 0.000000 0.000000 0.000000 -0.793587 0.000000 0.866532
# 5 0.009759 -0.000851 -0.003147 0.000000 0.043264 0.000000
# 6 0.000000 0.000000 0.000000 0.866532 0.000000 -0.706055
#
#
# Mechanical properties :
#
#
# Convention : Reuss Voigt Hill
#
# Bulk Modulus (GPa) = 13.55551 26.40149 19.97850
# Shear Modulus (GPa) = -3.78622 15.91354 6.06366
#
# Velocity S-wave (km/s) = -1.42473 2.92087 1.80300
# Velocity P-wave (km/s) = 2.13561 5.05268 3.87881
#
# Compressibility (1/GPa) = 0.07377075
#
# Stress axis : x y z
#
# Youngs Moduli (GPa) = 27.25515 22.26388 91.88491
#
# Poissons Ratio (x) = -0.04738 0.80449
# Poissons Ratio (y) = -0.05800 0.25103
# Poissons Ratio (z) = 0.23863 0.06083
#
# Static dielectric constant tensor:
#      x y z
#    x 1.669800 0.000000 0.029960 
#    y 0.000000 1.627670 0.000000 
#    z 0.029960 0.000000 1.803670 
# 
# From -- ./inp_files/79541.got.cif
#   From: 2010.05.17/outbox.cif.g08.bks.cpg/sg10_40_cif.got.tgz:79541.got - 2010.06.03 11:33:40.
