data_PCOD9154737
_publ_section_title
;
Structure prediction by ZEFSAII (Michael W. Deem and Ramdas Pophale) SiO2 
 PCOD9154737
Probable space group: P 2/M
;
_chemical_formula_sum "Si O2"
_cell_formula_units_Z 13
_cell_length_a 5.285643
_cell_length_b 18.082784
_cell_length_c 5.296891
_cell_angle_alpha 90.000000
_cell_angle_beta 87.561478
_cell_angle_gamma 90.000000
_cell_volume 505.813835
_symmetry_space_group_name_H-M "P 2/M"
_symmetry_group_IT_number 10
_symmetry_cell_setting 'monoclinic'
loop_
_space_group_symop_operation_xyz
x,y,z
-x,y,-z
-x,-y,-z
x,-y,z
loop_
_atom_site_type_symbol
_atom_site_label
_atom_site_fract_x
_atom_site_fract_y
_atom_site_fract_z
Si Si1 0.256885 0.102260 0.851348
Si Si2 0.326659 0.579002 0.758854
Si Si3 0.000000 0.000000 0.500000
Si Si4 0.236161 0.259894 0.662952
O O1 0.260959 0.191119 0.847089
O O2 0.206637 0.064932 0.583170
O O3 0.500000 0.078566 0.000000
O O4 0.000000 0.077558 0.000000
O O5 0.500000 0.578953 0.500000
O O6 0.182783 0.500000 0.760472
O O7 0.186217 0.657268 0.765156
O O8 0.500000 0.579331 0.000000
O O9 0.500000 0.262141 0.500000
O O10 0.000000 0.240956 0.500000
#
# Coordination Sequence:
#
# PCOD9154737 Si02
#       4
#     4   4   1   4
#     4  12  27  47  74 104 138 185 239 291 359 435
#     4   9  19  38  65 100 140 186 238 294 355 424
#     4  12  28  50  72 104 144 180 230 306 358 438
#     4  11  23  44  71 101 139 183 232 291 355 425
#
# _framework density 25.701156000000001
#
# number of rings (size 3 to 8) (size 9 to 14) (size 15 to 20)
#    0.000    1.231    1.538    3.692    0.000    4.308 
#    0.000    0.000    0.000   17.538    0.000    0.000 
#    0.000    0.000    0.000    0.000    0.000    0.000 
#
# Total GULP energy -72475.929784 kJ/mol
# GULP energy per Si atom -5575.071522 kJ/mol
# Density = 2.564266 g / cm^3
# Si number density = 25.701156 Si / 1000 Ang^3
#
#
#
# Elastic Constant Matrix: (Units=GPa)
#
#
# Indices 1 2 3 4 5 6 
#
# 1 175.3014 23.9712 60.3506 0.0000 34.7335 0.0000
# 2 23.9712 271.2730 14.9541 0.0000 16.9960 0.0000
# 3 60.3506 14.9541 117.3646 0.0000 29.3162 0.0000
# 4 0.0000 0.0000 0.0000 64.6903 0.0000 24.0336
# 5 34.7335 16.9960 29.3162 0.0000 71.7385 0.0000
# 6 0.0000 0.0000 0.0000 24.0336 0.0000 18.1207
#
#
#
# Elastic Compliance Matrix: (Units=1/GPa)
#
#
# Indices 1 2 3 4 5 6 
#
# 1 0.007262 -0.000333 -0.003155 0.000000 -0.002148 0.000000
# 2 -0.000333 0.003766 -0.000140 0.000000 -0.000674 0.000000
# 3 -0.003155 -0.000140 0.010882 0.000000 -0.002886 0.000000
# 4 0.000000 0.000000 0.000000 0.030474 0.000000 -0.040418
# 5 -0.002148 -0.000674 -0.002886 0.000000 0.016318 0.000000
# 6 0.000000 0.000000 0.000000 -0.040418 0.000000 0.108792
#
#
# Mechanical properties :
#
#
# Convention : Reuss Voigt Hill
#
# Bulk Modulus (GPa) = 68.25089 84.72122 76.48605
# Shear Modulus (GPa) = 26.36641 61.88743 44.12692
#
# Velocity S-wave (km/s) = 3.20642 4.91242 4.14807
# Velocity P-wave (km/s) = 6.34991 8.07536 7.26405
#
# Compressibility (1/GPa) = 0.01465182
#
# Stress axis : x y z
#
# Youngs Moduli (GPa) = 137.70730 265.55520 91.89777
#
# Poissons Ratio (x) = 0.08848 0.28996
# Poissons Ratio (y) = 0.04588 0.01289
# Poissons Ratio (z) = 0.43450 0.03724
#
# Static dielectric constant tensor:
#      x y z
#    x 1.925620 0.000000 -0.049420 
#    y 0.000000 2.071000 0.000000 
#    z -0.049420 0.000000 2.064510 
# 
# From -- ./inp_files/715.got.cif
#   From: 2010.05.17/outbox.cif.g08.bks.cpg/sg10_1_cif.got.tgz:715.got - 2010.06.03 11:33:40.
