data_PCOD9154650
_publ_section_title
;
Structure prediction by ZEFSAII (Michael W. Deem and Ramdas Pophale) SiO2 
 PCOD9154650
Probable space group: P 2/M
;
_chemical_formula_sum "Si O2"
_cell_formula_units_Z 24
_cell_length_a 15.212578
_cell_length_b 13.740634
_cell_length_c 8.649424
_cell_angle_alpha 90.000000
_cell_angle_beta 40.241049
_cell_angle_gamma 90.000000
_cell_volume 1167.972127
_symmetry_space_group_name_H-M "P 2/M"
_symmetry_group_IT_number 10
_symmetry_cell_setting 'monoclinic'
loop_
_space_group_symop_operation_xyz
x,y,z
-x,y,-z
-x,-y,-z
x,-y,z
loop_
_atom_site_type_symbol
_atom_site_label
_atom_site_fract_x
_atom_site_fract_y
_atom_site_fract_z
Si Si1 0.883272 0.500000 0.031005
Si Si2 0.419078 0.500000 0.448201
Si Si3 0.105727 0.794426 0.715142
Si Si4 0.919105 0.674739 0.748989
Si Si5 0.796186 0.000000 0.903742
Si Si6 0.887242 0.000000 0.427094
Si Si7 0.663463 0.207518 0.127862
Si Si8 0.613342 0.282752 0.546899
O O1 0.892339 0.594735 0.913577
O O2 0.740436 0.500000 0.306037
O O3 0.000000 0.500000 0.000000
O O4 0.500000 0.500000 0.500000
O O5 0.441334 0.392533 0.349601
O O6 0.146921 0.904404 0.623841
O O7 0.243926 0.735284 0.560348
O O8 0.020165 0.754690 0.685544
O O9 0.000000 0.788777 0.000000
O O10 0.000000 0.628305 0.500000
O O11 0.779802 0.727988 0.890691
O O12 0.815916 0.000000 0.690868
O O13 0.949285 0.000000 0.765393
O O14 0.718410 0.902370 0.061206
O O15 0.646871 0.256833 0.320935
O O16 0.516601 0.214705 0.244527
#
# Coordination Sequence:
#
# PCOD9154650 Si02
#       8
#     2   2   4   4   2   2   4   4
#     4  12  23  39  66  95 126 166 219 283 320 379
#     4  12  18  39  66  93 126 167 213 256 324 391
#     4  12  22  40  64  97 129 170 224 272 319 378
#     4  12  23  40  62  94 133 171 215 265 334 395
#     4  11  22  42  63  91 126 177 221 258 336 395
#     4  11  23  39  67  90 125 178 220 267 322 397
#     4  11  22  40  63  94 129 172 212 270 323 388
#     4  11  23  38  65 100 129 168 219 272 325 380
#
# _framework density 20.548435999999999
#
# number of rings (size 3 to 8) (size 9 to 14) (size 15 to 20)
#    0.000    0.500    6.667    3.000    0.000    2.667 
#    0.000    4.167    0.000    0.000    0.000   10.500 
#    0.000    0.000    0.000    0.000    0.000    0.000 
#
# Total GULP energy -134085.264038 kJ/mol
# GULP energy per Si atom -5586.886002 kJ/mol
# Density = 2.050167 g / cm^3
# Si number density = 20.548436 Si / 1000 Ang^3
#
#
#
# Elastic Constant Matrix: (Units=GPa)
#
#
# Indices 1 2 3 4 5 6 
#
# 1 49.8915 -4.9389 19.9491 0.0000 -27.6226 0.0000
# 2 -4.9389 123.3712 7.3069 0.0000 -7.8299 0.0000
# 3 19.9491 7.3069 62.2917 0.0000 -17.8967 0.0000
# 4 0.0000 0.0000 0.0000 -146.8669 0.0000 46.2776
# 5 -27.6226 -7.8299 -17.8967 0.0000 30.3226 0.0000
# 6 0.0000 0.0000 0.0000 46.2776 0.0000 40.5499
#
#
#
# Elastic Compliance Matrix: (Units=1/GPa)
#
#
# Indices 1 2 3 4 5 6 
#
# 1 0.043045 0.004354 -0.003260 0.000000 0.038413 0.000000
# 2 0.004354 0.008691 -0.000758 0.000000 0.005763 0.000000
# 3 -0.003260 -0.000758 0.019601 0.000000 0.008403 0.000000
# 4 0.000000 0.000000 0.000000 -0.005008 0.000000 0.005715
# 5 0.038413 0.005763 0.008403 0.000000 0.074419 0.000000
# 6 0.000000 0.000000 0.000000 0.005715 0.000000 0.018138
#
#
# Mechanical properties :
#
#
# Convention : Reuss Voigt Hill
#
# Bulk Modulus (GPa) = 13.88718 31.13207 22.50962
# Shear Modulus (GPa) = 27.43991 -0.98305 13.22843
#
# Velocity S-wave (km/s) = 3.65825 -0.69242 2.54001
# Velocity P-wave (km/s) = 4.96151 3.81369 4.42498
#
# Compressibility (1/GPa) = 0.07200887
#
# Stress axis : x y z
#
# Youngs Moduli (GPa) = 23.23132 115.06702 51.01860
#
# Poissons Ratio (x) = -0.50102 0.16632
# Poissons Ratio (y) = -0.10115 0.03868
# Poissons Ratio (z) = 0.07573 0.08723
#
# Static dielectric constant tensor:
#      x y z
#    x 1.727150 0.000000 0.024390 
#    y 0.000000 1.710340 0.000000 
#    z 0.024390 0.000000 1.743770 
# 
# From -- ./inp_files/29374.got.cif
#   From: 2010.05.17/outbox.cif.g08.bks.cpg/sg10_15_cif.got.tgz:29374.got - 2010.06.03 11:33:40.
