data_PCOD9154184
_publ_section_title
;
Structure prediction by ZEFSAII (Michael W. Deem and Ramdas Pophale) SiO2 
 PCOD9154184
Probable space group: P 2/M
;
_chemical_formula_sum "Si O2"
_cell_formula_units_Z 13
_cell_length_a 5.249330
_cell_length_b 19.261762
_cell_length_c 5.226231
_cell_angle_alpha 90.000000
_cell_angle_beta 85.789695
_cell_angle_gamma 90.000000
_cell_volume 527.005163
_symmetry_space_group_name_H-M "P 2/M"
_symmetry_group_IT_number 10
_symmetry_cell_setting 'monoclinic'
loop_
_space_group_symop_operation_xyz
x,y,z
-x,y,-z
-x,-y,-z
x,-y,z
loop_
_atom_site_type_symbol
_atom_site_label
_atom_site_fract_x
_atom_site_fract_y
_atom_site_fract_z
Si Si1 0.266635 0.347789 0.833220
Si Si2 0.500000 0.238121 0.500000
Si Si3 0.826605 0.869236 0.767945
Si Si4 0.825676 0.500000 0.264821
Si Si5 0.500000 0.000000 0.000000
O O1 0.281446 0.290030 0.615108
O O2 0.315293 0.426503 0.734178
O O3 0.500000 0.330811 0.000000
O O4 0.000000 0.346195 0.000000
O O5 0.378739 0.188608 0.295752
O O6 0.000000 0.879748 0.500000
O O7 0.678663 0.939144 0.853418
O O8 0.000000 0.849598 0.000000
O O9 0.000000 0.500000 0.500000
O O10 0.000000 0.500000 0.000000
#
# Coordination Sequence:
#
# PCOD9154184 Si02
#       5
#     4   2   4   2   1
#     4  11  29  51  81 118 165 224 282 350 418 499
#     4  12  32  48  82 122 170 214 284 338 432 494
#     4  12  30  53  84 119 168 213 275 344 416 505
#     4  10  25  51  79 117 164 218 286 351 415 492
#     4  12  28  58  84 126 152 228 268 346 410 508
#
# _framework density 24.667691000000001
#
# number of rings (size 3 to 8) (size 9 to 14) (size 15 to 20)
#    0.000    0.615    0.000    3.231   19.385    4.923 
#    0.000    0.000    0.000    0.000    0.000    0.000 
#    0.000    0.000    0.000    0.000    0.000    0.000 
#
# Total GULP energy -72668.983194 kJ/mol
# GULP energy per Si atom -5589.921784 kJ/mol
# Density = 2.461155 g / cm^3
# Si number density = 24.667691 Si / 1000 Ang^3
#
#
#
# Elastic Constant Matrix: (Units=GPa)
#
#
# Indices 1 2 3 4 5 6 
#
# 1 123.1443 62.6852 70.8820 0.0000 -9.9141 0.0000
# 2 62.6852 245.9616 59.7438 0.0000 5.3200 0.0000
# 3 70.8820 59.7438 160.5851 0.0000 -3.4501 0.0000
# 4 0.0000 0.0000 0.0000 8.8546 0.0000 -45.1895
# 5 -9.9141 5.3200 -3.4501 0.0000 64.2868 0.0000
# 6 0.0000 0.0000 0.0000 -45.1895 0.0000 11.3576
#
#
#
# Elastic Compliance Matrix: (Units=1/GPa)
#
#
# Indices 1 2 3 4 5 6 
#
# 1 0.011825 -0.001971 -0.004449 0.000000 0.001748 0.000000
# 2 -0.001971 0.004812 -0.000936 0.000000 -0.000752 0.000000
# 3 -0.004449 -0.000936 0.008536 0.000000 -0.000150 0.000000
# 4 0.000000 0.000000 0.000000 -0.005850 0.000000 -0.023275
# 5 0.001748 -0.000752 -0.000150 0.000000 0.015879 0.000000
# 6 0.000000 0.000000 0.000000 -0.023275 0.000000 -0.004561
#
#
# Mechanical properties :
#
#
# Convention : Reuss Voigt Hill
#
# Bulk Modulus (GPa) = 95.59484 101.81256 98.70370
# Shear Modulus (GPa) = 102.37321 39.32513 70.84917
#
# Velocity S-wave (km/s) = 6.44911 3.99707 5.36505
# Velocity P-wave (km/s) = 9.71040 7.91614 8.85882
#
# Compressibility (1/GPa) = 0.01046082
#
# Stress axis : x y z
#
# Youngs Moduli (GPa) = 84.56410 207.82701 117.15005
#
# Poissons Ratio (x) = 0.40962 0.52118
# Poissons Ratio (y) = 0.16667 0.10969
# Poissons Ratio (z) = 0.37621 0.19459
#
# Static dielectric constant tensor:
#      x y z
#    x 1.921520 0.000000 -0.067450 
#    y 0.000000 1.942570 0.000000 
#    z -0.067450 0.000000 1.952580 
# 
# From -- ./inp_files/797.got.cif
#   From: 2010.05.17/outbox.cif.g08.bks.cpg/sg10_1_cif.got.tgz:797.got - 2010.06.03 11:33:40.
