data_PCOD9154710
_publ_section_title
;
Structure prediction by ZEFSAII (Michael W. Deem and Ramdas Pophale) SiO2 
 PCOD9154710
Probable space group: P 2/M
;
_chemical_formula_sum "Si O2"
_cell_formula_units_Z 20
_cell_length_a 12.093606
_cell_length_b 11.290032
_cell_length_c 9.572116
_cell_angle_alpha 90.000000
_cell_angle_beta 49.863659
_cell_angle_gamma 90.000000
_cell_volume 999.179799
_symmetry_space_group_name_H-M "P 2/M"
_symmetry_group_IT_number 10
_symmetry_cell_setting 'monoclinic'
loop_
_space_group_symop_operation_xyz
x,y,z
-x,y,-z
-x,-y,-z
x,-y,z
loop_
_atom_site_type_symbol
_atom_site_label
_atom_site_fract_x
_atom_site_fract_y
_atom_site_fract_z
Si Si1 0.637497 0.744343 0.987623
Si Si2 0.136650 0.500000 0.582359
Si Si3 0.070227 0.139121 0.299875
Si Si4 0.366033 0.138682 0.715069
Si Si5 0.206772 0.500000 0.202549
Si Si6 0.897001 0.279671 0.207486
O O1 0.600048 0.787553 0.173173
O O2 0.500000 0.743821 0.000000
O O3 0.760488 0.834372 0.833996
O O4 0.713964 0.616208 0.919721
O O5 0.208105 0.500000 0.371100
O O6 0.171246 0.384309 0.645066
O O7 0.962039 0.500000 0.702450
O O8 0.000000 0.186299 0.500000
O O9 0.998611 0.204506 0.227983
O O10 0.041605 0.000000 0.312842
O O11 0.500000 0.144409 0.500000
O O12 0.225130 0.196368 0.759176
O O13 0.339245 0.000000 0.770783
O O14 0.000000 0.327608 0.000000
#
# Coordination Sequence:
#
# PCOD9154710 Si02
#       6
#     4   2   4   4   2   4
#     4  12  26  45  70  98 141 179 233 279 340 406
#     4  11  23  40  76 101 133 178 223 287 346 399
#     4  11  24  41  68 101 133 179 232 282 337 402
#     4  11  27  47  68  99 141 184 222 277 346 404
#     4  11  23  46  68 102 135 176 229 286 339 400
#     4  12  23  43  70 101 136 173 231 281 341 401
#
# _framework density 20.016414999999999
#
# number of rings (size 3 to 8) (size 9 to 14) (size 15 to 20)
#    0.000    0.600    4.000    3.000    5.600    3.200 
#    0.000    1.000    0.000    0.000    0.000    0.000 
#    0.000    0.000    0.000    0.000    0.000    0.000 
#
# Total GULP energy -111927.308663 kJ/mol
# GULP energy per Si atom -5596.365433 kJ/mol
# Density = 1.997086 g / cm^3
# Si number density = 20.016415 Si / 1000 Ang^3
#
#
#
# Elastic Constant Matrix: (Units=GPa)
#
#
# Indices 1 2 3 4 5 6 
#
# 1 105.3825 36.6888 24.4289 0.0000 6.5046 0.0000
# 2 36.6888 116.6214 45.1590 0.0000 21.7191 0.0000
# 3 24.4289 45.1590 107.8782 0.0000 21.0326 0.0000
# 4 0.0000 0.0000 0.0000 37.6131 0.0000 0.7365
# 5 6.5046 21.7191 21.0326 0.0000 30.6070 0.0000
# 6 0.0000 0.0000 0.0000 0.7365 0.0000 34.4138
#
#
#
# Elastic Compliance Matrix: (Units=1/GPa)
#
#
# Indices 1 2 3 4 5 6 
#
# 1 0.010804 -0.003027 -0.001329 0.000000 0.000765 0.000000
# 2 -0.003027 0.011786 -0.003168 0.000000 -0.005544 0.000000
# 3 -0.001329 -0.003168 0.012013 0.000000 -0.005725 0.000000
# 4 0.000000 0.000000 0.000000 0.026598 0.000000 -0.000569
# 5 0.000765 -0.005544 -0.005725 0.000000 0.040378 0.000000
# 6 0.000000 0.000000 0.000000 -0.000569 0.000000 0.029070
#
#
# Mechanical properties :
#
#
# Convention : Reuss Voigt Hill
#
# Bulk Modulus (GPa) = 51.13353 60.27061 55.70207
# Shear Modulus (GPa) = 32.84882 35.43380 34.14131
#
# Velocity S-wave (km/s) = 4.05544 4.21198 4.13445
# Velocity P-wave (km/s) = 6.89420 7.33692 7.11900
#
# Compressibility (1/GPa) = 0.01955664
#
# Stress axis : x y z
#
# Youngs Moduli (GPa) = 92.56005 84.84694 83.24536
#
# Poissons Ratio (x) = 0.25682 0.11060
# Poissons Ratio (y) = 0.28016 0.26368
# Poissons Ratio (z) = 0.12297 0.26875
#
# Static dielectric constant tensor:
#      x y z
#    x 1.661260 0.000000 0.007910 
#    y 0.000000 1.702230 0.000000 
#    z 0.007910 0.000000 1.717530 
# 
# From -- ./inp_files/23885.got.cif
#   From: 2010.05.17/outbox.cif.g08.bks.cpg/sg10_12_cif.got.tgz:23885.got - 2010.06.03 11:33:40.
