data_PCOD9154201
_publ_section_title
;
Structure prediction by ZEFSAII (Michael W. Deem and Ramdas Pophale) SiO2 
 PCOD9154201
Probable space group: P 2/M
;
_chemical_formula_sum "Si O2"
_cell_formula_units_Z 16
_cell_length_a 7.865218
_cell_length_b 11.056956
_cell_length_c 7.806127
_cell_angle_alpha 90.000000
_cell_angle_beta 97.765066
_cell_angle_gamma 90.000000
_cell_volume 672.637821
_symmetry_space_group_name_H-M "P 2/M"
_symmetry_group_IT_number 10
_symmetry_cell_setting 'monoclinic'
loop_
_space_group_symop_operation_xyz
x,y,z
-x,y,-z
-x,-y,-z
x,-y,z
loop_
_atom_site_type_symbol
_atom_site_label
_atom_site_fract_x
_atom_site_fract_y
_atom_site_fract_z
Si Si1 0.361860 0.500000 0.205531
Si Si2 0.169278 0.264442 0.124542
Si Si3 0.307431 0.000000 0.085719
Si Si4 0.728954 0.500000 0.395978
Si Si5 0.372097 0.000000 0.692768
Si Si6 0.291820 0.251586 0.517569
O O1 0.298807 0.376389 0.111710
O O2 0.562320 0.500000 0.255904
O O3 0.297199 0.500000 0.397979
O O4 0.216309 0.129521 0.075113
O O5 0.179707 0.250463 0.331133
O O6 0.000000 0.299480 0.000000
O O7 0.419087 0.000000 0.280602
O O8 0.366208 0.000000 0.895886
O O9 0.787720 0.361715 0.381349
O O10 0.295335 0.877051 0.610292
O O11 0.500000 0.275021 0.500000
#
# Coordination Sequence:
#
# PCOD9154201 Si02
#       6
#     2   4   2   2   2   4
#     4   9  15  30  53  81 103 130 171 218 262 298
#     4  11  21  34  55  81 108 137 171 216 262 312
#     4  11  22  37  50  79 112 133 176 220 261 301
#     4   9  14  28  55  83 103 123 174 232 245 294
#     4  11  22  34  56  78 102 142 177 220 255 303
#     4  11  17  34  57  79 102 136 181 211 256 307
#
# _framework density 23.786946
#
# number of rings (size 3 to 8) (size 9 to 14) (size 15 to 20)
#    0.000    1.500    7.500    1.875    0.000    0.000 
#    0.000    3.750    0.000    4.500    0.000    7.000 
#    0.000    0.000    0.000    0.000    0.000    0.000 
#
# Total GULP energy -89072.271680 kJ/mol
# GULP energy per Si atom -5567.016980 kJ/mol
# Density = 2.373281 g / cm^3
# Si number density = 23.786946 Si / 1000 Ang^3
#
#
#
# Elastic Constant Matrix: (Units=GPa)
#
#
# Indices 1 2 3 4 5 6 
#
# 1 46.1408 8.8040 35.7446 0.0000 20.0497 0.0000
# 2 8.8040 223.5878 52.7511 0.0000 -7.9218 0.0000
# 3 35.7446 52.7511 140.3212 0.0000 31.7323 0.0000
# 4 0.0000 0.0000 0.0000 98.3337 0.0000 30.5222
# 5 20.0497 -7.9218 31.7323 0.0000 21.8098 0.0000
# 6 0.0000 0.0000 0.0000 30.5222 0.0000 4.0321
#
#
#
# Elastic Compliance Matrix: (Units=1/GPa)
#
#
# Indices 1 2 3 4 5 6 
#
# 1 0.037751 -0.002476 -0.000945 0.000000 -0.034229 0.000000
# 2 -0.002476 0.005818 -0.003799 0.000000 0.009917 0.000000
# 3 -0.000945 -0.003799 0.013280 0.000000 -0.019834 0.000000
# 4 0.000000 0.000000 0.000000 -0.007535 0.000000 0.057038
# 5 -0.034229 0.009917 -0.019834 0.000000 0.109777 0.000000
# 6 0.000000 0.000000 0.000000 0.057038 0.000000 -0.183761
#
#
# Mechanical properties :
#
#
# Convention : Reuss Voigt Hill
#
# Bulk Modulus (GPa) = 23.57986 67.18323 45.38155
# Shear Modulus (GPa) = 1280.03307 45.68511 662.85909
#
# Velocity S-wave (km/s) = 23.22267 4.38721 16.71137
# Velocity P-wave (km/s) = 26.99983 7.34633 19.78585
#
# Compressibility (1/GPa) = 0.04240907
#
# Stress axis : x y z
#
# Youngs Moduli (GPa) = 26.48932 171.89174 75.29849
#
# Poissons Ratio (x) = 0.42565 0.07116
# Poissons Ratio (y) = 0.06560 0.28604
# Poissons Ratio (z) = 0.02503 0.65298
#
# Static dielectric constant tensor:
#      x y z
#    x 0.865970 0.000000 0.197370 
#    y 0.000000 1.944570 0.000000 
#    z 0.197370 0.000000 1.804070 
# 
# From -- ./inp_files/17690.got.cif
#   From: 2010.05.17/outbox.cif.g08.bks.cpg/sg10_9_cif.got.tgz:17690.got - 2010.06.03 11:33:40.
