data_PCOD9154608
_publ_section_title
;
Structure prediction by ZEFSAII (Michael W. Deem and Ramdas Pophale) SiO2 
 PCOD9154608
Probable space group: P 2/M
;
_chemical_formula_sum "Si O2"
_cell_formula_units_Z 32
_cell_length_a 14.442435
_cell_length_b 18.324390
_cell_length_c 12.268286
_cell_angle_alpha 90.000000
_cell_angle_beta 30.766657
_cell_angle_gamma 90.000000
_cell_volume 1660.871030
_symmetry_space_group_name_H-M "P 2/M"
_symmetry_group_IT_number 10
_symmetry_cell_setting 'monoclinic'
loop_
_space_group_symop_operation_xyz
x,y,z
-x,y,-z
-x,-y,-z
x,-y,z
loop_
_atom_site_type_symbol
_atom_site_label
_atom_site_fract_x
_atom_site_fract_y
_atom_site_fract_z
Si Si1 0.289657 0.817982 0.513425
Si Si2 0.719169 0.080686 0.287167
Si Si3 0.201929 0.081081 0.159246
Si Si4 0.702151 0.806815 0.121761
Si Si5 0.234105 0.918647 0.378290
Si Si6 0.998372 0.587691 0.323061
Si Si7 0.001849 0.695708 0.129006
Si Si8 0.293021 0.411218 0.200351
O O1 0.232877 0.887737 0.643835
O O2 0.488901 0.795201 0.350334
O O3 0.302019 0.850988 0.380155
O O4 0.150990 0.753389 0.677265
O O5 0.500000 0.077146 0.500000
O O6 0.776365 0.140000 0.141388
O O7 0.789534 0.000000 0.195921
O O8 0.272317 0.088083 0.211372
O O9 0.983887 0.082079 0.387267
O O10 0.254732 0.000000 0.063510
O O11 0.264591 0.146933 0.020902
O O12 0.810932 0.732954 0.023487
O O13 0.298201 0.000000 0.348661
O O14 0.999222 0.500000 0.314943
O O15 0.179459 0.610264 0.207367
O O16 0.981765 0.623785 0.222220
O O17 0.829790 0.609638 0.571443
O O18 0.000000 0.686178 0.000000
O O19 0.297327 0.500000 0.194918
O O20 0.500000 0.385190 0.000000
#
# Coordination Sequence:
#
# PCOD9154608 Si02
#       8
#     4   4   4   4   4   4   4   4
#     4  11  22  38  57  80 112 150 194 244 296 353
#     4   9  18  33  55  81 104 136 192 250 290 335
#     4   9  18  34  56  81 112 150 192 242 299 359
#     4  11  22  38  57  80 112 150 194 244 296 353
#     4   9  18  34  56  81 112 150 192 242 299 359
#     4   9  20  39  65  97 126 154 196 240 279 348
#     4  12  25  42  60  81 118 164 198 243 302 346
#     4   8  15  35  68 101 129 152 179 229 291 341
#
# _framework density 19.266998999999998
#
# number of rings (size 3 to 8) (size 9 to 14) (size 15 to 20)
#    0.000    2.250    2.500    2.250    0.000    3.250 
#    4.500    1.875    0.000    0.000    0.000    5.250 
#    0.000    0.000    0.000    0.000    0.000    0.000 
#
# Total GULP energy -178588.208700 kJ/mol
# GULP energy per Si atom -5580.881522 kJ/mol
# Density = 1.922315 g / cm^3
# Si number density = 19.266999 Si / 1000 Ang^3
#
#
#
# Elastic Constant Matrix: (Units=GPa)
#
#
# Indices 1 2 3 4 5 6 
#
# 1 86.6883 32.9668 34.8084 0.0000 7.9185 0.0000
# 2 32.9668 46.4270 14.1699 0.0000 10.3046 0.0000
# 3 34.8084 14.1699 48.8439 0.0000 -4.6216 0.0000
# 4 0.0000 0.0000 0.0000 17.3113 0.0000 -0.8588
# 5 7.9185 10.3046 -4.6216 0.0000 38.1317 0.0000
# 6 0.0000 0.0000 0.0000 -0.8588 0.0000 31.8292
#
#
#
# Elastic Compliance Matrix: (Units=1/GPa)
#
#
# Indices 1 2 3 4 5 6 
#
# 1 0.020483 -0.010265 -0.011895 0.000000 -0.002921 0.000000
# 2 -0.010265 0.030972 -0.002286 0.000000 -0.006515 0.000000
# 3 -0.011895 -0.002286 0.030253 0.000000 0.006755 0.000000
# 4 0.000000 0.000000 0.000000 0.057843 0.000000 0.001561
# 5 -0.002921 -0.006515 0.006755 0.000000 0.029411 0.000000
# 6 0.000000 0.000000 0.000000 0.001561 0.000000 0.031460
#
#
# Mechanical properties :
#
#
# Convention : Reuss Voigt Hill
#
# Bulk Modulus (GPa) = 30.47457 38.42771 34.45114
# Shear Modulus (GPa) = 19.21208 24.12204 21.66706
#
# Velocity S-wave (km/s) = 3.16119 3.54218 3.35710
# Velocity P-wave (km/s) = 5.40144 6.05950 5.73991
#
# Compressibility (1/GPa) = 0.03281425
#
# Stress axis : x y z
#
# Youngs Moduli (GPa) = 48.82196 32.28696 33.05480
#
# Poissons Ratio (x) = 0.33144 0.39319
# Poissons Ratio (y) = 0.50118 0.07557
# Poissons Ratio (z) = 0.58075 0.07381
#
# Static dielectric constant tensor:
#      x y z
#    x 1.700290 0.000000 -0.011530 
#    y 0.000000 1.647790 0.000000 
#    z -0.011530 0.000000 1.694500 
# 
# From -- ./inp_files/51968.got.cif
#   From: 2010.05.17/outbox.cif.g08.bks.cpg/sg10_26_cif.got.tgz:51968.got - 2010.06.03 11:33:40.
