data_PCOD9154785
_publ_section_title
;
Structure prediction by ZEFSAII (Michael W. Deem and Ramdas Pophale) SiO2 
 PCOD9154785
Probable space group: P 2/M
;
_chemical_formula_sum "Si O2"
_cell_formula_units_Z 26
_cell_length_a 10.828629
_cell_length_b 19.968519
_cell_length_c 6.767479
_cell_angle_alpha 90.000000
_cell_angle_beta 120.997390
_cell_angle_gamma 90.000000
_cell_volume 1254.364426
_symmetry_space_group_name_H-M "P 2/M"
_symmetry_group_IT_number 10
_symmetry_cell_setting 'monoclinic'
loop_
_space_group_symop_operation_xyz
x,y,z
-x,y,-z
-x,-y,-z
x,-y,z
loop_
_atom_site_type_symbol
_atom_site_label
_atom_site_fract_x
_atom_site_fract_y
_atom_site_fract_z
Si Si1 0.353097 0.801176 0.763030
Si Si2 0.095290 0.242241 0.766864
Si Si3 0.653031 0.319413 0.529770
Si Si4 0.875617 0.374091 0.025367
Si Si5 0.146357 0.075724 0.488619
Si Si6 0.330988 0.424430 0.803665
Si Si7 0.000000 0.864354 0.000000
O O1 0.258825 0.755587 0.832857
O O2 0.360493 0.755430 0.572218
O O3 0.261832 0.868481 0.648732
O O4 0.500000 0.814597 0.000000
O O5 0.043983 0.314803 0.790510
O O6 0.082240 0.186167 0.922057
O O7 0.000000 0.222765 0.500000
O O8 0.500000 0.337455 0.500000
O O9 0.692013 0.369843 0.384544
O O10 0.770229 0.332470 0.794241
O O11 0.775214 0.413370 0.096938
O O12 0.000000 0.410296 0.000000
O O13 0.000000 0.078488 0.500000
O O14 0.202636 0.000000 0.551964
O O15 0.099425 0.091956 0.225188
O O16 0.308021 0.500000 0.709323
O O17 0.500000 0.418289 0.000000
#
# Coordination Sequence:
#
# PCOD9154785 Si02
#       7
#     4   4   4   4   4   4   2
#     4  12  23  41  66  97 137 170 216 281 340 390
#     4  12  22  40  66  98 130 174 219 272 336 398
#     4  12  24  44  70 100 130 181 233 274 335 414
#     4  12  25  39  69 104 136 172 226 292 342 392
#     4  11  24  43  67  96 132 178 226 273 332 407
#     4  11  25  46  69  95 139 186 225 272 338 416
#     4  12  19  40  70  94 121 176 228 270 317 398
#
# _framework density 20.727630000000001
#
# number of rings (size 3 to 8) (size 9 to 14) (size 15 to 20)
#    0.000    0.308    6.923    3.462    0.000    1.538 
#    0.000    0.769    0.000    1.385    0.000    0.000 
#    0.000    0.000    0.000    0.000    0.000    0.000 
#
# Total GULP energy -145270.808622 kJ/mol
# GULP energy per Si atom -5587.338793 kJ/mol
# Density = 2.068045 g / cm^3
# Si number density = 20.727630 Si / 1000 Ang^3
#
#
#
# Elastic Constant Matrix: (Units=GPa)
#
#
# Indices 1 2 3 4 5 6 
#
# 1 128.6492 21.7008 32.6574 0.0000 -10.9579 0.0000
# 2 21.7008 126.8027 36.3176 0.0000 -5.1682 0.0000
# 3 32.6574 36.3176 96.2979 0.0000 -3.6881 0.0000
# 4 0.0000 0.0000 0.0000 16.8682 0.0000 1.2146
# 5 -10.9579 -5.1682 -3.6881 0.0000 32.5360 0.0000
# 6 0.0000 0.0000 0.0000 1.2146 0.0000 7.5484
#
#
#
# Elastic Compliance Matrix: (Units=1/GPa)
#
#
# Indices 1 2 3 4 5 6 
#
# 1 0.008767 -0.000642 -0.002633 0.000000 0.002552 0.000000
# 2 -0.000642 0.008923 -0.003115 0.000000 0.000848 0.000000
# 3 -0.002633 -0.003115 0.012453 0.000000 0.000030 0.000000
# 4 0.000000 0.000000 0.000000 0.059978 0.000000 -0.009651
# 5 0.002552 0.000848 0.000030 0.000000 0.031733 0.000000
# 6 0.000000 0.000000 0.000000 -0.009651 0.000000 0.134032
#
#
# Mechanical properties :
#
#
# Convention : Reuss Voigt Hill
#
# Bulk Modulus (GPa) = 57.59458 59.23349 58.41404
# Shear Modulus (GPa) = 18.21798 28.79545 23.50671
#
# Velocity S-wave (km/s) = 2.96788 3.73128 3.37126
# Velocity P-wave (km/s) = 6.29215 6.87040 6.58762
#
# Compressibility (1/GPa) = 0.01736274
#
# Stress axis : x y z
#
# Youngs Moduli (GPa) = 114.06086 112.07160 80.29961
#
# Poissons Ratio (x) = 0.07197 0.21145
# Poissons Ratio (y) = 0.07325 0.25012
# Poissons Ratio (z) = 0.30035 0.34909
#
# Static dielectric constant tensor:
#      x y z
#    x 1.806130 0.000000 -0.006320 
#    y 0.000000 1.728860 0.000000 
#    z -0.006320 0.000000 1.774190 
# 
# From -- ./inp_files/7777.got.cif
#   From: 2010.05.17/outbox.cif.g08.bks.cpg/sg10_4_cif.got.tgz:7777.got - 2010.06.03 11:33:40.
