data_PCOD9154966
_publ_section_title
;
Structure prediction by ZEFSAII (Michael W. Deem and Ramdas Pophale) SiO2 
 PCOD9154966
Probable space group: P 2/M
;
_chemical_formula_sum "Si O2"
_cell_formula_units_Z 32
_cell_length_a 7.327973
_cell_length_b 7.350741
_cell_length_c 27.188642
_cell_angle_alpha 90.000000
_cell_angle_beta 59.901463
_cell_angle_gamma 90.000000
_cell_volume 1267.071291
_symmetry_space_group_name_H-M "P 2/M"
_symmetry_group_IT_number 10
_symmetry_cell_setting 'monoclinic'
loop_
_space_group_symop_operation_xyz
x,y,z
-x,y,-z
-x,-y,-z
x,-y,z
loop_
_atom_site_type_symbol
_atom_site_label
_atom_site_fract_x
_atom_site_fract_y
_atom_site_fract_z
Si Si1 0.954960 0.708754 0.138098
Si Si2 0.595279 0.290537 0.103657
Si Si3 0.629541 0.278904 0.254896
Si Si4 0.692207 0.209998 0.622902
Si Si5 0.974457 0.218194 0.342552
Si Si6 0.521070 0.223010 0.440921
Si Si7 0.285361 0.283975 0.220482
Si Si8 0.741005 0.707641 0.983436
O O1 0.020084 0.500000 0.141038
O O2 0.755925 0.704524 0.127501
O O3 0.851943 0.784305 0.201892
O O4 0.133334 0.791882 0.079211
O O5 0.553434 0.500000 0.093639
O O6 0.376807 0.214000 0.155896
O O7 0.721797 0.209100 0.040415
O O8 0.634662 0.500000 0.254454
O O9 0.536228 0.216599 0.319158
O O10 0.447954 0.217488 0.240678
O O11 0.858790 0.289785 0.639047
O O12 0.658327 0.285158 0.573042
O O13 0.753867 0.000000 0.608636
O O14 0.059603 0.259273 0.276343
O O15 0.745179 0.282583 0.388821
O O16 0.973981 0.000000 0.345383
O O17 0.500000 0.279866 0.500000
O O18 0.517527 0.000000 0.441000
O O19 0.314128 0.500000 0.212620
O O20 0.829636 0.500000 0.976205
O O21 0.500000 0.699006 0.000000
#
# Coordination Sequence:
#
# PCOD9154966 Si02
#       8
#     4   4   4   4   4   4   4   4
#     4   8  13  22  36  52  73 106 143 175 213 261
#     4   8  13  22  36  52  73 106 143 175 213 261
#     4   8  14  26  44  65  89 116 147 183 223 266
#     4   9  17  30  49  71  93 118 149 184 221 261
#     4   9  17  30  49  71  93 118 149 184 221 261
#     4   9  18  32  49  71  97 120 147 184 220 259
#     4   8  14  26  44  65  89 116 147 183 223 266
#     4   9  15  21  29  47  78 107 134 176 221 256
#
# _framework density 25.255091
#
# number of rings (size 3 to 8) (size 9 to 14) (size 15 to 20)
#    0.000    3.500    0.000    1.875    0.000    2.000 
#    2.250    3.125    0.000    1.500    0.000    4.375 
#    0.000    7.000    0.000    0.000    0.000    0.000 
#
# Total GULP energy -178459.268522 kJ/mol
# GULP energy per Si atom -5576.852141 kJ/mol
# Density = 2.519761 g / cm^3
# Si number density = 25.255091 Si / 1000 Ang^3
#
#
#
# Elastic Constant Matrix: (Units=GPa)
#
#
# Indices 1 2 3 4 5 6 
#
# 1 64.2912 -4.9898 37.1983 0.0000 9.2762 0.0000
# 2 -4.9898 94.2374 -8.1106 0.0000 1.5749 0.0000
# 3 37.1983 -8.1106 98.0623 0.0000 19.5393 0.0000
# 4 0.0000 0.0000 0.0000 13.6391 0.0000 -6.8662
# 5 9.2762 1.5749 19.5393 0.0000 46.7993 0.0000
# 6 0.0000 0.0000 0.0000 -6.8662 0.0000 -5.4009
#
#
#
# Elastic Compliance Matrix: (Units=1/GPa)
#
#
# Indices 1 2 3 4 5 6 
#
# 1 0.019978 0.000439 -0.007363 0.000000 -0.000901 0.000000
# 2 0.000439 0.010724 0.000883 0.000000 -0.000817 0.000000
# 3 -0.007363 0.000883 0.013938 0.000000 -0.004390 0.000000
# 4 0.000000 0.000000 0.000000 0.044707 0.000000 -0.056835
# 5 -0.000901 -0.000817 -0.004390 0.000000 0.023407 0.000000
# 6 0.000000 0.000000 0.000000 -0.056835 0.000000 -0.112899
#
#
# Mechanical properties :
#
#
# Convention : Reuss Voigt Hill
#
# Bulk Modulus (GPa) = 30.71224 33.86518 32.28871
# Shear Modulus (GPa) = 219.40298 26.50703 122.95501
#
# Velocity S-wave (km/s) = 9.33077 3.24322 6.98505
# Velocity P-wave (km/s) = 11.32571 5.24052 8.82425
#
# Compressibility (1/GPa) = 0.03256031
#
# Stress axis : x y z
#
# Youngs Moduli (GPa) = 50.05455 93.24520 71.74530
#
# Poissons Ratio (x) = -0.04096 0.52823
# Poissons Ratio (y) = -0.02199 -0.06336
# Poissons Ratio (z) = 0.36853 -0.08235
#
# Static dielectric constant tensor:
#      x y z
#    x 2.022470 0.000000 0.000380 
#    y 0.000000 2.042090 0.000000 
#    z 0.000380 0.000000 2.043430 
# 
# From -- ./inp_files/88002.got.cif
#   From: 2010.05.17/outbox.cif.g08.bks.cpg/sg10_45_cif.got.tgz:88002.got - 2010.06.03 11:33:40.
