data_PCOD9154670
_publ_section_title
;
Structure prediction by ZEFSAII (Michael W. Deem and Ramdas Pophale) SiO2 
 PCOD9154670
Probable space group: P 2/M
;
_chemical_formula_sum "Si O2"
_cell_formula_units_Z 24
_cell_length_a 11.648019
_cell_length_b 7.581775
_cell_length_c 24.972379
_cell_angle_alpha 90.000000
_cell_angle_beta 35.031539
_cell_angle_gamma 90.000000
_cell_volume 1265.946628
_symmetry_space_group_name_H-M "P 2/M"
_symmetry_group_IT_number 10
_symmetry_cell_setting 'monoclinic'
loop_
_space_group_symop_operation_xyz
x,y,z
-x,y,-z
-x,-y,-z
x,-y,z
loop_
_atom_site_type_symbol
_atom_site_label
_atom_site_fract_x
_atom_site_fract_y
_atom_site_fract_z
Si Si1 0.544756 0.292232 0.713306
Si Si2 0.857301 0.716849 0.682771
Si Si3 0.170898 0.295891 0.481166
Si Si4 0.304540 0.284963 0.143126
Si Si5 0.094861 0.795439 0.909657
Si Si6 0.240952 0.713441 0.047251
O O1 0.591830 0.500000 0.692952
O O2 0.671403 0.226564 0.715995
O O3 0.637428 0.217219 0.622603
O O4 0.309935 0.276896 0.810978
O O5 0.860706 0.500000 0.681710
O O6 0.817457 0.774282 0.758497
O O7 0.059202 0.778848 0.575884
O O8 0.215741 0.500000 0.477675
O O9 0.000000 0.294589 0.500000
O O10 0.303496 0.500000 0.143450
O O11 0.224696 0.229706 0.115433
O O12 0.538092 0.232497 0.057196
O O13 0.933773 0.777900 0.924164
O O14 0.133528 0.000000 0.906057
O O15 0.000000 0.715404 0.000000
O O16 0.236123 0.500000 0.048164
#
# Coordination Sequence:
#
# PCOD9154670 Si02
#       6
#     4   4   4   4   4   4
#     4   9  16  27  46  69  90 115 145 175 211 256
#     4   8  12  21  42  71  96 113 135 174 221 258
#     4   7  11  20  37  65  94 113 135 172 214 254
#     4   8  14  25  44  69  92 112 138 178 219 253
#     4  11  23  34  43  60  88 118 146 177 214 256
#     4   9  17  30  47  67  89 113 145 179 212 254
#
# _framework density 18.958143
#
# number of rings (size 3 to 8) (size 9 to 14) (size 15 to 20)
#    0.000    3.333    0.000    4.500    0.000    2.667 
#    0.000    1.667    0.000    6.500    0.000    7.000 
#    0.000    0.000    0.000    0.000    0.000    0.000 
#
# Total GULP energy -133661.369696 kJ/mol
# GULP energy per Si atom -5569.223737 kJ/mol
# Density = 1.891499 g / cm^3
# Si number density = 18.958143 Si / 1000 Ang^3
#
#
#
# Elastic Constant Matrix: (Units=GPa)
#
#
# Indices 1 2 3 4 5 6 
#
# 1 79.1875 -6.3302 78.6500 0.0000 16.0664 0.0000
# 2 -6.3302 36.4048 1.0471 0.0000 4.1120 0.0000
# 3 78.6500 1.0471 183.7652 0.0000 33.2068 0.0000
# 4 0.0000 0.0000 0.0000 46.2655 0.0000 -67.5831
# 5 16.0664 4.1120 33.2068 0.0000 35.1597 0.0000
# 6 0.0000 0.0000 0.0000 -67.5831 0.0000 69.7830
#
#
#
# Elastic Compliance Matrix: (Units=1/GPa)
#
#
# Indices 1 2 3 4 5 6 
#
# 1 0.022711 0.004450 -0.009376 0.000000 -0.002043 0.000000
# 2 0.004450 0.028749 -0.001318 0.000000 -0.004151 0.000000
# 3 -0.009376 -0.001318 0.010442 0.000000 -0.005424 0.000000
# 4 0.000000 0.000000 0.000000 -0.052118 0.000000 -0.050475
# 5 -0.002043 -0.004151 -0.005424 0.000000 0.034983 0.000000
# 6 0.000000 0.000000 0.000000 -0.050475 0.000000 -0.034554
#
#
# Mechanical properties :
#
#
# Convention : Reuss Voigt Hill
#
# Bulk Modulus (GPa) = 20.23771 49.56572 34.90171
# Shear Modulus (GPa) = 127.63381 45.30768 86.47074
#
# Velocity S-wave (km/s) = 8.21402 4.89394 6.76095
# Velocity P-wave (km/s) = 10.03286 7.62468 8.91050
#
# Compressibility (1/GPa) = 0.04941271
#
# Stress axis : x y z
#
# Youngs Moduli (GPa) = 44.03112 34.78340 95.76405
#
# Poissons Ratio (x) = -0.15477 0.89793
# Poissons Ratio (y) = -0.19592 0.12623
# Poissons Ratio (z) = 0.41286 0.04585
#
# Static dielectric constant tensor:
#      x y z
#    x 1.620720 0.000000 0.046070 
#    y 0.000000 1.709750 0.000000 
#    z 0.046070 0.000000 1.700560 
# 
# From -- ./inp_files/52616.got.cif
#   From: 2010.05.17/outbox.cif.g08.bks.cpg/sg10_27_cif.got.tgz:52616.got - 2010.06.03 11:33:40.
