data_PCOD9154006
_publ_section_title
;
Structure prediction by ZEFSAII (Michael W. Deem and Ramdas Pophale) SiO2 
 PCOD9154006
Probable space group: P 2/M
;
_chemical_formula_sum "Si O2"
_cell_formula_units_Z 28
_cell_length_a 13.590981
_cell_length_b 18.093569
_cell_length_c 4.928008
_cell_angle_alpha 90.000000
_cell_angle_beta 122.515289
_cell_angle_gamma 90.000000
_cell_volume 1021.884452
_symmetry_space_group_name_H-M "P 2/M"
_symmetry_group_IT_number 10
_symmetry_cell_setting 'monoclinic'
loop_
_space_group_symop_operation_xyz
x,y,z
-x,y,-z
-x,-y,-z
x,-y,z
loop_
_atom_site_type_symbol
_atom_site_label
_atom_site_fract_x
_atom_site_fract_y
_atom_site_fract_z
Si Si1 0.269863 0.788869 0.071490
Si Si2 0.102005 0.283474 0.445421
Si Si3 0.323576 0.579909 0.949404
Si Si4 0.634322 0.918619 0.094410
Si Si5 0.571863 0.304879 0.326879
Si Si6 0.829697 0.418222 0.763834
Si Si7 0.875938 0.876146 0.770669
O O1 0.327823 0.747327 0.408689
O O2 0.165944 0.842203 0.007519
O O3 0.220600 0.725990 0.799331
O O4 0.358987 0.847752 0.086587
O O5 0.113279 0.338039 0.203372
O O6 0.089330 0.198752 0.337462
O O7 0.000000 0.307183 0.500000
O O8 0.385339 0.500000 0.048919
O O9 0.389228 0.632463 0.833402
O O10 0.278944 0.592644 0.189972
O O11 0.205276 0.571542 0.601754
O O12 0.753819 0.908631 0.461480
O O13 0.651232 0.000000 0.988592
O O14 0.500000 0.920205 0.000000
O O15 0.500000 0.326557 0.500000
O O16 0.500000 0.257673 0.000000
O O17 0.879142 0.500000 0.920182
O O18 0.000000 0.917263 0.000000
#
# Coordination Sequence:
#
# PCOD9154006 Si02
#       7
#     4   4   4   4   4   4   4
#     4  11  27  48  77 114 166 209 274 341 416 501
#     4  11  24  45  76 111 157 212 274 348 429 499
#     4  10  23  46  70 100 152 214 270 341 427 506
#     4  10  26  52  82 121 172 225 272 333 417 504
#     4  12  29  45  74 117 155 208 277 348 420 494
#     4  10  23  42  71 105 150 213 276 344 426 504
#     4  11  24  44  78 120 163 220 281 347 418 496
#
# _framework density 27.400358000000001
#
# number of rings (size 3 to 8) (size 9 to 14) (size 15 to 20)
#    0.000    1.286    1.429    1.714   12.000    1.714 
#    2.571    2.143    0.000    3.429    0.000    0.000 
#    0.000    0.000    0.000    0.000    0.000    0.000 
#
# Total GULP energy -155994.859080 kJ/mol
# GULP energy per Si atom -5571.244967 kJ/mol
# Density = 2.733799 g / cm^3
# Si number density = 27.400358 Si / 1000 Ang^3
#
#
#
# Elastic Constant Matrix: (Units=GPa)
#
#
# Indices 1 2 3 4 5 6 
#
# 1 201.1741 88.6659 55.8852 0.0000 -8.0787 0.0000
# 2 88.6659 179.3162 35.1222 0.0000 -11.1892 0.0000
# 3 55.8852 35.1222 160.1019 0.0000 -6.0246 0.0000
# 4 0.0000 0.0000 0.0000 -45.6740 0.0000 -83.1998
# 5 -8.0787 -11.1892 -6.0246 0.0000 60.5685 0.0000
# 6 0.0000 0.0000 0.0000 -83.1998 0.0000 -131.5961
#
#
#
# Elastic Compliance Matrix: (Units=1/GPa)
#
#
# Indices 1 2 3 4 5 6 
#
# 1 0.006775 -0.003006 -0.001699 0.000000 0.000179 0.000000
# 2 -0.003006 0.007216 -0.000501 0.000000 0.000882 0.000000
# 3 -0.001699 -0.000501 0.006963 0.000000 0.000374 0.000000
# 4 0.000000 0.000000 0.000000 0.144343 0.000000 -0.091259
# 5 0.000179 0.000882 0.000374 0.000000 0.016734 0.000000
# 6 0.000000 0.000000 0.000000 -0.091259 0.000000 0.050098
#
#
# Mechanical properties :
#
#
# Convention : Reuss Voigt Hill
#
# Bulk Modulus (GPa) = 94.84594 99.99321 97.41958
# Shear Modulus (GPa) = 20.32069 0.72093 10.52081
#
# Velocity S-wave (km/s) = 2.72623 0.51350 1.96163
# Velocity P-wave (km/s) = 6.67830 6.07653 6.38451
#
# Compressibility (1/GPa) = 0.01054341
#
# Stress axis : x y z
#
# Youngs Moduli (GPa) = 147.60671 138.57687 143.62023
#
# Poissons Ratio (x) = 0.41656 0.24396
# Poissons Ratio (y) = 0.44371 0.07189
# Poissons Ratio (z) = 0.25073 0.06937
#
# Static dielectric constant tensor:
#      x y z
#    x 2.342460 0.000000 0.203890 
#    y 0.000000 2.280530 0.000000 
#    z 0.203890 0.000000 2.330720 
# 
# From -- ./inp_files/9849.got.cif
#   From: 2010.05.17/outbox.cif.g08.bks.cpg/sg10_5_cif.got.tgz:9849.got - 2010.06.03 11:33:40.
