data_PCOD9154723
_publ_section_title
;
Structure prediction by ZEFSAII (Michael W. Deem and Ramdas Pophale) SiO2 
 PCOD9154723
Probable space group: P 2/M
;
_chemical_formula_sum "Si O2"
_cell_formula_units_Z 20
_cell_length_a 11.601993
_cell_length_b 8.436692
_cell_length_c 17.370418
_cell_angle_alpha 90.000000
_cell_angle_beta 148.840983
_cell_angle_gamma 90.000000
_cell_volume 879.739548
_symmetry_space_group_name_H-M "P 2/M"
_symmetry_group_IT_number 10
_symmetry_cell_setting 'monoclinic'
loop_
_space_group_symop_operation_xyz
x,y,z
-x,y,-z
-x,-y,-z
x,-y,z
loop_
_atom_site_type_symbol
_atom_site_label
_atom_site_fract_x
_atom_site_fract_y
_atom_site_fract_z
Si Si1 0.908359 0.683922 0.360436
Si Si2 0.717475 0.819225 0.528559
Si Si3 0.948926 0.688055 0.804582
Si Si4 0.327526 0.683392 0.210535
Si Si5 0.419360 0.184904 0.097953
O O1 0.938498 0.500000 0.355251
O O2 0.649743 0.729249 0.210055
O O3 0.000000 0.701546 0.500000
O O4 0.056999 0.793063 0.391082
O O5 0.781266 0.775610 0.651694
O O6 0.537655 0.703925 0.387501
O O7 0.639739 0.000000 0.478001
O O8 0.926946 0.500000 0.781478
O O9 0.880280 0.723760 0.853501
O O10 0.200979 0.741531 0.933815
O O11 0.308521 0.500000 0.174028
O O12 0.377086 0.788909 0.164981
O O13 0.436593 0.000000 0.090041
#
# Coordination Sequence:
#
# PCOD9154723 Si02
#       5
#     4   4   4   4   4
#     4  11  23  42  69  94 124 167 215 259 310 382
#     4  12  25  41  66  98 131 165 210 267 322 372
#     4  11  25  44  65  92 131 173 215 259 312 381
#     4  11  23  42  67  94 127 173 219 257 308 379
#     4  12  25  41  66  98 131 165 210 267 322 372
#
# _framework density 22.734000999999999
#
# number of rings (size 3 to 8) (size 9 to 14) (size 15 to 20)
#    0.000    0.600    2.000    6.600    0.000    9.600 
#    0.000    4.000    0.000    0.000    0.000    0.000 
#    0.000    0.000    0.000    0.000    0.000    0.000 
#
# Total GULP energy -112074.937759 kJ/mol
# GULP energy per Si atom -5603.746888 kJ/mol
# Density = 2.268226 g / cm^3
# Si number density = 22.734001 Si / 1000 Ang^3
#
#
#
# Elastic Constant Matrix: (Units=GPa)
#
#
# Indices 1 2 3 4 5 6 
#
# 1 42.2562 3.2745 -7.9945 0.0000 8.2279 0.0000
# 2 3.2745 66.6518 -12.4617 0.0000 -2.2103 0.0000
# 3 -7.9945 -12.4617 75.1765 0.0000 19.4119 0.0000
# 4 0.0000 0.0000 0.0000 -179.9355 0.0000 -20.7345
# 5 8.2279 -2.2103 19.4119 0.0000 41.5408 0.0000
# 6 0.0000 0.0000 0.0000 -20.7345 0.0000 28.2429
#
#
#
# Elastic Compliance Matrix: (Units=1/GPa)
#
#
# Indices 1 2 3 4 5 6 
#
# 1 0.025999 -0.000671 0.004540 0.000000 -0.007307 0.000000
# 2 -0.000671 0.015507 0.002561 0.000000 -0.000239 0.000000
# 3 0.004540 0.002561 0.016383 0.000000 -0.008419 0.000000
# 4 0.000000 0.000000 0.000000 -0.005124 0.000000 -0.003762
# 5 -0.007307 -0.000239 -0.008419 0.000000 0.029441 0.000000
# 6 0.000000 0.000000 0.000000 -0.003762 0.000000 0.032645
#
#
# Mechanical properties :
#
#
# Convention : Reuss Voigt Hill
#
# Bulk Modulus (GPa) = 14.13415 16.63566 15.38490
# Shear Modulus (GPa) = 39.81698 -8.61264 15.60217
#
# Velocity S-wave (km/s) = 4.18955 -1.94850 2.62256
# Velocity P-wave (km/s) = 5.44369 1.50705 3.99406
#
# Compressibility (1/GPa) = 0.07075063
#
# Stress axis : x y z
#
# Youngs Moduli (GPa) = 38.46312 64.48620 61.03781
#
# Poissons Ratio (x) = 0.04325 -0.27714
# Poissons Ratio (y) = 0.02580 -0.15631
# Poissons Ratio (z) = -0.17464 -0.16514
#
# Static dielectric constant tensor:
#      x y z
#    x 1.849620 0.000000 -0.003940 
#    y 0.000000 1.746790 0.000000 
#    z -0.003940 0.000000 1.843240 
# 
# From -- ./inp_files/40882.got.cif
#   From: 2010.05.17/outbox.cif.g08.bks.cpg/sg10_21_cif.got.tgz:40882.got - 2010.06.03 11:33:40.
