data_PCOD9154996
_publ_section_title
;
Structure prediction by ZEFSAII (Michael W. Deem and Ramdas Pophale) SiO2 
 PCOD9154996
Probable space group: P 2/M
;
_chemical_formula_sum "Si O2"
_cell_formula_units_Z 28
_cell_length_a 23.783060
_cell_length_b 9.842645
_cell_length_c 21.211686
_cell_angle_alpha 90.000000
_cell_angle_beta 18.337658
_cell_angle_gamma 90.000000
_cell_volume 1562.198099
_symmetry_space_group_name_H-M "P 2/M"
_symmetry_group_IT_number 10
_symmetry_cell_setting 'monoclinic'
loop_
_space_group_symop_operation_xyz
x,y,z
-x,y,-z
-x,-y,-z
x,-y,z
loop_
_atom_site_type_symbol
_atom_site_label
_atom_site_fract_x
_atom_site_fract_y
_atom_site_fract_z
Si Si1 0.058298 0.843906 0.755079
Si Si2 0.713302 0.165531 0.957515
Si Si3 0.628318 0.156094 0.185060
Si Si4 0.003226 0.654831 0.068328
Si Si5 0.884129 0.834471 0.445055
Si Si6 0.536724 0.165866 0.889840
Si Si7 0.574780 0.654832 0.353667
O O1 0.143687 0.795025 0.598403
O O2 0.090685 0.749575 0.780538
O O3 0.110760 0.000000 0.711203
O O4 0.843383 0.845016 0.969844
O O5 0.919268 0.210016 0.742186
O O6 0.714102 0.000000 0.957767
O O7 0.614213 0.204971 0.127879
O O8 0.612846 0.208556 0.001442
O O9 0.538087 0.250429 0.333137
O O10 0.567269 0.000000 0.254697
O O11 0.933350 0.500000 0.142649
O O12 0.211205 0.649340 0.866386
O O13 0.000000 0.706446 0.000000
O O14 0.727146 0.791439 0.658568
O O15 0.885980 0.000000 0.442152
O O16 0.536237 0.000000 0.891300
O O17 0.500000 0.211747 0.000000
O O18 0.500000 0.706449 0.500000
O O19 0.509350 0.500000 0.414653
#
# Coordination Sequence:
#
# PCOD9154996 Si02
#       7
#     4   4   4   4   4   4   4
#     4   8  14  26  43  59  79 110 143 175 212 255
#     4   8  14  25  39  55  79 111 143 176 216 256
#     4   8  14  26  43  59  79 110 143 175 212 255
#     4   9  17  29  43  59  82 110 138 173 217 259
#     4   8  14  25  39  55  79 111 143 176 216 256
#     4   9  16  24  36  58  87 115 143 175 213 263
#     4   9  17  29  43  59  82 110 138 173 217 259
#
# _framework density 17.923463000000002
#
# number of rings (size 3 to 8) (size 9 to 14) (size 15 to 20)
#    0.000    3.571    0.000    1.714    0.000    1.143 
#    2.571    2.857    0.000    0.000    0.000    0.000 
#    0.000    2.286    0.000   11.143    0.000   11.429 
#
# Total GULP energy -155934.787520 kJ/mol
# GULP energy per Si atom -5569.099554 kJ/mol
# Density = 1.788267 g / cm^3
# Si number density = 17.923463 Si / 1000 Ang^3
#
#
#
# Elastic Constant Matrix: (Units=GPa)
#
#
# Indices 1 2 3 4 5 6 
#
# 1 165.8671 45.1429 70.7849 0.0000 40.1939 0.0000
# 2 45.1429 26.0898 26.1439 0.0000 17.9739 0.0000
# 3 70.7849 26.1439 93.8372 0.0000 27.9423 0.0000
# 4 0.0000 0.0000 0.0000 1.0395 0.0000 -3.8166
# 5 40.1939 17.9739 27.9423 0.0000 37.8849 0.0000
# 6 0.0000 0.0000 0.0000 -3.8166 0.0000 -3.0074
#
#
#
# Elastic Compliance Matrix: (Units=1/GPa)
#
#
# Indices 1 2 3 4 5 6 
#
# 1 0.013001 -0.016009 -0.004486 0.000000 -0.002889 0.000000
# 2 -0.016009 0.085097 -0.005982 0.000000 -0.018976 0.000000
# 3 -0.004486 -0.005982 0.017229 0.000000 -0.005110 0.000000
# 4 0.000000 0.000000 0.000000 0.169983 0.000000 -0.215718
# 5 -0.002889 -0.018976 -0.005110 0.000000 0.042232 0.000000
# 6 0.000000 0.000000 0.000000 -0.215718 0.000000 -0.058754
#
#
# Mechanical properties :
#
#
# Convention : Reuss Voigt Hill
#
# Bulk Modulus (GPa) = 16.03285 63.32636 39.67960
# Shear Modulus (GPa) = 14.59713 16.76489 15.68101
#
# Velocity S-wave (km/s) = 2.85689 3.06168 2.96106
# Velocity P-wave (km/s) = 4.45500 6.92147 5.82039
#
# Compressibility (1/GPa) = 0.06237195
#
# Stress axis : x y z
#
# Youngs Moduli (GPa) = 76.91958 11.75132 58.04115
#
# Poissons Ratio (x) = 0.18813 0.26040
# Poissons Ratio (y) = 1.23140 0.34720
# Poissons Ratio (z) = 0.34509 0.07030
#
# Static dielectric constant tensor:
#      x y z
#    x 1.624720 0.000000 -0.019680 
#    y 0.000000 1.590690 0.000000 
#    z -0.019680 0.000000 1.645510 
# 
# From -- ./inp_files/86477.got.cif
#   From: 2010.05.17/outbox.cif.g08.bks.cpg/sg10_44_cif.got.tgz:86477.got - 2010.06.03 11:33:40.
