data_PCOD9154315
_publ_section_title
;
Structure prediction by ZEFSAII (Michael W. Deem and Ramdas Pophale) SiO2 
 PCOD9154315
Probable space group: P 2/M
;
_chemical_formula_sum "Si O2"
_cell_formula_units_Z 32
_cell_length_a 14.232020
_cell_length_b 14.795118
_cell_length_c 19.838807
_cell_angle_alpha 90.000000
_cell_angle_beta 158.712707
_cell_angle_gamma 90.000000
_cell_volume 1516.563163
_symmetry_space_group_name_H-M "P 2/M"
_symmetry_group_IT_number 10
_symmetry_cell_setting 'monoclinic'
loop_
_space_group_symop_operation_xyz
x,y,z
-x,y,-z
-x,-y,-z
x,-y,z
loop_
_atom_site_type_symbol
_atom_site_label
_atom_site_fract_x
_atom_site_fract_y
_atom_site_fract_z
Si Si1 0.209995 0.903670 0.081070
Si Si2 0.842612 0.697361 0.991199
Si Si3 0.140419 0.600649 0.659581
Si Si4 0.658783 0.896115 0.212207
Si Si5 0.629361 0.283311 0.991696
Si Si6 0.669132 0.608293 0.733102
Si Si7 0.226447 0.855903 0.553280
Si Si8 0.144664 0.326591 0.416735
O O1 0.514191 0.899966 0.305171
O O2 0.178938 0.000000 0.022359
O O3 0.154501 0.806553 0.011104
O O4 0.000000 0.906169 0.000000
O O5 0.675850 0.682821 0.946116
O O6 0.129044 0.654959 0.182772
O O7 0.728900 0.651166 0.847445
O O8 0.229106 0.500000 0.701040
O O9 0.000000 0.641431 0.500000
O O10 0.935876 0.598533 0.582937
O O11 0.376883 0.660390 0.843328
O O12 0.715887 0.866796 0.328162
O O13 0.930154 0.890635 0.352600
O O14 0.572201 0.000000 0.152533
O O15 0.452101 0.821048 0.052896
O O16 0.895063 0.301716 0.206708
O O17 0.700004 0.500000 0.754603
O O18 0.376666 0.638827 0.525787
O O19 0.218828 0.758287 0.513674
#
# Coordination Sequence:
#
# PCOD9154315 Si02
#       8
#     4   4   4   4   4   4   4   4
#     4  11  20  34  62  96 124 156 207 266 313 359
#     4  11  21  41  65  95 125 163 215 267 316 372
#     4  11  24  43  67  91 117 161 218 267 315 374
#     4  11  22  39  65  95 124 168 221 269 307 365
#     4  12  26  39  63  93 135 171 200 262 328 391
#     4  11  23  43  68  93 124 165 218 273 316 374
#     4  11  20  38  64  90 125 166 217 259 305 369
#     4  12  24  41  62  92 133 171 203 255 330 388
#
# _framework density 21.100342999999999
#
# number of rings (size 3 to 8) (size 9 to 14) (size 15 to 20)
#    0.000    0.750    5.000    4.500    0.000    4.000 
#    0.000    3.125    0.000    0.000    0.000    3.500 
#    0.000    0.000    0.000    0.000    0.000    0.000 
#
# Total GULP energy -178496.285541 kJ/mol
# GULP energy per Si atom -5578.008923 kJ/mol
# Density = 2.105232 g / cm^3
# Si number density = 21.100343 Si / 1000 Ang^3
#
#
#
# Elastic Constant Matrix: (Units=GPa)
#
#
# Indices 1 2 3 4 5 6 
#
# 1 52.6627 6.1663 18.5314 0.0000 30.7028 0.0000
# 2 6.1663 154.2674 42.1716 0.0000 7.9278 0.0000
# 3 18.5314 42.1716 118.1486 0.0000 25.3000 0.0000
# 4 0.0000 0.0000 0.0000 482.5730 0.0000 715.6830
# 5 30.7028 7.9278 25.3000 0.0000 37.4717 0.0000
# 6 0.0000 0.0000 0.0000 715.6830 0.0000 971.0395
#
#
#
# Elastic Compliance Matrix: (Units=1/GPa)
#
#
# Indices 1 2 3 4 5 6 
#
# 1 0.036421 -0.000123 0.000837 0.000000 -0.030381 0.000000
# 2 -0.000123 0.007186 -0.002620 0.000000 0.000350 0.000000
# 3 0.000837 -0.002620 0.010867 0.000000 -0.007469 0.000000
# 4 0.000000 0.000000 0.000000 -0.022269 0.000000 0.016413
# 5 -0.030381 0.000350 -0.007469 0.000000 0.056549 0.000000
# 6 0.000000 0.000000 0.000000 0.016413 0.000000 -0.011067
#
#
# Mechanical properties :
#
#
# Convention : Reuss Voigt Hill
#
# Bulk Modulus (GPa) = 19.73913 50.97968 35.35940
# Shear Modulus (GPa) = 50.81991 315.43080 183.12535
#
# Velocity S-wave (km/s) = 4.91296 12.23991 9.32611
# Velocity P-wave (km/s) = 6.44655 14.96552 11.52226
#
# Compressibility (1/GPa) = 0.05066081
#
# Stress axis : x y z
#
# Youngs Moduli (GPa) = 27.45659 139.16875 92.01927
#
# Poissons Ratio (x) = 0.01717 -0.07704
# Poissons Ratio (y) = 0.00339 0.24113
# Poissons Ratio (z) = -0.02299 0.36468
#
# Static dielectric constant tensor:
#      x y z
#    x 1.774180 0.000000 0.006490 
#    y 0.000000 1.792420 0.000000 
#    z 0.006490 0.000000 1.804840 
# 
# From -- ./inp_files/85406.got.cif
#   From: 2010.05.17/outbox.cif.g08.bks.cpg/sg10_43_cif.got.tgz:85406.got - 2010.06.03 11:33:40.
