data_PCOD9154280
_publ_section_title
;
Structure prediction by ZEFSAII (Michael W. Deem and Ramdas Pophale) SiO2 
 PCOD9154280
Probable space group: P 2/M
;
_chemical_formula_sum "Si O2"
_cell_formula_units_Z 24
_cell_length_a 5.048424
_cell_length_b 20.980566
_cell_length_c 13.696031
_cell_angle_alpha 90.000000
_cell_angle_beta 122.166717
_cell_angle_gamma 90.000000
_cell_volume 1227.993404
_symmetry_space_group_name_H-M "P 2/M"
_symmetry_group_IT_number 10
_symmetry_cell_setting 'monoclinic'
loop_
_space_group_symop_operation_xyz
x,y,z
-x,y,-z
-x,-y,-z
x,-y,z
loop_
_atom_site_type_symbol
_atom_site_label
_atom_site_fract_x
_atom_site_fract_y
_atom_site_fract_z
Si Si1 0.029900 0.363387 0.262650
Si Si2 0.212346 0.074761 0.639497
Si Si3 0.713186 0.425439 0.369642
Si Si4 0.868092 0.743445 0.082274
Si Si5 0.838070 0.258816 0.569695
Si Si6 0.840509 0.851566 0.719977
O O1 0.387491 0.387988 0.323218
O O2 0.962363 0.306146 0.326440
O O3 0.830101 0.417028 0.280136
O O4 0.943675 0.325220 0.147303
O O5 0.518272 0.118531 0.692713
O O6 0.000000 0.085216 0.500000
O O7 0.044111 0.093435 0.708114
O O8 0.292617 0.000000 0.654687
O O9 0.655570 0.500000 0.378662
O O10 0.000000 0.405700 0.500000
O O11 0.007253 0.803440 0.171259
O O12 0.500000 0.751127 0.000000
O O13 0.000000 0.744552 0.000000
O O14 0.500000 0.290659 0.500000
O O15 0.783189 0.194832 0.617578
O O16 0.000000 0.247266 0.500000
#
# Coordination Sequence:
#
# PCOD9154280 Si02
#       6
#     4   4   4   4   4   4
#     4  11  22  37  59  86 115 154 198 240 292 350
#     4  11  22  37  59  89 127 163 190 223 278 356
#     4  11  22  37  59  89 127 163 190 223 278 356
#     4  11  24  43  65  86 111 150 200 260 312 340
#     4  11  20  31  52  82 116 144 178 234 289 346
#     4  11  22  37  59  86 115 154 198 240 292 350
#
# _framework density 19.544080000000001
#
# number of rings (size 3 to 8) (size 9 to 14) (size 15 to 20)
#    0.000    1.000    0.000    9.000    0.000    8.000 
#    0.000    2.500    0.000   20.000    0.000    0.000 
#    0.000    0.000    0.000    0.000    0.000    0.000 
#
# Total GULP energy -133869.121940 kJ/mol
# GULP energy per Si atom -5577.880081 kJ/mol
# Density = 1.949960 g / cm^3
# Si number density = 19.544080 Si / 1000 Ang^3
#
#
#
# Elastic Constant Matrix: (Units=GPa)
#
#
# Indices 1 2 3 4 5 6 
#
# 1 132.4187 24.9930 60.1172 0.0000 -4.2711 0.0000
# 2 24.9930 87.6125 44.9426 0.0000 10.6589 0.0000
# 3 60.1172 44.9426 116.6400 0.0000 -10.3810 0.0000
# 4 0.0000 0.0000 0.0000 31.0992 0.0000 0.4251
# 5 -4.2711 10.6589 -10.3810 0.0000 34.8542 0.0000
# 6 0.0000 0.0000 0.0000 0.4251 0.0000 35.1610
#
#
#
# Elastic Compliance Matrix: (Units=1/GPa)
#
#
# Indices 1 2 3 4 5 6 
#
# 1 0.009865 -0.000210 -0.005023 0.000000 -0.000223 0.000000
# 2 -0.000210 0.015639 -0.006518 0.000000 -0.006750 0.000000
# 3 -0.005023 -0.006518 0.014172 0.000000 0.005599 0.000000
# 4 0.000000 0.000000 0.000000 0.032161 0.000000 -0.000389
# 5 -0.000223 -0.006750 0.005599 0.000000 0.032395 0.000000
# 6 0.000000 0.000000 0.000000 -0.000389 0.000000 0.028445
#
#
# Mechanical properties :
#
#
# Convention : Reuss Voigt Hill
#
# Bulk Modulus (GPa) = 61.83332 66.30855 64.07093
# Shear Modulus (GPa) = 30.94621 33.99744 32.47183
#
# Velocity S-wave (km/s) = 3.98352 4.17529 4.08053
# Velocity P-wave (km/s) = 7.27080 7.56607 7.41990
#
# Compressibility (1/GPa) = 0.01617251
#
# Stress axis : x y z
#
# Youngs Moduli (GPa) = 101.37038 63.94428 70.56062
#
# Poissons Ratio (x) = 0.01344 0.35444
# Poissons Ratio (y) = 0.02131 0.45992
# Poissons Ratio (z) = 0.50921 0.41680
#
# Static dielectric constant tensor:
#      x y z
#    x 1.700550 0.000000 0.012380 
#    y 0.000000 1.747100 0.000000 
#    z 0.012380 0.000000 1.712600 
# 
# From -- ./inp_files/39647.got.cif
#   From: 2010.05.17/outbox.cif.g08.bks.cpg/sg10_20_cif.got.tgz:39647.got - 2010.06.03 11:33:40.
