data_PCOD9154789
_publ_section_title
;
Structure prediction by ZEFSAII (Michael W. Deem and Ramdas Pophale) SiO2 
 PCOD9154789
Probable space group: P 2/M
;
_chemical_formula_sum "Si O2"
_cell_formula_units_Z 21
_cell_length_a 11.315642
_cell_length_b 11.138949
_cell_length_c 14.819747
_cell_angle_alpha 90.000000
_cell_angle_beta 30.539447
_cell_angle_gamma 90.000000
_cell_volume 949.161875
_symmetry_space_group_name_H-M "P 2/M"
_symmetry_group_IT_number 10
_symmetry_cell_setting 'monoclinic'
loop_
_space_group_symop_operation_xyz
x,y,z
-x,y,-z
-x,-y,-z
x,-y,z
loop_
_atom_site_type_symbol
_atom_site_label
_atom_site_fract_x
_atom_site_fract_y
_atom_site_fract_z
Si Si1 0.183524 0.141065 0.300470
Si Si2 0.010105 0.743461 0.754416
Si Si3 0.791472 0.134449 0.210118
Si Si4 0.472370 0.683145 0.864507
Si Si5 0.470489 0.634490 0.379791
Si Si6 0.500000 0.500000 0.000000
O O1 0.100384 0.203109 0.263470
O O2 0.431052 0.185803 0.175192
O O3 0.000000 0.171343 0.500000
O O4 0.186046 0.000000 0.284819
O O5 0.105914 0.846099 0.757637
O O6 0.220640 0.656614 0.589101
O O7 0.805238 0.676433 0.942954
O O8 0.626125 0.249698 0.303748
O O9 0.685800 0.000000 0.271191
O O10 0.000000 0.141446 0.000000
O O11 0.548289 0.643240 0.716050
O O12 0.570965 0.602146 0.879132
O O13 0.558351 0.500000 0.345281
#
# Coordination Sequence:
#
# PCOD9154789 Si02
#       6
#     4   4   4   4   4   1
#     4  11  24  43  71 108 143 182 234 290 355 430
#     4  12  25  45  73 105 139 191 236 293 357 428
#     4  11  26  49  76 106 143 191 242 298 362 430
#     4  12  25  45  70 105 142 190 232 293 353 424
#     4  12  28  47  73 107 144 186 241 298 357 422
#     4  12  24  44  72 102 144 190 244 278 362 422
#
# _framework density 22.124783999999998
#
# number of rings (size 3 to 8) (size 9 to 14) (size 15 to 20)
#    0.000    0.381    6.667    1.143    1.333    7.238 
#    0.000    2.381    0.000    0.000    0.000    0.000 
#    0.000    0.000    0.000    0.000    0.000    0.000 
#
# Total GULP energy -117158.407990 kJ/mol
# GULP energy per Si atom -5578.971809 kJ/mol
# Density = 2.207443 g / cm^3
# Si number density = 22.124784 Si / 1000 Ang^3
#
#
#
# Elastic Constant Matrix: (Units=GPa)
#
#
# Indices 1 2 3 4 5 6 
#
# 1 78.8027 50.9695 16.7209 0.0000 14.8353 0.0000
# 2 50.9695 115.0995 55.7512 0.0000 0.7264 0.0000
# 3 16.7209 55.7512 99.9390 0.0000 -3.2232 0.0000
# 4 0.0000 0.0000 0.0000 19.1783 0.0000 -6.0266
# 5 14.8353 0.7264 -3.2232 0.0000 32.5723 0.0000
# 6 0.0000 0.0000 0.0000 -6.0266 0.0000 45.8767
#
#
#
# Elastic Compliance Matrix: (Units=1/GPa)
#
#
# Indices 1 2 3 4 5 6 
#
# 1 0.020324 -0.009809 0.001786 0.000000 -0.008861 0.000000
# 2 -0.009809 0.016667 -0.007549 0.000000 0.003349 0.000000
# 3 0.001786 -0.007549 0.013942 0.000000 0.000735 0.000000
# 4 0.000000 0.000000 0.000000 0.054387 0.000000 0.007145
# 5 -0.008861 0.003349 0.000735 0.000000 0.034735 0.000000
# 6 0.000000 0.000000 0.000000 0.007145 0.000000 0.022736
#
#
# Mechanical properties :
#
#
# Convention : Reuss Voigt Hill
#
# Bulk Modulus (GPa) = 50.53272 60.08049 55.30661
# Shear Modulus (GPa) = 24.93379 30.88542 27.90961
#
# Velocity S-wave (km/s) = 3.36067 3.74031 3.55556
# Velocity P-wave (km/s) = 6.16021 6.77256 6.47363
#
# Compressibility (1/GPa) = 0.01978916
#
# Stress axis : x y z
#
# Youngs Moduli (GPa) = 49.20380 59.99853 71.72567
#
# Poissons Ratio (x) = 0.58853 -0.12809
# Poissons Ratio (y) = 0.48264 0.54143
# Poissons Ratio (z) = -0.08787 0.45291
#
# Static dielectric constant tensor:
#      x y z
#    x 1.820650 0.000000 -0.031830 
#    y 0.000000 1.814940 0.000000 
#    z -0.031830 0.000000 1.817960 
# 
# From -- ./inp_files/64608.got.cif
#   From: 2010.05.17/outbox.cif.g08.bks.cpg/sg10_33_cif.got.tgz:64608.got - 2010.06.03 11:33:40.
