data_PCOD9154403
_publ_section_title
;
Structure prediction by ZEFSAII (Michael W. Deem and Ramdas Pophale) SiO2 
 PCOD9154403
Probable space group: P 2/M
;
_chemical_formula_sum "Si O2"
_cell_formula_units_Z 32
_cell_length_a 9.847190
_cell_length_b 13.847733
_cell_length_c 12.920603
_cell_angle_alpha 90.000000
_cell_angle_beta 77.315593
_cell_angle_gamma 90.000000
_cell_volume 1718.870084
_symmetry_space_group_name_H-M "P 2/M"
_symmetry_group_IT_number 10
_symmetry_cell_setting 'monoclinic'
loop_
_space_group_symop_operation_xyz
x,y,z
-x,y,-z
-x,-y,-z
x,-y,z
loop_
_atom_site_type_symbol
_atom_site_label
_atom_site_fract_x
_atom_site_fract_y
_atom_site_fract_z
Si Si1 0.516128 0.886010 0.163550
Si Si2 0.231304 0.611219 0.471925
Si Si3 0.980398 0.204340 0.806494
Si Si4 0.727907 0.114713 0.936228
Si Si5 0.262425 0.883239 0.719974
Si Si6 0.019997 0.610866 0.321303
Si Si7 0.346901 0.189140 0.491771
Si Si8 0.112647 0.885280 0.395993
O O1 0.372536 0.848863 0.140384
O O2 0.593006 0.848748 0.252319
O O3 0.492029 0.000000 0.183633
O O4 0.632691 0.877860 0.053861
O O5 0.281423 0.500000 0.462234
O O6 0.149107 0.630263 0.377964
O O7 0.339941 0.696246 0.473722
O O8 0.115659 0.619058 0.582227
O O9 0.867941 0.175617 0.910788
O O10 0.987812 0.315611 0.772024
O O11 0.925617 0.154390 0.709477
O O12 0.130721 0.158816 0.802600
O O13 0.758672 0.000000 0.917098
O O14 0.254999 0.842468 0.605918
O O15 0.257801 0.000000 0.720110
O O16 0.030489 0.500000 0.285814
O O17 0.500000 0.156175 0.500000
O O18 0.267330 0.141357 0.408701
O O19 0.000000 0.848178 0.500000
O O20 0.100636 0.000000 0.394565
#
# Coordination Sequence:
#
# PCOD9154403 Si02
#       8
#     4   4   4   4   4   4   4   4
#     4   8  18  36  52  71 103 135 169 207 245 295
#     4   9  17  34  53  69  93 131 176 219 255 289
#     4  12  20  31  53  78  99 127 169 213 250 297
#     4   9  18  34  55  76  99 133 169 206 250 296
#     4  11  22  34  48  72 105 138 169 206 247 294
#     4   9  17  31  54  75  94 126 170 216 254 294
#     4  12  24  34  47  73 107 143 172 206 252 302
#     4  11  21  34  48  67 104 144 174 201 235 292
#
# _framework density 18.616879999999998
#
# number of rings (size 3 to 8) (size 9 to 14) (size 15 to 20)
#    0.000    1.875    3.750    3.000    1.750    1.750 
#    0.000    1.875    0.000    0.000    0.000    4.375 
#    0.000    0.000    0.000    0.000    0.000    0.000 
#
# Total GULP energy -178569.753164 kJ/mol
# GULP energy per Si atom -5580.304786 kJ/mol
# Density = 1.857451 g / cm^3
# Si number density = 18.616880 Si / 1000 Ang^3
#
#
#
# Elastic Constant Matrix: (Units=GPa)
#
#
# Indices 1 2 3 4 5 6 
#
# 1 58.4542 -5.3025 -7.5856 0.0000 3.3217 0.0000
# 2 -5.3025 68.8252 -2.0633 0.0000 0.9816 0.0000
# 3 -7.5856 -2.0633 16.6925 0.0000 3.5531 0.0000
# 4 0.0000 0.0000 0.0000 14.0753 0.0000 -3.9657
# 5 3.3217 0.9816 3.5531 0.0000 27.9762 0.0000
# 6 0.0000 0.0000 0.0000 -3.9657 0.0000 13.0347
#
#
#
# Elastic Compliance Matrix: (Units=1/GPa)
#
#
# Indices 1 2 3 4 5 6 
#
# 1 0.018693 0.001773 0.009455 0.000000 -0.003483 0.000000
# 2 0.001773 0.014768 0.002864 0.000000 -0.001092 0.000000
# 3 0.009455 0.002864 0.066619 0.000000 -0.009684 0.000000
# 4 0.000000 0.000000 0.000000 0.077707 0.000000 0.023642
# 5 -0.003483 -0.001092 -0.009684 0.000000 0.037426 0.000000
# 6 0.000000 0.000000 0.000000 0.023642 0.000000 0.083911
#
#
# Mechanical properties :
#
#
# Convention : Reuss Voigt Hill
#
# Bulk Modulus (GPa) = 7.79637 12.67434 10.23535
# Shear Modulus (GPa) = 15.93903 21.61214 18.77558
#
# Velocity S-wave (km/s) = 2.92920 3.41088 3.17917
# Velocity P-wave (km/s) = 3.95438 4.72598 4.35729
#
# Compressibility (1/GPa) = 0.12826481
#
# Stress axis : x y z
#
# Youngs Moduli (GPa) = 53.49540 67.71572 15.01065
#
# Poissons Ratio (x) = -0.12008 -0.14193
# Poissons Ratio (y) = -0.09486 -0.04299
# Poissons Ratio (z) = -0.50581 -0.19392
#
# Static dielectric constant tensor:
#      x y z
#    x 1.682640 0.000000 -0.014090 
#    y 0.000000 1.625980 0.000000 
#    z -0.014090 0.000000 1.683230 
# 
# From -- ./inp_files/61533.got.cif
#   From: 2010.05.17/outbox.cif.g08.bks.cpg/sg10_31_cif.got.tgz:61533.got - 2010.06.03 11:33:40.
