data_PCOD9154638
_publ_section_title
;
Structure prediction by ZEFSAII (Michael W. Deem and Ramdas Pophale) SiO2 
 PCOD9154638
Probable space group: P 2/M
;
_chemical_formula_sum "Si O2"
_cell_formula_units_Z 17
_cell_length_a 8.586165
_cell_length_b 11.094185
_cell_length_c 8.734414
_cell_angle_alpha 90.000000
_cell_angle_beta 128.516491
_cell_angle_gamma 90.000000
_cell_volume 650.988502
_symmetry_space_group_name_H-M "P 2/M"
_symmetry_group_IT_number 10
_symmetry_cell_setting 'monoclinic'
loop_
_space_group_symop_operation_xyz
x,y,z
-x,y,-z
-x,-y,-z
x,-y,z
loop_
_atom_site_type_symbol
_atom_site_label
_atom_site_fract_x
_atom_site_fract_y
_atom_site_fract_z
Si Si1 0.703966 0.500000 0.044192
Si Si2 0.107008 0.142372 0.800587
Si Si3 0.279325 0.284194 0.176729
Si Si4 0.262929 0.500000 0.384460
Si Si5 0.000000 0.500000 0.500000
Si Si6 0.681527 0.855213 0.381643
O O1 0.889798 0.500000 0.269287
O O2 0.500000 0.500000 0.000000
O O3 0.703149 0.384595 0.940386
O O4 0.248480 0.187140 0.746315
O O5 0.878813 0.160878 0.606600
O O6 0.138888 0.000000 0.819112
O O7 0.156384 0.188132 0.999207
O O8 0.200094 0.372498 0.264648
O O9 0.507049 0.218523 0.672867
O O10 0.500000 0.500000 0.500000
O O11 0.213396 0.500000 0.533236
O O12 0.638592 0.000000 0.351698
#
# Coordination Sequence:
#
# PCOD9154638 Si02
#       6
#     2   4   4   2   1   4
#     4  11  25  42  71 111 146 191 248 302 379 459
#     4   9  18  33  60 105 156 208 259 300 363 448
#     4  11  22  39  66 106 150 188 242 311 368 438
#     4  11  29  52  77 113 150 195 256 312 381 467
#     4  12  28  58  80  98 154 206 244 320 388 438
#     4   9  18  34  62 105 157 206 250 305 369 437
#
# _framework density 26.114132000000001
#
# number of rings (size 3 to 8) (size 9 to 14) (size 15 to 20)
#    0.000    1.882    0.000    5.647    0.000    9.412 
#    0.000    4.706    0.000    2.824    0.000   26.353 
#    0.000   11.294    0.000    0.000    0.000    0.000 
#
# Total GULP energy -94887.979934 kJ/mol
# GULP energy per Si atom -5581.645878 kJ/mol
# Density = 2.605469 g / cm^3
# Si number density = 26.114132 Si / 1000 Ang^3
#
#
#
# Elastic Constant Matrix: (Units=GPa)
#
#
# Indices 1 2 3 4 5 6 
#
# 1 139.9552 58.9206 54.0199 0.0000 -13.3598 0.0000
# 2 58.9206 115.6630 53.0667 0.0000 -15.0880 0.0000
# 3 54.0199 53.0667 130.5210 0.0000 0.0836 0.0000
# 4 0.0000 0.0000 0.0000 26.2501 0.0000 -9.9908
# 5 -13.3598 -15.0880 0.0836 0.0000 39.6012 0.0000
# 6 0.0000 0.0000 0.0000 -9.9908 0.0000 46.5302
#
#
#
# Elastic Compliance Matrix: (Units=1/GPa)
#
#
# Indices 1 2 3 4 5 6 
#
# 1 0.009844 -0.003549 -0.002632 0.000000 0.001974 0.000000
# 2 -0.003549 0.012603 -0.003657 0.000000 0.003612 0.000000
# 3 -0.002632 -0.003657 0.010240 0.000000 -0.002303 0.000000
# 4 0.000000 0.000000 0.000000 0.041485 0.000000 0.008908
# 5 0.001974 0.003612 -0.002303 0.000000 0.027299 0.000000
# 6 0.000000 0.000000 0.000000 0.008908 0.000000 0.023404
#
#
# Mechanical properties :
#
#
# Convention : Reuss Voigt Hill
#
# Bulk Modulus (GPa) = 76.87404 79.79484 78.33444
# Shear Modulus (GPa) = 33.58199 37.15175 35.36687
#
# Velocity S-wave (km/s) = 3.58993 3.77592 3.68410
# Velocity P-wave (km/s) = 6.83265 7.04504 6.93966
#
# Compressibility (1/GPa) = 0.01300829
#
# Stress axis : x y z
#
# Youngs Moduli (GPa) = 101.58563 79.34518 97.66023
#
# Poissons Ratio (x) = 0.28163 0.25708
# Poissons Ratio (y) = 0.36057 0.35719
# Poissons Ratio (z) = 0.26741 0.29020
#
# Static dielectric constant tensor:
#      x y z
#    x 2.128420 0.000000 0.043330 
#    y 0.000000 2.034570 0.000000 
#    z 0.043330 0.000000 2.124390 
# 
# From -- ./inp_files/18036.got.cif
#   From: 2010.05.17/outbox.cif.g08.bks.cpg/sg10_10_cif.got.tgz:18036.got - 2010.06.03 11:33:40.
