data_PCOD9154835
_publ_section_title
;
Structure prediction by ZEFSAII (Michael W. Deem and Ramdas Pophale) SiO2 
 PCOD9154835
Probable space group: P 2/M
;
_chemical_formula_sum "Si O2"
_cell_formula_units_Z 15
_cell_length_a 4.935409
_cell_length_b 21.542066
_cell_length_c 5.232764
_cell_angle_alpha 90.000000
_cell_angle_beta 91.383648
_cell_angle_gamma 90.000000
_cell_volume 556.179529
_symmetry_space_group_name_H-M "P 2/M"
_symmetry_group_IT_number 10
_symmetry_cell_setting 'monoclinic'
loop_
_space_group_symop_operation_xyz
x,y,z
-x,y,-z
-x,-y,-z
x,-y,z
loop_
_atom_site_type_symbol
_atom_site_label
_atom_site_fract_x
_atom_site_fract_y
_atom_site_fract_z
Si Si1 0.308920 0.132298 0.246192
Si Si2 0.000000 0.500000 0.000000
Si Si3 0.769027 0.598848 0.676132
Si Si4 0.308751 0.000000 0.246229
Si Si5 0.311519 0.735176 0.245684
O O1 0.500000 0.131975 0.500000
O O2 0.157929 0.198571 0.242992
O O3 0.155833 0.066158 0.244967
O O4 0.500000 0.132680 0.000000
O O5 0.782067 0.555005 0.917648
O O6 0.500000 0.598341 0.500000
O O7 0.841751 0.670116 0.743703
O O8 0.000000 0.570922 0.500000
O O9 0.500000 0.000000 0.500000
O O10 0.500000 0.000000 0.000000
O O11 0.500000 0.736344 0.500000
O O12 0.500000 0.732358 0.000000
#
# Coordination Sequence:
#
# PCOD9154835 Si02
#       5
#     4   1   4   2   4
#     4   8  13  23  41  71 109 157 202 259 313 377
#     4  12  28  46  80  96 142 174 228 272 356 394
#     4  11  27  47  70 103 136 176 226 280 338 409
#     4   8  12  18  34  64 107 149 201 251 312 370
#     4   9  19  36  60  87 126 168 219 269 329 391
#
# _framework density 26.969709999999999
#
# number of rings (size 3 to 8) (size 9 to 14) (size 15 to 20)
#    0.000    2.667    0.000    0.800    7.467    1.067 
#    0.000    0.000    0.000    0.000    0.000    0.933 
#    0.000    1.067    0.000    2.267    0.000    2.400 
#
# Total GULP energy -83645.528169 kJ/mol
# GULP energy per Si atom -5576.368545 kJ/mol
# Density = 2.690833 g / cm^3
# Si number density = 26.969710 Si / 1000 Ang^3
#
#
#
# Elastic Constant Matrix: (Units=GPa)
#
#
# Indices 1 2 3 4 5 6 
#
# 1 77.3700 12.0060 43.9059 0.0000 3.1433 0.0000
# 2 12.0060 354.6471 -2.7797 0.0000 22.3865 0.0000
# 3 43.9059 -2.7797 200.6018 0.0000 10.4482 0.0000
# 4 0.0000 0.0000 0.0000 18.4576 0.0000 -14.1850
# 5 3.1433 22.3865 10.4482 0.0000 63.9423 0.0000
# 6 0.0000 0.0000 0.0000 -14.1850 0.0000 16.0406
#
#
#
# Elastic Compliance Matrix: (Units=1/GPa)
#
#
# Indices 1 2 3 4 5 6 
#
# 1 0.014856 -0.000528 -0.003258 0.000000 -0.000013 0.000000
# 2 -0.000528 0.002904 0.000209 0.000000 -0.001025 0.000000
# 3 -0.003258 0.000209 0.005745 0.000000 -0.000852 0.000000
# 4 0.000000 0.000000 0.000000 0.169104 0.000000 0.149542
# 5 -0.000013 -0.001025 -0.000852 0.000000 0.016138 0.000000
# 6 0.000000 0.000000 0.000000 0.149542 0.000000 0.194584
#
#
# Mechanical properties :
#
#
# Convention : Reuss Voigt Hill
#
# Bulk Modulus (GPa) = 61.15440 82.09815 71.62627
# Shear Modulus (GPa) = 12.02108 58.32055 35.17081
#
# Velocity S-wave (km/s) = 2.11351 4.65526 3.61513
# Velocity P-wave (km/s) = 5.35540 7.70728 6.63636
#
# Compressibility (1/GPa) = 0.01635205
#
# Stress axis : x y z
#
# Youngs Moduli (GPa) = 67.31150 344.36440 174.05230
#
# Poissons Ratio (x) = 0.18170 0.56710
# Poissons Ratio (y) = 0.03552 -0.03640
# Poissons Ratio (z) = 0.21932 -0.07201
#
# Static dielectric constant tensor:
#      x y z
#    x 2.338140 0.000000 -0.730810 
#    y 0.000000 2.176270 0.000000 
#    z -0.730810 0.000000 3.632750 
# 
# From -- ./inp_files/1403.got.cif
#   From: 2010.05.17/outbox.cif.g08.bks.cpg/sg10_1_cif.got.tgz:1403.got - 2010.06.03 11:33:40.
