data_PCOD9154244
_publ_section_title
;
Structure prediction by ZEFSAII (Michael W. Deem and Ramdas Pophale) SiO2 
 PCOD9154244
Probable space group: P 2/M
;
_chemical_formula_sum "Si O2"
_cell_formula_units_Z 32
_cell_length_a 24.582011
_cell_length_b 8.520260
_cell_length_c 35.788457
_cell_angle_alpha 90.000000
_cell_angle_beta 163.878364
_cell_angle_gamma 90.000000
_cell_volume 2081.391762
_symmetry_space_group_name_H-M "P 2/M"
_symmetry_group_IT_number 10
_symmetry_cell_setting 'monoclinic'
loop_
_space_group_symop_operation_xyz
x,y,z
-x,y,-z
-x,-y,-z
x,-y,z
loop_
_atom_site_type_symbol
_atom_site_label
_atom_site_fract_x
_atom_site_fract_y
_atom_site_fract_z
Si Si1 0.332576 0.809392 0.861728
Si Si2 0.268771 0.683530 0.103094
Si Si3 0.106719 0.809641 0.430793
Si Si4 0.504303 0.814926 0.191046
Si Si5 0.473956 0.811282 0.312668
Si Si6 0.317369 0.190107 0.765583
Si Si7 0.889046 0.314843 0.482511
Si Si8 0.105487 0.181533 0.110295
O O1 0.360560 0.762212 0.836820
O O2 0.110091 0.767352 0.726538
O O3 0.341522 0.000000 0.867941
O O4 0.500000 0.750313 0.000000
O O5 0.294451 0.500000 0.125404
O O6 0.351323 0.731990 0.117379
O O7 0.394086 0.765847 0.218843
O O8 0.042589 0.729372 0.960391
O O9 0.299129 0.765186 0.534345
O O10 0.128428 0.729510 0.485393
O O11 0.110098 0.000000 0.438175
O O12 0.521644 0.766224 0.159118
O O13 0.719085 0.778539 0.349458
O O14 0.466801 0.000000 0.168050
O O15 0.320481 0.751868 0.242529
O O16 0.463008 0.000000 0.307486
O O17 0.108192 0.263319 0.616465
O O18 0.296413 0.000000 0.751129
O O19 0.862121 0.500000 0.458940
O O20 0.118717 0.000000 0.131127
O O21 0.000000 0.182436 0.000000
#
# Coordination Sequence:
#
# PCOD9154244 Si02
#       8
#     4   4   4   4   4   4   4   4
#     4   8  14  27  47  68  86 103 132 174 212 248
#     4  11  20  27  38  58  82 110 142 175 214 243
#     4   9  16  27  44  63  84 114 144 169 204 249
#     4  11  20  30  42  55  79 113 147 174 199 245
#     4   9  16  27  42  57  79 112 147 175 200 242
#     4   9  19  32  45  60  78 109 143 169 206 252
#     4  11  20  28  40  60  84 109 138 176 213 239
#     4   8  15  27  40  54  75 109 146 174 203 241
#
# _framework density 15.37433
#
# number of rings (size 3 to 8) (size 9 to 14) (size 15 to 20)
#    0.000    2.500    1.250    4.500    0.000    4.750 
#    0.000    0.000    0.000    6.000    0.000    0.000 
#    0.000    1.000    0.000   12.750    0.000    1.250 
#
# Total GULP energy -178242.548281 kJ/mol
# GULP energy per Si atom -5570.079634 kJ/mol
# Density = 1.533934 g / cm^3
# Si number density = 15.374330 Si / 1000 Ang^3
#
#
#
# Elastic Constant Matrix: (Units=GPa)
#
#
# Indices 1 2 3 4 5 6 
#
# 1 85.8582 5.6511 50.8909 0.0000 29.1997 0.0000
# 2 5.6511 3.8677 1.3380 0.0000 4.4457 0.0000
# 3 50.8909 1.3380 79.9322 0.0000 16.8358 0.0000
# 4 0.0000 0.0000 0.0000 -1.5866 0.0000 0.5692
# 5 29.1997 4.4457 16.8358 0.0000 23.6188 0.0000
# 6 0.0000 0.0000 0.0000 0.5692 0.0000 -2.3490
#
#
#
# Elastic Compliance Matrix: (Units=1/GPa)
#
#
# Indices 1 2 3 4 5 6 
#
# 1 0.027678 -0.008964 -0.012496 0.000000 -0.023624 0.000000
# 2 -0.008964 0.338294 0.013087 0.000000 -0.061922 0.000000
# 3 -0.012496 0.013087 0.020606 0.000000 -0.001703 0.000000
# 4 0.000000 0.000000 0.000000 -0.690298 0.000000 -0.167271
# 5 -0.023624 -0.061922 -0.001703 0.000000 0.084414 0.000000
# 6 0.000000 0.000000 0.000000 -0.167271 0.000000 -0.466240
#
#
# Mechanical properties :
#
#
# Convention : Reuss Voigt Hill
#
# Bulk Modulus (GPa) = 2.70393 31.71311 17.20852
# Shear Modulus (GPa) = -9.16554 11.38851 1.11148
#
# Velocity S-wave (km/s) = -2.44429 2.72462 0.85119
# Velocity P-wave (km/s) = 2.49068 5.52903 3.49046
#
# Compressibility (1/GPa) = 0.36983204
#
# Stress axis : x y z
#
# Youngs Moduli (GPa) = 36.12950 2.95601 48.52898
#
# Poissons Ratio (x) = 0.02650 0.60643
# Poissons Ratio (y) = 0.32386 -0.63510
# Poissons Ratio (z) = 0.45148 -0.03869
#
# Static dielectric constant tensor:
#      x y z
#    x 1.540830 0.000000 0.037950 
#    y 0.000000 1.511410 0.000000 
#    z 0.037950 0.000000 1.517480 
# 
# From -- ./inp_files/95682.got.cif
#   From: 2010.05.17/outbox.cif.g08.bks.cpg/sg10_48_cif.got.tgz:95682.got - 2010.06.03 11:33:40.
