data_PCOD9154279
_publ_section_title
;
Structure prediction by ZEFSAII (Michael W. Deem and Ramdas Pophale) SiO2 
 PCOD9154279
Probable space group: P 2/M
;
_chemical_formula_sum "Si O2"
_cell_formula_units_Z 28
_cell_length_a 31.222348
_cell_length_b 8.858618
_cell_length_c 10.287074
_cell_angle_alpha 90.000000
_cell_angle_beta 32.916737
_cell_angle_gamma 90.000000
_cell_volume 1546.175442
_symmetry_space_group_name_H-M "P 2/M"
_symmetry_group_IT_number 10
_symmetry_cell_setting 'monoclinic'
loop_
_space_group_symop_operation_xyz
x,y,z
-x,y,-z
-x,-y,-z
x,-y,z
loop_
_atom_site_type_symbol
_atom_site_label
_atom_site_fract_x
_atom_site_fract_y
_atom_site_fract_z
Si Si1 0.838445 0.680320 0.886203
Si Si2 0.085684 0.820041 0.056309
Si Si3 0.499444 0.325894 0.843242
Si Si4 0.180367 0.679757 0.576333
Si Si5 0.902589 0.820481 0.460610
Si Si6 0.329021 0.681207 0.558300
Si Si7 0.337458 0.178433 0.250026
O O1 0.848280 0.500000 0.849951
O O2 0.858742 0.759708 0.699783
O O3 0.894476 0.744555 0.856716
O O4 0.748977 0.711199 0.160616
O O5 0.142282 0.750042 0.803185
O O6 0.098204 0.000000 0.033122
O O7 0.995604 0.792825 0.244170
O O8 0.486380 0.500000 0.838353
O O9 0.588504 0.279186 0.581532
O O10 0.500000 0.321365 0.000000
O O11 0.425922 0.227033 0.986136
O O12 0.179316 0.500000 0.588007
O O13 0.130332 0.737154 0.581799
O O14 0.269798 0.739066 0.340837
O O15 0.891268 0.000000 0.474669
O O16 0.332223 0.500000 0.523149
O O17 0.325885 0.766078 0.428683
O O18 0.327709 0.000000 0.267360
#
# Coordination Sequence:
#
# PCOD9154279 Si02
#       7
#     4   4   4   4   4   4   4
#     4  11  22  37  60  87 116 152 194 233 275 333
#     4  11  23  40  61  85 113 148 188 236 290 337
#     4   8  15  29  49  75 111 147 181 225 277 327
#     4  12  24  39  60  84 112 148 192 237 284 340
#     4  11  25  42  58  81 116 152 188 234 290 341
#     4   9  18  33  53  80 113 149 186 229 277 327
#     4  11  20  31  52  82 114 146 184 229 282 334
#
# _framework density 18.109200000000001
#
# number of rings (size 3 to 8) (size 9 to 14) (size 15 to 20)
#    0.000    1.571    1.429    5.571    0.000    8.857 
#    0.000    0.000    0.000    0.857    0.000    6.000 
#    0.000    0.000    0.000    0.000    0.000    0.000 
#
# Total GULP energy -156427.307271 kJ/mol
# GULP energy per Si atom -5586.689545 kJ/mol
# Density = 1.806798 g / cm^3
# Si number density = 18.109200 Si / 1000 Ang^3
#
#
#
# Elastic Constant Matrix: (Units=GPa)
#
#
# Indices 1 2 3 4 5 6 
#
# 1 -24.2185 -5.0009 22.4335 0.0000 -0.3538 0.0000
# 2 -5.0009 52.4497 29.5576 0.0000 -20.6624 0.0000
# 3 22.4335 29.5576 38.9197 0.0000 -23.8071 0.0000
# 4 0.0000 0.0000 0.0000 22.7638 0.0000 7.2554
# 5 -0.3538 -20.6624 -23.8071 0.0000 29.7515 0.0000
# 6 0.0000 0.0000 0.0000 7.2554 0.0000 20.9379
#
#
#
# Elastic Compliance Matrix: (Units=1/GPa)
#
#
# Indices 1 2 3 4 5 6 
#
# 1 -0.016095 -0.010761 0.024996 0.000000 0.012337 0.000000
# 2 -0.010761 0.026631 -0.005460 0.000000 0.013999 0.000000
# 3 0.024996 -0.005460 0.026042 0.000000 0.017344 0.000000
# 4 0.000000 0.000000 0.000000 0.049383 0.000000 -0.017112
# 5 0.012337 0.013999 0.017344 0.000000 0.057359 0.000000
# 6 0.000000 0.000000 0.000000 -0.017112 0.000000 0.053690
#
#
# Mechanical properties :
#
#
# Convention : Reuss Voigt Hill
#
# Bulk Modulus (GPa) = 18.47431 17.90347 18.18889
# Shear Modulus (GPa) = 25.31619 16.03469 20.67544
#
# Velocity S-wave (km/s) = 3.74301 2.97887 3.38258
# Velocity P-wave (km/s) = 5.37623 4.66255 5.03206
#
# Compressibility (1/GPa) = 0.05412921
#
# Stress axis : x y z
#
# Youngs Moduli (GPa) = -62.13069 37.54969 38.40023
#
# Poissons Ratio (x) = 0.40407 -0.95986
# Poissons Ratio (y) = -0.66858 0.20965
# Poissons Ratio (z) = 1.55303 0.20501
#
# Static dielectric constant tensor:
#      x y z
#    x 1.608080 0.000000 -0.033200 
#    y 0.000000 1.603150 0.000000 
#    z -0.033200 0.000000 1.629030 
# 
# From -- ./inp_files/37071.got.cif
#   From: 2010.05.17/outbox.cif.g08.bks.cpg/sg10_19_cif.got.tgz:37071.got - 2010.06.03 11:33:40.
