data_PCOD9154856
_publ_section_title
;
Structure prediction by ZEFSAII (Michael W. Deem and Ramdas Pophale) SiO2 
 PCOD9154856
Probable space group: P 2/M
;
_chemical_formula_sum "Si O2"
_cell_formula_units_Z 28
_cell_length_a 10.321617
_cell_length_b 7.725014
_cell_length_c 30.516178
_cell_angle_alpha 90.000000
_cell_angle_beta 39.120910
_cell_angle_gamma 90.000000
_cell_volume 1535.247086
_symmetry_space_group_name_H-M "P 2/M"
_symmetry_group_IT_number 10
_symmetry_cell_setting 'monoclinic'
loop_
_space_group_symop_operation_xyz
x,y,z
-x,y,-z
-x,-y,-z
x,-y,z
loop_
_atom_site_type_symbol
_atom_site_label
_atom_site_fract_x
_atom_site_fract_y
_atom_site_fract_z
Si Si1 0.960869 0.203220 0.143397
Si Si2 0.703881 0.207086 0.687071
Si Si3 0.560922 0.291950 0.415450
Si Si4 0.276543 0.500000 0.037921
Si Si5 0.617173 0.203086 0.157314
Si Si6 0.245369 0.500000 0.942392
Si Si7 0.177754 0.708200 0.571477
Si Si8 0.384221 0.207254 0.699965
O O1 0.804950 0.214241 0.142887
O O2 0.824259 0.262540 0.220906
O O3 0.148011 0.331065 0.086294
O O4 0.017485 0.000000 0.133404
O O5 0.582715 0.262829 0.762645
O O6 0.577197 0.273974 0.678117
O O7 0.943368 0.245954 0.624460
O O8 0.682243 0.000000 0.692544
O O9 0.559155 0.500000 0.418454
O O10 0.733156 0.230566 0.404954
O O11 0.340651 0.230516 0.492044
O O12 0.600274 0.247239 0.355040
O O13 0.500000 0.500000 0.000000
O O14 0.290188 0.500000 0.981852
O O15 0.664286 0.330586 0.105304
O O16 0.596518 0.000000 0.150325
O O17 0.000000 0.500000 0.000000
O O18 0.187721 0.500000 0.569175
O O19 0.384765 0.000000 0.704065
#
# Coordination Sequence:
#
# PCOD9154856 Si02
#       8
#     4   4   4   2   4   2   4   4
#     4   9  19  39  62  83 115 153 185 229 283 333
#     4   9  19  35  54  80 111 142 178 228 281 321
#     4   9  19  35  52  75 108 148 189 225 271 326
#     4  12  26  42  58  88 121 148 187 227 278 341
#     4   9  19  37  61  88 116 144 186 239 280 326
#     4  12  22  38  64  92 109 146 197 221 272 349
#     4   9  19  35  52  75 110 147 183 230 277 319
#     4   9  19  35  56  81 106 141 187 225 270 331
#
# _framework density 18.238106999999999
#
# number of rings (size 3 to 8) (size 9 to 14) (size 15 to 20)
#    0.000    2.571    1.429    2.571    2.000    3.429 
#    2.571    4.286    0.000    0.000    0.000    0.000 
#    0.000    0.000    0.000    0.000    0.000    0.000 
#
# Total GULP energy -156144.735502 kJ/mol
# GULP energy per Si atom -5576.597697 kJ/mol
# Density = 1.819660 g / cm^3
# Si number density = 18.238107 Si / 1000 Ang^3
#
#
#
# Elastic Constant Matrix: (Units=GPa)
#
#
# Indices 1 2 3 4 5 6 
#
# 1 101.3416 32.3144 92.7411 0.0000 19.1097 0.0000
# 2 32.3144 61.9545 50.0302 0.0000 4.9751 0.0000
# 3 92.7411 50.0302 143.9211 0.0000 22.8277 0.0000
# 4 0.0000 0.0000 0.0000 43.2901 0.0000 0.5744
# 5 19.1097 4.9751 22.8277 0.0000 28.9141 0.0000
# 6 0.0000 0.0000 0.0000 0.5744 0.0000 27.2172
#
#
#
# Elastic Compliance Matrix: (Units=1/GPa)
#
#
# Indices 1 2 3 4 5 6 
#
# 1 0.024506 -0.000327 -0.014995 0.000000 -0.004301 0.000000
# 2 -0.000327 0.022620 -0.008081 0.000000 0.002704 0.000000
# 3 -0.014995 -0.008081 0.020151 0.000000 -0.004608 0.000000
# 4 0.000000 0.000000 0.000000 0.023106 0.000000 -0.000488
# 5 -0.004301 0.002704 -0.004608 0.000000 0.040601 0.000000
# 6 0.000000 0.000000 0.000000 -0.000488 0.000000 0.036752
#
#
# Mechanical properties :
#
#
# Convention : Reuss Voigt Hill
#
# Bulk Modulus (GPa) = 48.85323 73.04319 60.94821
# Shear Modulus (GPa) = 22.58691 28.69303 25.63997
#
# Velocity S-wave (km/s) = 3.52297 3.97072 3.75353
# Velocity P-wave (km/s) = 6.58733 7.82041 7.23021
#
# Compressibility (1/GPa) = 0.02046948
#
# Stress axis : x y z
#
# Youngs Moduli (GPa) = 40.80700 44.20787 49.62477
#
# Poissons Ratio (x) = 0.01447 0.74413
# Poissons Ratio (y) = 0.01335 0.40104
# Poissons Ratio (z) = 0.61191 0.35726
#
# Static dielectric constant tensor:
#      x y z
#    x 1.615040 0.000000 0.004120 
#    y 0.000000 1.655850 0.000000 
#    z 0.004120 0.000000 1.629620 
# 
# From -- ./inp_files/92029.got.cif
#   From: 2010.05.17/outbox.cif.g08.bks.cpg/sg10_47_cif.got.tgz:92029.got - 2010.06.03 11:33:40.
