data_PCOD9154603
_publ_section_title
;
Structure prediction by ZEFSAII (Michael W. Deem and Ramdas Pophale) SiO2 
 PCOD9154603
Probable space group: P 2/M
;
_chemical_formula_sum "Si O2"
_cell_formula_units_Z 29
_cell_length_a 12.964911
_cell_length_b 21.099170
_cell_length_c 8.521277
_cell_angle_alpha 90.000000
_cell_angle_beta 148.496451
_cell_angle_gamma 90.000000
_cell_volume 1218.059747
_symmetry_space_group_name_H-M "P 2/M"
_symmetry_group_IT_number 10
_symmetry_cell_setting 'monoclinic'
loop_
_space_group_symop_operation_xyz
x,y,z
-x,y,-z
-x,-y,-z
x,-y,z
loop_
_atom_site_type_symbol
_atom_site_label
_atom_site_fract_x
_atom_site_fract_y
_atom_site_fract_z
Si Si1 0.432475 0.765121 0.643168
Si Si2 0.788506 0.429328 0.818946
Si Si3 0.570688 0.902182 0.326439
Si Si4 0.500000 0.000000 0.000000
Si Si5 0.018232 0.338268 0.706804
Si Si6 0.808495 0.927518 0.958948
Si Si7 0.840864 0.788047 0.988479
Si Si8 0.403123 0.625830 0.716608
O O1 0.409042 0.830335 0.704272
O O2 0.627116 0.783712 0.796181
O O3 0.231271 0.764093 0.277269
O O4 0.476979 0.697560 0.777410
O O5 0.763649 0.500000 0.851364
O O6 0.617995 0.413151 0.471594
O O7 0.000000 0.429630 0.000000
O O8 0.808274 0.375811 0.978287
O O9 0.696724 0.917347 0.646675
O O10 0.351023 0.922395 0.104931
O O11 0.624636 0.945906 0.254388
O O12 0.820595 0.363920 0.524114
O O13 0.000000 0.349700 0.500000
O O14 0.029852 0.264278 0.759936
O O15 0.921435 0.859689 0.107961
O O16 0.887417 0.000000 0.063786
O O17 0.500000 0.598291 0.000000
#
# Coordination Sequence:
#
# PCOD9154603 Si02
#       8
#     4   4   4   1   4   4   4   4
#     4   9  18  33  52  83 113 150 197 238 289 336
#     4   9  20  40  64  88 120 158 193 230 284 349
#     4   9  17  24  41  68 107 142 183 235 282 339
#     4  12  16  22  36  72 112 142 180 238 294 330
#     4  11  22  39  60  89 120 155 197 237 292 344
#     4   9  14  30  46  67  97 148 194 226 281 349
#     4   9  18  32  58  82 111 151 195 246 286 345
#     4  11  22  37  61  89 120 154 195 242 286 340
#
# _framework density 23.808354999999999
#
# number of rings (size 3 to 8) (size 9 to 14) (size 15 to 20)
#    0.000    2.345    2.759    2.897    0.966    0.552 
#    0.000    0.000    0.000    6.207    1.793    1.931 
#    0.000    0.000    0.000    0.000    0.000    0.000 
#
# Total GULP energy -161509.349382 kJ/mol
# GULP energy per Si atom -5569.287910 kJ/mol
# Density = 2.375417 g / cm^3
# Si number density = 23.808355 Si / 1000 Ang^3
#
#
#
# Elastic Constant Matrix: (Units=GPa)
#
#
# Indices 1 2 3 4 5 6 
#
# 1 37.8973 24.0229 12.7143 0.0000 -6.1833 0.0000
# 2 24.0229 135.0674 35.6692 0.0000 -33.2009 0.0000
# 3 12.7143 35.6692 69.7813 0.0000 -12.2047 0.0000
# 4 0.0000 0.0000 0.0000 15.1579 0.0000 1.2648
# 5 -6.1833 -33.2009 -12.2047 0.0000 33.5538 0.0000
# 6 0.0000 0.0000 0.0000 1.2648 0.0000 13.7609
#
#
#
# Elastic Compliance Matrix: (Units=1/GPa)
#
#
# Indices 1 2 3 4 5 6 
#
# 1 0.030347 -0.004575 -0.003208 0.000000 -0.000102 0.000000
# 2 -0.004575 0.011362 -0.003370 0.000000 0.009174 0.000000
# 3 -0.003208 -0.003370 0.017035 0.000000 0.002270 0.000000
# 4 0.000000 0.000000 0.000000 0.066482 0.000000 -0.006110
# 5 -0.000102 0.009174 0.002270 0.000000 0.039688 0.000000
# 6 0.000000 0.000000 0.000000 -0.006110 0.000000 0.073231
#
#
# Mechanical properties :
#
#
# Convention : Reuss Voigt Hill
#
# Bulk Modulus (GPa) = 27.44441 43.06209 35.25325
# Shear Modulus (GPa) = 18.34204 23.85050 21.09627
#
# Velocity S-wave (km/s) = 2.77863 3.16851 2.97995
# Velocity P-wave (km/s) = 4.67403 5.61357 5.16521
#
# Compressibility (1/GPa) = 0.03643729
#
# Stress axis : x y z
#
# Youngs Moduli (GPa) = 32.95203 88.00909 58.70369
#
# Poissons Ratio (x) = 0.40266 0.18835
# Poissons Ratio (y) = 0.15076 0.19782
# Poissons Ratio (z) = 0.10573 0.29658
#
# Static dielectric constant tensor:
#      x y z
#    x 1.991540 0.000000 0.004150 
#    y 0.000000 1.986460 0.000000 
#    z 0.004150 0.000000 1.956790 
# 
# From -- ./inp_files/30506.got.cif
#   From: 2010.05.17/outbox.cif.g08.bks.cpg/sg10_16_cif.got.tgz:30506.got - 2010.06.03 11:33:40.
