data_PCOD9154518
_publ_section_title
;
Structure prediction by ZEFSAII (Michael W. Deem and Ramdas Pophale) SiO2 
 PCOD9154518
Probable space group: P 2/M
;
_chemical_formula_sum "Si O2"
_cell_formula_units_Z 18
_cell_length_a 9.196890
_cell_length_b 9.949215
_cell_length_c 21.935309
_cell_angle_alpha 90.000000
_cell_angle_beta 153.366961
_cell_angle_gamma 90.000000
_cell_volume 899.741420
_symmetry_space_group_name_H-M "P 2/M"
_symmetry_group_IT_number 10
_symmetry_cell_setting 'monoclinic'
loop_
_space_group_symop_operation_xyz
x,y,z
-x,y,-z
-x,-y,-z
x,-y,z
loop_
_atom_site_type_symbol
_atom_site_label
_atom_site_fract_x
_atom_site_fract_y
_atom_site_fract_z
Si Si1 0.653407 0.500000 0.987487
Si Si2 0.792322 0.000000 0.860350
Si Si3 0.775378 0.276529 0.223851
Si Si4 0.749318 0.500000 0.646776
Si Si5 0.484819 0.000000 0.065572
Si Si6 0.423828 0.500000 0.284456
Si Si7 0.739568 0.766891 0.350347
O O1 0.036877 0.500000 0.133488
O O2 0.500000 0.500000 0.000000
O O3 0.535268 0.371430 0.904828
O O4 0.551614 0.873895 0.764891
O O5 0.000000 0.000000 0.000000
O O6 0.096533 0.000000 0.929668
O O7 0.668547 0.130742 0.160507
O O8 0.870210 0.260279 0.330519
O O9 0.036732 0.364067 0.283022
O O10 0.500000 0.500000 0.500000
O O11 0.544311 0.500000 0.631135
O O12 0.500000 0.000000 0.000000
O O13 0.586423 0.629141 0.316425
O O14 0.000000 0.809365 0.500000
#
# Coordination Sequence:
#
# PCOD9154518 Si02
#       7
#     2   2   4   2   2   2   4
#     4  11  21  39  64  96 134 174 224 278 335 385
#     4  12  25  48  71  99 133 181 223 274 341 407
#     4  11  23  43  66  95 140 174 219 285 331 392
#     4  11  24  43  64  94 136 183 224 272 334 401
#     4  12  26  42  71 101 136 166 222 282 336 394
#     4  12  24  39  72 100 131 179 231 271 342 399
#     4  12  26  45  69 101 138 178 225 279 337 404
#
# _framework density 20.005749000000002
#
# number of rings (size 3 to 8) (size 9 to 14) (size 15 to 20)
#    0.000    0.444    4.444    5.333    3.111    0.889 
#    0.000    0.556    0.000    0.000    0.000    0.000 
#    0.000    0.000    0.000    0.000    0.000    0.000 
#
# Total GULP energy -100478.410794 kJ/mol
# GULP energy per Si atom -5582.133933 kJ/mol
# Density = 1.996021 g / cm^3
# Si number density = 20.005749 Si / 1000 Ang^3
#
#
#
# Elastic Constant Matrix: (Units=GPa)
#
#
# Indices 1 2 3 4 5 6 
#
# 1 108.1360 38.7463 9.9129 0.0000 -25.9826 0.0000
# 2 38.7463 184.1280 46.8046 0.0000 -8.4777 0.0000
# 3 9.9129 46.8046 117.3971 0.0000 -25.7043 0.0000
# 4 0.0000 0.0000 0.0000 3.4699 0.0000 -9.5284
# 5 -25.9826 -8.4777 -25.7043 0.0000 42.7540 0.0000
# 6 0.0000 0.0000 0.0000 -9.5284 0.0000 7.6382
#
#
#
# Elastic Compliance Matrix: (Units=1/GPa)
#
#
# Indices 1 2 3 4 5 6 
#
# 1 0.011874 -0.002580 0.001720 0.000000 0.007739 0.000000
# 2 -0.002580 0.006607 -0.002848 0.000000 -0.001970 0.000000
# 3 0.001720 -0.002848 0.011071 0.000000 0.007137 0.000000
# 4 0.000000 0.000000 0.000000 -0.118814 0.000000 -0.148216
# 5 0.007739 -0.001970 0.007137 0.000000 0.031993 0.000000
# 6 0.000000 0.000000 0.000000 -0.148216 0.000000 -0.053974
#
#
# Mechanical properties :
#
#
# Convention : Reuss Voigt Hill
#
# Bulk Modulus (GPa) = 45.17211 66.73207 55.95209
# Shear Modulus (GPa) = -51.83957 31.71891 -10.06033
#
# Velocity S-wave (km/s) = -5.09594 3.98614 -2.24491
# Velocity P-wave (km/s) = 3.46355 7.39017 4.61619
#
# Compressibility (1/GPa) = 0.02213755
#
# Stress axis : x y z
#
# Youngs Moduli (GPa) = 84.22040 151.35536 90.32861
#
# Poissons Ratio (x) = 0.39043 -0.15538
# Poissons Ratio (y) = 0.21725 0.25721
# Poissons Ratio (z) = -0.14488 0.43099
#
# Static dielectric constant tensor:
#      x y z
#    x 1.809110 0.000000 -0.063600 
#    y 0.000000 1.611680 0.000000 
#    z -0.063600 0.000000 1.743340 
# 
# From -- ./inp_files/82160.got.cif
#   From: 2010.05.17/outbox.cif.g08.bks.cpg/sg10_42_cif.got.tgz:82160.got - 2010.06.03 11:33:40.
