data_PCOD9154819
_publ_section_title
;
Structure prediction by ZEFSAII (Michael W. Deem and Ramdas Pophale) SiO2 
 PCOD9154819
Probable space group: P 2/M
;
_chemical_formula_sum "Si O2"
_cell_formula_units_Z 18
_cell_length_a 8.949762
_cell_length_b 18.836739
_cell_length_c 8.933460
_cell_angle_alpha 90.000000
_cell_angle_beta 31.614639
_cell_angle_gamma 90.000000
_cell_volume 789.472167
_symmetry_space_group_name_H-M "P 2/M"
_symmetry_group_IT_number 10
_symmetry_cell_setting 'monoclinic'
loop_
_space_group_symop_operation_xyz
x,y,z
-x,y,-z
-x,-y,-z
x,-y,z
loop_
_atom_site_type_symbol
_atom_site_label
_atom_site_fract_x
_atom_site_fract_y
_atom_site_fract_z
Si Si1 0.988453 0.860399 0.332208
Si Si2 0.447753 0.794088 0.715240
Si Si3 0.806223 0.000000 0.311517
Si Si4 0.807403 0.579429 0.515567
Si Si5 0.196479 0.639521 0.965111
O O1 0.762610 0.796675 0.512399
O O2 0.000000 0.874103 0.500000
O O3 0.863173 0.931017 0.363141
O O4 0.255362 0.838672 0.997863
O O5 0.500000 0.821197 0.500000
O O6 0.308602 0.716579 0.822077
O O7 0.500000 0.000000 0.500000
O O8 0.000000 0.000000 0.000000
O O9 0.836860 0.500000 0.423391
O O10 0.470528 0.596966 0.795598
O O11 0.000000 0.576460 0.500000
O O12 0.964147 0.640815 0.292016
O O13 0.000000 0.607676 0.000000
#
# Coordination Sequence:
#
# PCOD9154819 Si02
#       5
#     4   4   2   4   4
#     4  12  26  44  69 103 137 174 227 285 335 396
#     4  12  25  45  69  97 137 181 224 274 341 412
#     4  12  25  44  71  98 133 182 225 270 339 406
#     4  11  25  44  66  95 134 178 224 279 346 415
#     4  12  25  42  68  99 132 174 228 285 337 403
#
# _framework density 22.800044
#
# number of rings (size 3 to 8) (size 9 to 14) (size 15 to 20)
#    0.000    0.222    0.000   11.000    0.000    9.778 
#    0.000    3.333    0.000    0.000    0.000    0.000 
#    0.000    0.000    0.000    0.000    0.000    0.000 
#
# Total GULP energy -100403.193597 kJ/mol
# GULP energy per Si atom -5577.955200 kJ/mol
# Density = 2.274815 g / cm^3
# Si number density = 22.800044 Si / 1000 Ang^3
#
#
#
# Elastic Constant Matrix: (Units=GPa)
#
#
# Indices 1 2 3 4 5 6 
#
# 1 152.3501 41.3088 41.4567 0.0000 1.5959 0.0000
# 2 41.3088 93.7452 33.2432 0.0000 0.3721 0.0000
# 3 41.4567 33.2432 139.1192 0.0000 -5.5554 0.0000
# 4 0.0000 0.0000 0.0000 -12.5061 0.0000 64.5786
# 5 1.5959 0.3721 -5.5554 0.0000 47.1863 0.0000
# 6 0.0000 0.0000 0.0000 64.5786 0.0000 -116.9891
#
#
#
# Elastic Compliance Matrix: (Units=1/GPa)
#
#
# Indices 1 2 3 4 5 6 
#
# 1 0.007791 -0.002843 -0.001660 0.000000 -0.000436 0.000000
# 2 -0.002843 0.012700 -0.002198 0.000000 -0.000263 0.000000
# 3 -0.001660 -0.002198 0.008250 0.000000 0.001045 0.000000
# 4 0.000000 0.000000 0.000000 0.043212 0.000000 0.023853
# 5 -0.000436 -0.000263 0.001045 0.000000 0.021332 0.000000
# 6 0.000000 0.000000 0.000000 0.023853 0.000000 0.004619
#
#
# Mechanical properties :
#
#
# Convention : Reuss Voigt Hill
#
# Bulk Modulus (GPa) = 65.19107 68.58132 66.88619
# Shear Modulus (GPa) = 42.94819 1.48529 22.21674
#
# Velocity S-wave (km/s) = 4.34486 0.80799 3.12495
# Velocity P-wave (km/s) = 7.33655 5.56913 6.51307
#
# Compressibility (1/GPa) = 0.01533952
#
# Stress axis : x y z
#
# Youngs Moduli (GPa) = 128.35597 78.73767 121.21692
#
# Poissons Ratio (x) = 0.22383 0.20119
# Poissons Ratio (y) = 0.36488 0.26646
# Poissons Ratio (z) = 0.21304 0.17308
#
# Static dielectric constant tensor:
#      x y z
#    x -3.904800 0.000000 1.072960 
#    y 0.000000 1.866180 0.000000 
#    z 1.072960 0.000000 1.695260 
# 
# From -- ./inp_files/20043.got.cif
#   From: 2010.05.17/outbox.cif.g08.bks.cpg/sg10_11_cif.got.tgz:20043.got - 2010.06.03 11:33:40.
