data_PCOD9154379
_publ_section_title
;
Structure prediction by ZEFSAII (Michael W. Deem and Ramdas Pophale) SiO2 
 PCOD9154379
Probable space group: P 2/M
;
_chemical_formula_sum "Si O2"
_cell_formula_units_Z 24
_cell_length_a 8.818632
_cell_length_b 16.252790
_cell_length_c 10.269943
_cell_angle_alpha 90.000000
_cell_angle_beta 115.425437
_cell_angle_gamma 90.000000
_cell_volume 1329.396559
_symmetry_space_group_name_H-M "P 2/M"
_symmetry_group_IT_number 10
_symmetry_cell_setting 'monoclinic'
loop_
_space_group_symop_operation_xyz
x,y,z
-x,y,-z
-x,-y,-z
x,-y,z
loop_
_atom_site_type_symbol
_atom_site_label
_atom_site_fract_x
_atom_site_fract_y
_atom_site_fract_z
Si Si1 0.509863 0.743422 0.660064
Si Si2 0.734279 0.406813 0.827436
Si Si3 0.350760 0.090059 0.338066
Si Si4 0.987309 0.909941 0.338066
Si Si5 0.093154 0.593187 0.827435
Si Si6 0.849801 0.743423 0.339936
O O1 0.500000 0.735314 0.500000
O O2 0.602237 0.663734 0.749500
O O3 0.611968 0.827485 0.727952
O O4 0.324467 0.751150 0.648935
O O5 0.669544 0.500000 0.783803
O O6 0.898017 0.396230 0.796035
O O7 0.802501 0.401215 0.000001
O O8 0.500000 0.087958 0.500000
O O9 0.172981 0.098084 0.345959
O O10 0.352828 0.000000 0.272403
O O11 0.000000 0.912041 0.500000
O O12 0.884018 0.827486 0.272047
O O13 0.919582 0.000000 0.272405
O O14 0.114256 0.500000 0.783801
O O15 0.147259 0.663734 0.749498
O O16 0.000000 0.735315 0.500000
#
# Coordination Sequence:
#
# PCOD9154379 Si02
#       6
#     4   4   4   4   4   4
#     4  11  21  32  50  76 106 136 167 207 250 293
#     4   9  19  37  58  76  97 129 167 206 251 304
#     4   9  16  27  45  69  98 131 166 204 246 293
#     4   9  16  27  45  69  98 131 166 204 246 293
#     4   9  19  37  58  76  97 129 167 206 251 304
#     4  11  21  32  50  76 106 136 167 207 250 293
#
# _framework density 18.053304000000001
#
# number of rings (size 3 to 8) (size 9 to 14) (size 15 to 20)
#    0.000    2.333    0.000    7.000    0.000    4.000 
#    0.000    1.667    0.000    1.000    0.000    7.000 
#    0.000    0.000    0.000    0.000    0.000    0.000 
#
# Total GULP energy -133796.149051 kJ/mol
# GULP energy per Si atom -5574.839544 kJ/mol
# Density = 1.801221 g / cm^3
# Si number density = 18.053304 Si / 1000 Ang^3
#
#
#
# Elastic Constant Matrix: (Units=GPa)
#
#
# Indices 1 2 3 4 5 6 
#
# 1 119.8609 89.3375 25.3515 0.0000 -1.0692 0.0000
# 2 89.3375 185.2976 34.7458 0.0000 -1.0419 0.0000
# 3 25.3515 34.7458 12.4646 0.0000 -0.9795 0.0000
# 4 0.0000 0.0000 0.0000 -87.6914 0.0000 -2.3170
# 5 -1.0692 -1.0419 -0.9795 0.0000 19.2258 0.0000
# 6 0.0000 0.0000 0.0000 -2.3170 0.0000 33.9455
#
#
#
# Elastic Compliance Matrix: (Units=1/GPa)
#
#
# Indices 1 2 3 4 5 6 
#
# 1 0.015542 -0.003272 -0.022527 0.000000 -0.000461 0.000000
# 2 -0.003272 0.012015 -0.026908 0.000000 -0.000902 0.000000
# 3 -0.022527 -0.026908 0.201647 0.000000 0.007563 0.000000
# 4 0.000000 0.000000 0.000000 -0.011383 0.000000 -0.000777
# 5 -0.000461 -0.000902 0.007563 0.000000 0.052324 0.000000
# 6 0.000000 0.000000 0.000000 -0.000777 0.000000 0.029406
#
#
# Mechanical properties :
#
#
# Convention : Reuss Voigt Hill
#
# Bulk Modulus (GPa) = 8.07817 68.49920 38.28868
# Shear Modulus (GPa) = 11.20504 4.30854 7.75679
#
# Velocity S-wave (km/s) = 2.49402 1.54653 2.07507
# Velocity P-wave (km/s) = 3.57461 6.41982 5.19576
#
# Compressibility (1/GPa) = 0.12379045
#
# Stress axis : x y z
#
# Youngs Moduli (GPa) = 64.34140 83.23076 4.95916
#
# Poissons Ratio (x) = 0.27232 0.11171
# Poissons Ratio (y) = 0.21052 0.13344
# Poissons Ratio (z) = 1.44939 2.23960
#
# Static dielectric constant tensor:
#      x y z
#    x 1.600380 0.000000 -0.000170 
#    y 0.000000 1.675800 0.000000 
#    z -0.000170 0.000000 1.591740 
# 
# From -- ./inp_files/24560.got.cif
#   From: 2010.05.17/outbox.cif.g08.bks.cpg/sg10_13_cif.got.tgz:24560.got - 2010.06.03 11:33:40.
