data_PCOD9154393
_publ_section_title
;
Structure prediction by ZEFSAII (Michael W. Deem and Ramdas Pophale) SiO2 
 PCOD9154393
Probable space group: P 2/M
;
_chemical_formula_sum "Si O2"
_cell_formula_units_Z 32
_cell_length_a 12.773586
_cell_length_b 8.742302
_cell_length_c 19.733028
_cell_angle_alpha 90.000000
_cell_angle_beta 101.535249
_cell_angle_gamma 90.000000
_cell_volume 2159.089451
_symmetry_space_group_name_H-M "P 2/M"
_symmetry_group_IT_number 10
_symmetry_cell_setting 'monoclinic'
loop_
_space_group_symop_operation_xyz
x,y,z
-x,y,-z
-x,-y,-z
x,-y,z
loop_
_atom_site_type_symbol
_atom_site_label
_atom_site_fract_x
_atom_site_fract_y
_atom_site_fract_z
Si Si1 0.768366 0.681982 0.442517
Si Si2 0.149330 0.181661 0.408427
Si Si3 0.464341 0.182189 0.572394
Si Si4 0.035151 0.184019 0.078835
Si Si5 0.078460 0.681023 0.661732
Si Si6 0.330827 0.317674 0.333643
Si Si7 0.827086 0.317983 0.797995
Si Si8 0.042588 0.180416 0.791675
O O1 0.775450 0.500000 0.456106
O O2 0.825372 0.769803 0.511354
O O3 0.645688 0.733629 0.425228
O O4 0.829240 0.715079 0.380298
O O5 0.238764 0.264056 0.373850
O O6 0.029992 0.234338 0.374564
O O7 0.160046 0.000000 0.401387
O O8 0.500000 0.220021 0.500000
O O9 0.560432 0.233794 0.633245
O O10 0.448332 0.000000 0.573794
O O11 0.142799 0.260351 0.122885
O O12 0.947280 0.217837 0.126709
O O13 0.049214 0.000000 0.080104
O O14 0.000000 0.234227 0.000000
O O15 0.057542 0.500000 0.658286
O O16 0.105660 0.732368 0.741800
O O17 0.344869 0.500000 0.342043
O O18 0.284654 0.284624 0.252422
O O19 0.845169 0.500000 0.796127
O O20 0.918448 0.230394 0.766818
O O21 0.054907 0.000000 0.784305
#
# Coordination Sequence:
#
# PCOD9154393 Si02
#       8
#     4   4   4   4   4   4   4   4
#     4  11  24  38  51  66  89 122 159 201 248 292
#     4  12  22  32  49  71  92 119 156 199 246 290
#     4  11  23  37  53  72  91 116 158 209 253 295
#     4   8  15  27  43  67 100 133 161 188 225 278
#     4  11  22  35  49  68  94 124 160 198 238 289
#     4  11  21  33  52  70  94 127 161 201 245 293
#     4   9  17  28  44  69  96 125 160 192 228 277
#     4   9  17  28  45  66  93 128 156 185 227 271
#
# _framework density 14.821061
#
# number of rings (size 3 to 8) (size 9 to 14) (size 15 to 20)
#    0.750    1.000    2.500    3.375    0.000    5.750 
#    0.000    0.000    0.000    0.000    0.000    0.000 
#    0.000    1.000    0.000   11.250    0.000    5.000 
#
# Total GULP energy -178216.077776 kJ/mol
# GULP energy per Si atom -5569.252431 kJ/mol
# Density = 1.478733 g / cm^3
# Si number density = 14.821061 Si / 1000 Ang^3
#
#
#
# Elastic Constant Matrix: (Units=GPa)
#
#
# Indices 1 2 3 4 5 6 
#
# 1 53.0462 13.0795 27.1849 0.0000 -1.9387 0.0000
# 2 13.0795 25.0207 16.2853 0.0000 1.8991 0.0000
# 3 27.1849 16.2853 99.1231 0.0000 9.0987 0.0000
# 4 0.0000 0.0000 0.0000 22.7052 0.0000 2.7662
# 5 -1.9387 1.8991 9.0987 0.0000 14.6207 0.0000
# 6 0.0000 0.0000 0.0000 2.7662 0.0000 25.4879
#
#
#
# Elastic Compliance Matrix: (Units=1/GPa)
#
#
# Indices 1 2 3 4 5 6 
#
# 1 0.024545 -0.009609 -0.005903 0.000000 0.008177 0.000000
# 2 -0.009609 0.048538 -0.004925 0.000000 -0.004514 0.000000
# 3 -0.005903 -0.004925 0.013289 0.000000 -0.008413 0.000000
# 4 0.000000 0.000000 0.000000 0.044633 0.000000 -0.004844
# 5 0.008177 -0.004514 -0.008413 0.000000 0.075302 0.000000
# 6 0.000000 0.000000 0.000000 -0.004844 0.000000 0.039760
#
#
# Mechanical properties :
#
#
# Convention : Reuss Voigt Hill
#
# Bulk Modulus (GPa) = 21.97933 32.25439 27.11686
# Shear Modulus (GPa) = 16.55040 20.60545 18.57792
#
# Velocity S-wave (km/s) = 3.34530 3.73269 3.54429
# Velocity P-wave (km/s) = 5.45742 6.35509 5.92328
#
# Compressibility (1/GPa) = 0.04549728
#
# Stress axis : x y z
#
# Youngs Moduli (GPa) = 40.74158 20.60239 75.25111
#
# Poissons Ratio (x) = 0.19797 0.44424
# Poissons Ratio (y) = 0.39149 0.37060
# Poissons Ratio (z) = 0.24051 0.10146
#
# Static dielectric constant tensor:
#      x y z
#    x 1.465420 0.000000 0.004080 
#    y 0.000000 1.494150 0.000000 
#    z 0.004080 0.000000 1.525380 
# 
# From -- ./inp_files/75968.got.cif
#   From: 2010.05.17/outbox.cif.g08.bks.cpg/sg10_38_cif.got.tgz:75968.got - 2010.06.03 11:33:40.
