data_PCOD9154370
_publ_section_title
;
Structure prediction by ZEFSAII (Michael W. Deem and Ramdas Pophale) SiO2 
 PCOD9154370
Probable space group: P 2/M
;
_chemical_formula_sum "Si O2"
_cell_formula_units_Z 18
_cell_length_a 13.511315
_cell_length_b 17.124107
_cell_length_c 15.298016
_cell_angle_alpha 90.000000
_cell_angle_beta 160.660112
_cell_angle_gamma 90.000000
_cell_volume 1172.177662
_symmetry_space_group_name_H-M "P 2/M"
_symmetry_group_IT_number 10
_symmetry_cell_setting 'monoclinic'
loop_
_space_group_symop_operation_xyz
x,y,z
-x,y,-z
-x,-y,-z
x,-y,z
loop_
_atom_site_type_symbol
_atom_site_label
_atom_site_fract_x
_atom_site_fract_y
_atom_site_fract_z
Si Si1 0.357235 0.669127 0.784956
Si Si2 0.215069 0.092713 0.505125
Si Si3 0.661305 0.094930 0.723127
Si Si4 0.433715 0.836060 0.048568
Si Si5 0.355353 0.500000 0.782869
O O1 0.422867 0.584471 0.796731
O O2 0.000000 0.679609 0.500000
O O3 0.500000 0.664363 0.000000
O O4 0.498413 0.747467 0.863565
O O5 0.471707 0.117014 0.650102
O O6 0.907932 0.136909 0.227482
O O7 0.161090 0.000000 0.451235
O O8 0.344130 0.111325 0.708649
O O9 0.500000 0.118957 0.500000
O O10 0.669815 0.000000 0.731530
O O11 0.000000 0.123042 0.000000
O O12 0.500000 0.840594 0.000000
O O13 0.000000 0.500000 0.500000
O O14 0.500000 0.500000 0.000000
#
# Coordination Sequence:
#
# PCOD9154370 Si02
#       5
#     4   4   4   4   2
#     4   9  16  28  43  60  82 112 147 180 216 251
#     4  11  22  33  46  64  85 117 157 187 217 256
#     4   9  17  31  49  65  80 100 134 186 240 276
#     4  11  21  32  44  61  91 126 154 181 208 244
#     4   8  14  24  42  62  78 102 142 182 214 256
#
# _framework density 15.356033999999999
#
# number of rings (size 3 to 8) (size 9 to 14) (size 15 to 20)
#    0.000    2.222    0.000    5.333    0.000    6.222 
#    0.000    0.000    0.000    0.000    0.000    0.000 
#    0.000    0.000    0.000   20.000    0.000    2.444 
#
# Total GULP energy -100212.976042 kJ/mol
# GULP energy per Si atom -5567.387558 kJ/mol
# Density = 1.532108 g / cm^3
# Si number density = 15.356034 Si / 1000 Ang^3
#
#
#
# Elastic Constant Matrix: (Units=GPa)
#
#
# Indices 1 2 3 4 5 6 
#
# 1 39.1665 24.5407 21.1155 0.0000 1.5730 0.0000
# 2 24.5407 93.5499 45.9679 0.0000 16.1647 0.0000
# 3 21.1155 45.9679 135.6408 0.0000 -3.0248 0.0000
# 4 0.0000 0.0000 0.0000 21.9622 0.0000 -3.9223
# 5 1.5730 16.1647 -3.0248 0.0000 22.9855 0.0000
# 6 0.0000 0.0000 0.0000 -3.9223 0.0000 -2.0791
#
#
#
# Elastic Compliance Matrix: (Units=1/GPa)
#
#
# Indices 1 2 3 4 5 6 
#
# 1 0.031411 -0.007651 -0.002231 0.000000 0.002937 0.000000
# 2 -0.007651 0.017230 -0.004921 0.000000 -0.012241 0.000000
# 3 -0.002231 -0.004921 0.009496 0.000000 0.004863 0.000000
# 4 0.000000 0.000000 0.000000 0.034058 0.000000 -0.064250
# 5 0.002937 -0.012241 0.004863 0.000000 0.052553 0.000000
# 6 0.000000 0.000000 0.000000 -0.064250 0.000000 -0.359760
#
#
# Mechanical properties :
#
#
# Convention : Reuss Voigt Hill
#
# Bulk Modulus (GPa) = 35.05112 50.17837 42.61474
# Shear Modulus (GPa) = -28.42599 20.35594 -4.03503
#
# Velocity S-wave (km/s) = -4.30714 3.64483 -1.62276
# Velocity P-wave (km/s) = 1.36386 7.10356 4.92953
#
# Compressibility (1/GPa) = 0.02852976
#
# Stress axis : x y z
#
# Youngs Moduli (GPa) = 31.83598 58.03938 105.30851
#
# Poissons Ratio (x) = 0.44406 0.23499
# Poissons Ratio (y) = 0.24358 0.51822
# Poissons Ratio (z) = 0.07104 0.28561
#
# Static dielectric constant tensor:
#      x y z
#    x 1.486740 0.000000 -0.008490 
#    y 0.000000 1.574720 0.000000 
#    z -0.008490 0.000000 1.501060 
# 
# From -- ./inp_files/6572.got.cif
#   From: 2010.05.17/outbox.cif.g08.bks.cpg/sg10_4_cif.got.tgz:6572.got - 2010.06.03 11:33:40.
