data_PCOD9154597
_publ_section_title
;
Structure prediction by ZEFSAII (Michael W. Deem and Ramdas Pophale) SiO2 
 PCOD9154597
Probable space group: P 2/M
;
_chemical_formula_sum "Si O2"
_cell_formula_units_Z 32
_cell_length_a 13.107073
_cell_length_b 19.642078
_cell_length_c 8.089392
_cell_angle_alpha 90.000000
_cell_angle_beta 51.889701
_cell_angle_gamma 90.000000
_cell_volume 1638.651811
_symmetry_space_group_name_H-M "P 2/M"
_symmetry_group_IT_number 10
_symmetry_cell_setting 'monoclinic'
loop_
_space_group_symop_operation_xyz
x,y,z
-x,y,-z
-x,-y,-z
x,-y,z
loop_
_atom_site_type_symbol
_atom_site_label
_atom_site_fract_x
_atom_site_fract_y
_atom_site_fract_z
Si Si1 0.650994 0.807372 0.051682
Si Si2 0.000000 0.577416 0.804656
Si Si3 0.500000 0.578627 0.301252
Si Si4 0.249643 0.338624 0.445509
Si Si5 0.349006 0.807372 0.353670
Si Si6 0.147046 0.078265 0.554551
Si Si7 0.249643 0.661376 0.055206
Si Si8 0.147046 0.078265 0.151358
O O1 0.649488 0.806907 0.850512
O O2 0.717935 0.737064 0.041802
O O3 0.740969 0.870282 0.015177
O O4 0.500000 0.810896 0.254454
O O5 0.000000 0.500000 0.732619
O O6 0.125383 0.621425 0.633966
O O7 0.874617 0.621424 0.884732
O O8 0.000000 0.569790 0.000000
O O9 0.500000 0.582307 0.500000
O O10 0.500001 0.500000 0.251995
O O11 0.374336 0.616034 0.359241
O O12 0.625664 0.616034 0.107913
O O13 0.282065 0.262936 0.477672
O O14 0.232429 0.331546 0.267571
O O15 0.259031 0.870282 0.497116
O O16 0.147816 0.078947 0.352184
O O17 1.000000 0.098017 0.751871
O O18 0.169410 0.000000 0.583283
O O19 0.169410 0.000000 0.077899
#
# Coordination Sequence:
#
# PCOD9154597 Si02
#       8
#     4   4   4   4   4   4   4   4
#     4   9  17  29  45  71 107 141 176 222 272 319
#     4  11  25  43  59  79 110 145 184 232 285 341
#     4  11  23  39  59  81 110 149 186 226 279 333
#     4  11  22  37  58  85 113 144 185 233 281 332
#     4   9  17  29  45  71 107 141 176 222 272 319
#     4   8  14  24  40  65 100 143 183 216 261 322
#     4  11  22  37  58  85 113 144 185 233 281 332
#     4   8  14  24  40  65 100 143 183 216 261 322
#
# _framework density 19.528248999999999
#
# number of rings (size 3 to 8) (size 9 to 14) (size 15 to 20)
#    0.000    2.250    1.250    3.000    1.750    5.500 
#    0.000    2.500    0.000    0.000    0.000    0.000 
#    0.000    6.000    0.000    0.000    0.000    0.000 
#
# Total GULP energy -178581.501174 kJ/mol
# GULP energy per Si atom -5580.671912 kJ/mol
# Density = 1.948380 g / cm^3
# Si number density = 19.528249 Si / 1000 Ang^3
#
#
#
# Elastic Constant Matrix: (Units=GPa)
#
#
# Indices 1 2 3 4 5 6 
#
# 1 83.2382 72.4132 47.7372 0.0000 -50.8949 0.0000
# 2 72.4132 178.2262 66.6799 0.0000 -57.0836 0.0000
# 3 47.7372 66.6799 73.3652 0.0000 -47.4041 0.0000
# 4 0.0000 0.0000 0.0000 -110.3332 0.0000 -126.0109
# 5 -50.8949 -57.0836 -47.4041 0.0000 49.9512 0.0000
# 6 0.0000 0.0000 0.0000 -126.0109 0.0000 -97.6785
#
#
#
# Elastic Compliance Matrix: (Units=1/GPa)
#
#
# Indices 1 2 3 4 5 6 
#
# 1 0.033997 -0.004586 0.002695 0.000000 0.031955 0.000000
# 2 -0.004586 0.009923 -0.004464 0.000000 0.002430 0.000000
# 3 0.002695 -0.004464 0.037259 0.000000 0.033003 0.000000
# 4 0.000000 0.000000 0.000000 0.019147 0.000000 -0.024700
# 5 0.031955 0.002430 0.033003 0.000000 0.086676 0.000000
# 6 0.000000 0.000000 0.000000 -0.024700 0.000000 0.021627
#
#
# Mechanical properties :
#
#
# Convention : Reuss Voigt Hill
#
# Bulk Modulus (GPa) = 14.60543 78.72115 46.66329
# Shear Modulus (GPa) = 20.47820 -21.74549 -0.63365
#
# Velocity S-wave (km/s) = 3.24179 -3.34060 -0.57025
# Velocity P-wave (km/s) = 4.63763 5.05168 4.84908
#
# Compressibility (1/GPa) = 0.06846768
#
# Stress axis : x y z
#
# Youngs Moduli (GPa) = 29.41472 100.77823 26.83913
#
# Poissons Ratio (x) = 0.46219 -0.07233
# Poissons Ratio (y) = 0.13490 0.11981
# Poissons Ratio (z) = -0.07927 0.44989
#
# Static dielectric constant tensor:
#      x y z
#    x 1.658440 0.000000 0.032110 
#    y 0.000000 1.688060 0.000000 
#    z 0.032110 0.000000 1.661670 
# 
# From -- ./inp_files/26053.got.cif
#   From: 2010.05.17/outbox.cif.g08.bks.cpg/sg10_14_cif.got.tgz:26053.got - 2010.06.03 11:33:40.
