data_PCOD9154884
_publ_section_title
;
Structure prediction by ZEFSAII (Michael W. Deem and Ramdas Pophale) SiO2 
 PCOD9154884
Probable space group: P 2/M
;
_chemical_formula_sum "Si O2"
_cell_formula_units_Z 32
_cell_length_a 15.903308
_cell_length_b 7.297262
_cell_length_c 24.079404
_cell_angle_alpha 90.000000
_cell_angle_beta 153.993056
_cell_angle_gamma 90.000000
_cell_volume 1225.301611
_symmetry_space_group_name_H-M "P 2/M"
_symmetry_group_IT_number 10
_symmetry_cell_setting 'monoclinic'
loop_
_space_group_symop_operation_xyz
x,y,z
-x,y,-z
-x,-y,-z
x,-y,z
loop_
_atom_site_type_symbol
_atom_site_label
_atom_site_fract_x
_atom_site_fract_y
_atom_site_fract_z
Si Si1 0.542647 0.707087 0.585035
Si Si2 0.382071 0.716996 0.255354
Si Si3 0.099896 0.792332 0.863689
Si Si4 0.809275 0.207321 0.467120
Si Si5 0.120399 0.775798 0.374331
Si Si6 0.224986 0.219492 0.049773
Si Si7 0.350774 0.225013 0.737217
Si Si8 0.463475 0.208242 0.918213
O O1 0.500000 0.796077 0.500000
O O2 0.614722 0.500000 0.616363
O O3 0.660230 0.786132 0.707194
O O4 0.330990 0.706958 0.484998
O O5 0.413905 0.500000 0.279384
O O6 0.583525 0.799683 0.352647
O O7 0.220237 0.742044 0.112432
O O8 0.325123 0.803278 0.983099
O O9 0.006872 0.712398 0.752977
O O10 0.021060 0.000000 0.820303
O O11 0.089088 0.710272 0.919259
O O12 0.916967 0.285594 0.584671
O O13 0.794359 0.287310 0.396658
O O14 0.881958 0.000000 0.503292
O O15 0.117933 0.000000 0.374496
O O16 0.438944 0.282776 0.159508
O O17 0.219850 0.000000 0.041529
O O18 0.349300 0.000000 0.736861
O O19 0.336221 0.284513 0.792457
O O20 0.390090 0.000000 0.885918
O O21 0.500000 0.294343 0.000000
#
# Coordination Sequence:
#
# PCOD9154884 Si02
#       8
#     4   4   4   4   4   4   4   4
#     4   9  18  31  44  59  82 108 129 156 199 243
#     4   9  15  23  38  59  78  95 124 164 195 225
#     4   8  14  24  38  57  81 108 135 164 199 236
#     4   8  13  22  36  53  75 102 128 158 199 237
#     4   9  16  26  42  62  81 103 134 168 198 233
#     4   8  13  23  38  54  76 104 129 157 197 235
#     4   7  10  17  30  48  69  96 129 159 188 225
#     4   8  12  18  31  52  78 108 138 164 193 234
#
# _framework density 26.116016999999999
#
# number of rings (size 3 to 8) (size 9 to 14) (size 15 to 20)
#    0.000    3.750    0.000    2.625    0.000    0.750 
#    0.000    0.625    0.000    1.500    0.000   10.500 
#    0.000   50.000    0.000   43.500    0.000   42.500 
#
# Total GULP energy -178234.811945 kJ/mol
# GULP energy per Si atom -5569.837873 kJ/mol
# Density = 2.605658 g / cm^3
# Si number density = 26.116017 Si / 1000 Ang^3
#
#
#
# Elastic Constant Matrix: (Units=GPa)
#
#
# Indices 1 2 3 4 5 6 
#
# 1 82.0699 -2.8453 82.6679 0.0000 -32.9286 0.0000
# 2 -2.8453 119.5906 11.3859 0.0000 -9.7980 0.0000
# 3 82.6679 11.3859 252.9571 0.0000 -111.0094 0.0000
# 4 0.0000 0.0000 0.0000 -2.5800 0.0000 -5.2697
# 5 -32.9286 -9.7980 -111.0094 0.0000 88.3752 0.0000
# 6 0.0000 0.0000 0.0000 -5.2697 0.0000 -6.3859
#
#
#
# Elastic Compliance Matrix: (Units=1/GPa)
#
#
# Indices 1 2 3 4 5 6 
#
# 1 0.018365 0.000955 -0.006675 0.000000 -0.001436 0.000000
# 2 0.000955 0.008489 -0.000279 0.000000 0.000947 0.000000
# 3 -0.006675 -0.000279 0.011236 0.000000 0.011596 0.000000
# 4 0.000000 0.000000 0.000000 0.565432 0.000000 -0.466598
# 5 -0.001436 0.000947 0.011596 0.000000 0.025451 0.000000
# 6 0.000000 0.000000 0.000000 -0.466598 0.000000 0.228445
#
#
# Mechanical properties :
#
#
# Convention : Reuss Voigt Hill
#
# Bulk Modulus (GPa) = 38.32495 70.78162 54.55328
# Shear Modulus (GPa) = 5.69403 40.10912 22.90158
#
# Velocity S-wave (km/s) = 1.47818 3.92319 2.96449
# Velocity P-wave (km/s) = 4.19763 6.90532 5.71417
#
# Compressibility (1/GPa) = 0.02609266
#
# Stress axis : x y z
#
# Youngs Moduli (GPa) = 54.45031 117.80385 89.00070
#
# Poissons Ratio (x) = -0.11248 0.59407
# Poissons Ratio (y) = -0.05199 0.02479
# Poissons Ratio (z) = 0.36345 0.03281
#
# Static dielectric constant tensor:
#      x y z
#    x 2.077790 0.000000 -0.067460 
#    y 0.000000 2.074600 0.000000 
#    z -0.067460 0.000000 2.174670 
# 
# From -- ./inp_files/90322.got.cif
#   From: 2010.05.17/outbox.cif.g08.bks.cpg/sg10_46_cif.got.tgz:90322.got - 2010.06.03 11:33:40.
