data_PCOD9154104
_publ_section_title
;
Structure prediction by ZEFSAII (Michael W. Deem and Ramdas Pophale) SiO2 
 PCOD9154104
Probable space group: P 2/M
;
_chemical_formula_sum "Si O2"
_cell_formula_units_Z 13
_cell_length_a 5.147819
_cell_length_b 21.500039
_cell_length_c 5.170267
_cell_angle_alpha 90.000000
_cell_angle_beta 97.664063
_cell_angle_gamma 90.000000
_cell_volume 567.124647
_symmetry_space_group_name_H-M "P 2/M"
_symmetry_group_IT_number 10
_symmetry_cell_setting 'monoclinic'
loop_
_space_group_symop_operation_xyz
x,y,z
-x,y,-z
-x,-y,-z
x,-y,z
loop_
_atom_site_type_symbol
_atom_site_label
_atom_site_fract_x
_atom_site_fract_y
_atom_site_fract_z
Si Si1 0.164290 0.603245 0.282583
Si Si2 0.500000 0.716741 0.500000
Si Si3 0.313884 0.000000 0.234158
Si Si4 0.000000 0.109766 0.000000
Si Si5 0.500000 0.196472 0.000000
Si Si6 0.500000 0.500000 0.500000
O O1 0.265612 0.669594 0.396882
O O2 0.400416 0.555255 0.287247
O O3 0.000000 0.574310 0.500000
O O4 0.000000 0.609174 0.000000
O O5 0.525150 0.760075 0.254208
O O6 0.500000 0.000000 0.500000
O O7 0.500000 0.000000 0.000000
O O8 0.130127 0.060750 0.214954
O O9 0.242288 0.153385 0.958657
#
# Coordination Sequence:
#
# PCOD9154104 Si02
#       6
#     4   2   2   2   2   1
#     4  11  24  44  69  98 137 185 228 299 352 424
#     4  11  28  45  68 103 142 185 242 288 356 427
#     4  11  26  50  75 109 145 188 236 304 359 423
#     4  11  28  50  76 110 146 189 244 296 360 427
#     4  12  28  47  76 105 148 194 240 296 356 434
#     4  10  24  42  68 104 132 176 244 282 366 422
#
# _framework density 22.922653
#
# number of rings (size 3 to 8) (size 9 to 14) (size 15 to 20)
#    0.000    0.923    1.538    2.769    8.615    9.846 
#    0.000    0.000    0.000    0.000    0.000    0.000 
#    0.000    0.000    0.000    0.000    0.000    0.000 
#
# Total GULP energy -72454.113450 kJ/mol
# GULP energy per Si atom -5573.393342 kJ/mol
# Density = 2.287048 g / cm^3
# Si number density = 22.922653 Si / 1000 Ang^3
#
#
#
# Elastic Constant Matrix: (Units=GPa)
#
#
# Indices 1 2 3 4 5 6 
#
# 1 120.2659 73.0165 69.7462 0.0000 24.5871 0.0000
# 2 73.0165 212.3098 90.7308 0.0000 16.1578 0.0000
# 3 69.7462 90.7308 239.6621 0.0000 33.2556 0.0000
# 4 0.0000 0.0000 0.0000 10.1752 0.0000 67.2634
# 5 24.5871 16.1578 33.2556 0.0000 48.1392 0.0000
# 6 0.0000 0.0000 0.0000 67.2634 0.0000 321.8392
#
#
#
# Elastic Compliance Matrix: (Units=1/GPa)
#
#
# Indices 1 2 3 4 5 6 
#
# 1 0.012010 -0.003068 -0.001798 0.000000 -0.003862 0.000000
# 2 -0.003068 0.006412 -0.001608 0.000000 0.000525 0.000000
# 3 -0.001798 -0.001608 0.005643 0.000000 -0.002441 0.000000
# 4 0.000000 0.000000 0.000000 -0.257555 0.000000 0.053828
# 5 -0.003862 0.000525 -0.002441 0.000000 0.024255 0.000000
# 6 0.000000 0.000000 0.000000 0.053828 0.000000 -0.008143
#
#
# Mechanical properties :
#
#
# Convention : Reuss Voigt Hill
#
# Bulk Modulus (GPa) = 89.94153 115.46941 102.70547
# Shear Modulus (GPa) = -24.90975 98.61367 36.85196
#
# Velocity S-wave (km/s) = -3.30007 6.56609 4.01392
# Velocity P-wave (km/s) = 4.98011 10.39075 8.14767
#
# Compressibility (1/GPa) = 0.01111833
#
# Stress axis : x y z
#
# Youngs Moduli (GPa) = 83.26545 155.95016 177.21368
#
# Poissons Ratio (x) = 0.47849 0.31856
# Poissons Ratio (y) = 0.25548 0.28488
# Poissons Ratio (z) = 0.14968 0.25070
#
# Static dielectric constant tensor:
#      x y z
#    x 2.012560 0.000000 -0.084820 
#    y 0.000000 1.844720 0.000000 
#    z -0.084820 0.000000 1.829940 
# 
# From -- ./inp_files/889.got.cif
#   From: 2010.05.17/outbox.cif.g08.bks.cpg/sg10_1_cif.got.tgz:889.got - 2010.06.03 11:33:40.
