data_PCOD9154524
_publ_section_title
;
Structure prediction by ZEFSAII (Michael W. Deem and Ramdas Pophale) SiO2 
 PCOD9154524
Probable space group: P 2/M
;
_chemical_formula_sum "Si O2"
_cell_formula_units_Z 20
_cell_length_a 6.818696
_cell_length_b 15.046191
_cell_length_c 15.038511
_cell_angle_alpha 90.000000
_cell_angle_beta 33.437084
_cell_angle_gamma 90.000000
_cell_volume 850.160384
_symmetry_space_group_name_H-M "P 2/M"
_symmetry_group_IT_number 10
_symmetry_cell_setting 'monoclinic'
loop_
_space_group_symop_operation_xyz
x,y,z
-x,y,-z
-x,-y,-z
x,-y,z
loop_
_atom_site_type_symbol
_atom_site_label
_atom_site_fract_x
_atom_site_fract_y
_atom_site_fract_z
Si Si1 0.617255 0.731229 0.859087
Si Si2 0.759997 0.094509 0.986095
Si Si3 0.623152 0.280394 0.363054
Si Si4 0.520237 0.095775 0.600414
Si Si5 0.385218 0.397190 0.305533
O O1 0.369823 0.813826 0.920768
O O2 0.627931 0.657198 0.780399
O O3 0.012160 0.762509 0.738227
O O4 0.500000 0.695984 0.000000
O O5 0.696014 0.000000 0.058637
O O6 0.500000 0.092369 0.000000
O O7 0.156913 0.094575 0.796630
O O8 0.500000 0.328417 0.500000
O O9 0.367395 0.198809 0.428966
O O10 0.653838 0.347687 0.270992
O O11 0.500000 0.092456 0.500000
O O12 0.696059 0.000000 0.555355
O O13 0.474348 0.500000 0.258364
O O14 0.000000 0.392335 0.500000
#
# Coordination Sequence:
#
# PCOD9154524 Si02
#       5
#     4   4   4   4   4
#     4  11  22  41  66  96 131 165 204 260 320 371
#     4   9  16  31  57  90 129 171 206 246 306 369
#     4  11  21  39  68  95 125 167 209 257 315 375
#     4   9  17  31  58  93 127 168 214 251 296 366
#     4  11  26  46  68  93 121 161 218 272 319 382
#
# _framework density 23.524972999999999
#
# number of rings (size 3 to 8) (size 9 to 14) (size 15 to 20)
#    0.000    1.800    6.000    0.000    0.000    2.400 
#    0.000    2.000    0.000    3.600    0.000    0.000 
#    0.000    0.000    0.000    0.000    0.000    0.000 
#
# Total GULP energy -111336.851128 kJ/mol
# GULP energy per Si atom -5566.842556 kJ/mol
# Density = 2.347143 g / cm^3
# Si number density = 23.524973 Si / 1000 Ang^3
#
#
#
# Elastic Constant Matrix: (Units=GPa)
#
#
# Indices 1 2 3 4 5 6 
#
# 1 103.2742 65.1270 33.8423 0.0000 11.8043 0.0000
# 2 65.1270 231.7639 40.9873 0.0000 37.7875 0.0000
# 3 33.8423 40.9873 73.1912 0.0000 19.1590 0.0000
# 4 0.0000 0.0000 0.0000 28.3023 0.0000 7.5794
# 5 11.8043 37.7875 19.1590 0.0000 28.2867 0.0000
# 6 0.0000 0.0000 0.0000 7.5794 0.0000 25.6360
#
#
#
# Elastic Compliance Matrix: (Units=1/GPa)
#
#
# Indices 1 2 3 4 5 6 
#
# 1 0.012996 -0.003133 -0.004778 0.000000 0.001997 0.000000
# 2 -0.003133 0.006394 -0.000290 0.000000 -0.007038 0.000000
# 3 -0.004778 -0.000290 0.018732 0.000000 -0.010307 0.000000
# 4 0.000000 0.000000 0.000000 0.038371 0.000000 -0.011344
# 5 0.001997 -0.007038 -0.010307 0.000000 0.050901 0.000000
# 6 0.000000 0.000000 0.000000 -0.011344 0.000000 0.042362
#
#
# Mechanical properties :
#
#
# Convention : Reuss Voigt Hill
#
# Bulk Modulus (GPa) = 46.03719 76.46027 61.24873
# Shear Modulus (GPa) = 25.85371 34.32984 30.09178
#
# Velocity S-wave (km/s) = 3.31870 3.82421 3.58039
# Velocity P-wave (km/s) = 5.85636 7.21608 6.57148
#
# Compressibility (1/GPa) = 0.02172157
#
# Stress axis : x y z
#
# Youngs Moduli (GPa) = 76.94824 156.40349 53.38406
#
# Poissons Ratio (x) = 0.48996 0.25505
# Poissons Ratio (y) = 0.24105 0.01547
# Poissons Ratio (z) = 0.36763 0.04533
#
# Static dielectric constant tensor:
#      x y z
#    x 1.942470 0.000000 -0.078900 
#    y 0.000000 1.923830 0.000000 
#    z -0.078900 0.000000 2.031180 
# 
# From -- ./inp_files/75162.got.cif
#   From: 2010.05.17/outbox.cif.g08.bks.cpg/sg10_38_cif.got.tgz:75162.got - 2010.06.03 11:33:40.
