data_PCOD9154322
_publ_section_title
;
Structure prediction by ZEFSAII (Michael W. Deem and Ramdas Pophale) SiO2 
 PCOD9154322
Probable space group: P 2/M
;
_chemical_formula_sum "Si O2"
_cell_formula_units_Z 20
_cell_length_a 12.094781
_cell_length_b 11.440384
_cell_length_c 15.409861
_cell_angle_alpha 90.000000
_cell_angle_beta 28.539693
_cell_angle_gamma 90.000000
_cell_volume 1018.717826
_symmetry_space_group_name_H-M "P 2/M"
_symmetry_group_IT_number 10
_symmetry_cell_setting 'monoclinic'
loop_
_space_group_symop_operation_xyz
x,y,z
-x,y,-z
-x,-y,-z
x,-y,z
loop_
_atom_site_type_symbol
_atom_site_label
_atom_site_fract_x
_atom_site_fract_y
_atom_site_fract_z
Si Si1 0.342682 0.283437 0.529497
Si Si2 0.258542 0.500000 0.285568
Si Si3 0.736256 0.137336 0.160175
Si Si4 0.822348 0.500000 0.043986
Si Si5 0.500000 0.687834 0.000000
Si Si6 0.658340 0.500000 0.576196
Si Si7 0.165401 0.743299 0.075411
O O1 0.500000 0.332043 0.500000
O O2 0.527664 0.202059 0.352944
O O3 0.244398 0.384034 0.533353
O O4 0.105165 0.223954 0.725006
O O5 0.336723 0.391125 0.174506
O O6 0.376643 0.500000 0.296922
O O7 0.000000 0.500000 0.500000
O O8 0.724927 0.000000 0.186142
O O9 0.715619 0.168488 0.073552
O O10 0.000000 0.178426 0.000000
O O11 0.834593 0.615333 0.973374
O O12 0.608403 0.500000 0.258810
O O13 0.000000 0.500000 0.000000
O O14 0.681727 0.744757 0.942233
#
# Coordination Sequence:
#
# PCOD9154322 Si02
#       7
#     4   2   4   2   2   2   4
#     4  12  23  38  62  96 124 161 208 253 308 372
#     4  11  20  36  56  83 123 172 210 243 286 356
#     4  11  24  44  66  90 122 159 204 265 323 368
#     4  12  20  35  62  87 129 164 194 247 310 363
#     4  11  22  38  59  88 126 170 211 245 300 372
#     4  12  21  36  56  89 132 161 194 243 303 362
#     4  12  23  41  62  93 129 165 207 253 308 372
#
# _framework density 19.632522999999999
#
# number of rings (size 3 to 8) (size 9 to 14) (size 15 to 20)
#    0.000    0.400    6.000    4.500    0.000    1.200 
#    0.000    0.500    0.000    1.200    0.000    0.000 
#    0.000    0.000    0.000    0.000    0.000    0.000 
#
# Total GULP energy -111411.136799 kJ/mol
# GULP energy per Si atom -5570.556840 kJ/mol
# Density = 1.958784 g / cm^3
# Si number density = 19.632523 Si / 1000 Ang^3
#
#
#
# Elastic Constant Matrix: (Units=GPa)
#
#
# Indices 1 2 3 4 5 6 
#
# 1 113.8272 4.4114 13.4368 0.0000 9.6614 0.0000
# 2 4.4114 49.2930 25.3698 0.0000 7.6462 0.0000
# 3 13.4368 25.3698 143.6085 0.0000 4.5586 0.0000
# 4 0.0000 0.0000 0.0000 -1.5270 0.0000 -6.4721
# 5 9.6614 7.6462 4.5586 0.0000 38.9556 0.0000
# 6 0.0000 0.0000 0.0000 -6.4721 0.0000 2.6787
#
#
#
# Elastic Compliance Matrix: (Units=1/GPa)
#
#
# Indices 1 2 3 4 5 6 
#
# 1 0.009061 -0.000085 -0.000765 0.000000 -0.002141 0.000000
# 2 -0.000085 0.022934 -0.003916 0.000000 -0.004022 0.000000
# 3 -0.000765 -0.003916 0.007725 0.000000 0.000054 0.000000
# 4 0.000000 0.000000 0.000000 -0.058261 0.000000 -0.140764
# 5 -0.002141 -0.004022 0.000054 0.000000 0.026984 0.000000
# 6 0.000000 0.000000 0.000000 -0.140764 0.000000 0.033211
#
#
# Mechanical properties :
#
#
# Convention : Reuss Voigt Hill
#
# Bulk Modulus (GPa) = 33.12598 43.68497 38.40547
# Shear Modulus (GPa) = 81.63554 25.58885 53.61219
#
# Velocity S-wave (km/s) = 6.45539 3.61417 5.23136
# Velocity P-wave (km/s) = 8.51307 6.30206 7.48960
#
# Compressibility (1/GPa) = 0.03018778
#
# Stress axis : x y z
#
# Youngs Moduli (GPa) = 110.36877 43.60383 129.45026
#
# Poissons Ratio (x) = 0.00371 0.09900
# Poissons Ratio (y) = 0.00940 0.50690
# Poissons Ratio (z) = 0.08440 0.17075
#
# Static dielectric constant tensor:
#      x y z
#    x 1.682350 0.000000 0.009090 
#    y 0.000000 2.575360 0.000000 
#    z 0.009090 0.000000 1.758780 
# 
# From -- ./inp_files/51005.got.cif
#   From: 2010.05.17/outbox.cif.g08.bks.cpg/sg10_26_cif.got.tgz:51005.got - 2010.06.03 11:33:40.
