data_PCOD9154105
_publ_section_title
;
Structure prediction by ZEFSAII (Michael W. Deem and Ramdas Pophale) SiO2 
 PCOD9154105
Probable space group: P 2/M
;
_chemical_formula_sum "Si O2"
_cell_formula_units_Z 18
_cell_length_a 5.110699
_cell_length_b 27.236554
_cell_length_c 6.673939
_cell_angle_alpha 90.000000
_cell_angle_beta 71.952670
_cell_angle_gamma 90.000000
_cell_volume 883.291987
_symmetry_space_group_name_H-M "P 2/M"
_symmetry_group_IT_number 10
_symmetry_cell_setting 'monoclinic'
loop_
_space_group_symop_operation_xyz
x,y,z
-x,y,-z
-x,-y,-z
x,-y,z
loop_
_atom_site_type_symbol
_atom_site_label
_atom_site_fract_x
_atom_site_fract_y
_atom_site_fract_z
Si Si1 0.700099 0.917653 0.640017
Si Si2 0.500000 0.500000 0.500000
Si Si3 0.500000 0.000000 0.000000
Si Si4 0.688175 0.412597 0.152503
Si Si5 0.500000 0.329140 0.500000
Si Si6 0.000000 0.739754 0.500000
Si Si7 0.803094 0.817951 0.861034
O O1 0.500000 0.909324 0.500000
O O2 0.754165 0.866466 0.740471
O O3 0.000000 0.935933 0.500000
O O4 0.564899 0.957082 0.817652
O O5 0.622817 0.457169 0.318872
O O6 0.618233 0.363756 0.295587
O O7 0.500000 0.416269 0.000000
O O8 0.000000 0.413239 0.000000
O O9 0.259878 0.294776 0.474552
O O10 0.946808 0.775539 0.699458
O O11 0.500000 0.801193 0.000000
O O12 0.000000 0.830607 0.000000
#
# Coordination Sequence:
#
# PCOD9154105 Si02
#       7
#     4   1   1   4   2   2   4
#     4  12  27  47  72 102 136 176 220 273 338 411
#     4  10  24  42  68 108 136 178 240 272 348 394
#     4  12  28  46  76 100 142 172 226 270 346 404
#     4  11  24  43  69  98 141 183 225 286 338 406
#     4  11  26  43  66 102 132 181 232 281 338 410
#     4  12  26  44  70  96 138 174 232 288 338 400
#     4  12  26  45  72 100 133 176 224 279 343 407
#
# _framework density 20.378314
#
# number of rings (size 3 to 8) (size 9 to 14) (size 15 to 20)
#    0.000    0.444    2.222    5.333    1.556    9.778 
#    0.000    0.000    0.000    0.000    0.000    0.000 
#    0.000    0.000    0.000    0.000    0.000    0.000 
#
# Total GULP energy -100242.460622 kJ/mol
# GULP energy per Si atom -5569.025590 kJ/mol
# Density = 2.033193 g / cm^3
# Si number density = 20.378314 Si / 1000 Ang^3
#
#
#
# Elastic Constant Matrix: (Units=GPa)
#
#
# Indices 1 2 3 4 5 6 
#
# 1 162.3210 56.7717 93.8624 0.0000 23.2301 0.0000
# 2 56.7717 184.9816 93.8427 0.0000 11.8979 0.0000
# 3 93.8624 93.8427 179.2014 0.0000 -1.9335 0.0000
# 4 0.0000 0.0000 0.0000 59.4784 0.0000 47.3200
# 5 23.2301 11.8979 -1.9335 0.0000 22.0793 0.0000
# 6 0.0000 0.0000 0.0000 47.3200 0.0000 49.7316
#
#
#
# Elastic Compliance Matrix: (Units=1/GPa)
#
#
# Indices 1 2 3 4 5 6 
#
# 1 0.011604 0.000594 -0.006531 0.000000 -0.013101 0.000000
# 2 0.000594 0.007826 -0.004466 0.000000 -0.005233 0.000000
# 3 -0.006531 -0.004466 0.011450 0.000000 0.010280 0.000000
# 4 0.000000 0.000000 0.000000 0.069189 0.000000 -0.065834
# 5 -0.013101 -0.005233 0.010280 0.000000 0.062796 0.000000
# 6 0.000000 0.000000 0.000000 -0.065834 0.000000 0.082750
#
#
# Mechanical properties :
#
#
# Convention : Reuss Voigt Hill
#
# Bulk Modulus (GPa) = 99.24580 112.82861 106.03721
# Shear Modulus (GPa) = 18.53378 45.05967 31.79673
#
# Velocity S-wave (km/s) = 3.01904 4.70740 3.95438
# Velocity P-wave (km/s) = 7.80770 9.22135 8.54381
#
# Compressibility (1/GPa) = 0.01007599
#
# Stress axis : x y z
#
# Youngs Moduli (GPa) = 86.17739 127.78362 87.33271
#
# Poissons Ratio (x) = -0.07595 0.57033
# Poissons Ratio (y) = -0.05122 0.39002
# Poissons Ratio (z) = 0.56278 0.57067
#
# Static dielectric constant tensor:
#      x y z
#    x 1.794010 0.000000 -0.005710 
#    y 0.000000 1.657560 0.000000 
#    z -0.005710 0.000000 1.707830 
# 
# From -- ./inp_files/1691.got.cif
#   From: 2010.05.17/outbox.cif.g08.bks.cpg/sg10_1_cif.got.tgz:1691.got - 2010.06.03 11:33:40.
