data_PCOD9154533
_publ_section_title
;
Structure prediction by ZEFSAII (Michael W. Deem and Ramdas Pophale) SiO2 
 PCOD9154533
Probable space group: P 2/M
;
_chemical_formula_sum "Si O2"
_cell_formula_units_Z 10
_cell_length_a 11.895985
_cell_length_b 8.573583
_cell_length_c 7.652289
_cell_angle_alpha 90.000000
_cell_angle_beta 40.474846
_cell_angle_gamma 90.000000
_cell_volume 506.611689
_symmetry_space_group_name_H-M "P 2/M"
_symmetry_group_IT_number 10
_symmetry_cell_setting 'monoclinic'
loop_
_space_group_symop_operation_xyz
x,y,z
-x,y,-z
-x,-y,-z
x,-y,z
loop_
_atom_site_type_symbol
_atom_site_label
_atom_site_fract_x
_atom_site_fract_y
_atom_site_fract_z
Si Si1 0.378422 0.165546 0.475389
Si Si2 0.082138 0.500000 0.206188
Si Si3 0.490069 0.500000 0.806598
Si Si4 0.000000 0.257128 0.000000
O O1 0.500000 0.159520 0.500000
O O2 0.419016 0.337651 0.353593
O O3 0.178150 0.167704 0.764471
O O4 0.411196 0.000000 0.337211
O O5 0.000000 0.500000 0.500000
O O6 0.025028 0.642906 0.149139
O O7 0.291132 0.500000 0.976244
O O8 0.500000 0.500000 0.000000
#
# Coordination Sequence:
#
# PCOD9154533 Si02
#       4
#     4   2   2   2
#     4  11  23  41  66  94 126 167 214 260 317 384
#     4  11  22  38  63  98 127 168 217 260 323 380
#     4  12  23  42  66  91 133 169 209 270 317 378
#     4  11  21  40  66  91 133 166 209 269 314 383
#
# _framework density 19.738983000000001
#
# number of rings (size 3 to 8) (size 9 to 14) (size 15 to 20)
#    0.000    0.800    4.000    6.000    0.000    0.800 
#    0.000    0.000    0.000    6.000    0.000    0.000 
#    0.000    0.000    0.000    0.000    0.000    0.000 
#
# Total GULP energy -55699.777911 kJ/mol
# GULP energy per Si atom -5569.977791 kJ/mol
# Density = 1.969406 g / cm^3
# Si number density = 19.738983 Si / 1000 Ang^3
#
#
#
# Elastic Constant Matrix: (Units=GPa)
#
#
# Indices 1 2 3 4 5 6 
#
# 1 126.6739 50.8078 59.5530 0.0000 -16.3068 0.0000
# 2 50.8078 216.7633 78.3300 0.0000 8.0000 0.0000
# 3 59.5530 78.3300 114.4895 0.0000 -20.7960 0.0000
# 4 0.0000 0.0000 0.0000 31.2290 0.0000 -20.1816
# 5 -16.3068 8.0000 -20.7960 0.0000 55.4121 0.0000
# 6 0.0000 0.0000 0.0000 -20.1816 0.0000 135.7076
#
#
#
# Elastic Compliance Matrix: (Units=1/GPa)
#
#
# Indices 1 2 3 4 5 6 
#
# 1 0.010626 -0.000860 -0.004667 0.000000 0.001500 0.000000
# 2 -0.000860 0.006580 -0.004586 0.000000 -0.002924 0.000000
# 3 -0.004667 -0.004586 0.015207 0.000000 0.004996 0.000000
# 4 0.000000 0.000000 0.000000 0.035426 0.000000 0.005268
# 5 0.001500 -0.002924 0.004996 0.000000 0.020785 0.000000
# 6 0.000000 0.000000 0.000000 0.005268 0.000000 0.008152
#
#
# Mechanical properties :
#
#
# Convention : Reuss Voigt Hill
#
# Bulk Modulus (GPa) = 82.04429 92.81205 87.42817
# Shear Modulus (GPa) = 41.30087 62.41879 51.85983
#
# Velocity S-wave (km/s) = 4.57918 5.62945 5.13126
# Velocity P-wave (km/s) = 8.34346 9.45389 8.91598
#
# Compressibility (1/GPa) = 0.01218854
#
# Stress axis : x y z
#
# Youngs Moduli (GPa) = 94.10772 151.98007 65.76069
#
# Poissons Ratio (x) = 0.13065 0.30689
# Poissons Ratio (y) = 0.08090 0.30155
# Poissons Ratio (z) = 0.43918 0.69692
#
# Static dielectric constant tensor:
#      x y z
#    x 1.637880 0.000000 -0.005340 
#    y 0.000000 2.058540 0.000000 
#    z -0.005340 0.000000 1.689120 
# 
# From -- ./inp_files/13876.got.cif
#   From: 2010.05.17/outbox.cif.g08.bks.cpg/sg10_7_cif.got.tgz:13876.got - 2010.06.03 11:33:40.
