data_PCOD9154606
_publ_section_title
;
Structure prediction by ZEFSAII (Michael W. Deem and Ramdas Pophale) SiO2 
 PCOD9154606
Probable space group: P 2/M
;
_chemical_formula_sum "Si O2"
_cell_formula_units_Z 25
_cell_length_a 11.684826
_cell_length_b 11.224734
_cell_length_c 17.861701
_cell_angle_alpha 90.000000
_cell_angle_beta 30.620078
_cell_angle_gamma 90.000000
_cell_volume 1193.250088
_symmetry_space_group_name_H-M "P 2/M"
_symmetry_group_IT_number 10
_symmetry_cell_setting 'monoclinic'
loop_
_space_group_symop_operation_xyz
x,y,z
-x,y,-z
-x,-y,-z
x,-y,z
loop_
_atom_site_type_symbol
_atom_site_label
_atom_site_fract_x
_atom_site_fract_y
_atom_site_fract_z
Si Si1 0.983851 0.259342 0.322934
Si Si2 0.933811 0.500000 0.652721
Si Si3 0.646317 0.737582 0.137139
Si Si4 0.624282 0.500000 0.681266
Si Si5 0.531231 0.209964 0.359058
Si Si6 0.929948 0.643931 0.188518
Si Si7 0.403354 0.138849 0.133883
Si Si8 0.500000 0.000000 0.500000
O O1 0.105823 0.378844 0.282090
O O2 0.732361 0.242182 0.494376
O O3 0.971404 0.281121 0.241310
O O4 0.137449 0.155496 0.270550
O O5 0.198792 0.500000 0.485211
O O6 0.783157 0.500000 0.664523
O O7 0.524816 0.616440 0.230820
O O8 0.624600 0.818737 0.223321
O O9 0.509497 0.792622 0.144215
O O10 0.891611 0.697621 0.970959
O O11 0.680063 0.321325 0.303804
O O12 0.551667 0.104218 0.407381
O O13 0.956612 0.500000 0.182463
O O14 0.460941 0.000000 0.109318
O O15 0.500000 0.183630 0.000000
#
# Coordination Sequence:
#
# PCOD9154606 Si02
#       8
#     4   2   4   2   4   4   4   1
#     4  12  23  43  71 104 141 188 239 287 356 433
#     4  11  22  37  66 104 149 186 223 289 360 440
#     4  12  25  46  72 111 144 184 238 297 363 435
#     4  11  22  39  66 106 153 180 223 292 373 434
#     4  12  29  47  72 101 142 190 247 295 353 418
#     4  12  26  44  74 110 148 190 235 300 366 432
#     4  11  26  46  71 103 144 188 234 298 361 422
#     4  12  28  56  72  94 136 204 246 300 330 416
#
# _framework density 20.951183
#
# number of rings (size 3 to 8) (size 9 to 14) (size 15 to 20)
#    0.000    0.320    8.000    0.480    4.480    1.920 
#    1.440    4.000    0.000    0.000    0.000    0.000 
#    0.000    0.000    0.000    0.000    0.000    0.000 
#
# Total GULP energy -139355.069380 kJ/mol
# GULP energy per Si atom -5574.202775 kJ/mol
# Density = 2.090350 g / cm^3
# Si number density = 20.951183 Si / 1000 Ang^3
#
#
#
# Elastic Constant Matrix: (Units=GPa)
#
#
# Indices 1 2 3 4 5 6 
#
# 1 85.8203 30.4540 15.3863 0.0000 14.0770 0.0000
# 2 30.4540 81.2200 15.4032 0.0000 11.8490 0.0000
# 3 15.3863 15.4032 85.1629 0.0000 -2.9636 0.0000
# 4 0.0000 0.0000 0.0000 20.1978 0.0000 14.8103
# 5 14.0770 11.8490 -2.9636 0.0000 42.2127 0.0000
# 6 0.0000 0.0000 0.0000 14.8103 0.0000 19.8188
#
#
#
# Elastic Compliance Matrix: (Units=1/GPa)
#
#
# Indices 1 2 3 4 5 6 
#
# 1 0.014151 -0.004422 -0.001882 0.000000 -0.003610 0.000000
# 2 -0.004422 0.014753 -0.001967 0.000000 -0.002804 0.000000
# 3 -0.001882 -0.001967 0.012510 0.000000 0.002058 0.000000
# 4 0.000000 0.000000 0.000000 0.109527 0.000000 -0.081848
# 5 -0.003610 -0.002804 0.002058 0.000000 0.025825 0.000000
# 6 0.000000 0.000000 0.000000 -0.081848 0.000000 0.111621
#
#
# Mechanical properties :
#
#
# Convention : Reuss Voigt Hill
#
# Bulk Modulus (GPa) = 40.20908 41.63223 40.92065
# Shear Modulus (GPa) = 15.96326 29.17651 22.56988
#
# Velocity S-wave (km/s) = 2.76330 3.73580 3.28573
# Velocity P-wave (km/s) = 5.42352 6.20665 5.82825
#
# Compressibility (1/GPa) = 0.02487001
#
# Stress axis : x y z
#
# Youngs Moduli (GPa) = 70.66530 67.78477 79.93823
#
# Poissons Ratio (x) = 0.29977 0.15048
# Poissons Ratio (y) = 0.31251 0.15723
# Poissons Ratio (z) = 0.13302 0.13332
#
# Static dielectric constant tensor:
#      x y z
#    x 1.773690 0.000000 0.013540 
#    y 0.000000 1.726320 0.000000 
#    z 0.013540 0.000000 1.773640 
# 
# From -- ./inp_files/76651.got.cif
#   From: 2010.05.17/outbox.cif.g08.bks.cpg/sg10_39_cif.got.tgz:76651.got - 2010.06.03 11:33:40.
