data_PCOD9154945
_publ_section_title
;
Structure prediction by ZEFSAII (Michael W. Deem and Ramdas Pophale) SiO2 
 PCOD9154945
Probable space group: P 2/M
;
_chemical_formula_sum "Si O2"
_cell_formula_units_Z 28
_cell_length_a 22.182009
_cell_length_b 9.326344
_cell_length_c 19.598499
_cell_angle_alpha 90.000000
_cell_angle_beta 18.984079
_cell_angle_gamma 90.000000
_cell_volume 1318.944133
_symmetry_space_group_name_H-M "P 2/M"
_symmetry_group_IT_number 10
_symmetry_cell_setting 'monoclinic'
loop_
_space_group_symop_operation_xyz
x,y,z
-x,y,-z
-x,-y,-z
x,-y,z
loop_
_atom_site_type_symbol
_atom_site_label
_atom_site_fract_x
_atom_site_fract_y
_atom_site_fract_z
Si Si1 0.846308 0.335039 0.016330
Si Si2 0.708949 0.335040 0.428417
Si Si3 0.004361 0.164410 0.420664
Si Si4 0.777894 0.835048 0.222108
Si Si5 0.641482 0.832230 0.632402
Si Si6 0.915352 0.167769 0.810767
Si Si7 0.570621 0.164409 0.854406
O O1 0.787922 0.500000 0.078322
O O2 0.068805 0.333691 0.793581
O O3 0.820850 0.259092 0.970844
O O4 0.755085 0.247146 0.175429
O O5 0.654166 0.500000 0.479597
O O6 0.685599 0.247147 0.383893
O O7 0.612550 0.259089 0.595761
O O8 0.104882 0.222445 0.245533
O O9 0.790212 0.155866 0.629374
O O10 0.000000 0.234917 0.500000
O O11 0.073292 0.000000 0.355691
O O12 0.719914 0.000000 0.280090
O O13 0.000000 0.834895 0.000000
O O14 0.863856 0.829058 0.408444
O O15 0.544710 0.777553 0.805709
O O16 0.593374 0.000000 0.674202
O O17 0.860933 0.000000 0.871496
O O18 0.497730 0.000000 0.931255
O O19 0.500000 0.234923 0.000000
#
# Coordination Sequence:
#
# PCOD9154945 Si02
#       7
#     4   4   4   4   4   4   4
#     4   9  15  21  29  42  61  85 114 147 180 214
#     4   9  15  21  29  42  61  85 114 147 180 214
#     4   8  13  21  34  52  72  94 122 156 191 225
#     4   9  15  21  29  41  59  85 116 147 178 213
#     4   8  13  21  32  45  62  86 116 147 179 217
#     4   8  13  21  32  45  62  86 116 147 179 217
#     4   8  13  21  34  52  72  94 122 156 191 225
#
# _framework density 21.229102000000001
#
# number of rings (size 3 to 8) (size 9 to 14) (size 15 to 20)
#    0.000    3.571    0.000    3.000    0.000    5.143 
#    0.000    0.000    0.000    0.857    0.000    0.000 
#    0.000    0.000    0.000    1.286    0.000   31.714 
#
# Total GULP energy -156059.364055 kJ/mol
# GULP energy per Si atom -5573.548716 kJ/mol
# Density = 2.118078 g / cm^3
# Si number density = 21.229102 Si / 1000 Ang^3
#
#
#
# Elastic Constant Matrix: (Units=GPa)
#
#
# Indices 1 2 3 4 5 6 
#
# 1 135.9323 77.9845 87.9878 0.0000 74.6918 0.0000
# 2 77.9845 119.6243 46.1928 0.0000 56.9336 0.0000
# 3 87.9878 46.1928 77.5280 0.0000 29.8771 0.0000
# 4 0.0000 0.0000 0.0000 -11.5173 0.0000 3.7427
# 5 74.6918 56.9336 29.8771 0.0000 83.3814 0.0000
# 6 0.0000 0.0000 0.0000 3.7427 0.0000 -9.4290
#
#
#
# Elastic Compliance Matrix: (Units=1/GPa)
#
#
# Indices 1 2 3 4 5 6 
#
# 1 0.078305 -0.003708 -0.070314 0.000000 -0.042418 0.000000
# 2 -0.003708 0.014301 -0.002122 0.000000 -0.005683 0.000000
# 3 -0.070314 -0.002122 0.080208 0.000000 0.035695 0.000000
# 4 0.000000 0.000000 0.000000 -0.099685 0.000000 -0.039569
# 5 -0.042418 -0.005683 0.035695 0.000000 0.041080 0.000000
# 6 0.000000 0.000000 0.000000 -0.039569 0.000000 -0.121762
#
#
# Mechanical properties :
#
#
# Convention : Reuss Voigt Hill
#
# Bulk Modulus (GPa) = 48.72147 84.15721 66.43934
# Shear Modulus (GPa) = 32.98619 20.54832 26.76726
#
# Velocity S-wave (km/s) = 3.94613 3.11454 3.55473
# Velocity P-wave (km/s) = 6.61534 7.25687 6.94352
#
# Compressibility (1/GPa) = 0.02052483
#
# Stress axis : x y z
#
# Youngs Moduli (GPa) = 12.77050 69.92467 12.46765
#
# Poissons Ratio (x) = 0.25931 0.87665
# Poissons Ratio (y) = 0.04736 0.02646
# Poissons Ratio (z) = 0.89794 0.14840
#
# Static dielectric constant tensor:
#      x y z
#    x 1.864770 0.000000 -0.093310 
#    y 0.000000 1.695550 0.000000 
#    z -0.093310 0.000000 1.916890 
# 
# From -- ./inp_files/54460.got.cif
#   From: 2010.05.17/outbox.cif.g08.bks.cpg/sg10_28_cif.got.tgz:54460.got - 2010.06.03 11:33:40.
