data_PCOD9154268
_publ_section_title
;
Structure prediction by ZEFSAII (Michael W. Deem and Ramdas Pophale) SiO2 
 PCOD9154268
Probable space group: P 2/M
;
_chemical_formula_sum "Si O2"
_cell_formula_units_Z 28
_cell_length_a 17.969922
_cell_length_b 9.083376
_cell_length_c 14.731038
_cell_angle_alpha 90.000000
_cell_angle_beta 131.125390
_cell_angle_gamma 90.000000
_cell_volume 1811.251106
_symmetry_space_group_name_H-M "P 2/M"
_symmetry_group_IT_number 10
_symmetry_cell_setting 'monoclinic'
loop_
_space_group_symop_operation_xyz
x,y,z
-x,y,-z
-x,-y,-z
x,-y,z
loop_
_atom_site_type_symbol
_atom_site_label
_atom_site_fract_x
_atom_site_fract_y
_atom_site_fract_z
Si Si1 0.088063 0.322198 0.696379
Si Si2 0.915057 0.169799 0.816916
Si Si3 0.135596 0.824888 0.921511
Si Si4 0.384458 0.177257 0.417606
Si Si5 0.749927 0.170870 0.528771
Si Si6 0.774332 0.675073 0.839510
Si Si7 0.863172 0.676319 0.466494
O O1 0.092694 0.500000 0.710156
O O2 0.133780 0.243605 0.819867
O O3 0.138255 0.281547 0.640660
O O4 0.971941 0.281643 0.592033
O O5 0.843339 0.180824 0.672340
O O6 0.869250 0.275283 0.855667
O O7 0.025820 0.200896 0.874918
O O8 0.909329 0.000000 0.845628
O O9 0.151555 0.000000 0.931551
O O10 0.211084 0.746686 0.050271
O O11 0.500000 0.207343 0.500000
O O12 0.341367 0.221462 0.481826
O O13 0.318596 0.256981 0.288988
O O14 0.368435 0.000000 0.396957
O O15 0.778964 0.257660 0.462313
O O16 0.735167 0.000000 0.493955
O O17 0.768028 0.500000 0.839311
O O18 0.858987 0.500000 0.466827
#
# Coordination Sequence:
#
# PCOD9154268 Si02
#       7
#     4   4   4   4   4   4   4
#     4   9  18  30  43  63  94 130 166 197 229 272
#     4   9  18  31  44  63  93 128 163 196 228 271
#     4  11  20  31  46  65  92 129 166 198 232 272
#     4   9  19  37  56  72  94 123 154 193 240 286
#     4   9  16  28  47  71  94 120 158 197 232 274
#     4  11  22  32  46  69  95 123 156 195 236 284
#     4   9  17  29  44  64  94 130 161 194 235 276
#
# _framework density 15.458928999999999
#
# number of rings (size 3 to 8) (size 9 to 14) (size 15 to 20)
#    0.000    2.429    1.429    3.857    0.000    6.000 
#    0.000    1.429    0.000    0.000    0.000    1.000 
#    0.000    8.000    0.000    0.000    0.000    0.000 
#
# Total GULP energy -156126.426374 kJ/mol
# GULP energy per Si atom -5575.943799 kJ/mol
# Density = 1.542374 g / cm^3
# Si number density = 15.458929 Si / 1000 Ang^3
#
#
#
# Elastic Constant Matrix: (Units=GPa)
#
#
# Indices 1 2 3 4 5 6 
#
# 1 118.1371 52.5733 66.6283 0.0000 -14.1628 0.0000
# 2 52.5733 56.7328 48.0313 0.0000 -15.1543 0.0000
# 3 66.6283 48.0313 74.6255 0.0000 -20.2601 0.0000
# 4 0.0000 0.0000 0.0000 41.3435 0.0000 -2.2726
# 5 -14.1628 -15.1543 -20.2601 0.0000 26.2989 0.0000
# 6 0.0000 0.0000 0.0000 -2.2726 0.0000 26.8306
#
#
#
# Elastic Compliance Matrix: (Units=1/GPa)
#
#
# Indices 1 2 3 4 5 6 
#
# 1 0.018542 -0.007306 -0.013004 0.000000 -0.004243 0.000000
# 2 -0.007306 0.041936 -0.018937 0.000000 0.005642 0.000000
# 3 -0.013004 -0.018937 0.040887 0.000000 0.013583 0.000000
# 4 0.000000 0.000000 0.000000 0.024301 0.000000 0.002058
# 5 -0.004243 0.005642 0.013583 0.000000 0.049455 0.000000
# 6 0.000000 0.000000 0.000000 0.002058 0.000000 0.037445
#
#
# Mechanical properties :
#
#
# Convention : Reuss Voigt Hill
#
# Bulk Modulus (GPa) = 43.72349 64.88458 54.30403
# Shear Modulus (GPa) = 16.74023 24.37877 20.55950
#
# Velocity S-wave (km/s) = 3.29429 3.97546 3.65080
# Velocity P-wave (km/s) = 6.54331 7.94580 7.27841
#
# Compressibility (1/GPa) = 0.02287100
#
# Stress axis : x y z
#
# Youngs Moduli (GPa) = 53.93269 23.84596 24.45782
#
# Poissons Ratio (x) = 0.17421 0.31806
# Poissons Ratio (y) = 0.39402 0.46315
# Poissons Ratio (z) = 0.70135 0.45156
#
# Static dielectric constant tensor:
#      x y z
#    x 1.516350 0.000000 -0.010720 
#    y 0.000000 1.516320 0.000000 
#    z -0.010720 0.000000 1.505230 
# 
# From -- ./inp_files/65725.got.cif
#   From: 2010.05.17/outbox.cif.g08.bks.cpg/sg10_33_cif.got.tgz:65725.got - 2010.06.03 11:33:40.
