data_PCOD9154635
_publ_section_title
;
Structure prediction by ZEFSAII (Michael W. Deem and Ramdas Pophale) SiO2 
 PCOD9154635
Probable space group: P 2/M
;
_chemical_formula_sum "Si O2"
_cell_formula_units_Z 20
_cell_length_a 12.926373
_cell_length_b 7.547844
_cell_length_c 18.138181
_cell_angle_alpha 90.000000
_cell_angle_beta 34.157063
_cell_angle_gamma 90.000000
_cell_volume 993.607341
_symmetry_space_group_name_H-M "P 2/M"
_symmetry_group_IT_number 10
_symmetry_cell_setting 'monoclinic'
loop_
_space_group_symop_operation_xyz
x,y,z
-x,y,-z
-x,-y,-z
x,-y,z
loop_
_atom_site_type_symbol
_atom_site_label
_atom_site_fract_x
_atom_site_fract_y
_atom_site_fract_z
Si Si1 0.677918 0.786786 0.941904
Si Si2 0.907257 0.705071 0.339636
Si Si3 0.418722 0.706822 0.833370
Si Si4 0.716394 0.000000 0.354863
Si Si5 0.216473 0.000000 0.858434
Si Si6 0.829312 0.715190 0.552154
O O1 0.871399 0.717126 0.797064
O O2 0.685782 0.000000 0.934402
O O3 0.500000 0.727803 0.000000
O O4 0.651660 0.731053 0.041973
O O5 0.852120 0.500000 0.362945
O O6 0.847622 0.768278 0.456220
O O7 0.814456 0.830188 0.333940
O O8 0.406672 0.500000 0.820185
O O9 0.304704 0.829329 0.845730
O O10 0.632572 0.763940 0.701867
O O11 0.500000 0.000000 0.500000
O O12 0.744024 0.000000 0.251334
O O13 0.000000 0.000000 0.000000
O O14 0.838302 0.500000 0.547107
O O15 0.000000 0.780511 0.500000
#
# Coordination Sequence:
#
# PCOD9154635 Si02
#       6
#     4   4   4   2   2   4
#     4  11  22  39  64  96 133 167 203 247 305 378
#     4  11  23  42  66  93 127 166 210 255 310 373
#     4  11  23  42  66  92 125 164 206 253 312 369
#     4  12  26  44  65  90 125 162 212 270 320 362
#     4  12  26  44  63  86 123 158 212 272 310 358
#     4   9  19  37  63  96 130 161 198 245 300 373
#
# _framework density 20.128677
#
# number of rings (size 3 to 8) (size 9 to 14) (size 15 to 20)
#    0.000    1.200    2.000    4.200    0.000    4.800 
#    0.000    1.000    0.000    0.000    0.000    0.000 
#    0.000    0.000    0.000    0.000    0.000    0.000 
#
# Total GULP energy -111916.349094 kJ/mol
# GULP energy per Si atom -5595.817455 kJ/mol
# Density = 2.008286 g / cm^3
# Si number density = 20.128677 Si / 1000 Ang^3
#
#
#
# Elastic Constant Matrix: (Units=GPa)
#
#
# Indices 1 2 3 4 5 6 
#
# 1 62.1370 23.4587 -34.5929 0.0000 -1.1684 0.0000
# 2 23.4587 101.7528 -15.4818 0.0000 -9.7782 0.0000
# 3 -34.5929 -15.4818 51.9112 0.0000 -4.8194 0.0000
# 4 0.0000 0.0000 0.0000 -12.8977 0.0000 -7.5607
# 5 -1.1684 -9.7782 -4.8194 0.0000 45.8307 0.0000
# 6 0.0000 0.0000 0.0000 -7.5607 0.0000 -36.3782
#
#
#
# Elastic Compliance Matrix: (Units=1/GPa)
#
#
# Indices 1 2 3 4 5 6 
#
# 1 0.026939 -0.003443 0.017087 0.000000 0.001749 0.000000
# 2 -0.003443 0.011037 0.001220 0.000000 0.002395 0.000000
# 3 0.017087 0.001220 0.031385 0.000000 0.003996 0.000000
# 4 0.000000 0.000000 0.000000 -0.088290 0.000000 0.018350
# 5 0.001749 0.002395 0.003996 0.000000 0.022795 0.000000
# 6 0.000000 0.000000 0.000000 0.018350 0.000000 -0.031303
#
#
# Mechanical properties :
#
#
# Convention : Reuss Voigt Hill
#
# Bulk Modulus (GPa) = 10.09176 18.06322 14.07749
# Shear Modulus (GPa) = -207.16638 15.47210 -95.84714
#
# Velocity S-wave (km/s) = -10.15601 2.77548 -6.90801
# Velocity P-wave (km/s) = 11.51093 4.38912 7.52453
#
# Compressibility (1/GPa) = 0.09909075
#
# Stress axis : x y z
#
# Youngs Moduli (GPa) = 37.12091 90.60236 31.86204
#
# Poissons Ratio (x) = 0.31192 -0.54444
# Poissons Ratio (y) = 0.12780 -0.03887
# Poissons Ratio (z) = -0.63430 -0.11053
#
# Static dielectric constant tensor:
#      x y z
#    x 1.661740 0.000000 -0.003140 
#    y 0.000000 1.723880 0.000000 
#    z -0.003140 0.000000 1.672730 
# 
# From -- ./inp_files/76154.got.cif
#   From: 2010.05.17/outbox.cif.g08.bks.cpg/sg10_39_cif.got.tgz:76154.got - 2010.06.03 11:33:40.
