data_PCOD9154394
_publ_section_title
;
Structure prediction by ZEFSAII (Michael W. Deem and Ramdas Pophale) SiO2 
 PCOD9154394
Probable space group: P 2/M
;
_chemical_formula_sum "Si O2"
_cell_formula_units_Z 17
_cell_length_a 12.875965
_cell_length_b 7.546047
_cell_length_c 12.082198
_cell_angle_alpha 90.000000
_cell_angle_beta 149.175325
_cell_angle_gamma 90.000000
_cell_volume 601.540896
_symmetry_space_group_name_H-M "P 2/M"
_symmetry_group_IT_number 10
_symmetry_cell_setting 'monoclinic'
loop_
_space_group_symop_operation_xyz
x,y,z
-x,y,-z
-x,-y,-z
x,-y,z
loop_
_atom_site_type_symbol
_atom_site_label
_atom_site_fract_x
_atom_site_fract_y
_atom_site_fract_z
Si Si1 0.307004 0.212357 0.713426
Si Si2 0.150650 0.787595 0.797192
Si Si3 0.042668 0.217294 0.163479
Si Si4 0.511340 0.307469 0.346301
Si Si5 0.500000 0.000000 0.500000
O O1 0.290528 0.279571 0.824741
O O2 0.461030 0.279226 0.760818
O O3 0.079673 0.240616 0.458078
O O4 0.336388 0.000000 0.744297
O O5 0.129547 0.730511 0.905393
O O6 0.182687 0.000000 0.830339
O O7 0.252467 0.295825 0.397998
O O8 0.074913 0.000000 0.196482
O O9 0.000000 0.269163 0.000000
O O10 0.431610 0.500000 0.300042
O O11 0.424392 0.151532 0.341475
#
# Coordination Sequence:
#
# PCOD9154394 Si02
#       5
#     4   4   4   4   1
#     4   8  12  25  43  65  98 126 156 197 241 292
#     4   7  11  20  42  69  96 132 158 184 237 298
#     4   9  16  30  50  75 108 138 162 193 241 301
#     4  11  21  33  52  75  99 130 167 207 249 292
#     4  12  22  40  50  68  98 132 172 212 254 286
#
# _framework density 28.260757000000002
#
# number of rings (size 3 to 8) (size 9 to 14) (size 15 to 20)
#    0.000    3.059    2.353    3.176    0.000    0.471 
#    0.000    9.412    0.000    0.000    0.000    3.294 
#    0.000    3.765    0.000    0.000    0.000    0.000 
#
# Total GULP energy -94995.180731 kJ/mol
# GULP energy per Si atom -5587.951808 kJ/mol
# Density = 2.819643 g / cm^3
# Si number density = 28.260757 Si / 1000 Ang^3
#
#
#
# Elastic Constant Matrix: (Units=GPa)
#
#
# Indices 1 2 3 4 5 6 
#
# 1 210.1622 58.9054 73.4936 0.0000 -40.5292 0.0000
# 2 58.9054 166.7058 24.0160 0.0000 -26.3830 0.0000
# 3 73.4936 24.0160 136.6861 0.0000 -61.6526 0.0000
# 4 0.0000 0.0000 0.0000 3.8238 0.0000 18.8845
# 5 -40.5292 -26.3830 -61.6526 0.0000 83.2130 0.0000
# 6 0.0000 0.0000 0.0000 18.8845 0.0000 -4.8481
#
#
#
# Elastic Compliance Matrix: (Units=1/GPa)
#
#
# Indices 1 2 3 4 5 6 
#
# 1 0.006351 -0.001764 -0.002946 0.000000 0.000351 0.000000
# 2 -0.001764 0.006814 0.000508 0.000000 0.001678 0.000000
# 3 -0.002946 0.000508 0.012370 0.000000 0.007891 0.000000
# 4 0.000000 0.000000 0.000000 0.012923 0.000000 0.050337
# 5 0.000351 0.001678 0.007891 0.000000 0.018567 0.000000
# 6 0.000000 0.000000 0.000000 0.050337 0.000000 -0.010192
#
#
# Mechanical properties :
#
#
# Convention : Reuss Voigt Hill
#
# Bulk Modulus (GPa) = 58.37671 91.82046 75.09858
# Shear Modulus (GPa) = 82.03787 40.24702 61.14244
#
# Velocity S-wave (km/s) = 5.39369 3.77786 4.65640
# Velocity P-wave (km/s) = 7.71301 7.18266 7.45255
#
# Compressibility (1/GPa) = 0.01713012
#
# Stress axis : x y z
#
# Youngs Moduli (GPa) = 157.46312 146.75154 80.83810
#
# Poissons Ratio (x) = 0.25887 0.23819
# Poissons Ratio (y) = 0.27777 -0.04106
# Poissons Ratio (z) = 0.46396 -0.07454
#
# Static dielectric constant tensor:
#      x y z
#    x 2.292620 0.000000 0.087180 
#    y 0.000000 -5.728050 0.000000 
#    z 0.087180 0.000000 2.345750 
# 
# From -- ./inp_files/44159.got.cif
#   From: 2010.05.17/outbox.cif.g08.bks.cpg/sg10_23_cif.got.tgz:44159.got - 2010.06.03 11:33:40.
