data_PCOD9154588
_publ_section_title
;
Structure prediction by ZEFSAII (Michael W. Deem and Ramdas Pophale) SiO2 
 PCOD9154588
Probable space group: P 2/M
;
_chemical_formula_sum "Si O2"
_cell_formula_units_Z 24
_cell_length_a 8.813111
_cell_length_b 19.651217
_cell_length_c 8.813116
_cell_angle_alpha 90.000000
_cell_angle_beta 59.080058
_cell_angle_gamma 90.000000
_cell_volume 1309.416521
_symmetry_space_group_name_H-M "P 2/M"
_symmetry_group_IT_number 10
_symmetry_cell_setting 'monoclinic'
loop_
_space_group_symop_operation_xyz
x,y,z
-x,y,-z
-x,-y,-z
x,-y,z
loop_
_atom_site_type_symbol
_atom_site_label
_atom_site_fract_x
_atom_site_fract_y
_atom_site_fract_z
Si Si1 0.717226 0.000000 0.573080
Si Si2 0.837157 0.500000 0.964802
Si Si3 0.526198 0.855580 0.658123
Si Si4 0.687311 0.604126 0.812689
Si Si5 0.158124 0.855580 0.026198
Si Si6 0.687675 0.240253 0.812325
Si Si7 0.535198 0.500000 0.662843
Si Si8 0.926918 0.000000 0.782774
O O1 0.604851 0.068504 0.619818
O O2 0.815882 0.000000 0.684116
O O3 0.866974 0.000000 0.366972
O O4 0.657329 0.500000 0.157329
O O5 0.820792 0.563801 0.856132
O O6 0.000000 0.500000 0.000000
O O7 0.500000 0.833729 0.500000
O O8 0.340641 0.856661 0.840641
O O9 0.652592 0.803247 0.680180
O O10 0.740622 0.681941 0.759378
O O11 0.643868 0.563801 0.679208
O O12 0.500000 0.603386 0.000000
O O13 0.180180 0.803247 0.152591
O O14 0.119821 0.931496 0.104851
O O15 0.000000 0.833730 0.000000
O O16 0.500000 0.241771 0.000000
O O17 0.500000 0.500000 0.500000
#
# Coordination Sequence:
#
# PCOD9154588 Si02
#       8
#     2   2   4   4   4   4   2   2
#     4  11  22  37  58  80 104 136 176 227 273 317
#     4   9  17  31  56  82 108 139 177 217 256 306
#     4  11  22  37  56  79 105 139 180 223 269 320
#     4   8  16  33  53  77 107 145 180 209 254 317
#     4  11  22  37  56  79 105 139 180 223 269 320
#     4   9  19  35  55  76 106 143 180 216 260 319
#     4   9  17  31  56  82 108 139 177 217 256 306
#     4  11  22  37  58  80 104 136 176 227 273 317
#
# _framework density 18.328773999999999
#
# number of rings (size 3 to 8) (size 9 to 14) (size 15 to 20)
#    0.000    2.167    1.667    3.000    0.000    2.000 
#    0.000    1.667    0.000    6.000    0.000    0.000 
#    0.000    0.000    0.000    0.000    0.000    0.000 
#
# Total GULP energy -133919.601474 kJ/mol
# GULP energy per Si atom -5579.983395 kJ/mol
# Density = 1.828706 g / cm^3
# Si number density = 18.328774 Si / 1000 Ang^3
#
#
#
# Elastic Constant Matrix: (Units=GPa)
#
#
# Indices 1 2 3 4 5 6 
#
# 1 138.9216 83.3079 48.5283 0.0000 38.3470 0.0000
# 2 83.3079 180.1501 56.4711 0.0000 36.8674 0.0000
# 3 48.5283 56.4711 87.2580 0.0000 32.6278 0.0000
# 4 0.0000 0.0000 0.0000 -4.7762 0.0000 -6.0710
# 5 38.3470 36.8674 32.6278 0.0000 39.0971 0.0000
# 6 0.0000 0.0000 0.0000 -6.0710 0.0000 -9.1969
#
#
#
# Elastic Compliance Matrix: (Units=1/GPa)
#
#
# Indices 1 2 3 4 5 6 
#
# 1 0.011791 -0.003516 -0.001741 0.000000 -0.006797 0.000000
# 2 -0.003516 0.008490 -0.002667 0.000000 -0.002331 0.000000
# 3 -0.001741 -0.002667 0.018280 0.000000 -0.011033 0.000000
# 4 0.000000 0.000000 0.000000 -1.300820 0.000000 0.858683
# 5 -0.006797 -0.002331 -0.011033 0.000000 0.043649 0.000000
# 6 0.000000 0.000000 0.000000 0.858683 0.000000 -0.675556
#
#
# Mechanical properties :
#
#
# Convention : Reuss Voigt Hill
#
# Bulk Modulus (GPa) = 44.02783 86.99381 65.51082
# Shear Modulus (GPa) = -2.67273 19.55962 8.44344
#
# Velocity S-wave (km/s) = -1.20888 3.27028 2.14864
# Velocity P-wave (km/s) = 4.70370 7.86293 6.47883
#
# Compressibility (1/GPa) = 0.02271291
#
# Stress axis : x y z
#
# Youngs Moduli (GPa) = 84.81138 117.78425 54.70467
#
# Poissons Ratio (x) = 0.41413 0.09522
# Poissons Ratio (y) = 0.29820 0.14592
# Poissons Ratio (z) = 0.14762 0.31418
#
# Static dielectric constant tensor:
#      x y z
#    x 1.626230 0.000000 0.000150 
#    y 0.000000 1.617960 0.000000 
#    z 0.000150 0.000000 1.626130 
# 
# From -- ./inp_files/19284.got.cif
#   From: 2010.05.17/outbox.cif.g08.bks.cpg/sg10_10_cif.got.tgz:19284.got - 2010.06.03 11:33:40.
