data_PCOD9154928
_publ_section_title
;
Structure prediction by ZEFSAII (Michael W. Deem and Ramdas Pophale) SiO2 
 PCOD9154928
Probable space group: P 2/M
;
_chemical_formula_sum "Si O2"
_cell_formula_units_Z 28
_cell_length_a 7.239522
_cell_length_b 7.530646
_cell_length_c 22.747491
_cell_angle_alpha 90.000000
_cell_angle_beta 118.607510
_cell_angle_gamma 90.000000
_cell_volume 1088.756298
_symmetry_space_group_name_H-M "P 2/M"
_symmetry_group_IT_number 10
_symmetry_cell_setting 'monoclinic'
loop_
_space_group_symop_operation_xyz
x,y,z
-x,y,-z
-x,-y,-z
x,-y,z
loop_
_atom_site_type_symbol
_atom_site_label
_atom_site_fract_x
_atom_site_fract_y
_atom_site_fract_z
Si Si1 0.461042 0.211861 0.855779
Si Si2 0.116877 0.289798 0.282212
Si Si3 0.031938 0.297054 0.858103
Si Si4 0.077836 0.205738 0.572678
Si Si5 0.637789 0.798987 0.572504
Si Si6 0.309618 0.204084 0.715427
Si Si7 0.286210 0.714023 0.999695
O O1 0.261043 0.295578 0.859470
O O2 0.461731 0.280401 0.788784
O O3 0.668234 0.244221 0.925782
O O4 0.425578 0.000000 0.848326
O O5 0.075772 0.500000 0.272961
O O6 0.317586 0.266969 0.354960
O O7 0.118840 0.219363 0.215596
O O8 0.914166 0.205549 0.283397
O O9 0.965330 0.500000 0.858231
O O10 0.094059 0.216442 0.930743
O O11 0.866841 0.199118 0.578526
O O12 0.000000 0.289525 0.500000
O O13 0.252018 0.285513 0.643211
O O14 0.138684 0.000000 0.569165
O O15 0.500000 0.710052 0.500000
O O16 0.557197 0.000000 0.566726
O O17 0.369477 0.000000 0.713231
O O18 0.277656 0.500000 0.994263
O O19 0.500000 0.777257 0.000000
#
# Coordination Sequence:
#
# PCOD9154928 Si02
#       7
#     4   4   4   4   4   4   4
#     4   9  14  18  26  41  60  82 110 142 173 206
#     4   9  15  23  36  51  66  88 120 151 176 210
#     4   8  14  22  29  39  58  84 112 142 173 203
#     4   8  13  23  40  57  70  91 125 154 173 205
#     4   9  17  28  40  55  76  98 118 146 185 219
#     4   8  14  23  33  47  68  91 115 147 184 215
#     4   8  13  20  27  36  55  83 112 140 170 203
#
# _framework density 25.717414999999999
#
# number of rings (size 3 to 8) (size 9 to 14) (size 15 to 20)
#    0.000    3.571    0.000    2.571    0.000    4.000 
#    0.000    0.000    0.000    6.857    0.000    0.000 
#    0.000    0.000    0.000    1.286    0.000   31.143 
#
# Total GULP energy -155969.287361 kJ/mol
# GULP energy per Si atom -5570.331691 kJ/mol
# Density = 2.565888 g / cm^3
# Si number density = 25.717415 Si / 1000 Ang^3
#
#
#
# Elastic Constant Matrix: (Units=GPa)
#
#
# Indices 1 2 3 4 5 6 
#
# 1 95.5039 -6.9577 7.5938 0.0000 -0.5345 0.0000
# 2 -6.9577 85.0360 13.8012 0.0000 7.1790 0.0000
# 3 7.5938 13.8012 371.5026 0.0000 16.8546 0.0000
# 4 0.0000 0.0000 0.0000 20.7619 0.0000 16.7379
# 5 -0.5345 7.1790 16.8546 0.0000 -3.6662 0.0000
# 6 0.0000 0.0000 0.0000 16.7379 0.0000 -42.4549
#
#
#
# Elastic Compliance Matrix: (Units=1/GPa)
#
#
# Indices 1 2 3 4 5 6 
#
# 1 0.010554 0.000957 -0.000220 0.000000 -0.000679 0.000000
# 2 0.000957 0.010701 -0.001126 0.000000 0.015636 0.000000
# 3 -0.000220 -0.001126 0.002347 0.000000 0.008617 0.000000
# 4 0.000000 0.000000 0.000000 0.036549 0.000000 0.014409
# 5 -0.000679 0.015636 0.008617 0.000000 -0.202429 0.000000
# 6 0.000000 0.000000 0.000000 0.014409 0.000000 -0.017874
#
#
# Mechanical properties :
#
#
# Convention : Reuss Voigt Hill
#
# Bulk Modulus (GPa) = 43.81804 64.54634 54.18219
# Shear Modulus (GPa) = -32.94588 30.76849 -1.08869
#
# Velocity S-wave (km/s) = -3.58309 3.46266 -0.65134
# Velocity P-wave (km/s) = 0.20685 6.41401 4.53303
#
# Compressibility (1/GPa) = 0.02282165
#
# Stress axis : x y z
#
# Youngs Moduli (GPa) = 94.74900 93.45093 426.04241
#
# Poissons Ratio (x) = -0.08940 0.09393
# Poissons Ratio (y) = -0.09064 0.47992
# Poissons Ratio (z) = 0.02089 0.10527
#
# Static dielectric constant tensor:
#      x y z
#    x 1.137110 0.000000 0.092780 
#    y 0.000000 2.038360 0.000000 
#    z 0.092780 0.000000 2.184540 
# 
# From -- ./inp_files/52437.got.cif
#   From: 2010.05.17/outbox.cif.g08.bks.cpg/sg10_27_cif.got.tgz:52437.got - 2010.06.03 11:33:40.
