data_PCOD9154975
_publ_section_title
;
Structure prediction by ZEFSAII (Michael W. Deem and Ramdas Pophale) SiO2 
 PCOD9154975
Probable space group: P 2/M
;
_chemical_formula_sum "Si O2"
_cell_formula_units_Z 32
_cell_length_a 27.442848
_cell_length_b 7.514114
_cell_length_c 21.884122
_cell_angle_alpha 90.000000
_cell_angle_beta 158.944745
_cell_angle_gamma 90.000000
_cell_volume 1621.267799
_symmetry_space_group_name_H-M "P 2/M"
_symmetry_group_IT_number 10
_symmetry_cell_setting 'monoclinic'
loop_
_space_group_symop_operation_xyz
x,y,z
-x,y,-z
-x,-y,-z
x,-y,z
loop_
_atom_site_type_symbol
_atom_site_label
_atom_site_fract_x
_atom_site_fract_y
_atom_site_fract_z
Si Si1 0.269555 0.287230 0.446986
Si Si2 0.693624 0.786735 0.769452
Si Si3 0.902977 0.283607 0.575605
Si Si4 0.101658 0.282105 0.566347
Si Si5 0.406461 0.213331 0.478234
Si Si6 0.013950 0.287143 0.832402
Si Si7 0.408261 0.717382 0.950210
Si Si8 0.610982 0.283591 0.287904
O O1 0.264138 0.500000 0.446861
O O2 0.331234 0.252985 0.453059
O O3 0.364057 0.221914 0.613574
O O4 0.115827 0.221492 0.280032
O O5 0.671681 0.722031 0.674103
O O6 0.562639 0.722891 0.654884
O O7 0.684291 0.000000 0.756635
O O8 0.839878 0.747594 0.968218
O O9 0.908598 0.500000 0.581287
O O10 0.936803 0.223206 0.547088
O O11 0.747747 0.237188 0.410816
O O12 0.993479 0.222047 0.738734
O O13 0.100866 0.500000 0.564906
O O14 0.254464 0.225668 0.760666
O O15 0.000000 0.223724 0.500000
O O16 0.410743 0.000000 0.479320
O O17 0.000891 0.500000 0.814472
O O18 0.407578 0.500000 0.949667
O O19 0.500000 0.771191 0.000000
O O20 0.481135 0.776909 0.097811
O O21 0.605171 0.500000 0.282268
#
# Coordination Sequence:
#
# PCOD9154975 Si02
#       8
#     4   4   4   4   4   4   4   4
#     4   9  18  31  47  71 102 128 152 191 238 280
#     4   9  19  36  54  70  91 122 159 194 230 278
#     4   8  13  24  38  53  83 122 150 179 224 271
#     4   9  15  21  30  49  79 113 149 188 224 257
#     4   9  19  36  54  70  92 122 155 195 237 275
#     4   9  18  31  48  71  99 129 157 188 232 284
#     4   9  13  19  34  51  71 111 157 184 211 261
#     4   8  13  23  38  56  82 117 153 184 219 268
#
# _framework density 19.737639999999999
#
# number of rings (size 3 to 8) (size 9 to 14) (size 15 to 20)
#    0.000    3.250    1.250    2.250    0.000    2.000 
#    2.250    3.750    0.000    0.000    0.000    0.000 
#    0.000    2.000    0.000    0.125    0.000    0.000 
#
# Total GULP energy -178350.991691 kJ/mol
# GULP energy per Si atom -5573.468490 kJ/mol
# Density = 1.969272 g / cm^3
# Si number density = 19.737640 Si / 1000 Ang^3
#
#
#
# Elastic Constant Matrix: (Units=GPa)
#
#
# Indices 1 2 3 4 5 6 
#
# 1 205.0357 6.1558 126.2666 0.0000 -7.5083 0.0000
# 2 6.1558 48.4058 5.8766 0.0000 -0.7451 0.0000
# 3 126.2666 5.8766 190.5634 0.0000 -10.6116 0.0000
# 4 0.0000 0.0000 0.0000 32.0451 0.0000 -19.4855
# 5 -7.5083 -0.7451 -10.6116 0.0000 21.2504 0.0000
# 6 0.0000 0.0000 0.0000 -19.4855 0.0000 34.4178
#
#
#
# Elastic Compliance Matrix: (Units=1/GPa)
#
#
# Indices 1 2 3 4 5 6 
#
# 1 0.008247 -0.000385 -0.005442 0.000000 0.000183 0.000000
# 2 -0.000385 0.020758 -0.000362 0.000000 0.000411 0.000000
# 3 -0.005442 -0.000362 0.009008 0.000000 0.002562 0.000000
# 4 0.000000 0.000000 0.000000 0.047589 0.000000 0.026942
# 5 0.000183 0.000411 0.002562 0.000000 0.048416 0.000000
# 6 0.000000 0.000000 0.000000 0.026942 0.000000 0.044308
#
#
# Mechanical properties :
#
#
# Convention : Reuss Voigt Hill
#
# Bulk Modulus (GPa) = 39.01179 80.06699 59.53939
# Shear Modulus (GPa) = 25.09420 37.92305 31.50862
#
# Velocity S-wave (km/s) = 3.56952 4.38808 3.99980
# Velocity P-wave (km/s) = 6.06603 8.14416 7.18067
#
# Compressibility (1/GPa) = 0.02563328
#
# Stress axis : x y z
#
# Youngs Moduli (GPa) = 121.25575 48.17431 111.01782
#
# Poissons Ratio (x) = 0.01856 0.60420
# Poissons Ratio (y) = 0.04671 0.04019
# Poissons Ratio (z) = 0.65992 0.01744
#
# Static dielectric constant tensor:
#      x y z
#    x 1.684780 0.000000 -0.016100 
#    y 0.000000 1.760990 0.000000 
#    z -0.016100 0.000000 1.686520 
# 
# From -- ./inp_files/87036.got.cif
#   From: 2010.05.17/outbox.cif.g08.bks.cpg/sg10_44_cif.got.tgz:87036.got - 2010.06.03 11:33:40.
