data_PCOD9154500
_publ_section_title
;
Structure prediction by ZEFSAII (Michael W. Deem and Ramdas Pophale) SiO2 
 PCOD9154500
Probable space group: P 2/M
;
_chemical_formula_sum "Si O2"
_cell_formula_units_Z 28
_cell_length_a 9.360558
_cell_length_b 14.985467
_cell_length_c 11.423854
_cell_angle_alpha 90.000000
_cell_angle_beta 117.996210
_cell_angle_gamma 90.000000
_cell_volume 1414.929707
_symmetry_space_group_name_H-M "P 2/M"
_symmetry_group_IT_number 10
_symmetry_cell_setting 'monoclinic'
loop_
_space_group_symop_operation_xyz
x,y,z
-x,y,-z
-x,-y,-z
x,-y,z
loop_
_atom_site_type_symbol
_atom_site_label
_atom_site_fract_x
_atom_site_fract_y
_atom_site_fract_z
Si Si1 0.638644 0.735424 0.768696
Si Si2 0.349098 0.604104 0.593734
Si Si3 0.168536 0.258422 0.385569
Si Si4 0.805733 0.903171 0.434543
Si Si5 0.825562 0.403305 0.993700
Si Si6 0.189538 0.323808 0.764157
Si Si7 0.580042 0.840574 0.150351
O O1 0.504061 0.668947 0.662334
O O2 0.764584 0.763050 0.717036
O O3 0.726277 0.675936 0.899185
O O4 0.554232 0.816646 0.803696
O O5 0.386539 0.500000 0.594042
O O6 0.240443 0.645586 0.449323
O O7 0.246276 0.621886 0.672554
O O8 0.231463 0.183099 0.500013
O O9 0.975677 0.268948 0.320269
O O10 0.716619 0.893872 0.275140
O O11 0.000000 0.903211 0.500000
O O12 0.758041 0.000000 0.467104
O O13 0.747811 0.500000 0.941726
O O14 0.839961 0.386461 0.136681
O O15 0.000000 0.403028 0.000000
O O16 0.331575 0.253172 0.846255
O O17 0.500000 0.876506 0.000000
#
# Coordination Sequence:
#
# PCOD9154500 Si02
#       7
#     4   4   4   4   4   4   4
#     4  11  23  37  59  87 124 162 205 257 313 369
#     4  11  24  37  56  86 120 162 207 259 316 364
#     4  12  22  40  62  89 124 162 209 258 314 376
#     4  11  23  43  71  98 124 163 209 259 317 385
#     4  11  22  36  55  86 123 170 220 259 306 368
#     4  11  21  38  60  86 120 163 215 258 300 366
#     4  11  22  40  66  93 121 159 206 253 312 373
#
# _framework density 19.788968000000001
#
# number of rings (size 3 to 8) (size 9 to 14) (size 15 to 20)
#    0.000    0.857    7.143    1.714    0.000    3.714 
#    0.000    3.571    0.000    0.000    0.000    3.000 
#    0.000    0.000    0.000    0.000    0.000    0.000 
#
# Total GULP energy -156355.665237 kJ/mol
# GULP energy per Si atom -5584.130901 kJ/mol
# Density = 1.974393 g / cm^3
# Si number density = 19.788968 Si / 1000 Ang^3
#
#
#
# Elastic Constant Matrix: (Units=GPa)
#
#
# Indices 1 2 3 4 5 6 
#
# 1 55.0471 -0.5127 9.9733 0.0000 -7.5228 0.0000
# 2 -0.5127 67.8944 10.0006 0.0000 -0.0191 0.0000
# 3 9.9733 10.0006 90.4999 0.0000 4.1594 0.0000
# 4 0.0000 0.0000 0.0000 -2.8686 0.0000 -5.1863
# 5 -7.5228 -0.0191 4.1594 0.0000 32.4065 0.0000
# 6 0.0000 0.0000 0.0000 -5.1863 0.0000 -2.9029
#
#
#
# Elastic Compliance Matrix: (Units=1/GPa)
#
#
# Indices 1 2 3 4 5 6 
#
# 1 0.019258 0.000500 -0.002397 0.000000 0.004779 0.000000
# 2 0.000500 0.014987 -0.001727 0.000000 0.000347 0.000000
# 3 -0.002397 -0.001727 0.011599 0.000000 -0.002046 0.000000
# 4 0.000000 0.000000 0.000000 0.156313 0.000000 -0.279273
# 5 0.004779 0.000347 -0.002046 0.000000 0.032230 0.000000
# 6 0.000000 0.000000 0.000000 -0.279273 0.000000 0.154468
#
#
# Mechanical properties :
#
#
# Convention : Reuss Voigt Hill
#
# Bulk Modulus (GPa) = 25.90993 28.04041 26.97517
# Shear Modulus (GPa) = 12.22585 18.25901 15.24243
#
# Velocity S-wave (km/s) = 2.48828 3.04087 2.77835
# Velocity P-wave (km/s) = 4.62352 5.15070 4.89421
#
# Compressibility (1/GPa) = 0.03859525
#
# Stress axis : x y z
#
# Youngs Moduli (GPa) = 51.92570 66.72437 86.21575
#
# Poissons Ratio (x) = -0.03335 0.20667
# Poissons Ratio (y) = -0.02596 0.14891
# Poissons Ratio (z) = 0.12447 0.11524
#
# Static dielectric constant tensor:
#      x y z
#    x 1.713810 0.000000 0.024960 
#    y 0.000000 1.683040 0.000000 
#    z 0.024960 0.000000 1.717900 
# 
# From -- ./inp_files/25172.got.cif
#   From: 2010.05.17/outbox.cif.g08.bks.cpg/sg10_13_cif.got.tgz:25172.got - 2010.06.03 11:33:40.
