data_PCOD9154375
_publ_section_title
;
Structure prediction by ZEFSAII (Michael W. Deem and Ramdas Pophale) SiO2 
 PCOD9154375
Probable space group: P 2/M
;
_chemical_formula_sum "Si O2"
_cell_formula_units_Z 28
_cell_length_a 11.790303
_cell_length_b 9.102238
_cell_length_c 19.157449
_cell_angle_alpha 90.000000
_cell_angle_beta 134.903760
_cell_angle_gamma 90.000000
_cell_volume 1456.210292
_symmetry_space_group_name_H-M "P 2/M"
_symmetry_group_IT_number 10
_symmetry_cell_setting 'monoclinic'
loop_
_space_group_symop_operation_xyz
x,y,z
-x,y,-z
-x,-y,-z
x,-y,z
loop_
_atom_site_type_symbol
_atom_site_label
_atom_site_fract_x
_atom_site_fract_y
_atom_site_fract_z
Si Si1 0.607909 0.331282 0.329974
Si Si2 0.232488 0.332758 0.120780
Si Si3 0.297510 0.173949 0.763300
Si Si4 0.868120 0.825836 0.791355
Si Si5 0.142984 0.326251 0.820510
Si Si6 0.383293 0.672604 0.045963
Si Si7 0.545127 0.675191 0.599617
O O1 0.661778 0.500000 0.346281
O O2 0.420122 0.326856 0.225271
O O3 0.701195 0.231169 0.315786
O O4 0.596356 0.290028 0.406437
O O5 0.177283 0.500000 0.107887
O O6 0.136293 0.227626 0.130028
O O7 0.245124 0.301873 0.044158
O O8 0.168596 0.252511 0.756757
O O9 0.468659 0.225704 0.869700
O O10 0.282425 0.000000 0.759772
O O11 0.699304 0.769568 0.686776
O O12 0.004096 0.748564 0.804818
O O13 0.882663 0.000000 0.794123
O O14 0.114645 0.500000 0.801820
O O15 0.305121 0.306681 0.936778
O O16 0.432201 0.500000 0.074270
O O17 0.500000 0.698396 0.500000
O O18 0.580494 0.500000 0.624650
#
# Coordination Sequence:
#
# PCOD9154375 Si02
#       7
#     4   4   4   4   4   4   4
#     4   8  15  30  52  76 101 131 166 201 240 291
#     4   8  15  31  51  70  96 131 171 210 248 295
#     4  11  21  32  49  74 104 135 170 213 256 295
#     4  11  22  34  49  75 108 135 163 202 256 310
#     4  11  22  36  52  68  95 138 181 216 251 294
#     4   9  19  34  52  72  94 130 180 222 252 290
#     4   9  18  35  60  85 105 128 162 201 241 295
#
# _framework density 19.227992
#
# number of rings (size 3 to 8) (size 9 to 14) (size 15 to 20)
#    0.000    2.429    0.000    5.143    0.000    8.857 
#    0.000    2.857    0.000    0.857    0.000    6.000 
#    0.000    0.000    0.000    0.000    0.000    0.000 
#
# Total GULP energy -156263.958852 kJ/mol
# GULP energy per Si atom -5580.855673 kJ/mol
# Density = 1.918423 g / cm^3
# Si number density = 19.227992 Si / 1000 Ang^3
#
#
#
# Elastic Constant Matrix: (Units=GPa)
#
#
# Indices 1 2 3 4 5 6 
#
# 1 127.9893 79.1988 21.7696 0.0000 -37.0365 0.0000
# 2 79.1988 117.9277 16.1631 0.0000 -18.4335 0.0000
# 3 21.7696 16.1631 25.1218 0.0000 -25.7115 0.0000
# 4 0.0000 0.0000 0.0000 8.6811 0.0000 0.5312
# 5 -37.0365 -18.4335 -25.7115 0.0000 33.9186 0.0000
# 6 0.0000 0.0000 0.0000 0.5312 0.0000 40.8645
#
#
#
# Elastic Compliance Matrix: (Units=1/GPa)
#
#
# Indices 1 2 3 4 5 6 
#
# 1 0.022156 -0.012733 0.029759 0.000000 0.039831 0.000000
# 2 -0.012733 0.016658 -0.020733 0.000000 -0.020567 0.000000
# 3 0.029759 -0.020733 0.218951 0.000000 0.187199 0.000000
# 4 0.000000 0.000000 0.000000 0.115285 0.000000 -0.001499
# 5 0.039831 -0.020567 0.187199 0.000000 0.203701 0.000000
# 6 0.000000 0.000000 0.000000 -0.001499 0.000000 0.024491
#
#
# Mechanical properties :
#
#
# Convention : Reuss Voigt Hill
#
# Bulk Modulus (GPa) = 3.99440 56.14465 30.06952
# Shear Modulus (GPa) = 7.22431 26.95332 17.08882
#
# Velocity S-wave (km/s) = 1.94045 3.74809 2.98442
# Velocity P-wave (km/s) = 2.66502 6.92775 5.24862
#
# Compressibility (1/GPa) = 0.25035078
#
# Stress axis : x y z
#
# Youngs Moduli (GPa) = 45.13352 60.03236 4.56722
#
# Poissons Ratio (x) = 0.76437 -0.13591
# Poissons Ratio (y) = 0.57467 0.09469
# Poissons Ratio (z) = -1.34311 1.24467
#
# Static dielectric constant tensor:
#      x y z
#    x 1.712640 0.000000 -0.020080 
#    y 0.000000 1.634060 0.000000 
#    z -0.020080 0.000000 1.696260 
# 
# From -- ./inp_files/83404.got.cif
#   From: 2010.05.17/outbox.cif.g08.bks.cpg/sg10_42_cif.got.tgz:83404.got - 2010.06.03 11:33:40.
