data_PCOD9154304
_publ_section_title
;
Structure prediction by ZEFSAII (Michael W. Deem and Ramdas Pophale) SiO2 
 PCOD9154304
Probable space group: P 2/M
;
_chemical_formula_sum "Si O2"
_cell_formula_units_Z 28
_cell_length_a 15.469544
_cell_length_b 8.543045
_cell_length_c 22.444517
_cell_angle_alpha 90.000000
_cell_angle_beta 147.024321
_cell_angle_gamma 90.000000
_cell_volume 1614.452339
_symmetry_space_group_name_H-M "P 2/M"
_symmetry_group_IT_number 10
_symmetry_cell_setting 'monoclinic'
loop_
_space_group_symop_operation_xyz
x,y,z
-x,y,-z
-x,-y,-z
x,-y,z
loop_
_atom_site_type_symbol
_atom_site_label
_atom_site_fract_x
_atom_site_fract_y
_atom_site_fract_z
Si Si1 0.511094 0.189376 0.909028
Si Si2 0.323773 0.686775 0.108483
Si Si3 0.246827 0.190073 0.846238
Si Si4 0.688557 0.815932 0.767800
Si Si5 0.974502 0.686083 0.859321
Si Si6 0.095096 0.187032 0.311624
Si Si7 0.561885 0.686320 0.469726
O O1 0.549474 0.261561 0.867681
O O2 0.346864 0.237735 0.846017
O O3 0.513286 0.000000 0.905958
O O4 0.650322 0.236180 0.036206
O O5 0.325574 0.500000 0.116708
O O6 0.347981 0.765709 0.186122
O O7 0.149551 0.732273 0.982572
O O8 0.065831 0.241441 0.748385
O O9 0.246252 0.000000 0.846119
O O10 0.544614 0.770628 0.640971
O O11 0.844188 0.727004 0.833550
O O12 0.718922 0.000000 0.782190
O O13 0.972781 0.500000 0.847175
O O14 0.928615 0.771822 0.771667
O O15 0.254115 0.267700 0.426775
O O16 0.110291 0.000000 0.326630
O O17 0.500000 0.730342 0.500000
O O18 0.541619 0.500000 0.451521
#
# Coordination Sequence:
#
# PCOD9154304 Si02
#       7
#     4   4   4   4   4   4   4
#     4   9  16  32  55  80 111 147 184 221 270 323
#     4  11  23  37  54  80 116 151 182 222 275 331
#     4   8  16  30  53  83 113 143 179 228 274 315
#     4  12  25  39  58  80 105 144 192 232 268 323
#     4  11  22  36  53  79 115 151 180 219 275 327
#     4  11  20  33  57  85 112 144 186 229 268 317
#     4  11  23  39  58  79 110 147 180 225 281 326
#
# _framework density 17.343343000000001
#
# number of rings (size 3 to 8) (size 9 to 14) (size 15 to 20)
#    0.000    1.571    2.857    4.286    0.000    4.000 
#    0.000    2.857    0.000    0.857    0.000    6.000 
#    0.000    0.000    0.000    0.000    0.000    0.000 
#
# Total GULP energy -156406.786392 kJ/mol
# GULP energy per Si atom -5585.956657 kJ/mol
# Density = 1.730387 g / cm^3
# Si number density = 17.343343 Si / 1000 Ang^3
#
#
#
# Elastic Constant Matrix: (Units=GPa)
#
#
# Indices 1 2 3 4 5 6 
#
# 1 110.7129 -3.7305 34.5663 0.0000 11.8516 0.0000
# 2 -3.7305 17.2507 6.9595 0.0000 -2.2681 0.0000
# 3 34.5663 6.9595 45.0167 0.0000 2.7250 0.0000
# 4 0.0000 0.0000 0.0000 19.0052 0.0000 5.2757
# 5 11.8516 -2.2681 2.7250 0.0000 29.5899 0.0000
# 6 0.0000 0.0000 0.0000 5.2757 0.0000 -17.0744
#
#
#
# Elastic Compliance Matrix: (Units=1/GPa)
#
#
# Indices 1 2 3 4 5 6 
#
# 1 0.013033 0.006695 -0.010817 0.000000 -0.003711 0.000000
# 2 0.006695 0.066217 -0.015609 0.000000 0.003832 0.000000
# 3 -0.010817 -0.015609 0.032927 0.000000 0.000104 0.000000
# 4 0.000000 0.000000 0.000000 0.048461 0.000000 0.014973
# 5 -0.003711 0.003832 0.000104 0.000000 0.035566 0.000000
# 6 0.000000 0.000000 0.000000 0.014973 0.000000 -0.053941
#
#
# Mechanical properties :
#
#
# Convention : Reuss Voigt Hill
#
# Bulk Modulus (GPa) = 13.75283 27.61899 20.68591
# Shear Modulus (GPa) = 24.27600 15.31648 19.79624
#
# Velocity S-wave (km/s) = 3.74536 2.97498 3.38217
# Velocity P-wave (km/s) = 5.16242 5.26878 5.21587
#
# Compressibility (1/GPa) = 0.07271229
#
# Stress axis : x y z
#
# Youngs Moduli (GPa) = 76.73106 15.10179 30.37010
#
# Poissons Ratio (x) = -0.10110 0.32853
# Poissons Ratio (y) = -0.51368 0.47406
# Poissons Ratio (z) = 0.83003 0.23573
#
# Static dielectric constant tensor:
#      x y z
#    x 1.585070 0.000000 0.017790 
#    y 0.000000 1.582690 0.000000 
#    z 0.017790 0.000000 1.565890 
# 
# From -- ./inp_files/49195.got.cif
#   From: 2010.05.17/outbox.cif.g08.bks.cpg/sg10_25_cif.got.tgz:49195.got - 2010.06.03 11:33:40.
