data_PCOD9154636
_publ_section_title
;
Structure prediction by ZEFSAII (Michael W. Deem and Ramdas Pophale) SiO2 
 PCOD9154636
Probable space group: P 2/M
;
_chemical_formula_sum "Si O2"
_cell_formula_units_Z 28
_cell_length_a 12.972237
_cell_length_b 24.118710
_cell_length_c 8.196403
_cell_angle_alpha 90.000000
_cell_angle_beta 32.350724
_cell_angle_gamma 90.000000
_cell_volume 1372.232088
_symmetry_space_group_name_H-M "P 2/M"
_symmetry_group_IT_number 10
_symmetry_cell_setting 'monoclinic'
loop_
_space_group_symop_operation_xyz
x,y,z
-x,y,-z
-x,-y,-z
x,-y,z
loop_
_atom_site_type_symbol
_atom_site_label
_atom_site_fract_x
_atom_site_fract_y
_atom_site_fract_z
Si Si1 0.893352 0.725742 0.815109
Si Si2 0.885771 0.370657 0.304620
Si Si3 0.285352 0.938125 0.853111
Si Si4 0.278179 0.940140 0.257438
Si Si5 0.536860 0.655834 0.263489
Si Si6 0.704192 0.438132 0.823019
Si Si7 0.000814 0.150717 0.699780
O O1 0.000000 0.719489 0.500000
O O2 0.979446 0.679329 0.817528
O O3 0.954407 0.785808 0.801391
O O4 0.666876 0.711926 0.087834
O O5 0.672373 0.346459 0.544396
O O6 0.854238 0.414048 0.492160
O O7 0.000000 0.396534 0.000000
O O8 0.500000 0.929372 0.500000
O O9 0.229167 0.000000 0.870902
O O10 0.268472 0.938081 0.073690
O O11 0.151921 0.886082 0.995913
O O12 0.191276 0.886883 0.463858
O O13 0.188113 0.000000 0.426056
O O14 0.500000 0.942114 0.000000
O O15 0.500000 0.642453 0.500000
O O16 0.667914 0.608159 0.007689
O O17 0.750558 0.500000 0.819234
O O18 0.500000 0.441290 0.000000
O O19 0.000000 0.151174 0.500000
#
# Coordination Sequence:
#
# PCOD9154636 Si02
#       7
#     4   4   4   4   4   4   4
#     4  11  22  40  59  85 117 155 207 244 296 355
#     4  11  22  40  63  88 120 160 199 240 298 353
#     4   9  17  32  54  78 106 142 180 227 287 340
#     4   9  17  33  55  80 109 145 187 231 288 350
#     4  11  22  39  65  86 120 163 195 245 296 351
#     4   9  20  39  63  93 124 155 196 245 294 351
#     4   9  19  35  54  80 108 145 189 241 278 342
#
# _framework density 20.404710999999999
#
# number of rings (size 3 to 8) (size 9 to 14) (size 15 to 20)
#    0.000    2.143    2.857    0.429    0.000    2.857 
#    7.714    2.143    0.000    3.429    0.000    0.000 
#    0.000    0.000    0.000    0.000    0.000    0.000 
#
# Total GULP energy -155934.197232 kJ/mol
# GULP energy per Si atom -5569.078473 kJ/mol
# Density = 2.035827 g / cm^3
# Si number density = 20.404711 Si / 1000 Ang^3
#
#
#
# Elastic Constant Matrix: (Units=GPa)
#
#
# Indices 1 2 3 4 5 6 
#
# 1 17.0331 2.4410 -2.2435 0.0000 -7.7521 0.0000
# 2 2.4410 114.6835 47.3534 0.0000 0.5943 0.0000
# 3 -2.2435 47.3534 123.2714 0.0000 2.7024 0.0000
# 4 0.0000 0.0000 0.0000 -0.3932 0.0000 -9.0260
# 5 -7.7521 0.5943 2.7024 0.0000 33.7511 0.0000
# 6 0.0000 0.0000 0.0000 -9.0260 0.0000 12.9158
#
#
#
# Elastic Compliance Matrix: (Units=1/GPa)
#
#
# Indices 1 2 3 4 5 6 
#
# 1 0.066116 -0.002194 0.001715 0.000000 0.015087 0.000000
# 2 -0.002194 0.010437 -0.004041 0.000000 -0.000364 0.000000
# 3 0.001715 -0.004041 0.009703 0.000000 -0.000312 0.000000
# 4 0.000000 0.000000 0.000000 -0.149234 0.000000 -0.104290
# 5 0.015087 -0.000364 -0.000312 0.000000 0.033125 0.000000
# 6 0.000000 0.000000 0.000000 -0.104290 0.000000 0.004543
#
#
# Mechanical properties :
#
#
# Convention : Reuss Voigt Hill
#
# Bulk Modulus (GPa) = 12.95065 38.89888 25.92476
# Shear Modulus (GPa) = 528.06514 23.08386 275.57450
#
# Velocity S-wave (km/s) = 16.10458 3.36713 11.63390
# Velocity P-wave (km/s) = 18.76621 5.84994 13.89951
#
# Compressibility (1/GPa) = 0.07721620
#
# Stress axis : x y z
#
# Youngs Moduli (GPa) = 15.12494 95.81449 103.06526
#
# Poissons Ratio (x) = 0.21018 -0.17677
# Poissons Ratio (y) = 0.03318 0.41650
# Poissons Ratio (z) = -0.02594 0.38720
#
# Static dielectric constant tensor:
#      x y z
#    x 1.866050 0.000000 -0.000410 
#    y 0.000000 1.761330 0.000000 
#    z -0.000410 0.000000 1.738570 
# 
# From -- ./inp_files/30396.got.cif
#   From: 2010.05.17/outbox.cif.g08.bks.cpg/sg10_16_cif.got.tgz:30396.got - 2010.06.03 11:33:40.
