data_PCOD9154767
_publ_section_title
;
Structure prediction by ZEFSAII (Michael W. Deem and Ramdas Pophale) SiO2 
 PCOD9154767
Probable space group: P 2/M
;
_chemical_formula_sum "Si O2"
_cell_formula_units_Z 18
_cell_length_a 8.141437
_cell_length_b 20.462499
_cell_length_c 9.419821
_cell_angle_alpha 90.000000
_cell_angle_beta 148.123830
_cell_angle_gamma 90.000000
_cell_volume 828.717247
_symmetry_space_group_name_H-M "P 2/M"
_symmetry_group_IT_number 10
_symmetry_cell_setting 'monoclinic'
loop_
_space_group_symop_operation_xyz
x,y,z
-x,y,-z
-x,-y,-z
x,-y,z
loop_
_atom_site_type_symbol
_atom_site_label
_atom_site_fract_x
_atom_site_fract_y
_atom_site_fract_z
Si Si1 0.431010 0.130509 0.114854
Si Si2 0.555660 0.424158 0.872611
Si Si3 0.209446 0.797702 0.392846
Si Si4 0.634159 0.000000 0.755993
Si Si5 0.193266 0.644561 0.370782
O O1 0.083448 0.159479 0.869583
O O2 0.500000 0.120553 0.000000
O O3 0.668000 0.180705 0.363063
O O4 0.459145 0.063832 0.223652
O O5 0.544613 0.500000 0.820868
O O6 0.893801 0.393241 0.093937
O O7 0.500000 0.420509 0.000000
O O8 0.296026 0.384429 0.597177
O O9 0.500000 0.807896 0.500000
O O10 0.122732 0.721526 0.326039
O O11 0.500000 0.000000 0.500000
O O12 0.000000 0.000000 0.000000
O O13 0.500000 0.635806 0.500000
#
# Coordination Sequence:
#
# PCOD9154767 Si02
#       5
#     4   4   4   2   4
#     4  12  25  42  66  98 129 162 210 263 309 363
#     4  11  24  41  62  90 126 166 208 258 318 379
#     4  11  24  43  65  92 128 168 209 254 314 379
#     4  12  25  44  69  94 127 172 211 250 311 372
#     4  11  24  41  64  93 124 163 212 262 309 370
#
# _framework density 21.720314999999999
#
# number of rings (size 3 to 8) (size 9 to 14) (size 15 to 20)
#    0.000    0.667    0.000    8.333    0.000   13.333 
#    0.000    3.333    0.000    0.000    0.000    0.000 
#    0.000    0.000    0.000    0.000    0.000    0.000 
#
# Total GULP energy -100878.703629 kJ/mol
# GULP energy per Si atom -5604.372424 kJ/mol
# Density = 2.167088 g / cm^3
# Si number density = 21.720315 Si / 1000 Ang^3
#
#
#
# Elastic Constant Matrix: (Units=GPa)
#
#
# Indices 1 2 3 4 5 6 
#
# 1 82.5597 59.8664 24.3828 0.0000 -13.5856 0.0000
# 2 59.8664 121.9833 32.4695 0.0000 0.0001 0.0000
# 3 24.3828 32.4695 121.4290 0.0000 -5.0777 0.0000
# 4 0.0000 0.0000 0.0000-2009.7847 0.0000 -941.2750
# 5 -13.5856 0.0001 -5.0777 0.0000 41.5831 0.0000
# 6 0.0000 0.0000 0.0000 -941.2750 0.0000 -351.0448
#
#
#
# Elastic Compliance Matrix: (Units=1/GPa)
#
#
# Indices 1 2 3 4 5 6 
#
# 1 0.020691 -0.009821 -0.001252 0.000000 0.006607 0.000000
# 2 -0.009821 0.013491 -0.001779 0.000000 -0.003426 0.000000
# 3 -0.001252 -0.001779 0.008991 0.000000 0.000689 0.000000
# 4 0.000000 0.000000 0.000000 0.001945 0.000000 -0.005216
# 5 0.006607 -0.003426 0.000689 0.000000 0.026291 0.000000
# 6 0.000000 0.000000 0.000000 -0.005216 0.000000 0.011136
#
#
# Mechanical properties :
#
#
# Convention : Reuss Voigt Hill
#
# Bulk Modulus (GPa) = 57.24412 62.15661 59.70037
# Shear Modulus (GPa) = 43.83116 -449.89905 -203.03394
#
# Velocity S-wave (km/s) = 4.49707 -14.40772 -9.67881
# Velocity P-wave (km/s) = 7.30597 15.75112 9.86713
#
# Compressibility (1/GPa) = 0.01746904
#
# Stress axis : x y z
#
# Youngs Moduli (GPa) = 48.32929 74.12111 111.22070
#
# Poissons Ratio (x) = 0.72798 0.13928
# Poissons Ratio (y) = 0.47467 0.19782
# Poissons Ratio (z) = 0.06052 0.13184
#
# Static dielectric constant tensor:
#      x y z
#    x 1.809780 0.000000 -0.058080 
#    y 0.000000 1.769040 0.000000 
#    z -0.058080 0.000000 2.029690 
# 
# From -- ./inp_files/20370.got.cif
#   From: 2010.05.17/outbox.cif.g08.bks.cpg/sg10_11_cif.got.tgz:20370.got - 2010.06.03 11:33:40.
