data_PCOD9154232
_publ_section_title
;
Structure prediction by ZEFSAII (Michael W. Deem and Ramdas Pophale) SiO2 
 PCOD9154232
Probable space group: P 2/M
;
_chemical_formula_sum "Si O2"
_cell_formula_units_Z 32
_cell_length_a 9.089296
_cell_length_b 14.452234
_cell_length_c 10.662486
_cell_angle_alpha 90.000000
_cell_angle_beta 74.581504
_cell_angle_gamma 90.000000
_cell_volume 1350.221680
_symmetry_space_group_name_H-M "P 2/M"
_symmetry_group_IT_number 10
_symmetry_cell_setting 'monoclinic'
loop_
_space_group_symop_operation_xyz
x,y,z
-x,y,-z
-x,-y,-z
x,-y,z
loop_
_atom_site_type_symbol
_atom_site_label
_atom_site_fract_x
_atom_site_fract_y
_atom_site_fract_z
Si Si1 0.276574 0.832500 0.928001
Si Si2 0.828728 0.632174 0.050402
Si Si3 0.881575 0.899171 0.280098
Si Si4 0.082063 0.705094 0.613193
Si Si5 0.348305 0.604941 0.650018
Si Si6 0.793982 0.603289 0.787801
Si Si7 0.249250 0.896867 0.214932
Si Si8 0.562793 0.257237 0.721935
O O1 0.171331 0.742539 0.962826
O O2 0.192803 0.894124 0.841719
O O3 0.433308 0.791905 0.836157
O O4 0.300258 0.873373 0.060740
O O5 0.744325 0.607623 0.196795
O O6 0.749406 0.598212 0.943249
O O7 0.000000 0.597687 0.000000
O O8 0.845590 0.801381 0.354400
O O9 0.065771 0.896520 0.243742
O O10 0.835991 0.000000 0.345573
O O11 0.949398 0.663157 0.733342
O O12 0.000000 0.718167 0.500000
O O13 0.220088 0.632046 0.577529
O O14 0.404816 0.500000 0.624226
O O15 0.469271 0.688361 0.636384
O O16 0.818920 0.500000 0.732345
O O17 0.656241 0.658320 0.758794
O O18 0.310540 0.824618 0.304888
O O19 0.301174 0.000000 0.235951
#
# Coordination Sequence:
#
# PCOD9154232 Si02
#       8
#     4   4   4   4   4   4   4   4
#     4  11  20  35  59  93 135 173 207 253 310 373
#     4  11  19  34  61  90 129 167 204 260 306 363
#     4  11  22  42  69  93 122 166 218 270 319 375
#     4  12  25  46  71  94 122 156 213 285 330 372
#     4  11  24  41  62  93 127 168 215 257 311 377
#     4  12  24  40  64  94 128 171 218 257 314 383
#     4  11  22  36  61  96 134 173 212 256 313 380
#     4  11  23  38  58  88 135 176 200 253 306 378
#
# _framework density 23.699812999999999
#
# number of rings (size 3 to 8) (size 9 to 14) (size 15 to 20)
#    0.000    0.750    6.250    3.000    1.750    4.250 
#    0.000    2.500    0.000    1.500    0.000    2.625 
#    0.000    0.000    0.000    0.000    0.000    0.000 
#
# Total GULP energy -178758.326467 kJ/mol
# GULP energy per Si atom -5586.197702 kJ/mol
# Density = 2.364587 g / cm^3
# Si number density = 23.699813 Si / 1000 Ang^3
#
#
#
# Elastic Constant Matrix: (Units=GPa)
#
#
# Indices 1 2 3 4 5 6 
#
# 1 105.9618 26.4271 26.0613 0.0000 12.5615 0.0000
# 2 26.4271 182.4420 28.4144 0.0000 18.9892 0.0000
# 3 26.0613 28.4144 77.7933 0.0000 5.2390 0.0000
# 4 0.0000 0.0000 0.0000 -8.0165 0.0000 -2.1420
# 5 12.5615 18.9892 5.2390 0.0000 37.3819 0.0000
# 6 0.0000 0.0000 0.0000 -2.1420 0.0000 48.1457
#
#
#
# Elastic Compliance Matrix: (Units=1/GPa)
#
#
# Indices 1 2 3 4 5 6 
#
# 1 0.010728 -0.000779 -0.003123 0.000000 -0.002772 0.000000
# 2 -0.000779 0.006147 -0.001809 0.000000 -0.002607 0.000000
# 3 -0.003123 -0.001809 0.014566 0.000000 -0.000073 0.000000
# 4 0.000000 0.000000 0.000000 -0.123277 0.000000 -0.005485
# 5 -0.002772 -0.002607 -0.000073 0.000000 0.029017 0.000000
# 6 0.000000 0.000000 0.000000 -0.005485 0.000000 0.020526
#
#
# Mechanical properties :
#
#
# Convention : Reuss Voigt Hill
#
# Bulk Modulus (GPa) = 49.94892 58.66698 54.30795
# Shear Modulus (GPa) = -206.63820 34.52183 -86.05818
#
# Velocity S-wave (km/s) = -9.34768 3.82072 -6.03246
# Velocity P-wave (km/s) = 9.76647 6.65371 5.05530
#
# Compressibility (1/GPa) = 0.02002045
#
# Stress axis : x y z
#
# Youngs Moduli (GPa) = 93.21133 162.67771 68.65162
#
# Poissons Ratio (x) = 0.12675 0.21439
# Poissons Ratio (y) = 0.07263 0.12417
# Poissons Ratio (z) = 0.29108 0.29423
#
# Static dielectric constant tensor:
#      x y z
#    x 1.955300 0.000000 -0.002830 
#    y 0.000000 1.928370 0.000000 
#    z -0.002830 0.000000 1.922990 
# 
# From -- ./inp_files/25315.got.cif
#   From: 2010.05.17/outbox.cif.g08.bks.cpg/sg10_13_cif.got.tgz:25315.got - 2010.06.03 11:33:40.
