data_PCOD9154795
_publ_section_title
;
Structure prediction by ZEFSAII (Michael W. Deem and Ramdas Pophale) SiO2 
 PCOD9154795
Probable space group: P 2/M
;
_chemical_formula_sum "Si O2"
_cell_formula_units_Z 16
_cell_length_a 6.625910
_cell_length_b 12.885767
_cell_length_c 11.444165
_cell_angle_alpha 90.000000
_cell_angle_beta 55.273184
_cell_angle_gamma 90.000000
_cell_volume 803.058189
_symmetry_space_group_name_H-M "P 2/M"
_symmetry_group_IT_number 10
_symmetry_cell_setting 'monoclinic'
loop_
_space_group_symop_operation_xyz
x,y,z
-x,y,-z
-x,-y,-z
x,-y,z
loop_
_atom_site_type_symbol
_atom_site_label
_atom_site_fract_x
_atom_site_fract_y
_atom_site_fract_z
Si Si1 0.286647 0.500000 0.176476
Si Si2 0.398449 0.000000 0.905420
Si Si3 0.500000 0.179659 0.500000
Si Si4 0.000000 0.825879 0.000000
Si Si5 0.098885 0.680664 0.752049
Si Si6 0.540249 0.500000 0.341305
Si Si7 0.709630 0.000000 0.591965
O O1 0.352972 0.500000 0.293846
O O2 0.119175 0.603888 0.216685
O O3 0.500000 0.500000 0.000000
O O4 0.634282 0.000000 0.749152
O O5 0.233692 0.099363 0.930352
O O6 0.500000 0.000000 0.000000
O O7 0.737572 0.250212 0.390943
O O8 0.589349 0.101087 0.571382
O O9 0.994182 0.755913 0.116589
O O10 0.300106 0.601485 0.735320
O O11 0.500000 0.500000 0.500000
O O12 0.000000 0.000000 0.500000
#
# Coordination Sequence:
#
# PCOD9154795 Si02
#       7
#     2   2   2   2   4   2   2
#     4  11  26  46  72 104 141 181 239 286 344 426
#     4  11  26  42  65 101 135 177 232 280 342 412
#     4  11  24  47  68 100 138 179 226 283 344 410
#     4  11  24  45  68  94 140 183 224 287 340 412
#     4  11  24  44  71  98 136 187 226 283 351 404
#     4  11  24  45  67 104 142 173 226 292 344 409
#     4  11  26  44  69  99 139 177 229 283 341 404
#
# _framework density 19.923836000000001
#
# number of rings (size 3 to 8) (size 9 to 14) (size 15 to 20)
#    0.000    1.000    3.750    1.500    3.500    9.000 
#    0.000    0.000    0.000    0.000    0.000    0.000 
#    0.000    0.000    0.000    0.000    0.000    0.000 
#
# Total GULP energy -89161.058907 kJ/mol
# GULP energy per Si atom -5572.566182 kJ/mol
# Density = 1.987849 g / cm^3
# Si number density = 19.923836 Si / 1000 Ang^3
#
#
#
# Elastic Constant Matrix: (Units=GPa)
#
#
# Indices 1 2 3 4 5 6 
#
# 1 131.7201 46.3903 65.4121 0.0000 8.7659 0.0000
# 2 46.3903 139.5440 59.6827 0.0000 -0.6051 0.0000
# 3 65.4121 59.6827 162.5064 0.0000 -6.7465 0.0000
# 4 0.0000 0.0000 0.0000 -7.9771 0.0000 0.9530
# 5 8.7659 -0.6051 -6.7465 0.0000 33.9542 0.0000
# 6 0.0000 0.0000 0.0000 0.9530 0.0000 -13.6087
#
#
#
# Elastic Compliance Matrix: (Units=1/GPa)
#
#
# Indices 1 2 3 4 5 6 
#
# 1 0.010261 -0.001897 -0.003574 0.000000 -0.003393 0.000000
# 2 -0.001897 0.008860 -0.002484 0.000000 0.000154 0.000000
# 3 -0.003574 -0.002484 0.008612 0.000000 0.002590 0.000000
# 4 0.000000 0.000000 0.000000 -0.126416 0.000000 -0.008853
# 5 -0.003393 0.000154 0.002590 0.000000 0.030845 0.000000
# 6 0.000000 0.000000 0.000000 -0.008853 0.000000 -0.074102
#
#
# Mechanical properties :
#
#
# Convention : Reuss Voigt Hill
#
# Bulk Modulus (GPa) = 84.58679 86.30449 85.44564
# Shear Modulus (GPa) = -40.95353 19.95937 -10.49708
#
# Velocity S-wave (km/s) = -4.53869 3.16853 -2.29783
# Velocity P-wave (km/s) = 3.88343 7.53640 5.99493
#
# Compressibility (1/GPa) = 0.01182218
#
# Stress axis : x y z
#
# Youngs Moduli (GPa) = 97.45838 112.86802 116.11589
#
# Poissons Ratio (x) = 0.21412 0.41503
# Poissons Ratio (y) = 0.18489 0.28842
# Poissons Ratio (z) = 0.34834 0.28035
#
# Static dielectric constant tensor:
#      x y z
#    x 1.660620 0.000000 -0.018790 
#    y 0.000000 1.705220 0.000000 
#    z -0.018790 0.000000 1.698260 
# 
# From -- ./inp_files/6217.got.cif
#   From: 2010.05.17/outbox.cif.g08.bks.cpg/sg10_4_cif.got.tgz:6217.got - 2010.06.03 11:33:40.
