data_PCOD9154233
_publ_section_title
;
Structure prediction by ZEFSAII (Michael W. Deem and Ramdas Pophale) SiO2 
 PCOD9154233
Probable space group: P 2/M
;
_chemical_formula_sum "Si O2"
_cell_formula_units_Z 22
_cell_length_a 13.140674
_cell_length_b 13.586610
_cell_length_c 12.794580
_cell_angle_alpha 90.000000
_cell_angle_beta 30.025064
_cell_angle_gamma 90.000000
_cell_volume 1143.019609
_symmetry_space_group_name_H-M "P 2/M"
_symmetry_group_IT_number 10
_symmetry_cell_setting 'monoclinic'
loop_
_space_group_symop_operation_xyz
x,y,z
-x,y,-z
-x,-y,-z
x,-y,z
loop_
_atom_site_type_symbol
_atom_site_label
_atom_site_fract_x
_atom_site_fract_y
_atom_site_fract_z
Si Si1 0.500000 0.268914 0.500000
Si Si2 0.106936 0.384378 0.791063
Si Si3 0.786241 0.886951 0.755288
Si Si4 0.981438 0.788711 0.772917
Si Si5 0.729099 0.890108 0.157213
Si Si6 0.353079 0.888689 0.337857
O O1 0.334831 0.339041 0.591047
O O2 0.355915 0.194373 0.692630
O O3 0.111729 0.500000 0.763911
O O4 0.982538 0.320958 0.816797
O O5 0.000000 0.371859 0.000000
O O6 0.828269 0.815053 0.814622
O O7 0.631831 0.863280 0.797857
O O8 0.000000 0.886456 0.500000
O O9 0.751567 0.000000 0.822769
O O10 0.200385 0.817126 0.532803
O O11 0.932418 0.857320 0.916800
O O12 0.561011 0.892263 0.214988
O O13 0.742578 0.000000 0.191273
O O14 0.265501 0.000000 0.419685
#
# Coordination Sequence:
#
# PCOD9154233 Si02
#       6
#     2   4   4   4   4   4
#     4  12  22  42  56  82 108 144 180 234 282 328
#     4  11  24  42  62  80  99 136 195 246 282 320
#     4   8  15  29  52  81 113 150 181 212 259 323
#     4  11  19  35  56  81 110 143 184 223 276 318
#     4  11  22  33  53  86 118 150 179 211 265 338
#     4   9  18  33  53  81 120 153 181 215 257 325
#
# _framework density 19.247263
#
# number of rings (size 3 to 8) (size 9 to 14) (size 15 to 20)
#    0.000    1.818    3.636    3.273    0.000    0.727 
#    0.000    3.636    0.000    4.909    0.000    1.273 
#    0.000    0.000    0.000    0.000    0.000    0.000 
#
# Total GULP energy -122777.935450 kJ/mol
# GULP energy per Si atom -5580.815248 kJ/mol
# Density = 1.920346 g / cm^3
# Si number density = 19.247263 Si / 1000 Ang^3
#
#
#
# Elastic Constant Matrix: (Units=GPa)
#
#
# Indices 1 2 3 4 5 6 
#
# 1 73.7598 62.1575 10.7055 0.0000 0.3746 0.0000
# 2 62.1575 151.9624 34.2733 0.0000 16.1404 0.0000
# 3 10.7055 34.2733 60.1014 0.0000 16.8921 0.0000
# 4 0.0000 0.0000 0.0000 22.8222 0.0000 0.1287
# 5 0.3746 16.1404 16.8921 0.0000 31.3687 0.0000
# 6 0.0000 0.0000 0.0000 0.1287 0.0000 29.6837
#
#
#
# Elastic Compliance Matrix: (Units=1/GPa)
#
#
# Indices 1 2 3 4 5 6 
#
# 1 0.021267 -0.009216 0.000243 0.000000 0.004357 0.000000
# 2 -0.009216 0.011638 -0.003939 0.000000 -0.003757 0.000000
# 3 0.000243 -0.003939 0.021532 0.000000 -0.009571 0.000000
# 4 0.000000 0.000000 0.000000 0.043818 0.000000 -0.000190
# 5 0.004357 -0.003757 -0.009571 0.000000 0.038914 0.000000
# 6 0.000000 0.000000 0.000000 -0.000190 0.000000 0.033689
#
#
# Mechanical properties :
#
#
# Convention : Reuss Voigt Hill
#
# Bulk Modulus (GPa) = 34.95136 55.56622 45.25879
# Shear Modulus (GPa) = 24.24604 28.68743 26.46673
#
# Velocity S-wave (km/s) = 3.55309 3.86485 3.71224
# Velocity P-wave (km/s) = 5.91872 6.98916 6.47609
#
# Compressibility (1/GPa) = 0.02861119
#
# Stress axis : x y z
#
# Youngs Moduli (GPa) = 47.02163 85.92698 46.44356
#
# Poissons Ratio (x) = 0.79194 -0.01128
# Poissons Ratio (y) = 0.43337 0.18294
# Poissons Ratio (z) = -0.01142 0.33846
#
# Static dielectric constant tensor:
#      x y z
#    x 1.739260 0.000000 -0.028930 
#    y 0.000000 1.637660 0.000000 
#    z -0.028930 0.000000 1.755000 
# 
# From -- ./inp_files/67067.got.cif
#   From: 2010.05.17/outbox.cif.g08.bks.cpg/sg10_34_cif.got.tgz:67067.got - 2010.06.03 11:33:40.
