data_PCOD9154222
_publ_section_title
;
Structure prediction by ZEFSAII (Michael W. Deem and Ramdas Pophale) SiO2 
 PCOD9154222
Probable space group: P 2/M
;
_chemical_formula_sum "Si O2"
_cell_formula_units_Z 28
_cell_length_a 9.162170
_cell_length_b 15.737507
_cell_length_c 22.014861
_cell_angle_alpha 90.000000
_cell_angle_beta 27.108134
_cell_angle_gamma 90.000000
_cell_volume 1446.444879
_symmetry_space_group_name_H-M "P 2/M"
_symmetry_group_IT_number 10
_symmetry_cell_setting 'monoclinic'
loop_
_space_group_symop_operation_xyz
x,y,z
-x,y,-z
-x,-y,-z
x,-y,z
loop_
_atom_site_type_symbol
_atom_site_label
_atom_site_fract_x
_atom_site_fract_y
_atom_site_fract_z
Si Si1 0.672621 0.189515 0.499707
Si Si2 0.178565 0.091936 0.158104
Si Si3 0.191805 0.307434 0.985815
Si Si4 0.152282 0.733276 0.760812
Si Si5 0.271776 0.404395 0.143897
Si Si6 0.388296 0.151425 0.210783
Si Si7 0.641090 0.000000 0.555424
Si Si8 0.584922 0.000000 0.715987
O O1 0.500000 0.213144 0.500000
O O2 0.520571 0.247305 0.609104
O O3 0.056678 0.194644 0.355840
O O4 0.584833 0.089973 0.543398
O O5 0.273513 0.102215 0.193010
O O6 0.007545 0.177013 0.199071
O O7 0.012901 0.000000 0.212581
O O8 0.500000 0.088843 0.000000
O O9 0.490618 0.365755 0.894290
O O10 0.349617 0.219144 0.906152
O O11 0.000000 0.343830 0.000000
O O12 0.962087 0.290641 0.129103
O O13 0.007823 0.660978 0.770137
O O14 0.162970 0.500000 0.197746
O O15 0.500000 0.407330 0.000000
O O16 0.523243 0.085271 0.209878
O O17 0.513137 0.000000 0.671773
O O18 0.030529 0.000000 0.418647
#
# Coordination Sequence:
#
# PCOD9154222 Si02
#       8
#     4   4   4   4   4   4   2   2
#     4  11  21  32  56  81 108 145 198 243 280 326
#     4  11  19  31  54  80 111 153 192 236 284 322
#     4  11  23  38  57  83 117 147 186 233 282 344
#     4  11  21  37  56  89 116 144 188 238 282 338
#     4   9  18  37  65  87 111 145 181 231 289 341
#     4  11  20  36  54  75 110 155 193 235 283 327
#     4   9  21  34  47  72 110 154 196 239 271 324
#     4   9  20  36  49  67 109 159 201 229 274 329
#
# _framework density 19.357804999999999
#
# number of rings (size 3 to 8) (size 9 to 14) (size 15 to 20)
#    0.000    1.571    5.000    0.643    3.000    0.286 
#    0.000    0.357    0.000    3.857    0.000    0.000 
#    0.000    9.143    0.000    0.000    0.000    0.000 
#
# Total GULP energy -156321.842584 kJ/mol
# GULP energy per Si atom -5582.922949 kJ/mol
# Density = 1.931375 g / cm^3
# Si number density = 19.357805 Si / 1000 Ang^3
#
#
#
# Elastic Constant Matrix: (Units=GPa)
#
#
# Indices 1 2 3 4 5 6 
#
# 1 75.3473 26.3206 20.2421 0.0000 12.4546 0.0000
# 2 26.3206 93.3430 25.0456 0.0000 0.9267 0.0000
# 3 20.2421 25.0456 93.6354 0.0000 8.5343 0.0000
# 4 0.0000 0.0000 0.0000 24.5208 0.0000 -0.9578
# 5 12.4546 0.9267 8.5343 0.0000 20.6515 0.0000
# 6 0.0000 0.0000 0.0000 -0.9578 0.0000 4.4386
#
#
#
# Elastic Compliance Matrix: (Units=1/GPa)
#
#
# Indices 1 2 3 4 5 6 
#
# 1 0.016694 -0.004172 -0.001655 0.000000 -0.009197 0.000000
# 2 -0.004172 0.012596 -0.002749 0.000000 0.003087 0.000000
# 3 -0.001655 -0.002749 0.012127 0.000000 -0.003890 0.000000
# 4 0.000000 0.000000 0.000000 0.041128 0.000000 0.008875
# 5 -0.009197 0.003087 -0.003890 0.000000 0.055438 0.000000
# 6 0.000000 0.000000 0.000000 0.008875 0.000000 0.227211
#
#
# Mechanical properties :
#
#
# Convention : Reuss Voigt Hill
#
# Bulk Modulus (GPa) = 41.20866 45.06025 43.13446
# Shear Modulus (GPa) = 12.80621 22.63668 17.72145
#
# Velocity S-wave (km/s) = 2.57486 3.42333 3.02895
# Velocity P-wave (km/s) = 5.49308 6.24129 5.87910
#
# Compressibility (1/GPa) = 0.02426674
#
# Stress axis : x y z
#
# Youngs Moduli (GPa) = 59.90175 79.38723 82.45887
#
# Poissons Ratio (x) = 0.33121 0.13645
# Poissons Ratio (y) = 0.24991 0.22666
# Poissons Ratio (z) = 0.09912 0.21822
#
# Static dielectric constant tensor:
#      x y z
#    x 1.695710 0.000000 -0.020280 
#    y 0.000000 1.676450 0.000000 
#    z -0.020280 0.000000 1.748310 
# 
# From -- ./inp_files/82926.got.cif
#   From: 2010.05.17/outbox.cif.g08.bks.cpg/sg10_42_cif.got.tgz:82926.got - 2010.06.03 11:33:40.
