data_PCOD9154128
_publ_section_title
;
Structure prediction by ZEFSAII (Michael W. Deem and Ramdas Pophale) SiO2 
 PCOD9154128
Probable space group: P 2/M
;
_chemical_formula_sum "Si O2"
_cell_formula_units_Z 20
_cell_length_a 7.964262
_cell_length_b 11.829561
_cell_length_c 9.418611
_cell_angle_alpha 90.000000
_cell_angle_beta 85.846558
_cell_angle_gamma 90.000000
_cell_volume 885.031894
_symmetry_space_group_name_H-M "P 2/M"
_symmetry_group_IT_number 10
_symmetry_cell_setting 'monoclinic'
loop_
_space_group_symop_operation_xyz
x,y,z
-x,y,-z
-x,-y,-z
x,-y,z
loop_
_atom_site_type_symbol
_atom_site_label
_atom_site_fract_x
_atom_site_fract_y
_atom_site_fract_z
Si Si1 0.679051 0.744747 0.061197
Si Si2 0.818890 0.500000 0.098002
Si Si3 0.805797 0.129217 0.803714
Si Si4 0.806236 0.873637 0.306007
Si Si5 0.685935 0.740693 0.556938
Si Si6 0.705183 0.500000 0.446272
O O1 0.733593 0.615197 0.051375
O O2 0.699479 0.785654 0.220433
O O3 0.500000 0.759125 0.000000
O O4 0.796621 0.828974 0.965144
O O5 0.776029 0.500000 0.276287
O O6 0.000000 0.500000 0.000000
O O7 0.702278 0.220750 0.717668
O O8 0.999260 0.133310 0.746047
O O9 0.743625 0.000000 0.792624
O O10 0.786807 0.837775 0.468793
O O11 0.743432 0.000000 0.285178
O O12 0.500000 0.743230 0.500000
O O13 0.760782 0.617073 0.516934
O O14 0.500000 0.500000 0.500000
#
# Coordination Sequence:
#
# PCOD9154128 Si02
#       6
#     4   2   4   4   4   2
#     4  12  26  43  70 101 139 180 236 295 356 420
#     4  12  25  48  76 106 142 190 238 292 354 431
#     4  11  25  43  66 101 140 185 235 291 356 426
#     4  11  23  43  67  95 137 184 230 291 355 424
#     4  11  23  42  68  98 139 180 237 295 353 421
#     4  10  24  44  75 103 144 187 237 291 360 422
#
# _framework density 22.598057000000001
#
# number of rings (size 3 to 8) (size 9 to 14) (size 15 to 20)
#    0.000    0.800    2.000    5.100    2.800    8.800 
#    0.000    3.000    0.000    0.000    0.000    0.000 
#    0.000    0.000    0.000    0.000    0.000    0.000 
#
# Total GULP energy -111677.013547 kJ/mol
# GULP energy per Si atom -5583.850677 kJ/mol
# Density = 2.254662 g / cm^3
# Si number density = 22.598057 Si / 1000 Ang^3
#
#
#
# Elastic Constant Matrix: (Units=GPa)
#
#
# Indices 1 2 3 4 5 6 
#
# 1 60.4404 27.7476 17.5265 0.0000 0.3096 0.0000
# 2 27.7476 126.3251 2.6480 0.0000 0.9730 0.0000
# 3 17.5265 2.6480 99.8927 0.0000 -11.6595 0.0000
# 4 0.0000 0.0000 0.0000 60.7874 0.0000 12.3604
# 5 0.3096 0.9730 -11.6595 0.0000 39.4165 0.0000
# 6 0.0000 0.0000 0.0000 12.3604 0.0000 1.8169
#
#
#
# Elastic Compliance Matrix: (Units=1/GPa)
#
#
# Indices 1 2 3 4 5 6 
#
# 1 0.019472 -0.004197 -0.003429 0.000000 -0.001064 0.000000
# 2 -0.004197 0.008828 0.000498 0.000000 -0.000038 0.000000
# 3 -0.003429 0.000498 0.010980 0.000000 0.003263 0.000000
# 4 0.000000 0.000000 0.000000 -0.042918 0.000000 0.291971
# 5 -0.001064 -0.000038 0.003263 0.000000 0.026344 0.000000
# 6 0.000000 0.000000 0.000000 0.291971 0.000000 -1.435887
#
#
# Mechanical properties :
#
#
# Convention : Reuss Voigt Hill
#
# Bulk Modulus (GPa) = 39.96306 42.50026 41.23166
# Shear Modulus (GPa) = -3.59561 36.31991 16.36215
#
# Velocity S-wave (km/s) = -1.26276 4.01336 2.69374
# Velocity P-wave (km/s) = 3.94925 6.35011 5.28775
#
# Compressibility (1/GPa) = 0.02502311
#
# Stress axis : x y z
#
# Youngs Moduli (GPa) = 51.35605 113.27840 91.07436
#
# Poissons Ratio (x) = 0.47543 0.31232
# Poissons Ratio (y) = 0.21554 -0.04535
# Poissons Ratio (z) = 0.17612 -0.05641
#
# Static dielectric constant tensor:
#      x y z
#    x 1.860460 0.000000 -0.050030 
#    y 0.000000 1.784990 0.000000 
#    z -0.050030 0.000000 1.809360 
# 
# From -- ./inp_files/17799.got.cif
#   From: 2010.05.17/outbox.cif.g08.bks.cpg/sg10_9_cif.got.tgz:17799.got - 2010.06.03 11:33:40.
