data_PCOD9154331
_publ_section_title
;
Structure prediction by ZEFSAII (Michael W. Deem and Ramdas Pophale) SiO2 
 PCOD9154331
Probable space group: P 2/M
;
_chemical_formula_sum "Si O2"
_cell_formula_units_Z 28
_cell_length_a 9.790120
_cell_length_b 13.248212
_cell_length_c 12.363234
_cell_angle_alpha 90.000000
_cell_angle_beta 65.932683
_cell_angle_gamma 90.000000
_cell_volume 1464.131206
_symmetry_space_group_name_H-M "P 2/M"
_symmetry_group_IT_number 10
_symmetry_cell_setting 'monoclinic'
loop_
_space_group_symop_operation_xyz
x,y,z
-x,y,-z
-x,-y,-z
x,-y,z
loop_
_atom_site_type_symbol
_atom_site_label
_atom_site_fract_x
_atom_site_fract_y
_atom_site_fract_z
Si Si1 0.156408 0.674991 0.776828
Si Si2 0.690387 0.732749 0.714873
Si Si3 0.880857 0.301863 0.456090
Si Si4 0.926649 0.886693 0.140813
Si Si5 0.081554 0.114327 0.313438
Si Si6 0.601951 0.614981 0.136119
Si Si7 0.824629 0.619352 0.871965
O O1 0.156767 0.652843 0.648425
O O2 0.180464 0.793841 0.794805
O O3 0.275997 0.615764 0.807900
O O4 0.985171 0.652703 0.865657
O O5 0.735087 0.708509 0.577436
O O6 0.752841 0.845486 0.713162
O O7 0.525956 0.695311 0.795745
O O8 0.793243 0.671716 0.767937
O O9 0.000000 0.353463 0.500000
O O10 0.961504 0.194008 0.401499
O O11 0.052174 0.882837 0.194235
O O12 0.860415 0.000000 0.166264
O O13 0.000000 0.872649 0.000000
O O14 0.057183 0.000000 0.357586
O O15 0.541112 0.500000 0.143744
O O16 0.691837 0.642699 0.998376
O O17 0.828787 0.500000 0.856455
#
# Coordination Sequence:
#
# PCOD9154331 Si02
#       7
#     4   4   4   4   4   4   4
#     4  11  20  37  61  87 113 151 200 247 292 341
#     4  11  21  38  57  83 120 154 193 234 295 350
#     4   9  18  36  59  86 116 145 193 237 283 344
#     4   9  16  29  54  87 118 146 182 233 293 343
#     4   9  18  34  62  93 117 151 198 239 286 348
#     4  11  25  40  57  83 117 158 198 244 302 350
#     4  11  21  38  61  82 109 151 206 249 288 346
#
# _framework density 19.123968999999999
#
# number of rings (size 3 to 8) (size 9 to 14) (size 15 to 20)
#    0.000    1.857    4.286    2.571    0.000    5.429 
#    0.000    5.000    0.000    2.571    0.000    8.000 
#    0.000    0.000    0.000    0.000    0.000    0.000 
#
# Total GULP energy -156060.676762 kJ/mol
# GULP energy per Si atom -5573.595599 kJ/mol
# Density = 1.908044 g / cm^3
# Si number density = 19.123969 Si / 1000 Ang^3
#
#
#
# Elastic Constant Matrix: (Units=GPa)
#
#
# Indices 1 2 3 4 5 6 
#
# 1 55.0563 15.9792 19.1592 0.0000 -9.3035 0.0000
# 2 15.9792 51.9446 22.9764 0.0000 -10.1130 0.0000
# 3 19.1592 22.9764 119.3849 0.0000 7.2974 0.0000
# 4 0.0000 0.0000 0.0000 11.3339 0.0000 3.5780
# 5 -9.3035 -10.1130 7.2974 0.0000 27.0513 0.0000
# 6 0.0000 0.0000 0.0000 3.5780 0.0000 22.2860
#
#
#
# Elastic Compliance Matrix: (Units=1/GPa)
#
#
# Indices 1 2 3 4 5 6 
#
# 1 0.021532 -0.003927 -0.003114 0.000000 0.006777 0.000000
# 2 -0.003927 0.024225 -0.004579 0.000000 0.008941 0.000000
# 3 -0.003114 -0.004579 0.010094 0.000000 -0.005506 0.000000
# 4 0.000000 0.000000 0.000000 0.092941 0.000000 -0.014922
# 5 0.006777 0.008941 -0.005506 0.000000 0.044125 0.000000
# 6 0.000000 0.000000 0.000000 -0.014922 0.000000 0.047267
#
#
# Mechanical properties :
#
#
# Convention : Reuss Voigt Hill
#
# Bulk Modulus (GPa) = 30.66361 38.06837 34.36599
# Shear Modulus (GPa) = 18.22863 23.35233 20.79048
#
# Velocity S-wave (km/s) = 3.09071 3.49822 3.30076
# Velocity P-wave (km/s) = 5.36709 6.02213 5.70402
#
# Compressibility (1/GPa) = 0.03261194
#
# Stress axis : x y z
#
# Youngs Moduli (GPa) = 46.44297 41.27928 99.07137
#
# Poissons Ratio (x) = 0.16209 0.30851
# Poissons Ratio (y) = 0.18237 0.45361
# Poissons Ratio (z) = 0.14462 0.18900
#
# Static dielectric constant tensor:
#      x y z
#    x 1.672800 0.000000 0.014460 
#    y 0.000000 1.712930 0.000000 
#    z 0.014460 0.000000 1.689300 
# 
# From -- ./inp_files/42640.got.cif
#   From: 2010.05.17/outbox.cif.g08.bks.cpg/sg10_22_cif.got.tgz:42640.got - 2010.06.03 11:33:40.
