data_PCOD9154914
_publ_section_title
;
Structure prediction by ZEFSAII (Michael W. Deem and Ramdas Pophale) SiO2 
 PCOD9154914
Probable space group: P 2/M
;
_chemical_formula_sum "Si O2"
_cell_formula_units_Z 20
_cell_length_a 7.107654
_cell_length_b 14.356820
_cell_length_c 15.790779
_cell_angle_alpha 90.000000
_cell_angle_beta 27.580066
_cell_angle_gamma 90.000000
_cell_volume 746.032123
_symmetry_space_group_name_H-M "P 2/M"
_symmetry_group_IT_number 10
_symmetry_cell_setting 'monoclinic'
loop_
_space_group_symop_operation_xyz
x,y,z
-x,y,-z
-x,-y,-z
x,-y,z
loop_
_atom_site_type_symbol
_atom_site_label
_atom_site_fract_x
_atom_site_fract_y
_atom_site_fract_z
Si Si1 0.967576 0.000000 0.279407
Si Si2 0.319124 0.000000 0.796188
Si Si3 0.668833 0.198904 0.206076
Si Si4 0.936133 0.401613 0.782689
Si Si5 0.386786 0.601522 0.779957
Si Si6 0.049313 0.199555 0.715408
O O1 0.500000 0.000000 0.500000
O O2 0.922232 0.000000 0.196248
O O3 0.158762 0.899102 0.225753
O O4 0.548445 0.901261 0.706338
O O5 0.000000 0.000000 0.000000
O O6 0.427263 0.294912 0.289158
O O7 0.913572 0.204112 0.197450
O O8 0.000000 0.196268 0.000000
O O9 0.007917 0.500000 0.707964
O O10 0.240464 0.399648 0.740618
O O11 0.924296 0.303681 0.739276
O O12 0.500000 0.406514 0.000000
O O13 0.583516 0.500000 0.716264
O O14 0.000000 0.602634 0.000000
O O15 0.500000 0.190818 0.500000
#
# Coordination Sequence:
#
# PCOD9154914 Si02
#       6
#     2   2   4   4   4   4
#     4   8  14  24  37  55  82 111 135 166 211 254
#     4   8  12  18  30  49  74  99 124 158 197 234
#     4   8  13  21  34  54  77 100 128 163 200 237
#     4   9  17  28  41  60  87 115 140 171 215 259
#     4   8  13  22  37  56  75  99 133 167 197 237
#     4   9  16  26  41  61  84 110 141 175 210 250
#
# _framework density 26.808496999999999
#
# number of rings (size 3 to 8) (size 9 to 14) (size 15 to 20)
#    0.000    3.600    0.000    0.000    0.000    0.400 
#    0.000    0.500    0.000    0.000    0.000   22.400 
#    0.000   73.600    0.000  284.200    0.000    6.400 
#
# Total GULP energy -111477.848374 kJ/mol
# GULP energy per Si atom -5573.892419 kJ/mol
# Density = 2.674748 g / cm^3
# Si number density = 26.808497 Si / 1000 Ang^3
#
#
#
# Elastic Constant Matrix: (Units=GPa)
#
#
# Indices 1 2 3 4 5 6 
#
# 1 100.1487 17.5643 -49.6971 0.0000 -5.2073 0.0000
# 2 17.5643 442.5097 20.5933 0.0000 -4.3272 0.0000
# 3 -49.6971 20.5933 7.8709 0.0000 -54.3648 0.0000
# 4 0.0000 0.0000 0.0000 -148.1672 0.0000 -286.4924
# 5 -5.2073 -4.3272 -54.3648 0.0000 -21.0671 0.0000
# 6 0.0000 0.0000 0.0000 -286.4924 0.0000 -576.6483
#
#
#
# Elastic Compliance Matrix: (Units=1/GPa)
#
#
# Indices 1 2 3 4 5 6 
#
# 1 0.010993 -0.000665 0.002833 0.000000 -0.009891 0.000000
# 2 -0.000665 0.002331 -0.000662 0.000000 0.001395 0.000000
# 3 0.002833 -0.000662 0.007585 0.000000 -0.020137 0.000000
# 4 0.000000 0.000000 0.000000 -0.171496 0.000000 0.085203
# 5 -0.009891 0.001395 -0.020137 0.000000 0.006655 0.000000
# 6 0.000000 0.000000 0.000000 0.085203 0.000000 -0.044065
#
#
# Mechanical properties :
#
#
# Convention : Reuss Voigt Hill
#
# Bulk Modulus (GPa) = 41.80622 58.60560 50.20591
# Shear Modulus (GPa) = -27.31701 -111.70527 -69.51114
#
# Velocity S-wave (km/s) = -3.19559 -6.46207 -5.09755
# Velocity P-wave (km/s) = 1.41863 5.81115 3.98478
#
# Compressibility (1/GPa) = 0.02391989
#
# Stress axis : x y z
#
# Youngs Moduli (GPa) = 90.96499 429.05722 131.84542
#
# Poissons Ratio (x) = 0.28528 -0.37350
# Poissons Ratio (y) = 0.06048 0.08732
# Poissons Ratio (z) = -0.25769 0.28418
#
# Static dielectric constant tensor:
#      x y z
#    x 2.015410 0.000000 0.013150 
#    y 0.000000 2.272960 0.000000 
#    z 0.013150 0.000000 1.986270 
# 
# From -- ./inp_files/18692.got.cif
#   From: 2010.05.17/outbox.cif.g08.bks.cpg/sg10_10_cif.got.tgz:18692.got - 2010.06.03 11:33:40.
