data_PCOD9154653
_publ_section_title
;
Structure prediction by ZEFSAII (Michael W. Deem and Ramdas Pophale) SiO2 
 PCOD9154653
Probable space group: P 2/M
;
_chemical_formula_sum "Si O2"
_cell_formula_units_Z 16
_cell_length_a 10.453929
_cell_length_b 16.585775
_cell_length_c 5.127659
_cell_angle_alpha 90.000000
_cell_angle_beta 121.263076
_cell_angle_gamma 90.000000
_cell_volume 759.968584
_symmetry_space_group_name_H-M "P 2/M"
_symmetry_group_IT_number 10
_symmetry_cell_setting 'monoclinic'
loop_
_space_group_symop_operation_xyz
x,y,z
-x,y,-z
-x,-y,-z
x,-y,z
loop_
_atom_site_type_symbol
_atom_site_label
_atom_site_fract_x
_atom_site_fract_y
_atom_site_fract_z
Si Si1 0.602176 0.170811 0.859162
Si Si2 0.107701 0.588544 0.366699
Si Si3 0.823647 0.248877 0.751750
Si Si4 0.830189 0.088109 0.423762
O O1 0.500000 0.152425 0.500000
O O2 0.717040 0.240357 0.888417
O O3 0.289707 0.098646 0.934312
O O4 0.500000 0.191690 0.000000
O O5 0.180988 0.500000 0.470493
O O6 0.207268 0.667943 0.431490
O O7 0.000000 0.600763 0.500000
O O8 0.000000 0.584381 0.000000
O O9 0.803362 0.165837 0.573391
O O10 0.000000 0.249708 0.000000
O O11 0.000000 0.093296 0.500000
O O12 0.811987 0.000000 0.529685
#
# Coordination Sequence:
#
# PCOD9154653 Si02
#       4
#     4   4   4   4
#     4  12  26  44  63  94 131 176 217 266 321 382
#     4   9  19  34  60  98 130 159 207 270 323 373
#     4  11  22  40  70  93 131 172 220 263 327 379
#     4  11  24  42  67  98 129 169 222 270 321 382
#
# _framework density 21.053502999999999
#
# number of rings (size 3 to 8) (size 9 to 14) (size 15 to 20)
#    0.000    1.250    5.000    0.750    3.500    2.500 
#    0.000    0.000    0.000    1.500    0.000    0.000 
#    0.000    0.000    0.000    0.000    0.000    0.000 
#
# Total GULP energy -89263.879379 kJ/mol
# GULP energy per Si atom -5578.992461 kJ/mol
# Density = 2.100558 g / cm^3
# Si number density = 21.053503 Si / 1000 Ang^3
#
#
#
# Elastic Constant Matrix: (Units=GPa)
#
#
# Indices 1 2 3 4 5 6 
#
# 1 141.7877 59.1686 52.1842 0.0000 -11.1645 0.0000
# 2 59.1686 204.1156 23.9741 0.0000 -27.0512 0.0000
# 3 52.1842 23.9741 94.1228 0.0000 -13.1285 0.0000
# 4 0.0000 0.0000 0.0000 26.7003 0.0000 -13.3500
# 5 -11.1645 -27.0512 -13.1285 0.0000 41.7793 0.0000
# 6 0.0000 0.0000 0.0000 -13.3500 0.0000 -14.5485
#
#
#
# Elastic Compliance Matrix: (Units=1/GPa)
#
#
# Indices 1 2 3 4 5 6 
#
# 1 0.009789 -0.002319 -0.004896 0.000000 -0.000424 0.000000
# 2 -0.002319 0.005986 0.000225 0.000000 0.003327 0.000000
# 3 -0.004896 0.000225 0.013721 0.000000 0.003149 0.000000
# 4 0.000000 0.000000 0.000000 0.025674 0.000000 -0.023559
# 5 -0.000424 0.003327 0.003149 0.000000 0.026966 0.000000
# 6 0.000000 0.000000 0.000000 -0.023559 0.000000 -0.047118
#
#
# Mechanical properties :
#
#
# Convention : Reuss Voigt Hill
#
# Bulk Modulus (GPa) = 64.44841 78.96444 71.70643
# Shear Modulus (GPa) = 92.30537 31.09948 61.70242
#
# Velocity S-wave (km/s) = 6.62861 3.84756 5.41951
# Velocity P-wave (km/s) = 9.44790 7.57141 8.56122
#
# Compressibility (1/GPa) = 0.01551629
#
# Stress axis : x y z
#
# Youngs Moduli (GPa) = 102.15658 167.06192 72.88270
#
# Poissons Ratio (x) = 0.38737 0.35682
# Poissons Ratio (y) = 0.23687 -0.01639
# Poissons Ratio (z) = 0.50013 -0.03758
#
# Static dielectric constant tensor:
#      x y z
#    x 1.762470 0.000000 -0.005170 
#    y 0.000000 1.815550 0.000000 
#    z -0.005170 0.000000 1.845190 
# 
# From -- ./inp_files/3785.got.cif
#   From: 2010.05.17/outbox.cif.g08.bks.cpg/sg10_2_cif.got.tgz:3785.got - 2010.06.03 11:33:40.
