data_PCOD9154082
_publ_section_title
;
Structure prediction by ZEFSAII (Michael W. Deem and Ramdas Pophale) SiO2 
 PCOD9154082
Probable space group: P 2/M
;
_chemical_formula_sum "Si O2"
_cell_formula_units_Z 32
_cell_length_a 9.305629
_cell_length_b 18.280445
_cell_length_c 12.680535
_cell_angle_alpha 90.000000
_cell_angle_beta 117.415068
_cell_angle_gamma 90.000000
_cell_volume 1914.844535
_symmetry_space_group_name_H-M "P 2/M"
_symmetry_group_IT_number 10
_symmetry_cell_setting 'monoclinic'
loop_
_space_group_symop_operation_xyz
x,y,z
-x,y,-z
-x,-y,-z
x,-y,z
loop_
_atom_site_type_symbol
_atom_site_label
_atom_site_fract_x
_atom_site_fract_y
_atom_site_fract_z
Si Si1 0.972689 0.714671 0.115601
Si Si2 0.842945 0.419292 0.868562
Si Si3 0.680106 0.914271 0.550950
Si Si4 0.994626 0.139529 0.255725
Si Si5 0.379693 0.660027 0.050945
Si Si6 0.532784 0.821234 0.885930
Si Si7 0.254988 0.912769 0.674414
Si Si8 0.169486 0.080314 0.997831
O O1 0.101288 0.649905 0.182095
O O2 0.987281 0.781357 0.199860
O O3 0.000000 0.735099 0.000000
O O4 0.788556 0.686422 0.059339
O O5 0.824297 0.500000 0.814781
O O6 0.685736 0.396579 0.883791
O O7 0.000000 0.423423 0.000000
O O8 0.500000 0.882476 0.500000
O O9 0.818830 0.881736 0.671286
O O10 0.730421 0.907850 0.446273
O O11 0.671154 0.000000 0.575876
O O12 0.908043 0.124820 0.337440
O O13 0.884372 0.090524 0.140805
O O14 0.457148 0.733821 0.127508
O O15 0.500000 0.632737 0.000000
O O16 0.400035 0.866506 0.776870
O O17 0.706726 0.857860 0.925143
O O18 0.500000 0.830509 0.000000
O O19 0.260444 0.000000 0.702163
O O20 0.242800 0.000000 0.039556
O O21 0.000000 0.084889 0.000000
#
# Coordination Sequence:
#
# PCOD9154082 Si02
#       8
#     4   4   4   4   4   4   4   4
#     4   9  18  31  50  74 102 132 164 201 251 298
#     4   8  16  29  46  67  98 135 165 191 235 303
#     4  10  24  40  52  68  92 130 175 221 263 295
#     4  12  20  35  54  70  96 130 172 212 256 302
#     4   9  16  27  43  71 100 129 161 202 247 289
#     4  11  20  33  50  72 103 131 168 206 256 303
#     4  11  23  37  53  70  98 136 175 218 254 298
#     4  11  23  31  45  72  98 129 167 211 254 298
#
# _framework density 16.711539999999999
#
# number of rings (size 3 to 8) (size 9 to 14) (size 15 to 20)
#    0.000    2.125    2.500    3.000    3.500    1.750 
#    0.000    0.000    0.000    0.000    0.000    0.000 
#    0.000    6.500    0.000    0.000    0.000    0.250 
#
# Total GULP energy -178326.142456 kJ/mol
# GULP energy per Si atom -5572.691952 kJ/mol
# Density = 1.667350 g / cm^3
# Si number density = 16.711540 Si / 1000 Ang^3
#
#
#
# Elastic Constant Matrix: (Units=GPa)
#
#
# Indices 1 2 3 4 5 6 
#
# 1 95.6464 22.8258 6.2085 0.0000 5.8087 0.0000
# 2 22.8258 90.4199 8.1477 0.0000 -5.6335 0.0000
# 3 6.2085 8.1477 26.8907 0.0000 12.0585 0.0000
# 4 0.0000 0.0000 0.0000 7.5164 0.0000 1.3297
# 5 5.8087 -5.6335 12.0585 0.0000 22.4456 0.0000
# 6 0.0000 0.0000 0.0000 1.3297 0.0000 8.4245
#
#
#
# Elastic Compliance Matrix: (Units=1/GPa)
#
#
# Indices 1 2 3 4 5 6 
#
# 1 0.011426 -0.003114 -0.000024 0.000000 -0.003726 0.000000
# 2 -0.003114 0.012913 -0.006598 0.000000 0.007592 0.000000
# 3 -0.000024 -0.006598 0.052605 0.000000 -0.029911 0.000000
# 4 0.000000 0.000000 0.000000 0.136864 0.000000 -0.021603
# 5 -0.003726 0.007592 -0.029911 0.000000 0.063491 0.000000
# 6 0.000000 0.000000 0.000000 -0.021603 0.000000 0.122111
#
#
# Mechanical properties :
#
#
# Convention : Reuss Voigt Hill
#
# Bulk Modulus (GPa) = 17.39958 31.92458 24.66208
# Shear Modulus (GPa) = 11.41448 19.39563 15.40506
#
# Velocity S-wave (km/s) = 2.61632 3.41047 3.03945
# Velocity P-wave (km/s) = 4.42280 5.88670 5.20646
#
# Compressibility (1/GPa) = 0.05747267
#
# Stress axis : x y z
#
# Youngs Moduli (GPa) = 87.51770 77.43974 19.00961
#
# Poissons Ratio (x) = 0.24119 0.00045
# Poissons Ratio (y) = 0.27257 0.12542
# Poissons Ratio (z) = 0.00206 0.51094
#
# Static dielectric constant tensor:
#      x y z
#    x 1.632830 0.000000 -0.026690 
#    y 0.000000 1.599560 0.000000 
#    z -0.026690 0.000000 1.570720 
# 
# From -- ./inp_files/43530.got.cif
#   From: 2010.05.17/outbox.cif.g08.bks.cpg/sg10_22_cif.got.tgz:43530.got - 2010.06.03 11:33:40.
