data_PCOD9154784
_publ_section_title
;
Structure prediction by ZEFSAII (Michael W. Deem and Ramdas Pophale) SiO2 
 PCOD9154784
Probable space group: P 2/M
;
_chemical_formula_sum "Si O2"
_cell_formula_units_Z 17
_cell_length_a 11.954280
_cell_length_b 7.563900
_cell_length_c 10.203512
_cell_angle_alpha 90.000000
_cell_angle_beta 121.227404
_cell_angle_gamma 90.000000
_cell_volume 788.940253
_symmetry_space_group_name_H-M "P 2/M"
_symmetry_group_IT_number 10
_symmetry_cell_setting 'monoclinic'
loop_
_space_group_symop_operation_xyz
x,y,z
-x,y,-z
-x,-y,-z
x,-y,z
loop_
_atom_site_type_symbol
_atom_site_label
_atom_site_fract_x
_atom_site_fract_y
_atom_site_fract_z
Si Si1 0.349559 0.714839 0.762315
Si Si2 0.352615 0.286404 0.061186
Si Si3 0.122945 0.703726 0.427610
Si Si4 0.000000 0.000000 0.500000
Si Si5 0.864992 0.792745 0.857881
O O1 0.348783 0.500000 0.760487
O O2 0.497874 0.770712 0.820733
O O3 0.242402 0.770864 0.592013
O O4 0.319350 0.771932 0.892679
O O5 0.352718 0.500000 0.059265
O O6 0.250451 0.229644 0.107947
O O7 0.091440 0.500000 0.439725
O O8 0.010222 0.842176 0.393329
O O9 0.162115 0.710211 0.299787
O O10 0.883468 0.000000 0.845055
O O11 0.000000 0.720131 0.000000
#
# Coordination Sequence:
#
# PCOD9154784 Si02
#       5
#     4   4   4   1   4
#     4   8  18  38  65  94 121 160 211 258 311 371
#     4   9  18  38  65  91 123 161 208 261 309 373
#     4  11  24  43  67  93 125 169 211 259 318 370
#     4  12  26  44  62  98 132 162 212 264 304 386
#     4  11  25  42  58  89 131 168 210 263 319 376
#
# _framework density 21.547892000000001
#
# number of rings (size 3 to 8) (size 9 to 14) (size 15 to 20)
#    0.000    2.118    1.176    2.471    3.294    2.824 
#    2.118    5.882    0.000    0.000    0.000    0.000 
#    0.000    0.000    0.000    0.000    0.000    0.000 
#
# Total GULP energy -94736.326411 kJ/mol
# GULP energy per Si atom -5572.725083 kJ/mol
# Density = 2.149885 g / cm^3
# Si number density = 21.547892 Si / 1000 Ang^3
#
#
#
# Elastic Constant Matrix: (Units=GPa)
#
#
# Indices 1 2 3 4 5 6 
#
# 1 138.6214 11.3828 71.9640 0.0000 -29.4971 0.0000
# 2 11.3828 100.9907 12.4064 0.0000 -0.6863 0.0000
# 3 71.9640 12.4064 145.2244 0.0000 -7.9240 0.0000
# 4 0.0000 0.0000 0.0000 18.2098 0.0000 -18.7980
# 5 -29.4971 -0.6863 -7.9240 0.0000 33.7570 0.0000
# 6 0.0000 0.0000 0.0000 -18.7980 0.0000 29.7850
#
#
#
# Elastic Compliance Matrix: (Units=1/GPa)
#
#
# Indices 1 2 3 4 5 6 
#
# 1 0.012039 -0.000630 -0.005408 0.000000 0.009237 0.000000
# 2 -0.000630 0.010040 -0.000572 0.000000 -0.000480 0.000000
# 3 -0.005408 -0.000572 0.009477 0.000000 -0.002512 0.000000
# 4 0.000000 0.000000 0.000000 0.157580 0.000000 0.099453
# 5 0.009237 -0.000480 -0.002512 0.000000 0.037096 0.000000
# 6 0.000000 0.000000 0.000000 0.099453 0.000000 0.096341
#
#
# Mechanical properties :
#
#
# Convention : Reuss Voigt Hill
#
# Bulk Modulus (GPa) = 54.53416 64.03810 59.28613
# Shear Modulus (GPa) = 14.62400 35.62259 25.12330
#
# Velocity S-wave (km/s) = 2.60796 4.07035 3.41827
# Velocity P-wave (km/s) = 5.86787 7.20234 6.56908
#
# Compressibility (1/GPa) = 0.01833713
#
# Stress axis : x y z
#
# Youngs Moduli (GPa) = 83.06650 99.60292 105.51431
#
# Poissons Ratio (x) = 0.06273 0.57059
# Poissons Ratio (y) = 0.05231 0.06034
# Poissons Ratio (z) = 0.44920 0.05696
#
# Static dielectric constant tensor:
#      x y z
#    x 1.800700 0.000000 0.033710 
#    y 0.000000 1.831630 0.000000 
#    z 0.033710 0.000000 1.788190 
# 
# From -- ./inp_files/22471.got.cif
#   From: 2010.05.17/outbox.cif.g08.bks.cpg/sg10_12_cif.got.tgz:22471.got - 2010.06.03 11:33:40.
