data_PCOD9154537
_publ_section_title
;
Structure prediction by ZEFSAII (Michael W. Deem and Ramdas Pophale) SiO2 
 PCOD9154537
Probable space group: P 2/M
;
_chemical_formula_sum "Si O2"
_cell_formula_units_Z 21
_cell_length_a 5.056791
_cell_length_b 16.435924
_cell_length_c 12.152898
_cell_angle_alpha 90.000000
_cell_angle_beta 98.789013
_cell_angle_gamma 90.000000
_cell_volume 998.203730
_symmetry_space_group_name_H-M "P 2/M"
_symmetry_group_IT_number 10
_symmetry_cell_setting 'monoclinic'
loop_
_space_group_symop_operation_xyz
x,y,z
-x,y,-z
-x,-y,-z
x,-y,z
loop_
_atom_site_type_symbol
_atom_site_label
_atom_site_fract_x
_atom_site_fract_y
_atom_site_fract_z
Si Si1 0.436863 0.594652 0.625664
Si Si2 0.000000 0.000000 0.500000
Si Si3 0.382416 0.091035 0.793383
Si Si4 0.830328 0.128381 0.642160
Si Si5 0.238312 0.758024 0.928320
Si Si6 0.953774 0.309404 0.693605
O O1 0.500000 0.599424 0.500000
O O2 0.428634 0.500000 0.656852
O O3 0.680447 0.642436 0.698136
O O4 0.157599 0.637286 0.635402
O O5 0.200129 0.927408 0.465585
O O6 0.601975 0.118510 0.718915
O O7 0.347345 0.157167 0.885623
O O8 0.100014 0.090713 0.712302
O O9 0.445681 0.000000 0.835953
O O10 0.879829 0.224133 0.630016
O O11 0.108117 0.712309 0.816153
O O12 0.500000 0.717546 0.000000
O O13 0.000000 0.770818 0.000000
#
# Coordination Sequence:
#
# PCOD9154537 Si02
#       6
#     4   1   4   4   4   4
#     4  11  24  43  70 101 131 165 209 258 321 392
#     4  12  24  38  60  90 126 182 224 266 304 378
#     4  11  21  41  56  83 126 163 218 277 321 365
#     4  11  24  38  58  89 128 175 216 258 314 376
#     4  11  23  40  66  93 122 170 222 274 332 382
#     4  11  23  44  66  95 132 170 212 268 320 390
#
# _framework density 21.037793000000001
#
# number of rings (size 3 to 8) (size 9 to 14) (size 15 to 20)
#    0.000    0.952    1.905    6.857    2.667    3.810 
#    0.000    0.000    0.000   11.429    0.000    0.000 
#    0.000    0.000    0.000    0.000    0.000    0.000 
#
# Total GULP energy -117215.663800 kJ/mol
# GULP energy per Si atom -5581.698276 kJ/mol
# Density = 2.098991 g / cm^3
# Si number density = 21.037793 Si / 1000 Ang^3
#
#
#
# Elastic Constant Matrix: (Units=GPa)
#
#
# Indices 1 2 3 4 5 6 
#
# 1 153.5683 41.4868 25.1941 0.0000 -19.4841 0.0000
# 2 41.4868 150.0493 15.4548 0.0000 -11.9010 0.0000
# 3 25.1941 15.4548 59.1063 0.0000 -11.3513 0.0000
# 4 0.0000 0.0000 0.0000 4.1934 0.0000 0.2367
# 5 -19.4841 -11.9010 -11.3513 0.0000 44.7160 0.0000
# 6 0.0000 0.0000 0.0000 0.2367 0.0000 3.1562
#
#
#
# Elastic Compliance Matrix: (Units=1/GPa)
#
#
# Indices 1 2 3 4 5 6 
#
# 1 0.007648 -0.001689 -0.002381 0.000000 0.002279 0.000000
# 2 -0.001689 0.007311 -0.001009 0.000000 0.000954 0.000000
# 3 -0.002381 -0.001009 0.018866 0.000000 0.003483 0.000000
# 4 0.000000 0.000000 0.000000 0.239481 0.000000 -0.017959
# 5 0.002279 0.000954 0.003483 0.000000 0.024494 0.000000
# 6 0.000000 0.000000 0.000000 -0.017959 0.000000 0.318185
#
#
# Mechanical properties :
#
#
# Convention : Reuss Voigt Hill
#
# Bulk Modulus (GPa) = 42.24958 58.55503 50.40231
# Shear Modulus (GPa) = 7.88605 29.11902 18.50253
#
# Velocity S-wave (km/s) = 1.93821 3.72442 2.96884
# Velocity P-wave (km/s) = 5.01350 6.81093 5.98013
#
# Compressibility (1/GPa) = 0.02366887
#
# Stress axis : x y z
#
# Youngs Moduli (GPa) = 130.76020 136.78228 53.00492
#
# Poissons Ratio (x) = 0.23096 0.12619
# Poissons Ratio (y) = 0.22079 0.05346
# Poissons Ratio (z) = 0.31130 0.13797
#
# Static dielectric constant tensor:
#      x y z
#    x 1.771240 0.000000 0.090330 
#    y 0.000000 1.762770 0.000000 
#    z 0.090330 0.000000 1.993150 
# 
# From -- ./inp_files/39109.got.cif
#   From: 2010.05.17/outbox.cif.g08.bks.cpg/sg10_20_cif.got.tgz:39109.got - 2010.06.03 11:33:40.
