data_PCOD9154119
_publ_section_title
;
Structure prediction by ZEFSAII (Michael W. Deem and Ramdas Pophale) SiO2 
 PCOD9154119
Probable space group: P 2/M
;
_chemical_formula_sum "Si O2"
_cell_formula_units_Z 20
_cell_length_a 10.734117
_cell_length_b 12.161390
_cell_length_c 13.293891
_cell_angle_alpha 90.000000
_cell_angle_beta 145.149035
_cell_angle_gamma 90.000000
_cell_volume 991.688207
_symmetry_space_group_name_H-M "P 2/M"
_symmetry_group_IT_number 10
_symmetry_cell_setting 'monoclinic'
loop_
_space_group_symop_operation_xyz
x,y,z
-x,y,-z
-x,-y,-z
x,-y,z
loop_
_atom_site_type_symbol
_atom_site_label
_atom_site_fract_x
_atom_site_fract_y
_atom_site_fract_z
Si Si1 0.131296 0.877215 0.983503
Si Si2 0.473466 0.278022 0.711014
Si Si3 0.898515 0.128769 0.619404
Si Si4 0.967835 0.500000 0.356420
Si Si5 0.725415 0.720328 0.206428
Si Si6 0.549145 0.500000 0.414143
O O1 0.317402 0.787228 0.112117
O O2 0.228831 0.000000 0.036762
O O3 0.000000 0.873964 0.000000
O O4 0.972175 0.860997 0.784037
O O5 0.320009 0.197712 0.544205
O O6 0.330970 0.303446 0.715250
O O7 0.536225 0.388000 0.693428
O O8 0.098738 0.182917 0.690266
O O9 0.870148 0.000000 0.576262
O O10 0.835301 0.608979 0.238971
O O11 0.000000 0.500000 0.500000
O O12 0.195372 0.500000 0.447831
O O13 0.500000 0.745739 0.000000
O O14 0.500000 0.500000 0.500000
#
# Coordination Sequence:
#
# PCOD9154119 Si02
#       6
#     4   4   4   2   4   2
#     4  10  24  44  67  98 138 184 233 280 336 415
#     4  12  24  45  69  98 138 180 226 287 346 406
#     4  11  24  41  68 104 138 179 226 280 344 405
#     4  12  21  44  67  93 134 179 230 284 337 413
#     4  12  23  41  69  99 133 181 229 284 347 408
#     4  12  28  44  71 105 137 176 233 286 340 414
#
# _framework density 20.167628000000001
#
# number of rings (size 3 to 8) (size 9 to 14) (size 15 to 20)
#    0.000    0.600    6.000    1.500    2.800    2.800 
#    0.000    4.500    0.000    0.000    0.000    0.000 
#    0.000    0.000    0.000    0.000    0.000    0.000 
#
# Total GULP energy -111851.203823 kJ/mol
# GULP energy per Si atom -5592.560191 kJ/mol
# Density = 2.012173 g / cm^3
# Si number density = 20.167628 Si / 1000 Ang^3
#
#
#
# Elastic Constant Matrix: (Units=GPa)
#
#
# Indices 1 2 3 4 5 6 
#
# 1 85.2714 8.5254 -8.2196 0.0000 -23.4278 0.0000
# 2 8.5254 129.5455 36.8370 0.0000 -7.6054 0.0000
# 3 -8.2196 36.8370 59.8097 0.0000 -5.8088 0.0000
# 4 0.0000 0.0000 0.0000 206.9389 0.0000 -17.8135
# 5 -23.4278 -7.6054 -5.8088 0.0000 26.6185 0.0000
# 6 0.0000 0.0000 0.0000 -17.8135 0.0000 18.7839
#
#
#
# Elastic Compliance Matrix: (Units=1/GPa)
#
#
# Indices 1 2 3 4 5 6 
#
# 1 0.016473 -0.001526 0.004669 0.000000 0.015082 0.000000
# 2 -0.001526 0.009555 -0.006089 0.000000 0.000058 0.000000
# 3 0.004669 -0.006089 0.021804 0.000000 0.007127 0.000000
# 4 0.000000 0.000000 0.000000 0.005262 0.000000 0.004990
# 5 0.015082 0.000058 0.007127 0.000000 0.052414 0.000000
# 6 0.000000 0.000000 0.000000 0.004990 0.000000 0.057969
#
#
# Mechanical properties :
#
#
# Convention : Reuss Voigt Hill
#
# Bulk Modulus (GPa) = 23.84424 38.76802 31.30613
# Shear Modulus (GPa) = 27.27042 66.30050 46.78546
#
# Velocity S-wave (km/s) = 3.68120 5.73987 4.82169
# Velocity P-wave (km/s) = 5.46964 7.94939 6.82311
#
# Compressibility (1/GPa) = 0.04193886
#
# Stress axis : x y z
#
# Youngs Moduli (GPa) = 60.70379 104.66250 45.86388
#
# Poissons Ratio (x) = 0.15974 -0.21412
# Poissons Ratio (y) = 0.09265 0.27926
# Poissons Ratio (z) = -0.28341 0.63727
#
# Static dielectric constant tensor:
#      x y z
#    x 1.705160 0.000000 -0.014070 
#    y 0.000000 1.732190 0.000000 
#    z -0.014070 0.000000 1.700230 
# 
# From -- ./inp_files/50991.got.cif
#   From: 2010.05.17/outbox.cif.g08.bks.cpg/sg10_26_cif.got.tgz:50991.got - 2010.06.03 11:33:40.
