data_PCOD9154843
_publ_section_title
;
Structure prediction by ZEFSAII (Michael W. Deem and Ramdas Pophale) SiO2 
 PCOD9154843
Probable space group: P 2/M
;
_chemical_formula_sum "Si O2"
_cell_formula_units_Z 19
_cell_length_a 13.852646
_cell_length_b 7.414743
_cell_length_c 14.067945
_cell_angle_alpha 90.000000
_cell_angle_beta 37.214998
_cell_angle_gamma 90.000000
_cell_volume 873.930182
_symmetry_space_group_name_H-M "P 2/M"
_symmetry_group_IT_number 10
_symmetry_cell_setting 'monoclinic'
loop_
_space_group_symop_operation_xyz
x,y,z
-x,y,-z
-x,-y,-z
x,-y,z
loop_
_atom_site_type_symbol
_atom_site_label
_atom_site_fract_x
_atom_site_fract_y
_atom_site_fract_z
Si Si1 0.487411 0.295592 0.394494
Si Si2 0.764883 0.000000 0.403218
Si Si3 0.355182 0.292342 0.991940
Si Si4 0.116411 0.000000 0.105321
Si Si5 0.745912 0.000000 0.189018
Si Si6 0.000000 0.000000 0.500000
Si Si7 0.712543 0.288910 0.728376
O O1 0.500000 0.302684 0.500000
O O2 0.484165 0.500000 0.362150
O O3 0.639049 0.175399 0.248238
O O4 0.331800 0.177986 0.491856
O O5 0.947510 0.000000 0.289931
O O6 0.765440 0.000000 0.286998
O O7 0.338646 0.500000 0.977176
O O8 0.323577 0.281789 0.129877
O O9 0.219529 0.170283 0.054463
O O10 0.537171 0.235538 0.825065
O O11 0.107971 0.000000 0.997868
O O12 0.859866 0.157935 0.593744
O O13 0.743124 0.500000 0.679851
#
# Coordination Sequence:
#
# PCOD9154843 Si02
#       7
#     4   2   4   2   2   1   4
#     4   8  15  33  57  72  90 131 178 210 248 307
#     4   9  19  33  50  75 104 133 168 212 257 299
#     4   9  20  39  57  72  99 141 177 202 240 304
#     4  12  21  31  52  80 106 132 168 213 257 296
#     4   9  19  33  50  75 104 133 168 212 257 299
#     4  12  18  26  56  90 108 126 164 212 252 296
#     4   9  19  37  58  78 102 133 169 207 250 300
#
# _framework density 21.740866
#
# number of rings (size 3 to 8) (size 9 to 14) (size 15 to 20)
#    0.000    2.737    0.000    4.421    0.000    3.368 
#    0.000    8.421    0.000    6.316    0.000    0.000 
#    0.000    0.000    0.000    0.000    0.000    0.000 
#
# Total GULP energy -105854.339770 kJ/mol
# GULP energy per Si atom -5571.281041 kJ/mol
# Density = 2.169138 g / cm^3
# Si number density = 21.740866 Si / 1000 Ang^3
#
#
#
# Elastic Constant Matrix: (Units=GPa)
#
#
# Indices 1 2 3 4 5 6 
#
# 1 49.0767 27.0656 21.3371 0.0000 -11.6146 0.0000
# 2 27.0656 160.5530 66.5859 0.0000 -30.8428 0.0000
# 3 21.3371 66.5859 112.2679 0.0000 -31.2507 0.0000
# 4 0.0000 0.0000 0.0000 20.9310 0.0000 -8.9186
# 5 -11.6146 -30.8428 -31.2507 0.0000 44.8025 0.0000
# 6 0.0000 0.0000 0.0000 -8.9186 0.0000 20.5535
#
#
#
# Elastic Compliance Matrix: (Units=1/GPa)
#
#
# Indices 1 2 3 4 5 6 
#
# 1 0.023366 -0.002494 -0.002176 0.000000 0.002823 0.000000
# 2 -0.002494 0.008823 -0.004031 0.000000 0.002616 0.000000
# 3 -0.002176 -0.004031 0.013380 0.000000 0.005994 0.000000
# 4 0.000000 0.000000 0.000000 0.058613 0.000000 0.025433
# 5 0.002823 0.002616 0.005994 0.000000 0.029033 0.000000
# 6 0.000000 0.000000 0.000000 0.025433 0.000000 0.059689
#
#
# Mechanical properties :
#
#
# Convention : Reuss Voigt Hill
#
# Bulk Modulus (GPa) = 35.50244 61.31944 48.41094
# Shear Modulus (GPa) = 22.75877 31.05134 26.90506
#
# Velocity S-wave (km/s) = 3.23897 3.78332 3.52168
# Velocity P-wave (km/s) = 5.50937 6.88117 6.23313
#
# Compressibility (1/GPa) = 0.02816707
#
# Stress axis : x y z
#
# Youngs Moduli (GPa) = 42.79748 113.33803 74.73922
#
# Poissons Ratio (x) = 0.28271 0.16261
# Poissons Ratio (y) = 0.10675 0.30126
# Poissons Ratio (z) = 0.09311 0.45684
#
# Static dielectric constant tensor:
#      x y z
#    x 1.913570 0.000000 0.032670 
#    y 0.000000 1.749340 0.000000 
#    z 0.032670 0.000000 1.757120 
# 
# From -- ./inp_files/77319.got.cif
#   From: 2010.05.17/outbox.cif.g08.bks.cpg/sg10_39_cif.got.tgz:77319.got - 2010.06.03 11:33:40.
