data_PCOD9154764
_publ_section_title
;
Structure prediction by ZEFSAII (Michael W. Deem and Ramdas Pophale) SiO2 
 PCOD9154764
Probable space group: P 2/M
;
_chemical_formula_sum "Si O2"
_cell_formula_units_Z 18
_cell_length_a 7.374457
_cell_length_b 10.754723
_cell_length_c 12.037106
_cell_angle_alpha 90.000000
_cell_angle_beta 73.200174
_cell_angle_gamma 90.000000
_cell_volume 913.921016
_symmetry_space_group_name_H-M "P 2/M"
_symmetry_group_IT_number 10
_symmetry_cell_setting 'monoclinic'
loop_
_space_group_symop_operation_xyz
x,y,z
-x,y,-z
-x,-y,-z
x,-y,z
loop_
_atom_site_type_symbol
_atom_site_label
_atom_site_fract_x
_atom_site_fract_y
_atom_site_fract_z
Si Si1 0.917271 0.363157 0.891508
Si Si2 0.691990 0.849114 0.530302
Si Si3 0.091859 0.144483 0.718530
Si Si4 0.500000 0.294996 0.000000
Si Si5 0.504282 0.857054 0.223815
O O1 0.986786 0.500000 0.840875
O O2 0.692476 0.367133 0.944793
O O3 0.971607 0.247793 0.803516
O O4 0.000000 0.340813 0.000000
O O5 0.500000 0.810250 0.500000
O O6 0.864436 0.819604 0.417428
O O7 0.657987 0.807366 0.662810
O O8 0.689949 0.000000 0.534913
O O9 0.297027 0.144321 0.744155
O O10 0.022987 0.000000 0.734993
O O11 0.472436 0.214355 0.894059
O O12 0.459508 0.000000 0.206423
#
# Coordination Sequence:
#
# PCOD9154764 Si02
#       5
#     4   4   4   2   4
#     4  11  24  41  58  79 112 152 189 230 279 334
#     4   7  12  26  51  81 113 146 180 221 273 327
#     4   9  17  34  60  86 111 145 188 232 274 327
#     4  12  22  36  56  82 111 152 187 232 271 338
#     4   9  17  30  53  88 121 146 179 228 281 329
#
# _framework density 19.695356
#
# number of rings (size 3 to 8) (size 9 to 14) (size 15 to 20)
#    0.000    2.667    2.222    3.333    0.000    2.222 
#    0.000    1.111    0.000   14.000    0.000    0.000 
#    0.000    0.000    0.000    0.000    0.000    0.000 
#
# Total GULP energy -100326.846712 kJ/mol
# GULP energy per Si atom -5573.713706 kJ/mol
# Density = 1.965053 g / cm^3
# Si number density = 19.695356 Si / 1000 Ang^3
#
#
#
# Elastic Constant Matrix: (Units=GPa)
#
#
# Indices 1 2 3 4 5 6 
#
# 1 59.1060 21.5523 20.3609 0.0000 -9.2917 0.0000
# 2 21.5523 102.8619 82.8258 0.0000 -14.0488 0.0000
# 3 20.3609 82.8258 148.1892 0.0000 -7.4787 0.0000
# 4 0.0000 0.0000 0.0000 -6.9235 0.0000 -14.6512
# 5 -9.2917 -14.0488 -7.4787 0.0000 35.6610 0.0000
# 6 0.0000 0.0000 0.0000 -14.6512 0.0000 9.8013
#
#
#
# Elastic Compliance Matrix: (Units=1/GPa)
#
#
# Indices 1 2 3 4 5 6 
#
# 1 0.018788 -0.002745 -0.000864 0.000000 0.003633 0.000000
# 2 -0.002745 0.018985 -0.009999 0.000000 0.004667 0.000000
# 3 -0.000864 -0.009999 0.012376 0.000000 -0.001569 0.000000
# 4 0.000000 0.000000 0.000000 -0.034693 0.000000 -0.051860
# 5 0.003633 0.004667 -0.001569 0.000000 0.030498 0.000000
# 6 0.000000 0.000000 0.000000 -0.051860 0.000000 0.024506
#
#
# Mechanical properties :
#
#
# Convention : Reuss Voigt Hill
#
# Bulk Modulus (GPa) = 43.60145 62.18165 52.89155
# Shear Modulus (GPa) = 47.47386 20.06899 33.77142
#
# Velocity S-wave (km/s) = 4.91492 3.19559 4.14537
# Velocity P-wave (km/s) = 7.37527 6.72726 7.05870
#
# Compressibility (1/GPa) = 0.02293502
#
# Stress axis : x y z
#
# Youngs Moduli (GPa) = 53.22451 52.67226 80.80102
#
# Poissons Ratio (x) = 0.14457 0.06982
# Poissons Ratio (y) = 0.14609 0.80790
# Poissons Ratio (z) = 0.04599 0.52665
#
# Static dielectric constant tensor:
#      x y z
#    x 1.756830 0.000000 -0.010450 
#    y 0.000000 1.654510 0.000000 
#    z -0.010450 0.000000 1.709290 
# 
# From -- ./inp_files/31864.got.cif
#   From: 2010.05.17/outbox.cif.g08.bks.cpg/sg10_16_cif.got.tgz:31864.got - 2010.06.03 11:33:40.
