data_PCOD9154224
_publ_section_title
;
Structure prediction by ZEFSAII (Michael W. Deem and Ramdas Pophale) SiO2 
 PCOD9154224
Probable space group: P 2/M
;
_chemical_formula_sum "Si O2"
_cell_formula_units_Z 24
_cell_length_a 6.892936
_cell_length_b 13.353270
_cell_length_c 14.818734
_cell_angle_alpha 90.000000
_cell_angle_beta 68.949725
_cell_angle_gamma 90.000000
_cell_volume 1272.940906
_symmetry_space_group_name_H-M "P 2/M"
_symmetry_group_IT_number 10
_symmetry_cell_setting 'monoclinic'
loop_
_space_group_symop_operation_xyz
x,y,z
-x,y,-z
-x,-y,-z
x,-y,z
loop_
_atom_site_type_symbol
_atom_site_label
_atom_site_fract_x
_atom_site_fract_y
_atom_site_fract_z
Si Si1 0.241911 0.381392 0.357925
Si Si2 0.553890 0.216196 0.773500
Si Si3 0.157155 0.265945 0.542298
Si Si4 0.089274 0.884933 0.174014
Si Si5 0.301460 0.114947 0.964367
Si Si6 0.343975 0.114612 0.650297
O O1 0.241412 0.500000 0.354913
O O2 0.408064 0.329258 0.264752
O O3 0.278270 0.339765 0.453856
O O4 0.010367 0.335708 0.376753
O O5 0.759845 0.180657 0.790362
O O6 0.368960 0.188965 0.873417
O O7 0.523661 0.153196 0.686571
O O8 0.289896 0.191493 0.579639
O O9 0.000000 0.207030 0.500000
O O10 0.861381 0.882049 0.252518
O O11 0.163688 0.000000 0.168214
O O12 0.115858 0.858583 0.064278
O O13 0.275488 0.000000 0.934453
O O14 0.500000 0.114225 0.000000
O O15 0.376549 0.000000 0.616048
#
# Coordination Sequence:
#
# PCOD9154224 Si02
#       6
#     4   4   4   4   4   4
#     4   9  19  38  60  74  95 133 183 232 267 302
#     4  11  19  32  52  81 109 133 177 219 258 304
#     4   8  18  38  56  75 102 134 175 219 261 315
#     4   9  17  33  52  74 113 151 173 204 251 307
#     4   8  15  28  49  76 107 146 176 201 249 308
#     4  11  21  32  52  84 113 141 171 201 258 325
#
# _framework density 18.853978000000001
#
# number of rings (size 3 to 8) (size 9 to 14) (size 15 to 20)
#    1.000    1.500    1.667    3.500    0.000    1.667 
#    0.000    8.333    0.000    4.500    0.000    1.167 
#    0.000    0.000    0.000    0.000    0.000    0.000 
#
# Total GULP energy -133689.837375 kJ/mol
# GULP energy per Si atom -5570.409891 kJ/mol
# Density = 1.881107 g / cm^3
# Si number density = 18.853978 Si / 1000 Ang^3
#
#
#
# Elastic Constant Matrix: (Units=GPa)
#
#
# Indices 1 2 3 4 5 6 
#
# 1 36.9499 32.0835 33.2648 0.0000 6.1800 0.0000
# 2 32.0835 139.8136 73.3414 0.0000 7.2677 0.0000
# 3 33.2648 73.3414 110.0131 0.0000 -2.8594 0.0000
# 4 0.0000 0.0000 0.0000 20.0238 0.0000 -10.2983
# 5 6.1800 7.2677 -2.8594 0.0000 38.7932 0.0000
# 6 0.0000 0.0000 0.0000 -10.2983 0.0000 0.4260
#
#
#
# Elastic Compliance Matrix: (Units=1/GPa)
#
#
# Indices 1 2 3 4 5 6 
#
# 1 0.040249 -0.003736 -0.009847 0.000000 -0.006438 0.000000
# 2 -0.003736 0.011615 -0.006667 0.000000 -0.002072 0.000000
# 3 -0.009847 -0.006667 0.016617 0.000000 0.004043 0.000000
# 4 0.000000 0.000000 0.000000 -0.004368 0.000000 -0.105595
# 5 -0.006438 -0.002072 0.004043 0.000000 0.027490 0.000000
# 6 0.000000 0.000000 0.000000 -0.105595 0.000000 -0.205316
#
#
# Mechanical properties :
#
#
# Convention : Reuss Voigt Hill
#
# Bulk Modulus (GPa) = 35.73891 62.68399 49.21145
# Shear Modulus (GPa) = -78.26523 21.72103 -28.27210
#
# Velocity S-wave (km/s) = -6.44991 3.39789 -3.87658
# Velocity P-wave (km/s) = 6.03918 6.97951 2.47404
#
# Compressibility (1/GPa) = 0.02798070
#
# Stress axis : x y z
#
# Youngs Moduli (GPa) = 24.84512 86.09608 60.17875
#
# Poissons Ratio (x) = 0.32167 0.59257
# Poissons Ratio (y) = 0.09283 0.40123
# Poissons Ratio (z) = 0.24464 0.57403
#
# Static dielectric constant tensor:
#      x y z
#    x 1.736830 0.000000 -0.027150 
#    y 0.000000 1.602180 0.000000 
#    z -0.027150 0.000000 1.729800 
# 
# From -- ./inp_files/60654.got.cif
#   From: 2010.05.17/outbox.cif.g08.bks.cpg/sg10_31_cif.got.tgz:60654.got - 2010.06.03 11:33:40.
