data_PCOD9154123
_publ_section_title
;
Structure prediction by ZEFSAII (Michael W. Deem and Ramdas Pophale) SiO2 
 PCOD9154123
Probable space group: P 2/M
;
_chemical_formula_sum "Si O2"
_cell_formula_units_Z 24
_cell_length_a 13.405646
_cell_length_b 11.191891
_cell_length_c 19.881864
_cell_angle_alpha 90.000000
_cell_angle_beta 24.788410
_cell_angle_gamma 90.000000
_cell_volume 1250.663558
_symmetry_space_group_name_H-M "P 2/M"
_symmetry_group_IT_number 10
_symmetry_cell_setting 'monoclinic'
loop_
_space_group_symop_operation_xyz
x,y,z
-x,y,-z
-x,-y,-z
x,-y,z
loop_
_atom_site_type_symbol
_atom_site_label
_atom_site_fract_x
_atom_site_fract_y
_atom_site_fract_z
Si Si1 0.870805 0.500000 0.731842
Si Si2 0.564550 0.860291 0.887439
Si Si3 0.519694 0.141203 0.278349
Si Si4 0.028530 0.721046 0.558389
Si Si5 0.694669 0.860391 0.323647
Si Si6 0.799937 0.250010 0.988079
Si Si7 0.654701 0.500000 0.012455
O O1 0.017888 0.615366 0.618830
O O2 0.801019 0.500000 0.852730
O O3 0.622311 0.500000 0.841160
O O4 0.797216 0.800239 0.714973
O O5 0.610299 0.000000 0.866996
O O6 0.500000 0.807446 0.000000
O O7 0.344428 0.836240 0.973842
O O8 0.580825 0.151366 0.319512
O O9 0.264590 0.199952 0.419610
O O10 0.520278 0.000000 0.260345
O O11 0.711722 0.211464 0.115849
O O12 0.000000 0.672884 0.500000
O O13 0.500000 0.836241 0.500000
O O14 0.922301 0.775600 0.189811
O O15 0.771031 0.000000 0.284224
O O16 0.719222 0.382274 0.015533
#
# Coordination Sequence:
#
# PCOD9154123 Si02
#       7
#     2   4   4   4   4   4   2
#     4  11  23  42  63  92 135 181 213 266 317 387
#     4  11  23  36  60  94 129 167 209 267 328 385
#     4  11  24  42  67  99 135 171 210 269 333 394
#     4  12  23  39  64  97 135 169 217 260 326 389
#     4  10  24  44  69  96 128 170 217 272 334 391
#     4  12  23  43  67  92 129 173 224 266 321 385
#     4  11  24  42  67  95 126 177 227 262 321 373
#
# _framework density 19.189813000000001
#
# number of rings (size 3 to 8) (size 9 to 14) (size 15 to 20)
#    0.000    0.833    3.333    3.750    4.667    2.667 
#    0.000    2.917    0.000    0.000    0.000    0.000 
#    0.000    0.000    0.000    0.000    0.000    0.000 
#
# Total GULP energy -134214.626432 kJ/mol
# GULP energy per Si atom -5592.276101 kJ/mol
# Density = 1.914614 g / cm^3
# Si number density = 19.189813 Si / 1000 Ang^3
#
#
#
# Elastic Constant Matrix: (Units=GPa)
#
#
# Indices 1 2 3 4 5 6 
#
# 1 68.7712 28.6918 41.9324 0.0000 16.0333 0.0000
# 2 28.6918 92.0864 40.5072 0.0000 11.3889 0.0000
# 3 41.9324 40.5072 106.5382 0.0000 14.4243 0.0000
# 4 0.0000 0.0000 0.0000 36.5571 0.0000 -15.5383
# 5 16.0333 11.3889 14.4243 0.0000 40.5362 0.0000
# 6 0.0000 0.0000 0.0000 -15.5383 0.0000 67.0085
#
#
#
# Elastic Compliance Matrix: (Units=1/GPa)
#
#
# Indices 1 2 3 4 5 6 
#
# 1 0.020902 -0.003079 -0.006360 0.000000 -0.005139 0.000000
# 2 -0.003079 0.013649 -0.003807 0.000000 -0.001262 0.000000
# 3 -0.006360 -0.003807 0.013502 0.000000 -0.001219 0.000000
# 4 0.000000 0.000000 0.000000 0.030345 0.000000 0.007037
# 5 -0.005139 -0.001262 -0.001219 0.000000 0.027490 0.000000
# 6 0.000000 0.000000 0.000000 0.007037 0.000000 0.016555
#
#
# Mechanical properties :
#
#
# Convention : Reuss Voigt Hill
#
# Bulk Modulus (GPa) = 46.38028 54.40650 50.39339
# Shear Modulus (GPa) = 32.02584 39.23797 35.63191
#
# Velocity S-wave (km/s) = 4.08965 4.52677 4.31375
# Velocity P-wave (km/s) = 6.82070 7.46563 7.15044
#
# Compressibility (1/GPa) = 0.02156089
#
# Stress axis : x y z
#
# Youngs Moduli (GPa) = 47.84273 73.26301 74.06236
#
# Poissons Ratio (x) = 0.22559 0.47105
# Poissons Ratio (y) = 0.14732 0.28194
# Poissons Ratio (z) = 0.30429 0.27890
#
# Static dielectric constant tensor:
#      x y z
#    x 1.663740 0.000000 0.030630 
#    y 0.000000 1.672440 0.000000 
#    z 0.030630 0.000000 1.649250 
# 
# From -- ./inp_files/53737.got.cif
#   From: 2010.05.17/outbox.cif.g08.bks.cpg/sg10_27_cif.got.tgz:53737.got - 2010.06.03 11:33:40.
