data_PCOD9154412
_publ_section_title
;
Structure prediction by ZEFSAII (Michael W. Deem and Ramdas Pophale) SiO2 
 PCOD9154412
Probable space group: P 2/M
;
_chemical_formula_sum "Si O2"
_cell_formula_units_Z 28
_cell_length_a 25.480461
_cell_length_b 7.614824
_cell_length_c 20.040736
_cell_angle_alpha 90.000000
_cell_angle_beta 21.100653
_cell_angle_gamma 90.000000
_cell_volume 1399.884792
_symmetry_space_group_name_H-M "P 2/M"
_symmetry_group_IT_number 10
_symmetry_cell_setting 'monoclinic'
loop_
_space_group_symop_operation_xyz
x,y,z
-x,y,-z
-x,-y,-z
x,-y,z
loop_
_atom_site_type_symbol
_atom_site_label
_atom_site_fract_x
_atom_site_fract_y
_atom_site_fract_z
Si Si1 0.649109 0.784254 0.358901
Si Si2 0.185963 0.285327 0.212558
Si Si3 0.581631 0.203376 0.837635
Si Si4 0.279452 0.793961 0.577514
Si Si5 0.032160 0.203763 0.041782
Si Si6 0.141276 0.712352 0.417730
Si Si7 0.515766 0.300498 0.190742
O O1 0.500000 0.727499 0.500000
O O2 0.658773 0.727105 0.425027
O O3 0.648935 0.000000 0.357566
O O4 0.804120 0.724356 0.143120
O O5 0.190932 0.500000 0.206899
O O6 0.194410 0.232697 0.280505
O O7 0.026603 0.233454 0.376473
O O8 0.322542 0.220900 0.007937
O O9 0.751090 0.215812 0.654659
O O10 0.542429 0.296976 0.815970
O O11 0.538545 0.000000 0.881136
O O12 0.500000 0.276664 0.000000
O O13 0.397854 0.781111 0.379347
O O14 0.118803 0.718505 0.750346
O O15 0.251844 0.000000 0.622212
O O16 0.042670 0.000000 0.050686
O O17 0.000000 0.207900 0.000000
O O18 0.146346 0.500000 0.413454
O O19 0.531836 0.500000 0.194775
#
# Coordination Sequence:
#
# PCOD9154412 Si02
#       7
#     4   4   4   4   4   4   4
#     4   8  13  24  47  76  98 122 161 201 238 287
#     4   8  16  30  51  73  92 123 166 207 243 294
#     4  11  22  34  49  74 102 126 160 211 260 298
#     4   9  17  30  47  70 101 130 159 200 247 292
#     4   7  11  22  42  66  93 126 157 187 229 282
#     4   9  16  32  54  72  91 121 166 209 249 297
#     4  11  21  34  52  72  98 135 173 206 250 304
#
# _framework density 20.001646000000001
#
# number of rings (size 3 to 8) (size 9 to 14) (size 15 to 20)
#    0.000    3.000    1.429    3.429    0.000    0.571 
#    0.000    4.286    0.000    6.000    0.000    0.000 
#    0.000    0.000    0.000    0.000    0.000    0.000 
#
# Total GULP energy -155990.032433 kJ/mol
# GULP energy per Si atom -5571.072587 kJ/mol
# Density = 1.995612 g / cm^3
# Si number density = 20.001646 Si / 1000 Ang^3
#
#
#
# Elastic Constant Matrix: (Units=GPa)
#
#
# Indices 1 2 3 4 5 6 
#
# 1 58.0236 -1.3366 62.1522 0.0000 -15.6723 0.0000
# 2 -1.3366 40.5717 4.5337 0.0000 -0.3137 0.0000
# 3 62.1522 4.5337 196.6513 0.0000 -15.0495 0.0000
# 4 0.0000 0.0000 0.0000 29.5918 0.0000 29.2459
# 5 -15.6723 -0.3137 -15.0495 0.0000 34.7135 0.0000
# 6 0.0000 0.0000 0.0000 29.2459 0.0000 64.0278
#
#
#
# Elastic Compliance Matrix: (Units=1/GPa)
#
#
# Indices 1 2 3 4 5 6 
#
# 1 0.028867 0.001968 -0.008450 0.000000 0.009387 0.000000
# 2 0.001968 0.024846 -0.001148 0.000000 0.000615 0.000000
# 3 -0.008450 -0.001148 0.007747 0.000000 -0.000467 0.000000
# 4 0.000000 0.000000 0.000000 0.061602 0.000000 -0.028138
# 5 0.009387 0.000615 -0.000467 0.000000 0.032848 0.000000
# 6 0.000000 0.000000 0.000000 -0.028138 0.000000 0.028471
#
#
# Mechanical properties :
#
#
# Convention : Reuss Voigt Hill
#
# Bulk Modulus (GPa) = 21.64570 47.32725 34.48647
# Shear Modulus (GPa) = 23.25143 40.99309 32.12226
#
# Velocity S-wave (km/s) = 3.41321 4.53204 4.01182
# Velocity P-wave (km/s) = 5.13603 7.14835 6.22405
#
# Compressibility (1/GPa) = 0.04619856
#
# Stress axis : x y z
#
# Youngs Moduli (GPa) = 34.64179 40.24868 129.08810
#
# Poissons Ratio (x) = -0.07920 1.09085
# Poissons Ratio (y) = -0.06817 0.14815
# Poissons Ratio (z) = 0.29274 0.04619
#
# Static dielectric constant tensor:
#      x y z
#    x 1.664010 0.000000 -0.026490 
#    y 0.000000 1.754320 0.000000 
#    z -0.026490 0.000000 1.764340 
# 
# From -- ./inp_files/86665.got.cif
#   From: 2010.05.17/outbox.cif.g08.bks.cpg/sg10_44_cif.got.tgz:86665.got - 2010.06.03 11:33:40.
