data_PCOD9154586
_publ_section_title
;
Structure prediction by ZEFSAII (Michael W. Deem and Ramdas Pophale) SiO2 
 PCOD9154586
Probable space group: P 2/M
;
_chemical_formula_sum "Si O2"
_cell_formula_units_Z 24
_cell_length_a 11.091405
_cell_length_b 8.435406
_cell_length_c 12.524482
_cell_angle_alpha 90.000000
_cell_angle_beta 80.759279
_cell_angle_gamma 90.000000
_cell_volume 1156.589724
_symmetry_space_group_name_H-M "P 2/M"
_symmetry_group_IT_number 10
_symmetry_cell_setting 'monoclinic'
loop_
_space_group_symop_operation_xyz
x,y,z
-x,y,-z
-x,-y,-z
x,-y,z
loop_
_atom_site_type_symbol
_atom_site_label
_atom_site_fract_x
_atom_site_fract_y
_atom_site_fract_z
Si Si1 0.488791 0.816665 0.628153
Si Si2 0.125025 0.692525 0.926224
Si Si3 0.229032 0.684754 0.692687
Si Si4 0.707904 0.316269 0.721389
Si Si5 0.641843 0.306418 0.967603
Si Si6 0.144241 0.176471 0.488808
O O1 0.500000 0.783458 0.500000
O O2 0.351809 0.785267 0.684190
O O3 0.578564 0.704984 0.680917
O O4 0.523322 0.000000 0.640329
O O5 0.122433 0.500000 0.935542
O O6 0.134632 0.731188 0.799204
O O7 0.253391 0.743373 0.963021
O O8 0.000000 0.750377 0.000000
O O9 0.259671 0.500000 0.704303
O O10 0.181375 0.709923 0.579964
O O11 0.743905 0.500000 0.720086
O O12 0.691164 0.258406 0.844135
O O13 0.800398 0.225167 0.632043
O O14 0.637655 0.500000 0.971448
O O15 0.500000 0.253417 0.000000
O O16 0.000000 0.174692 0.500000
O O17 0.189721 0.000000 0.510656
#
# Coordination Sequence:
#
# PCOD9154586 Si02
#       6
#     4   4   4   4   4   4
#     4  11  22  37  58  84 122 163 191 229 299 366
#     4   9  19  35  57  88 123 154 190 246 312 361
#     4  11  22  37  64  93 117 149 200 254 294 348
#     4  11  22  36  63  94 118 149 200 254 293 347
#     4   9  18  34  56  86 123 156 189 241 307 359
#     4  11  25  42  58  81 121 167 199 238 303 364
#
# _framework density 20.75066
#
# number of rings (size 3 to 8) (size 9 to 14) (size 15 to 20)
#    0.000    1.667    1.667    3.000    2.333    4.667 
#    0.000    0.000    0.000   13.000    0.000    0.000 
#    0.000    0.000    0.000    0.000    0.000    0.000 
#
# Total GULP energy -134027.573905 kJ/mol
# GULP energy per Si atom -5584.482246 kJ/mol
# Density = 2.070343 g / cm^3
# Si number density = 20.750660 Si / 1000 Ang^3
#
#
#
# Elastic Constant Matrix: (Units=GPa)
#
#
# Indices 1 2 3 4 5 6 
#
# 1 80.6257 4.0300 30.2526 0.0000 -25.9676 0.0000
# 2 4.0300 16.0806 13.4078 0.0000 -3.1739 0.0000
# 3 30.2526 13.4078 128.4901 0.0000 -21.8993 0.0000
# 4 0.0000 0.0000 0.0000 -3.0051 0.0000 -11.2574
# 5 -25.9676 -3.1739 -21.8993 0.0000 34.5576 0.0000
# 6 0.0000 0.0000 0.0000 -11.2574 0.0000 4.2042
#
#
#
# Elastic Compliance Matrix: (Units=1/GPa)
#
#
# Indices 1 2 3 4 5 6 
#
# 1 0.016822 -0.000313 -0.001994 0.000000 0.011348 0.000000
# 2 -0.000313 0.068238 -0.006747 0.000000 0.001756 0.000000
# 3 -0.001994 -0.006747 0.009636 0.000000 0.003988 0.000000
# 4 0.000000 0.000000 0.000000 -0.030168 0.000000 -0.080778
# 5 0.011348 0.001756 0.003988 0.000000 0.040153 0.000000
# 6 0.000000 0.000000 0.000000 -0.080778 0.000000 0.021563
#
#
# Mechanical properties :
#
#
# Convention : Reuss Voigt Hill
#
# Bulk Modulus (GPa) = 13.05725 35.61968 24.33846
# Shear Modulus (GPa) = 29.43215 18.98509 24.20862
#
# Velocity S-wave (km/s) = 3.77021 3.02804 3.41932
# Velocity P-wave (km/s) = 5.02581 5.42477 5.22910
#
# Compressibility (1/GPa) = 0.07658581
#
# Stress axis : x y z
#
# Youngs Moduli (GPa) = 59.44697 14.65469 103.77758
#
# Poissons Ratio (x) = 0.00459 0.20691
# Poissons Ratio (y) = 0.01864 0.70023
# Poissons Ratio (z) = 0.11853 0.09888
#
# Static dielectric constant tensor:
#      x y z
#    x 1.786270 0.000000 -0.035500 
#    y 0.000000 1.707790 0.000000 
#    z -0.035500 0.000000 1.772070 
# 
# From -- ./inp_files/45052.got.cif
#   From: 2010.05.17/outbox.cif.g08.bks.cpg/sg10_23_cif.got.tgz:45052.got - 2010.06.03 11:33:40.
