data_PCOD9154817
_publ_section_title
;
Structure prediction by ZEFSAII (Michael W. Deem and Ramdas Pophale) SiO2 
 PCOD9154817
Probable space group: P 2/M
;
_chemical_formula_sum "Si O2"
_cell_formula_units_Z 16
_cell_length_a 7.223235
_cell_length_b 22.723986
_cell_length_c 4.866307
_cell_angle_alpha 90.000000
_cell_angle_beta 134.342738
_cell_angle_gamma 90.000000
_cell_volume 571.249726
_symmetry_space_group_name_H-M "P 2/M"
_symmetry_group_IT_number 10
_symmetry_cell_setting 'monoclinic'
loop_
_space_group_symop_operation_xyz
x,y,z
-x,y,-z
-x,-y,-z
x,-y,z
loop_
_atom_site_type_symbol
_atom_site_label
_atom_site_fract_x
_atom_site_fract_y
_atom_site_fract_z
Si Si1 0.244449 0.937361 0.048155
Si Si2 0.740497 0.500000 0.036932
Si Si3 0.318506 0.316686 0.037403
Si Si4 0.000000 0.600384 0.000000
Si Si5 0.244196 0.811598 0.049428
O O1 0.500000 0.937657 0.500000
O O2 0.240624 0.874554 0.892104
O O3 0.243062 0.000000 0.891426
O O4 0.000000 0.936964 0.000000
O O5 0.000000 0.500000 0.500000
O O6 0.776608 0.444885 0.866666
O O7 0.500000 0.500000 0.000000
O O8 0.500000 0.316654 0.500000
O O9 0.056073 0.351242 0.825301
O O10 0.258698 0.249073 0.900377
O O11 0.500000 0.345979 0.000000
O O12 0.500000 0.812789 0.500000
O O13 0.000000 0.807819 0.000000
#
# Coordination Sequence:
#
# PCOD9154817 Si02
#       5
#     4   2   4   2   4
#     4   8  13  22  43  73 111 160 212 267 329 394
#     4  11  28  49  76 106 145 184 229 283 340 406
#     4  11  25  43  69 102 141 184 232 286 346 409
#     4  11  26  44  74 104 143 182 232 282 339 412
#     4   9  17  34  53  85 127 168 220 278 337 399
#
# _framework density 28.008762999999998
#
# number of rings (size 3 to 8) (size 9 to 14) (size 15 to 20)
#    0.000    2.250    1.250    0.750    7.000    1.000 
#    0.000    0.000    0.000    0.750    0.000    0.000 
#    0.000   30.000    0.000    0.000    0.000    6.000 
#
# Total GULP energy -89383.999200 kJ/mol
# GULP energy per Si atom -5586.499950 kJ/mol
# Density = 2.794501 g / cm^3
# Si number density = 28.008763 Si / 1000 Ang^3
#
#
#
# Elastic Constant Matrix: (Units=GPa)
#
#
# Indices 1 2 3 4 5 6 
#
# 1 267.9961 57.6675 39.8716 0.0000 34.8473 0.0000
# 2 57.6675 263.4429 -16.9175 0.0000 -6.8359 0.0000
# 3 39.8716 -16.9175 170.8416 0.0000 32.2607 0.0000
# 4 0.0000 0.0000 0.0000 222.1656 0.0000 54.0229
# 5 34.8473 -6.8359 32.2607 0.0000 54.7965 0.0000
# 6 0.0000 0.0000 0.0000 54.0229 0.0000 -52.2564
#
#
#
# Elastic Compliance Matrix: (Units=1/GPa)
#
#
# Indices 1 2 3 4 5 6 
#
# 1 0.004388 -0.001068 -0.000650 0.000000 -0.002541 0.000000
# 2 -0.001068 0.004084 0.000483 0.000000 0.000905 0.000000
# 3 -0.000650 0.000483 0.006709 0.000000 -0.003476 0.000000
# 4 0.000000 0.000000 0.000000 0.003597 0.000000 0.003719
# 5 -0.002541 0.000905 -0.003476 0.000000 0.022025 0.000000
# 6 0.000000 0.000000 0.000000 0.003719 0.000000 -0.015292
#
#
# Mechanical properties :
#
#
# Convention : Reuss Voigt Hill
#
# Bulk Modulus (GPa) = 78.67113 95.94710 87.30912
# Shear Modulus (GPa) = 155.18417 86.38505 120.78461
#
# Velocity S-wave (km/s) = 7.45157 5.55960 6.57400
# Velocity P-wave (km/s) = 10.10859 8.69153 9.42672
#
# Compressibility (1/GPa) = 0.01271114
#
# Stress axis : x y z
#
# Youngs Moduli (GPa) = 227.87125 244.84424 149.04509
#
# Poissons Ratio (x) = 0.26157 0.09689
# Poissons Ratio (y) = 0.24344 -0.07198
# Poissons Ratio (z) = 0.14814 -0.11825
#
# Static dielectric constant tensor:
#      x y z
#    x 2.028120 0.000000 0.069650 
#    y 0.000000 2.251110 0.000000 
#    z 0.069650 0.000000 2.256990 
# 
# From -- ./inp_files/1852.got.cif
#   From: 2010.05.17/outbox.cif.g08.bks.cpg/sg10_1_cif.got.tgz:1852.got - 2010.06.03 11:33:40.
