data_PCOD9154692
_publ_section_title
;
Structure prediction by ZEFSAII (Michael W. Deem and Ramdas Pophale) SiO2 
 PCOD9154692
Probable space group: P 2/M
;
_chemical_formula_sum "Si O2"
_cell_formula_units_Z 28
_cell_length_a 8.631274
_cell_length_b 8.456025
_cell_length_c 25.079511
_cell_angle_alpha 90.000000
_cell_angle_beta 133.209803
_cell_angle_gamma 90.000000
_cell_volume 1334.133455
_symmetry_space_group_name_H-M "P 2/M"
_symmetry_group_IT_number 10
_symmetry_cell_setting 'monoclinic'
loop_
_space_group_symop_operation_xyz
x,y,z
-x,y,-z
-x,-y,-z
x,-y,z
loop_
_atom_site_type_symbol
_atom_site_label
_atom_site_fract_x
_atom_site_fract_y
_atom_site_fract_z
Si Si1 0.999462 0.189930 0.660645
Si Si2 0.921585 0.317813 0.825499
Si Si3 0.825593 0.686457 0.412697
Si Si4 0.163719 0.184062 0.085864
Si Si5 0.606739 0.678624 0.178530
Si Si6 0.653442 0.821242 0.084586
Si Si7 0.641733 0.809563 0.661918
O O1 0.067523 0.246850 0.616994
O O2 0.192495 0.252564 0.742696
O O3 0.776038 0.236831 0.638964
O O4 0.999359 0.000000 0.659663
O O5 0.976712 0.500000 0.829576
O O6 0.829807 0.302173 0.862855
O O7 0.772938 0.261653 0.742360
O O8 0.105169 0.188533 0.875965
O O9 0.786424 0.500000 0.394327
O O10 0.602781 0.757988 0.383144
O O11 0.000000 0.706417 0.500000
O O12 0.409432 0.202282 0.129064
O O13 0.119575 0.000000 0.087201
O O14 0.000000 0.231002 0.000000
O O15 0.564083 0.500000 0.186530
O O16 0.658195 0.683345 0.128573
O O17 0.607391 0.000000 0.091833
O O18 0.500000 0.785188 0.000000
O O19 0.647342 0.000000 0.664818
#
# Coordination Sequence:
#
# PCOD9154692 Si02
#       7
#     4   4   4   4   4   4   4
#     4  11  24  44  72 102 137 181 230 283 338 407
#     4  12  24  39  62  91 125 164 213 274 333 396
#     4  11  26  47  72 105 145 183 222 277 344 413
#     4  11  24  41  60  83 119 169 220 275 340 407
#     4  12  24  39  62  91 125 164 213 274 333 396
#     4  11  23  39  59  85 122 167 214 265 323 387
#     4  11  24  44  72 102 137 181 230 283 338 407
#
# _framework density 20.987406
#
# number of rings (size 3 to 8) (size 9 to 14) (size 15 to 20)
#    0.000    0.714    1.429    6.429    0.000    9.143 
#    0.000    2.857    0.000    0.000    0.000    0.000 
#    0.000    0.000    0.000    0.000    0.000    0.000 
#
# Total GULP energy -155909.015540 kJ/mol
# GULP energy per Si atom -5568.179126 kJ/mol
# Density = 2.093964 g / cm^3
# Si number density = 20.987406 Si / 1000 Ang^3
#
#
#
# Elastic Constant Matrix: (Units=GPa)
#
#
# Indices 1 2 3 4 5 6 
#
# 1 145.9976 63.4719 64.6390 0.0000 -3.1042 0.0000
# 2 63.4719 104.5617 53.8893 0.0000 -15.9543 0.0000
# 3 64.6390 53.8893 90.1538 0.0000 2.2122 0.0000
# 4 0.0000 0.0000 0.0000 34.8071 0.0000 0.6679
# 5 -3.1042 -15.9543 2.2122 0.0000 20.6822 0.0000
# 6 0.0000 0.0000 0.0000 0.6679 0.0000 40.5499
#
#
#
# Elastic Compliance Matrix: (Units=1/GPa)
#
#
# Indices 1 2 3 4 5 6 
#
# 1 0.010985 -0.003968 -0.005484 0.000000 -0.000825 0.000000
# 2 -0.003968 0.018710 -0.008702 0.000000 0.014768 0.000000
# 3 -0.005484 -0.008702 0.020464 0.000000 -0.009725 0.000000
# 4 0.000000 0.000000 0.000000 0.028739 0.000000 -0.000473
# 5 -0.000825 0.014768 -0.009725 0.000000 0.060659 0.000000
# 6 0.000000 0.000000 0.000000 -0.000473 0.000000 0.024669
#
#
# Mechanical properties :
#
#
# Convention : Reuss Voigt Hill
#
# Bulk Modulus (GPa) = 72.18904 78.30150 75.24527
# Shear Modulus (GPa) = 24.37233 29.78870 27.08051
#
# Velocity S-wave (km/s) = 3.41146 3.77153 3.59600
# Velocity P-wave (km/s) = 7.07025 7.50704 7.29192
#
# Compressibility (1/GPa) = 0.01385252
#
# Stress axis : x y z
#
# Youngs Moduli (GPa) = 91.03493 53.44645 48.86580
#
# Poissons Ratio (x) = 0.21206 0.26798
# Poissons Ratio (y) = 0.36119 0.42522
# Poissons Ratio (z) = 0.49924 0.46508
#
# Static dielectric constant tensor:
#      x y z
#    x 1.770530 0.000000 0.055580 
#    y 0.000000 1.673300 0.000000 
#    z 0.055580 0.000000 1.757710 
# 
# From -- ./inp_files/92115.got.cif
#   From: 2010.05.17/outbox.cif.g08.bks.cpg/sg10_47_cif.got.tgz:92115.got - 2010.06.03 11:33:40.
