data_PCOD9154510
_publ_section_title
;
Structure prediction by ZEFSAII (Michael W. Deem and Ramdas Pophale) SiO2 
 PCOD9154510
Probable space group: P 2/M
;
_chemical_formula_sum "Si O2"
_cell_formula_units_Z 18
_cell_length_a 4.703838
_cell_length_b 16.185625
_cell_length_c 12.599859
_cell_angle_alpha 90.000000
_cell_angle_beta 50.628052
_cell_angle_gamma 90.000000
_cell_volume 741.569513
_symmetry_space_group_name_H-M "P 2/M"
_symmetry_group_IT_number 10
_symmetry_cell_setting 'monoclinic'
loop_
_space_group_symop_operation_xyz
x,y,z
-x,y,-z
-x,-y,-z
x,-y,z
loop_
_atom_site_type_symbol
_atom_site_label
_atom_site_fract_x
_atom_site_fract_y
_atom_site_fract_z
Si Si1 0.089325 0.913621 0.639932
Si Si2 0.070259 0.150864 0.095756
Si Si3 0.447171 0.691999 0.741666
Si Si4 0.500000 0.762324 0.500000
Si Si5 0.794809 0.593558 0.836584
O O1 0.500000 0.925889 0.500000
O O2 0.109453 0.817191 0.599858
O O3 0.030738 0.904244 0.778756
O O4 0.890209 0.000000 0.652703
O O5 0.798174 0.229632 0.162050
O O6 0.500000 0.173473 0.000000
O O7 0.000000 0.107693 0.000000
O O8 0.547890 0.713187 0.597053
O O9 0.737548 0.662495 0.759729
O O10 0.181555 0.612938 0.798485
O O11 0.778229 0.500000 0.800282
O O12 0.500000 0.604081 0.000000
#
# Coordination Sequence:
#
# PCOD9154510 Si02
#       5
#     4   4   4   2   4
#     4   8  17  39  64  89 125 168 207 248 306 373
#     4  11  22  37  62  94 124 159 206 260 309 356
#     4  11  21  39  61  87 122 160 204 252 305 365
#     4   8  19  36  61  88 118 164 208 246 299 372
#     4  11  23  39  61  88 119 157 200 250 312 370
#
# _framework density 24.272839999999999
#
# number of rings (size 3 to 8) (size 9 to 14) (size 15 to 20)
#    0.667    1.333    0.000    4.667    0.000    3.556 
#    0.000    6.667    0.000    2.667    0.000    0.000 
#    0.000    0.889    0.000    0.000    0.000    0.000 
#
# Total GULP energy -100248.156884 kJ/mol
# GULP energy per Si atom -5569.342049 kJ/mol
# Density = 2.421759 g / cm^3
# Si number density = 24.272840 Si / 1000 Ang^3
#
#
#
# Elastic Constant Matrix: (Units=GPa)
#
#
# Indices 1 2 3 4 5 6 
#
# 1 66.1373 -0.5771 6.0453 0.0000 1.7850 0.0000
# 2 -0.5771 120.7580 28.2191 0.0000 1.4754 0.0000
# 3 6.0453 28.2191 138.5223 0.0000 18.2190 0.0000
# 4 0.0000 0.0000 0.0000 9.5470 0.0000 -13.1770
# 5 1.7850 1.4754 18.2190 0.0000 25.2345 0.0000
# 6 0.0000 0.0000 0.0000 -13.1770 0.0000 -7.6279
#
#
#
# Elastic Compliance Matrix: (Units=1/GPa)
#
#
# Indices 1 2 3 4 5 6 
#
# 1 0.015196 0.000227 -0.000626 0.000000 -0.000636 0.000000
# 2 0.000227 0.008715 -0.001896 0.000000 0.000843 0.000000
# 3 -0.000626 -0.001896 0.008411 0.000000 -0.005917 0.000000
# 4 0.000000 0.000000 0.000000 0.030950 0.000000 -0.053466
# 5 -0.000636 0.000843 -0.005917 0.000000 0.043896 0.000000
# 6 0.000000 0.000000 0.000000 -0.053466 0.000000 -0.038737
#
#
# Mechanical properties :
#
#
# Convention : Reuss Voigt Hill
#
# Bulk Modulus (GPa) = 36.05969 43.64358 39.85164
# Shear Modulus (GPa) = 60.77839 24.87941 42.82890
#
# Velocity S-wave (km/s) = 5.00939 3.20502 4.20513
# Velocity P-wave (km/s) = 6.95320 5.63166 6.32703
#
# Compressibility (1/GPa) = 0.02773179
#
# Stress axis : x y z
#
# Youngs Moduli (GPa) = 65.80503 114.74589 118.89294
#
# Poissons Ratio (x) = -0.02600 0.07439
# Poissons Ratio (y) = -0.01491 0.22544
# Poissons Ratio (z) = 0.04117 0.21758
#
# Static dielectric constant tensor:
#      x y z
#    x 1.890720 0.000000 -0.053890 
#    y 0.000000 2.176280 0.000000 
#    z -0.053890 0.000000 1.907800 
# 
# From -- ./inp_files/39332.got.cif
#   From: 2010.05.17/outbox.cif.g08.bks.cpg/sg10_20_cif.got.tgz:39332.got - 2010.06.03 11:33:40.
