data_PCOD9154548
_publ_section_title
;
Structure prediction by ZEFSAII (Michael W. Deem and Ramdas Pophale) SiO2 
 PCOD9154548
Probable space group: P 2/M
;
_chemical_formula_sum "Si O2"
_cell_formula_units_Z 32
_cell_length_a 34.555329
_cell_length_b 7.546644
_cell_length_c 23.723685
_cell_angle_alpha 90.000000
_cell_angle_beta 164.597731
_cell_angle_gamma 90.000000
_cell_volume 1643.121921
_symmetry_space_group_name_H-M "P 2/M"
_symmetry_group_IT_number 10
_symmetry_cell_setting 'monoclinic'
loop_
_space_group_symop_operation_xyz
x,y,z
-x,y,-z
-x,-y,-z
x,-y,z
loop_
_atom_site_type_symbol
_atom_site_label
_atom_site_fract_x
_atom_site_fract_y
_atom_site_fract_z
Si Si1 0.659887 0.717573 0.473473
Si Si2 0.810370 0.283039 0.298550
Si Si3 0.100697 0.201655 0.406646
Si Si4 0.092479 0.286200 0.765124
Si Si5 0.673552 0.716435 0.990294
Si Si6 0.088557 0.713821 0.258474
Si Si7 0.868213 0.296949 0.860441
Si Si8 0.372576 0.700126 0.857200
O O1 0.328810 0.500000 0.012823
O O2 0.492782 0.774267 0.235498
O O3 0.765589 0.772299 0.570285
O O4 0.735142 0.779317 0.637593
O O5 0.811793 0.500000 0.301400
O O6 0.683191 0.221749 0.162507
O O7 0.962925 0.228183 0.540490
O O8 0.772186 0.228837 0.182016
O O9 0.086222 0.241570 0.320680
O O10 0.229135 0.309859 0.616955
O O11 0.955818 0.228494 0.240522
O O12 0.147277 0.000000 0.478681
O O13 0.091772 0.500000 0.764526
O O14 0.244742 0.227511 0.952042
O O15 0.827394 0.500000 0.817018
O O16 0.086057 0.500000 0.249962
O O17 0.946083 0.782268 0.024641
O O18 0.662256 0.500000 0.477213
O O19 0.000000 0.303049 0.000000
O O20 0.424063 0.500000 0.943387
O O21 0.500000 0.787008 0.000000
#
# Coordination Sequence:
#
# PCOD9154548 Si02
#       8
#     4   4   4   4   4   4   4   4
#     4   8  14  23  42  75 103 116 139 186 241 285
#     4   8  14  24  40  66  93 116 146 185 227 265
#     4  11  22  33  46  65  92 125 162 196 229 267
#     4   9  17  31  47  64  89 121 160 196 230 270
#     4   9  15  23  43  72  95 115 145 195 240 271
#     4   9  16  28  49  71  95 123 152 185 225 282
#     4   7  11  22  40  66  97 123 142 174 230 285
#     4   9  18  31  49  70  94 124 156 188 226 276
#
# _framework density 19.475123
#
# number of rings (size 3 to 8) (size 9 to 14) (size 15 to 20)
#    0.000    3.250    0.000    3.750    1.750    1.750 
#    0.000    0.000    0.000   10.875    0.000    5.250 
#    0.000    0.000    0.000    0.000    0.000    0.000 
#
# Total GULP energy -178260.246000 kJ/mol
# GULP energy per Si atom -5570.632687 kJ/mol
# Density = 1.943080 g / cm^3
# Si number density = 19.475123 Si / 1000 Ang^3
#
#
#
# Elastic Constant Matrix: (Units=GPa)
#
#
# Indices 1 2 3 4 5 6 
#
# 1 146.0828 0.4463 59.6618 0.0000 11.5390 0.0000
# 2 0.4463 52.7488 1.1409 0.0000 3.8355 0.0000
# 3 59.6618 1.1409 67.0866 0.0000 9.0883 0.0000
# 4 0.0000 0.0000 0.0000 -1.4190 0.0000 33.7465
# 5 11.5390 3.8355 9.0883 0.0000 18.9479 0.0000
# 6 0.0000 0.0000 0.0000 33.7465 0.0000 -16.6589
#
#
#
# Elastic Compliance Matrix: (Units=1/GPa)
#
#
# Indices 1 2 3 4 5 6 
#
# 1 0.010832 0.000268 -0.009344 0.000000 -0.002169 0.000000
# 2 0.000268 0.019250 -0.000017 0.000000 -0.004052 0.000000
# 3 -0.009344 -0.000017 0.024005 0.000000 -0.005820 0.000000
# 4 0.000000 0.000000 0.000000 0.014938 0.000000 0.030261
# 5 -0.002169 -0.004052 -0.005820 0.000000 0.057709 0.000000
# 6 0.000000 0.000000 0.000000 0.030261 0.000000 0.001272
#
#
# Mechanical properties :
#
#
# Convention : Reuss Voigt Hill
#
# Bulk Modulus (GPa) = 27.85381 43.15736 35.50558
# Shear Modulus (GPa) = 31.61361 13.81863 22.71612
#
# Velocity S-wave (km/s) = 4.03337 2.66663 3.41899
# Velocity P-wave (km/s) = 6.00200 5.62935 5.81866
#
# Compressibility (1/GPa) = 0.03590174
#
# Stress axis : x y z
#
# Youngs Moduli (GPa) = 92.31776 51.94672 41.65849
#
# Poissons Ratio (x) = -0.01393 0.38926
# Poissons Ratio (y) = -0.02476 0.00071
# Poissons Ratio (z) = 0.86262 0.00088
#
# Static dielectric constant tensor:
#      x y z
#    x 1.683440 0.000000 0.000570 
#    y 0.000000 1.759300 0.000000 
#    z 0.000570 0.000000 1.685550 
# 
# From -- ./inp_files/87205.got.cif
#   From: 2010.05.17/outbox.cif.g08.bks.cpg/sg10_44_cif.got.tgz:87205.got - 2010.06.03 11:33:40.
