data_PCOD9154187
_publ_section_title
;
Structure prediction by ZEFSAII (Michael W. Deem and Ramdas Pophale) SiO2 
 PCOD9154187
Probable space group: P 2/M
;
_chemical_formula_sum "Si O2"
_cell_formula_units_Z 17
_cell_length_a 12.022505
_cell_length_b 9.788003
_cell_length_c 8.749539
_cell_angle_alpha 90.000000
_cell_angle_beta 53.028803
_cell_angle_gamma 90.000000
_cell_volume 822.597301
_symmetry_space_group_name_H-M "P 2/M"
_symmetry_group_IT_number 10
_symmetry_cell_setting 'monoclinic'
loop_
_space_group_symop_operation_xyz
x,y,z
-x,y,-z
-x,-y,-z
x,-y,z
loop_
_atom_site_type_symbol
_atom_site_label
_atom_site_fract_x
_atom_site_fract_y
_atom_site_fract_z
Si Si1 0.024612 0.278831 0.801377
Si Si2 0.939047 0.000000 0.724008
Si Si3 0.500000 0.000000 0.500000
Si Si4 0.595011 0.500000 0.773192
Si Si5 0.332500 0.231150 0.441751
Si Si6 0.339968 0.000000 0.186592
Si Si7 0.881219 0.500000 0.722381
O O1 0.187489 0.294806 0.623291
O O2 0.914879 0.371528 0.800873
O O3 0.992422 0.128209 0.771648
O O4 0.000000 0.298803 0.000000
O O5 0.771710 0.000000 0.855917
O O6 0.000000 0.000000 0.500000
O O7 0.404028 0.122753 0.497337
O O8 0.579033 0.362678 0.685841
O O9 0.744426 0.500000 0.734147
O O10 0.500000 0.500000 0.000000
O O11 0.309645 0.135547 0.311159
O O12 0.500000 0.000000 0.000000
O O13 0.000000 0.500000 0.500000
#
# Coordination Sequence:
#
# PCOD9154187 Si02
#       7
#     4   2   1   2   4   2   2
#     4  12  25  41  69 103 136 178 233 286 343 413
#     4  12  21  41  69  94 134 184 234 284 337 394
#     4  10  26  42  70  88 144 192 210 278 372 400
#     4  12  26  43  73 106 135 180 243 290 339 418
#     4  11  23  45  64  98 139 182 234 284 343 418
#     4  11  23  38  65  95 131 180 238 286 334 408
#     4  12  23  46  74  96 136 186 224 285 352 398
#
# _framework density 20.666249000000001
#
# number of rings (size 3 to 8) (size 9 to 14) (size 15 to 20)
#    0.000    0.471    4.706    4.235    0.000    6.118 
#    0.000    0.000    0.000    0.000    0.000    0.000 
#    0.000    0.000    0.000    0.000    0.000    0.000 
#
# Total GULP energy -94677.605389 kJ/mol
# GULP energy per Si atom -5569.270905 kJ/mol
# Density = 2.061921 g / cm^3
# Si number density = 20.666249 Si / 1000 Ang^3
#
#
#
# Elastic Constant Matrix: (Units=GPa)
#
#
# Indices 1 2 3 4 5 6 
#
# 1 78.4705 -11.5524 4.5550 0.0000 -4.3737 0.0000
# 2 -11.5524 123.6560 -5.8559 0.0000 8.9495 0.0000
# 3 4.5550 -5.8559 95.9295 0.0000 -14.1475 0.0000
# 4 0.0000 0.0000 0.0000 18.5376 0.0000 9.0031
# 5 -4.3737 8.9495 -14.1475 0.0000 37.0300 0.0000
# 6 0.0000 0.0000 0.0000 9.0031 0.0000 32.7385
#
#
#
# Elastic Compliance Matrix: (Units=1/GPa)
#
#
# Indices 1 2 3 4 5 6 
#
# 1 0.012992 0.001115 -0.000384 0.000000 0.001118 0.000000
# 2 0.001115 0.008331 0.000189 0.000000 -0.001810 0.000000
# 3 -0.000384 0.000189 0.011064 0.000000 0.004136 0.000000
# 4 0.000000 0.000000 0.000000 0.062260 0.000000 -0.017121
# 5 0.001118 -0.001810 0.004136 0.000000 0.029155 0.000000
# 6 0.000000 0.000000 0.000000 -0.017121 0.000000 0.035253
#
#
# Mechanical properties :
#
#
# Convention : Reuss Voigt Hill
#
# Bulk Modulus (GPa) = 29.21722 30.26104 29.73913
# Shear Modulus (GPa) = 29.65160 38.38853 34.02006
#
# Velocity S-wave (km/s) = 3.79196 4.31460 4.06170
# Velocity P-wave (km/s) = 5.77411 6.28455 6.03473
#
# Compressibility (1/GPa) = 0.03422639
#
# Stress axis : x y z
#
# Youngs Moduli (GPa) = 76.96826 120.03359 90.38273
#
# Poissons Ratio (x) = -0.13380 0.03470
# Poissons Ratio (y) = -0.08579 -0.01706
# Poissons Ratio (z) = 0.02955 -0.02266
#
# Static dielectric constant tensor:
#      x y z
#    x 1.700840 0.000000 -0.015260 
#    y 0.000000 1.622220 0.000000 
#    z -0.015260 0.000000 1.780690 
# 
# From -- ./inp_files/22071.got.cif
#   From: 2010.05.17/outbox.cif.g08.bks.cpg/sg10_12_cif.got.tgz:22071.got - 2010.06.03 11:33:40.
