data_PCOD9154131
_publ_section_title
;
Structure prediction by ZEFSAII (Michael W. Deem and Ramdas Pophale) SiO2 
 PCOD9154131
Probable space group: P 2/M
;
_chemical_formula_sum "Si O2"
_cell_formula_units_Z 28
_cell_length_a 9.944744
_cell_length_b 15.149612
_cell_length_c 22.429846
_cell_angle_alpha 90.000000
_cell_angle_beta 25.871248
_cell_angle_gamma 90.000000
_cell_volume 1474.540511
_symmetry_space_group_name_H-M "P 2/M"
_symmetry_group_IT_number 10
_symmetry_cell_setting 'monoclinic'
loop_
_space_group_symop_operation_xyz
x,y,z
-x,y,-z
-x,-y,-z
x,-y,z
loop_
_atom_site_type_symbol
_atom_site_label
_atom_site_fract_x
_atom_site_fract_y
_atom_site_fract_z
Si Si1 0.311920 0.000000 0.637970
Si Si2 0.149323 0.836181 0.161408
Si Si3 0.315183 0.399081 0.511941
Si Si4 0.237958 0.305560 0.757286
Si Si5 0.334977 0.808811 0.333138
Si Si6 0.256642 0.273912 0.237063
Si Si7 0.634116 0.000000 0.636213
Si Si8 0.649325 0.399653 0.005984
O O1 0.500000 0.000000 0.500000
O O2 0.541509 0.000000 0.603486
O O3 0.083399 0.917123 0.736700
O O4 0.164366 0.787009 0.218562
O O5 0.987250 0.769101 0.180045
O O6 0.500000 0.857762 0.000000
O O7 0.500000 0.402913 0.500000
O O8 0.271576 0.500000 0.508303
O O9 0.515332 0.339374 0.388413
O O10 0.999876 0.347559 0.647777
O O11 0.429729 0.262399 0.733809
O O12 0.014617 0.387893 0.857751
O O13 0.299492 0.785914 0.278036
O O14 0.464957 0.907181 0.294752
O O15 0.000000 0.801909 0.500000
O O16 0.540411 0.330660 0.098895
O O17 0.000000 0.000000 0.500000
O O18 0.556695 0.500000 0.056439
O O19 0.500000 0.379025 0.000000
#
# Coordination Sequence:
#
# PCOD9154131 Si02
#       8
#     2   4   4   4   4   4   2   4
#     4  12  29  43  77 108 128 174 230 284 333 395
#     4  12  25  46  68 100 141 170 216 284 336 394
#     4  11  22  36  62  98 131 169 224 284 330 384
#     4  12  21  42  66  96 130 180 218 270 337 397
#     4  11  25  42  67  92 139 177 216 279 340 401
#     4  12  23  41  67  99 132 177 227 272 334 404
#     4  10  24  45  63 100 139 169 213 272 337 402
#     4  11  22  42  69  99 134 176 226 282 336 396
#
# _framework density 18.988966000000001
#
# number of rings (size 3 to 8) (size 9 to 14) (size 15 to 20)
#    0.000    0.571    7.143    1.071    6.000    2.857 
#    0.000    4.286    0.000    1.714    0.000    0.000 
#    0.000    0.000    0.000    0.000    0.000    0.000 
#
# Total GULP energy -156311.230254 kJ/mol
# GULP energy per Si atom -5582.543938 kJ/mol
# Density = 1.894575 g / cm^3
# Si number density = 18.988966 Si / 1000 Ang^3
#
#
#
# Elastic Constant Matrix: (Units=GPa)
#
#
# Indices 1 2 3 4 5 6 
#
# 1 72.7153 13.9510 17.3579 0.0000 -8.2805 0.0000
# 2 13.9510 80.0526 12.5476 0.0000 -2.3321 0.0000
# 3 17.3579 12.5476 77.6894 0.0000 0.6830 0.0000
# 4 0.0000 0.0000 0.0000 35.4290 0.0000 -4.4323
# 5 -8.2805 -2.3321 0.6830 0.0000 22.2927 0.0000
# 6 0.0000 0.0000 0.0000 -4.4323 0.0000 15.9691
#
#
#
# Elastic Compliance Matrix: (Units=1/GPa)
#
#
# Indices 1 2 3 4 5 6 
#
# 1 0.015552 -0.002045 -0.003194 0.000000 0.005661 0.000000
# 2 -0.002045 0.013129 -0.001670 0.000000 0.000665 0.000000
# 3 -0.003194 -0.001670 0.013871 0.000000 -0.001786 0.000000
# 4 0.000000 0.000000 0.000000 0.029241 0.000000 0.008116
# 5 0.005661 0.000665 -0.001786 0.000000 0.047085 0.000000
# 6 0.000000 0.000000 0.000000 0.008116 0.000000 0.064874
#
#
# Mechanical properties :
#
#
# Convention : Reuss Voigt Hill
#
# Bulk Modulus (GPa) = 34.80090 35.35225 35.07657
# Shear Modulus (GPa) = 24.13763 27.17821 25.65792
#
# Velocity S-wave (km/s) = 3.56917 3.78731 3.67986
# Velocity P-wave (km/s) = 5.94576 6.14676 6.04709
#
# Compressibility (1/GPa) = 0.02873489
#
# Stress axis : x y z
#
# Youngs Moduli (GPa) = 64.30198 76.16622 72.09406
#
# Poissons Ratio (x) = 0.15574 0.23028
# Poissons Ratio (y) = 0.13148 0.12036
# Poissons Ratio (z) = 0.20539 0.12716
#
# Static dielectric constant tensor:
#      x y z
#    x 1.613040 0.000000 0.011860 
#    y 0.000000 1.687470 0.000000 
#    z 0.011860 0.000000 1.620430 
# 
# From -- ./inp_files/82929.got.cif
#   From: 2010.05.17/outbox.cif.g08.bks.cpg/sg10_42_cif.got.tgz:82929.got - 2010.06.03 11:33:40.
