data_PCOD9154798
_publ_section_title
;
Structure prediction by ZEFSAII (Michael W. Deem and Ramdas Pophale) SiO2 
 PCOD9154798
Probable space group: P 2/M
;
_chemical_formula_sum "Si O2"
_cell_formula_units_Z 16
_cell_length_a 10.157562
_cell_length_b 11.369690
_cell_length_c 7.982773
_cell_angle_alpha 90.000000
_cell_angle_beta 46.181518
_cell_angle_gamma 90.000000
_cell_volume 665.197252
_symmetry_space_group_name_H-M "P 2/M"
_symmetry_group_IT_number 10
_symmetry_cell_setting 'monoclinic'
loop_
_space_group_symop_operation_xyz
x,y,z
-x,y,-z
-x,-y,-z
x,-y,z
loop_
_atom_site_type_symbol
_atom_site_label
_atom_site_fract_x
_atom_site_fract_y
_atom_site_fract_z
Si Si1 0.425575 0.000000 0.259825
Si Si2 0.015660 0.000000 0.782102
Si Si3 0.092776 0.745666 0.240666
Si Si4 0.230895 0.635491 0.665504
Si Si5 0.557538 0.258384 0.214175
O O1 0.500077 0.877184 0.264591
O O2 0.213454 0.000000 0.511754
O O3 0.500000 0.000000 0.000000
O O4 0.920029 0.118362 0.803236
O O5 0.000000 0.000000 0.000000
O O6 0.966876 0.672125 0.224310
O O7 0.000000 0.732289 0.500000
O O8 0.305138 0.714295 0.057227
O O9 0.236740 0.500000 0.710335
O O10 0.310656 0.715612 0.743410
O O11 0.380260 0.661616 0.389915
#
# Coordination Sequence:
#
# PCOD9154798 Si02
#       5
#     2   2   4   4   4
#     4  12  25  45  77 113 152 184 228 303 377 441
#     4  12  24  44  73 109 146 189 235 299 358 444
#     4  12  26  45  71 103 147 185 233 297 368 426
#     4  11  26  47  72 102 139 189 250 296 343 416
#     4  11  24  44  75 102 141 186 233 293 361 427
#
# _framework density 24.053017000000001
#
# number of rings (size 3 to 8) (size 9 to 14) (size 15 to 20)
#    0.000    0.500    2.500    6.375    3.500    6.500 
#    0.000    1.250    0.000    0.000    0.000    0.000 
#    0.000    0.000    0.000    0.000    0.000    0.000 
#
# Total GULP energy -89576.975672 kJ/mol
# GULP energy per Si atom -5598.560980 kJ/mol
# Density = 2.399827 g / cm^3
# Si number density = 24.053017 Si / 1000 Ang^3
#
#
#
# Elastic Constant Matrix: (Units=GPa)
#
#
# Indices 1 2 3 4 5 6 
#
# 1 55.9712 30.0405 15.9344 0.0000 -5.9905 0.0000
# 2 30.0405 120.3707 0.1537 0.0000 1.7258 0.0000
# 3 15.9344 0.1537 169.3334 0.0000 -27.4164 0.0000
# 4 0.0000 0.0000 0.0000 -14.7371 0.0000 -21.2957
# 5 -5.9905 1.7258 -27.4164 0.0000 58.9844 0.0000
# 6 0.0000 0.0000 0.0000 -21.2957 0.0000 -28.8928
#
#
#
# Elastic Compliance Matrix: (Units=1/GPa)
#
#
# Indices 1 2 3 4 5 6 
#
# 1 0.021408 -0.005362 -0.001765 0.000000 0.001511 0.000000
# 2 -0.005362 0.009655 0.000391 0.000000 -0.000645 0.000000
# 3 -0.001765 0.000391 0.006532 0.000000 0.002845 0.000000
# 4 0.000000 0.000000 0.000000 1.042632 0.000000 -0.768482
# 5 0.001511 -0.000645 0.002845 0.000000 0.018449 0.000000
# 6 0.000000 0.000000 0.000000 -0.768482 0.000000 0.531806
#
#
# Mechanical properties :
#
#
# Convention : Reuss Voigt Hill
#
# Bulk Modulus (GPa) = 41.45393 48.65915 45.05654
# Shear Modulus (GPa) = 3.02664 23.04068 13.03366
#
# Velocity S-wave (km/s) = 1.12297 3.09837 2.33034
# Velocity P-wave (km/s) = 4.35353 5.75098 5.10034
#
# Compressibility (1/GPa) = 0.02412317
#
# Stress axis : x y z
#
# Youngs Moduli (GPa) = 46.71042 103.57700 153.09381
#
# Poissons Ratio (x) = 0.55541 0.27023
# Poissons Ratio (y) = 0.25047 -0.05992
# Poissons Ratio (z) = 0.08245 -0.04054
#
# Static dielectric constant tensor:
#      x y z
#    x 1.932740 0.000000 0.053910 
#    y 0.000000 1.808860 0.000000 
#    z 0.053910 0.000000 2.111140 
# 
# From -- ./inp_files/23305.got.cif
#   From: 2010.05.17/outbox.cif.g08.bks.cpg/sg10_12_cif.got.tgz:23305.got - 2010.06.03 11:33:40.
