data_PCOD9154317
_publ_section_title
;
Structure prediction by ZEFSAII (Michael W. Deem and Ramdas Pophale) SiO2 
 PCOD9154317
Probable space group: P 2/M
;
_chemical_formula_sum "Si O2"
_cell_formula_units_Z 32
_cell_length_a 20.739488
_cell_length_b 14.870615
_cell_length_c 24.759003
_cell_angle_alpha 90.000000
_cell_angle_beta 16.986573
_cell_angle_gamma 90.000000
_cell_volume 2230.809179
_symmetry_space_group_name_H-M "P 2/M"
_symmetry_group_IT_number 10
_symmetry_cell_setting 'monoclinic'
loop_
_space_group_symop_operation_xyz
x,y,z
-x,y,-z
-x,-y,-z
x,-y,z
loop_
_atom_site_type_symbol
_atom_site_label
_atom_site_fract_x
_atom_site_fract_y
_atom_site_fract_z
Si Si1 0.291318 0.902169 0.626699
Si Si2 0.711816 0.390523 0.866108
Si Si3 0.880747 0.902170 0.037270
Si Si4 0.900118 0.390524 0.521959
Si Si5 0.216847 0.705862 0.864823
Si Si6 0.072570 0.392146 0.088715
Si Si7 0.605143 0.609460 0.072429
Si Si8 0.609832 0.705859 0.471837
O O1 0.500000 0.905298 0.500000
O O2 0.322516 0.809490 0.570200
O O3 0.072639 0.894263 0.838681
O O4 0.286029 0.000000 0.602773
O O5 0.711746 0.500000 0.866515
O O6 0.934278 0.361361 0.657861
O O7 0.500000 0.363796 0.000000
O O8 0.687205 0.361055 0.947573
O O9 0.769172 0.000000 0.119629
O O10 0.748343 0.809491 0.144372
O O11 0.000000 0.905297 0.000000
O O12 0.898705 0.500000 0.523035
O O13 0.648092 0.361055 0.717131
O O14 0.000000 0.363793 0.500000
O O15 0.426085 0.676148 0.661958
O O16 0.000000 0.704723 0.000000
O O17 0.164206 0.646625 0.959077
O O18 0.065322 0.500000 0.092335
O O19 0.828928 0.353376 0.294355
O O20 0.234312 0.363621 0.007843
O O21 0.603268 0.500000 0.073365
O O22 0.500000 0.704724 0.500000
#
# Coordination Sequence:
#
# PCOD9154317 Si02
#       8
#     4   4   4   4   4   4   4   4
#     4   9  15  25  45  71  94 109 128 170 230 291
#     4   9  14  22  40  63  83 104 130 165 217 274
#     4   9  15  25  45  71  94 109 128 170 230 291
#     4   9  14  22  40  63  83 104 130 165 217 274
#     4  11  20  35  52  66  85 113 154 198 241 282
#     4  11  24  38  47  61  86 118 165 212 239 255
#     4   9  18  30  42  59  84 108 138 188 230 263
#     4  11  20  35  52  66  85 113 154 198 241 282
#
# _framework density 14.344571
#
# number of rings (size 3 to 8) (size 9 to 14) (size 15 to 20)
#    0.000    2.250    3.750    2.250    0.000    3.500 
#    0.000    2.500    0.000    0.000    0.000    0.000 
#    0.000    0.000    0.000    0.000    0.000    5.000 
#
# Total GULP energy -178186.379492 kJ/mol
# GULP energy per Si atom -5568.324359 kJ/mol
# Density = 1.431192 g / cm^3
# Si number density = 14.344571 Si / 1000 Ang^3
#
#
#
# Elastic Constant Matrix: (Units=GPa)
#
#
# Indices 1 2 3 4 5 6 
#
# 1 90.9472 28.9694 64.7002 0.0000 3.6115 0.0000
# 2 28.9694 53.0618 30.5251 0.0000 0.5931 0.0000
# 3 64.7002 30.5251 137.0365 0.0000 13.9316 0.0000
# 4 0.0000 0.0000 0.0000 10.1266 0.0000 3.9063
# 5 3.6115 0.5931 13.9316 0.0000 21.7955 0.0000
# 6 0.0000 0.0000 0.0000 3.9063 0.0000 -0.1381
#
#
#
# Elastic Compliance Matrix: (Units=1/GPa)
#
#
# Indices 1 2 3 4 5 6 
#
# 1 0.017990 -0.005556 -0.007453 0.000000 0.001934 0.000000
# 2 -0.005556 0.023477 -0.002818 0.000000 0.002083 0.000000
# 3 -0.007453 -0.002818 0.012097 0.000000 -0.006421 0.000000
# 4 0.000000 0.000000 0.000000 0.008292 0.000000 0.234500
# 5 0.001934 0.002083 -0.006421 0.000000 0.049608 0.000000
# 6 0.000000 0.000000 0.000000 0.234500 0.000000 -0.607910
#
#
# Mechanical properties :
#
#
# Convention : Reuss Voigt Hill
#
# Bulk Modulus (GPa) = 45.64140 58.82611 52.23376
# Shear Modulus (GPa) = -10.92924 16.81351 2.94214
#
# Velocity S-wave (km/s) = -2.76326 3.42733 1.43370
# Velocity P-wave (km/s) = 4.65899 7.53396 6.26365
#
# Compressibility (1/GPa) = 0.02190993
#
# Stress axis : x y z
#
# Youngs Moduli (GPa) = 55.58507 42.59441 82.66750
#
# Poissons Ratio (x) = 0.23666 0.61612
# Poissons Ratio (y) = 0.30883 0.23297
# Poissons Ratio (z) = 0.41427 0.12004
#
# Static dielectric constant tensor:
#      x y z
#    x 1.460140 0.000000 0.011470 
#    y 0.000000 1.482350 0.000000 
#    z 0.011470 0.000000 1.490250 
# 
# From -- ./inp_files/79719.got.cif
#   From: 2010.05.17/outbox.cif.g08.bks.cpg/sg10_40_cif.got.tgz:79719.got - 2010.06.03 11:33:40.
