data_PCOD9154254
_publ_section_title
;
Structure prediction by ZEFSAII (Michael W. Deem and Ramdas Pophale) SiO2 
 PCOD9154254
Probable space group: P 2/M
;
_chemical_formula_sum "Si O2"
_cell_formula_units_Z 28
_cell_length_a 18.995014
_cell_length_b 7.549174
_cell_length_c 23.045661
_cell_angle_alpha 90.000000
_cell_angle_beta 25.447056
_cell_angle_gamma 90.000000
_cell_volume 1419.940709
_symmetry_space_group_name_H-M "P 2/M"
_symmetry_group_IT_number 10
_symmetry_cell_setting 'monoclinic'
loop_
_space_group_symop_operation_xyz
x,y,z
-x,y,-z
-x,-y,-z
x,-y,z
loop_
_atom_site_type_symbol
_atom_site_label
_atom_site_fract_x
_atom_site_fract_y
_atom_site_fract_z
Si Si1 0.619195 0.282240 0.963037
Si Si2 0.448596 0.706204 0.857643
Si Si3 0.660345 0.718362 0.594412
Si Si4 0.237541 0.713415 0.703891
Si Si5 0.016387 0.294575 0.297086
Si Si6 0.488450 0.715801 0.415941
Si Si7 0.916473 0.794060 0.883085
O O1 0.623427 0.500000 0.961367
O O2 0.807068 0.220621 0.815839
O O3 0.500000 0.229420 0.000000
O O4 0.558564 0.221218 0.071613
O O5 0.491747 0.500000 0.831840
O O6 0.573602 0.780915 0.717606
O O7 0.262797 0.716769 0.971892
O O8 0.660532 0.500000 0.593955
O O9 0.847233 0.780222 0.447221
O O10 0.557812 0.773523 0.613906
O O11 0.237231 0.500000 0.704148
O O12 0.347690 0.770367 0.566551
O O13 0.338079 0.772291 0.685787
O O14 0.052268 0.771024 0.831376
O O15 0.017607 0.500000 0.313692
O O16 0.015504 0.287868 0.227533
O O17 0.487962 0.500000 0.416330
O O18 0.893313 0.000000 0.888725
#
# Coordination Sequence:
#
# PCOD9154254 Si02
#       7
#     4   4   4   4   4   4   4
#     4   8  14  26  45  71  99 124 150 181 222 272
#     4   9  18  31  49  68  91 124 156 191 231 273
#     4   9  15  27  48  73  92 114 157 199 231 268
#     4   9  15  27  47  68  89 118 154 195 237 270
#     4   9  16  29  51  71  91 121 155 193 229 271
#     4   8  14  24  45  71  91 113 150 199 236 268
#     4  11  20  30  45  67  94 124 159 196 228 273
#
# _framework density 19.719131999999998
#
# number of rings (size 3 to 8) (size 9 to 14) (size 15 to 20)
#    0.000    3.000    1.429    3.000    0.000    0.000 
#    0.000    3.571    0.000   15.429    0.000    0.000 
#    0.000    9.143    0.000    0.000    0.000    0.000 
#
# Total GULP energy -156081.093905 kJ/mol
# GULP energy per Si atom -5574.324782 kJ/mol
# Density = 1.967425 g / cm^3
# Si number density = 19.719132 Si / 1000 Ang^3
#
#
#
# Elastic Constant Matrix: (Units=GPa)
#
#
# Indices 1 2 3 4 5 6 
#
# 1 156.4906 2.8699 84.4874 0.0000 -17.5798 0.0000
# 2 2.8699 46.1373 -1.4043 0.0000 4.4239 0.0000
# 3 84.4874 -1.4043 152.6695 0.0000 0.0287 0.0000
# 4 0.0000 0.0000 0.0000 -45.0576 0.0000 5.1533
# 5 -17.5798 4.4239 0.0287 0.0000 21.5520 0.0000
# 6 0.0000 0.0000 0.0000 5.1533 0.0000 -13.4550
#
#
#
# Elastic Compliance Matrix: (Units=1/GPa)
#
#
# Indices 1 2 3 4 5 6 
#
# 1 0.010615 -0.001704 -0.005892 0.000000 0.009016 0.000000
# 2 -0.001704 0.022390 0.001150 0.000000 -0.005987 0.000000
# 3 -0.005892 0.001150 0.009822 0.000000 -0.005055 0.000000
# 4 0.000000 0.000000 0.000000 -0.023211 0.000000 -0.008890
# 5 0.009016 -0.005987 -0.005055 0.000000 0.054990 0.000000
# 6 0.000000 0.000000 0.000000 -0.008890 0.000000 -0.077726
#
#
# Mechanical properties :
#
#
# Convention : Reuss Voigt Hill
#
# Bulk Modulus (GPa) = 33.40546 58.57817 45.99182
# Shear Modulus (GPa) = 253.16416 10.56417 131.86416
#
# Velocity S-wave (km/s) = 11.34300 2.31710 8.18635
# Velocity P-wave (km/s) = 13.73059 6.07695 10.61740
#
# Compressibility (1/GPa) = 0.02993522
#
# Stress axis : x y z
#
# Youngs Moduli (GPa) = 94.20410 44.66369 101.81032
#
# Poissons Ratio (x) = 0.07612 0.59985
# Poissons Ratio (y) = 0.16054 -0.11710
# Poissons Ratio (z) = 0.55504 -0.05137
#
# Static dielectric constant tensor:
#      x y z
#    x 1.680630 0.000000 -0.015400 
#    y 0.000000 1.726370 0.000000 
#    z -0.015400 0.000000 1.682980 
# 
# From -- ./inp_files/38025.got.cif
#   From: 2010.05.17/outbox.cif.g08.bks.cpg/sg10_20_cif.got.tgz:38025.got - 2010.06.03 11:33:40.
