data_PCOD9154994
_publ_section_title
;
Structure prediction by ZEFSAII (Michael W. Deem and Ramdas Pophale) SiO2 
 PCOD9154994
Probable space group: P 2/M
;
_chemical_formula_sum "Si O2"
_cell_formula_units_Z 24
_cell_length_a 24.500440
_cell_length_b 7.411892
_cell_length_c 12.784628
_cell_angle_alpha 90.000000
_cell_angle_beta 26.550379
_cell_angle_gamma 90.000000
_cell_volume 1037.728065
_symmetry_space_group_name_H-M "P 2/M"
_symmetry_group_IT_number 10
_symmetry_cell_setting 'monoclinic'
loop_
_space_group_symop_operation_xyz
x,y,z
-x,y,-z
-x,-y,-z
x,-y,z
loop_
_atom_site_type_symbol
_atom_site_label
_atom_site_fract_x
_atom_site_fract_y
_atom_site_fract_z
Si Si1 0.993597 0.219423 0.845335
Si Si2 0.689009 0.784871 0.982659
Si Si3 0.802944 0.220573 0.349069
Si Si4 0.364894 0.286450 0.697364
Si Si5 0.051729 0.220595 0.522304
Si Si6 0.575885 0.792969 0.627668
O O1 0.124334 0.271544 0.671263
O O2 0.982659 0.280704 0.745015
O O3 0.989723 0.000000 0.852025
O O4 0.890124 0.278396 0.103590
O O5 0.712056 0.752384 0.067082
O O6 0.556781 0.711646 0.172845
O O7 0.682578 0.000000 0.983478
O O8 0.806402 0.723214 0.717767
O O9 0.666303 0.285540 0.559580
O O10 0.799391 0.000000 0.354032
O O11 0.500000 0.221075 0.500000
O O12 0.368200 0.500000 0.677158
O O13 0.346801 0.206347 0.613861
O O14 0.000000 0.281123 0.500000
O O15 0.048135 0.000000 0.527968
O O16 0.552947 0.000000 0.696846
#
# Coordination Sequence:
#
# PCOD9154994 Si02
#       6
#     4   4   4   4   4   4
#     4   8  14  25  38  59  88 116 148 180 211 256
#     4   9  17  28  41  63  91 115 143 181 221 259
#     4   8  14  24  41  62  86 113 143 183 222 253
#     4   9  17  28  42  62  89 119 147 177 215 260
#     4   9  17  26  39  60  89 121 148 176 214 262
#     4   9  16  26  43  66  89 112 142 182 226 259
#
# _framework density 23.127445999999999
#
# number of rings (size 3 to 8) (size 9 to 14) (size 15 to 20)
#    0.000    3.333    0.000    1.500    2.333    2.000 
#    0.000    0.833    0.000    5.500    0.000    3.500 
#    0.000    5.333    0.000    0.000    0.000    0.000 
#
# Total GULP energy -133832.044045 kJ/mol
# GULP energy per Si atom -5576.335169 kJ/mol
# Density = 2.307481 g / cm^3
# Si number density = 23.127446 Si / 1000 Ang^3
#
#
#
# Elastic Constant Matrix: (Units=GPa)
#
#
# Indices 1 2 3 4 5 6 
#
# 1 129.6370 0.1998 23.9350 0.0000 -12.5317 0.0000
# 2 0.1998 79.2637 -0.4834 0.0000 -3.8984 0.0000
# 3 23.9350 -0.4834 48.5744 0.0000 3.4315 0.0000
# 4 0.0000 0.0000 0.0000 -41.5807 0.0000 -28.5957
# 5 -12.5317 -3.8984 3.4315 0.0000 35.6681 0.0000
# 6 0.0000 0.0000 0.0000 -28.5957 0.0000 -40.5433
#
#
#
# Elastic Compliance Matrix: (Units=1/GPa)
#
#
# Indices 1 2 3 4 5 6 
#
# 1 0.008919 0.000126 -0.004648 0.000000 0.003595 0.000000
# 2 0.000126 0.012686 -0.000037 0.000000 0.001434 0.000000
# 3 -0.004648 -0.000037 0.023150 0.000000 -0.003864 0.000000
# 4 0.000000 0.000000 0.000000 -0.046703 0.000000 0.032940
# 5 0.003595 0.001434 -0.003864 0.000000 0.029828 0.000000
# 6 0.000000 0.000000 0.000000 0.032940 0.000000 -0.047898
#
#
# Mechanical properties :
#
#
# Convention : Reuss Voigt Hill
#
# Bulk Modulus (GPa) = 28.06040 33.86422 30.96231
# Shear Modulus (GPa) = 5113.28049 6.29708 2559.78878
#
# Velocity S-wave (km/s) = 47.07137 1.65187 33.30498
# Velocity P-wave (km/s) = 54.46508 4.27931 38.63132
#
# Compressibility (1/GPa) = 0.03563741
#
# Stress axis : x y z
#
# Youngs Moduli (GPa) = 112.11736 78.82632 43.19711
#
# Poissons Ratio (x) = -0.00993 0.20076
# Poissons Ratio (y) = -0.01412 0.00160
# Poissons Ratio (z) = 0.52108 0.00293
#
# Static dielectric constant tensor:
#      x y z
#    x 1.889540 0.000000 -0.027380 
#    y 0.000000 1.856720 0.000000 
#    z -0.027380 0.000000 1.875530 
# 
# From -- ./inp_files/50290.got.cif
#   From: 2010.05.17/outbox.cif.g08.bks.cpg/sg10_26_cif.got.tgz:50290.got - 2010.06.03 11:33:40.
