data_PCOD9154373
_publ_section_title
;
Structure prediction by ZEFSAII (Michael W. Deem and Ramdas Pophale) SiO2 
 PCOD9154373
Probable space group: P 2/M
;
_chemical_formula_sum "Si O2"
_cell_formula_units_Z 32
_cell_length_a 21.400712
_cell_length_b 8.935334
_cell_length_c 15.856765
_cell_angle_alpha 90.000000
_cell_angle_beta 42.520336
_cell_angle_gamma 90.000000
_cell_volume 2049.297963
_symmetry_space_group_name_H-M "P 2/M"
_symmetry_group_IT_number 10
_symmetry_cell_setting 'monoclinic'
loop_
_space_group_symop_operation_xyz
x,y,z
-x,y,-z
-x,-y,-z
x,-y,z
loop_
_atom_site_type_symbol
_atom_site_label
_atom_site_fract_x
_atom_site_fract_y
_atom_site_fract_z
Si Si1 0.287751 0.178329 0.543817
Si Si2 0.387735 0.828132 0.114394
Si Si3 0.407447 0.819677 0.909833
Si Si4 0.105293 0.321468 0.995721
Si Si5 0.610539 0.677823 0.714102
Si Si6 0.289724 0.178370 0.861217
Si Si7 0.609941 0.677191 0.399258
Si Si8 0.106278 0.321139 0.794176
O O1 0.325415 0.247461 0.419908
O O2 0.350551 0.241180 0.557773
O O3 0.184086 0.232723 0.666903
O O4 0.293353 0.000000 0.536044
O O5 0.360398 0.727646 0.220571
O O6 0.358486 0.000000 0.157919
O O7 0.500000 0.827648 0.000000
O O8 0.361864 0.779717 0.045471
O O9 0.506181 0.739145 0.804219
O O10 0.343251 0.785398 0.894272
O O11 0.423722 0.000000 0.896074
O O12 0.116525 0.500000 0.996052
O O13 0.184343 0.233927 0.965996
O O14 0.117295 0.291948 0.883498
O O15 0.999542 0.282718 0.123117
O O16 0.611437 0.500000 0.705044
O O17 0.340169 0.258440 0.732937
O O18 0.293347 0.000000 0.845193
O O19 0.500000 0.698489 0.500000
O O20 0.629203 0.500000 0.387297
O O21 0.118337 0.500000 0.770431
#
# Coordination Sequence:
#
# PCOD9154373 Si02
#       8
#     4   4   4   4   4   4   4   4
#     4  12  23  34  50  72  97 129 165 203 245 292
#     4   8  15  31  51  69  95 130 163 200 246 289
#     4   9  19  34  50  71 102 135 165 201 244 288
#     4   9  18  33  53  72  96 128 160 201 249 291
#     4  11  21  32  49  73 100 130 166 207 244 288
#     4  11  21  32  49  74 100 129 165 202 239 287
#     4  11  23  36  48  65  95 134 170 202 238 282
#     4   9  18  34  53  72  95 126 162 202 248 292
#
# _framework density 15.615104000000001
#
# number of rings (size 3 to 8) (size 9 to 14) (size 15 to 20)
#    0.000    2.000    1.250    5.250    0.000    6.750 
#    0.000    1.250    0.000    0.000    0.000    0.875 
#    0.000    7.000    0.000    0.000    0.000    0.000 
#
# Total GULP energy -178588.093658 kJ/mol
# GULP energy per Si atom -5580.877927 kJ/mol
# Density = 1.557956 g / cm^3
# Si number density = 15.615104 Si / 1000 Ang^3
#
#
#
# Elastic Constant Matrix: (Units=GPa)
#
#
# Indices 1 2 3 4 5 6 
#
# 1 50.2073 45.6782 66.0646 0.0000 3.5574 0.0000
# 2 45.6782 87.1412 72.2708 0.0000 1.4837 0.0000
# 3 66.0646 72.2708 115.9922 0.0000 8.5463 0.0000
# 4 0.0000 0.0000 0.0000 -6.6230 0.0000 85.8274
# 5 3.5574 1.4837 8.5463 0.0000 22.9772 0.0000
# 6 0.0000 0.0000 0.0000 85.8274 0.0000 -251.1750
#
#
#
# Elastic Compliance Matrix: (Units=1/GPa)
#
#
# Indices 1 2 3 4 5 6 
#
# 1 0.082928 -0.008584 -0.042134 0.000000 0.003387 0.000000
# 2 -0.008584 0.025013 -0.010976 0.000000 0.003796 0.000000
# 3 -0.042134 -0.010976 0.040022 0.000000 -0.007654 0.000000
# 4 0.000000 0.000000 0.000000 0.044044 0.000000 0.015050
# 5 0.003387 0.003796 -0.007654 0.000000 0.045599 0.000000
# 6 0.000000 0.000000 0.000000 0.015050 0.000000 0.001161
#
#
# Mechanical properties :
#
#
# Convention : Reuss Voigt Hill
#
# Bulk Modulus (GPa) = 40.68927 69.04086 54.86506
# Shear Modulus (GPa) = 13.50088 -42.34235 -14.42073
#
# Velocity S-wave (km/s) = 2.94361 -5.21298 -3.04223
# Velocity P-wave (km/s) = 6.13737 2.84194 4.78246
#
# Compressibility (1/GPa) = 0.02457651
#
# Stress axis : x y z
#
# Youngs Moduli (GPa) = 12.05859 39.97917 24.98646
#
# Poissons Ratio (x) = 0.34316 1.05278
# Poissons Ratio (y) = 0.10351 0.27424
# Poissons Ratio (z) = 0.50808 0.43880
#
# Static dielectric constant tensor:
#      x y z
#    x 1.519320 0.000000 0.004930 
#    y 0.000000 1.519450 0.000000 
#    z 0.004930 0.000000 1.509040 
# 
# From -- ./inp_files/66148.got.cif
#   From: 2010.05.17/outbox.cif.g08.bks.cpg/sg10_34_cif.got.tgz:66148.got - 2010.06.03 11:33:40.
