data_PCOD9154162
_publ_section_title
;
Structure prediction by ZEFSAII (Michael W. Deem and Ramdas Pophale) SiO2 
 PCOD9154162
Probable space group: P 2/M
;
_chemical_formula_sum "Si O2"
_cell_formula_units_Z 15
_cell_length_a 12.004231
_cell_length_b 13.397053
_cell_length_c 5.972460
_cell_angle_alpha 90.000000
_cell_angle_beta 49.350063
_cell_angle_gamma 90.000000
_cell_volume 728.734187
_symmetry_space_group_name_H-M "P 2/M"
_symmetry_group_IT_number 10
_symmetry_cell_setting 'monoclinic'
loop_
_space_group_symop_operation_xyz
x,y,z
-x,y,-z
-x,-y,-z
x,-y,z
loop_
_atom_site_type_symbol
_atom_site_label
_atom_site_fract_x
_atom_site_fract_y
_atom_site_fract_z
Si Si1 0.081288 0.500000 0.145577
Si Si2 0.829658 0.894953 0.779130
Si Si3 0.623456 0.174917 0.669648
Si Si4 0.500000 0.000000 0.500000
Si Si5 0.837444 0.288591 0.099558
O O1 0.000000 0.500000 0.500000
O O2 0.166046 0.395251 0.016951
O O3 0.000000 0.500000 0.000000
O O4 0.745211 0.879063 0.661502
O O5 0.000000 0.902145 0.500000
O O6 0.774784 0.000000 0.958661
O O7 0.814408 0.801235 0.957165
O O8 0.553626 0.090185 0.605186
O O9 0.707666 0.266624 0.442948
O O10 0.500000 0.212913 0.000000
O O11 0.000000 0.278065 0.000000
#
# Coordination Sequence:
#
# PCOD9154162 Si02
#       5
#     2   4   4   1   4
#     4  10  24  46  79 111 147 192 247 313 376 444
#     4  11  23  40  67 105 144 180 238 307 366 436
#     4  12  26  43  66 100 150 195 243 294 363 448
#     4  12  26  48  64  98 148 216 238 286 370 452
#     4  11  24  43  72 107 141 190 244 306 366 440
#
# _framework density 20.583637
#
# number of rings (size 3 to 8) (size 9 to 14) (size 15 to 20)
#    0.000    0.800    4.000    2.800    9.333    0.533 
#    0.000    0.667    0.000    5.600    0.000    0.000 
#    0.000    0.000    0.000    0.000    0.000    0.000 
#
# Total GULP energy -83503.605766 kJ/mol
# GULP energy per Si atom -5566.907051 kJ/mol
# Density = 2.053679 g / cm^3
# Si number density = 20.583637 Si / 1000 Ang^3
#
#
#
# Elastic Constant Matrix: (Units=GPa)
#
#
# Indices 1 2 3 4 5 6 
#
# 1 113.2931 30.1018 43.2148 0.0000 13.8434 0.0000
# 2 30.1018 204.0822 88.0145 0.0000 7.2527 0.0000
# 3 43.2148 88.0145 163.9635 0.0000 -7.6296 0.0000
# 4 0.0000 0.0000 0.0000 46.0410 0.0000 2.0633
# 5 13.8434 7.2527 -7.6296 0.0000 31.1425 0.0000
# 6 0.0000 0.0000 0.0000 2.0633 0.0000 7.5267
#
#
#
# Elastic Compliance Matrix: (Units=1/GPa)
#
#
# Indices 1 2 3 4 5 6 
#
# 1 0.010669 -0.000074 -0.003026 0.000000 -0.005467 0.000000
# 2 -0.000074 0.006551 -0.003608 0.000000 -0.002377 0.000000
# 3 -0.003026 -0.003608 0.009038 0.000000 0.004400 0.000000
# 4 0.000000 0.000000 0.000000 0.021990 0.000000 -0.006028
# 5 -0.005467 -0.002377 0.004400 0.000000 0.036172 0.000000
# 6 0.000000 0.000000 0.000000 -0.006028 0.000000 0.134512
#
#
# Mechanical properties :
#
#
# Convention : Reuss Voigt Hill
#
# Bulk Modulus (GPa) = 77.87380 89.33345 83.60362
# Shear Modulus (GPa) = 21.13013 38.27590 29.70302
#
# Velocity S-wave (km/s) = 3.20746 4.31691 3.80286
# Velocity P-wave (km/s) = 7.18554 8.26692 7.74513
#
# Compressibility (1/GPa) = 0.01284129
#
# Stress axis : x y z
#
# Youngs Moduli (GPa) = 93.73147 152.64166 110.64475
#
# Poissons Ratio (x) = 0.01131 0.33487
# Poissons Ratio (y) = 0.00695 0.39918
# Poissons Ratio (z) = 0.28368 0.55069
#
# Static dielectric constant tensor:
#      x y z
#    x 1.606350 0.000000 0.093030 
#    y 0.000000 1.774580 0.000000 
#    z 0.093030 0.000000 1.602950 
# 
# From -- ./inp_files/6167.got.cif
#   From: 2010.05.17/outbox.cif.g08.bks.cpg/sg10_4_cif.got.tgz:6167.got - 2010.06.03 11:33:40.
