data_PCOD9154897
_publ_section_title
;
Structure prediction by ZEFSAII (Michael W. Deem and Ramdas Pophale) SiO2 
 PCOD9154897
Probable space group: P 2/M
;
_chemical_formula_sum "Si O2"
_cell_formula_units_Z 20
_cell_length_a 11.524588
_cell_length_b 13.808632
_cell_length_c 8.149039
_cell_angle_alpha 90.000000
_cell_angle_beta 45.000320
_cell_angle_gamma 90.000000
_cell_volume 917.001167
_symmetry_space_group_name_H-M "P 2/M"
_symmetry_group_IT_number 10
_symmetry_cell_setting 'monoclinic'
loop_
_space_group_symop_operation_xyz
x,y,z
-x,y,-z
-x,-y,-z
x,-y,z
loop_
_atom_site_type_symbol
_atom_site_label
_atom_site_fract_x
_atom_site_fract_y
_atom_site_fract_z
Si Si1 0.236181 0.790731 0.177633
Si Si2 0.408673 0.000000 0.354689
Si Si3 0.084690 0.606205 0.179025
Si Si4 0.763357 0.000000 0.827973
Si Si5 0.586185 0.209269 0.649993
Si Si6 0.263712 0.393795 0.651596
O O1 0.154168 0.895905 0.226321
O O2 0.400242 0.787144 0.901461
O O3 0.129838 0.697994 0.241492
O O4 0.301709 0.787145 0.298048
O O5 0.380487 0.104095 0.465349
O O6 0.596557 0.000000 0.102616
O O7 0.300840 0.000000 0.295713
O O8 0.112974 0.500000 0.228002
O O9 0.899263 0.610543 0.298549
O O10 0.197802 0.610542 0.902932
O O11 0.628673 0.302006 0.501162
O O12 0.340973 0.500000 0.546052
#
# Coordination Sequence:
#
# PCOD9154897 Si02
#       6
#     4   2   4   2   4   4
#     4   9  17  30  50  74  96 119 151 190 229 272
#     4   7  12  26  46  67  94 124 148 177 224 275
#     4   9  19  35  50  64  89 126 161 191 228 274
#     4   7  12  26  46  67  94 124 148 177 224 275
#     4   9  17  30  50  74  96 119 151 190 229 272
#     4   9  19  35  50  64  89 126 161 191 228 274
#
# _framework density 21.810224000000002
#
# number of rings (size 3 to 8) (size 9 to 14) (size 15 to 20)
#    0.000    3.400    0.000    3.600    0.000    3.200 
#    0.000    8.000    0.000    9.600    0.000    0.000 
#    0.000    0.000    0.000    0.000    0.000    0.000 
#
# Total GULP energy -111651.892498 kJ/mol
# GULP energy per Si atom -5582.594625 kJ/mol
# Density = 2.176058 g / cm^3
# Si number density = 21.810224 Si / 1000 Ang^3
#
#
#
# Elastic Constant Matrix: (Units=GPa)
#
#
# Indices 1 2 3 4 5 6 
#
# 1 64.2199 62.8960 3.5394 0.0000 7.0650 0.0000
# 2 62.8960 283.2915 62.8947 0.0000 -0.0024 0.0000
# 3 3.5394 62.8947 64.2210 0.0000 -7.0651 0.0000
# 4 0.0000 0.0000 0.0000 224.0704 0.0000 0.0185
# 5 7.0650 -0.0024 -7.0651 0.0000 9.0432 0.0000
# 6 0.0000 0.0000 0.0000 0.0185 0.0000 224.0200
#
#
#
# Elastic Compliance Matrix: (Units=1/GPa)
#
#
# Indices 1 2 3 4 5 6 
#
# 1 0.022626 -0.005574 0.002480 0.000000 -0.015740 0.000000
# 2 -0.005574 0.006005 -0.005573 0.000000 0.000002 0.000000
# 3 0.002480 -0.005573 0.022624 0.000000 0.015736 0.000000
# 4 0.000000 0.000000 0.000000 0.004463 0.000000 0.000000
# 5 -0.015740 0.000002 0.015736 0.000000 0.135171 0.000000
# 6 0.000000 0.000000 0.000000 0.000000 0.000000 0.004464
#
#
# Mechanical properties :
#
#
# Convention : Reuss Voigt Hill
#
# Bulk Modulus (GPa) = 29.48090 74.48807 51.98448
# Shear Modulus (GPa) = 22.32208 110.25353 66.28781
#
# Velocity S-wave (km/s) = 3.20264 7.11766 5.51897
# Velocity P-wave (km/s) = 5.21749 10.08836 8.03110
#
# Compressibility (1/GPa) = 0.03392027
#
# Stress axis : x y z
#
# Youngs Moduli (GPa) = 44.19771 166.53152 44.20086
#
# Poissons Ratio (x) = 0.92827 -0.10964
# Poissons Ratio (y) = 0.24636 0.24635
# Poissons Ratio (z) = -0.10963 0.92815
#
# Static dielectric constant tensor:
#      x y z
#    x 1.784300 0.000000 0.000010 
#    y 0.000000 1.837790 0.000000 
#    z 0.000010 0.000000 1.784300 
# 
# From -- ./inp_files/18636.got.cif
#   From: 2010.05.17/outbox.cif.g08.bks.cpg/sg10_10_cif.got.tgz:18636.got - 2010.06.03 11:33:40.
