data_PCOD9154284
_publ_section_title
;
Structure prediction by ZEFSAII (Michael W. Deem and Ramdas Pophale) SiO2 
 PCOD9154284
Probable space group: P 2/M
;
_chemical_formula_sum "Si O2"
_cell_formula_units_Z 28
_cell_length_a 9.868170
_cell_length_b 13.986581
_cell_length_c 22.425749
_cell_angle_alpha 90.000000
_cell_angle_beta 29.679921
_cell_angle_gamma 90.000000
_cell_volume 1532.624058
_symmetry_space_group_name_H-M "P 2/M"
_symmetry_group_IT_number 10
_symmetry_cell_setting 'monoclinic'
loop_
_space_group_symop_operation_xyz
x,y,z
-x,y,-z
-x,-y,-z
x,-y,z
loop_
_atom_site_type_symbol
_atom_site_label
_atom_site_fract_x
_atom_site_fract_y
_atom_site_fract_z
Si Si1 0.318204 0.391859 0.863448
Si Si2 0.860064 0.889785 0.148444
Si Si3 0.436939 0.889690 0.866408
Si Si4 0.142678 0.386123 0.510412
Si Si5 0.301913 0.302215 0.743593
Si Si6 0.812830 0.612913 0.861568
Si Si7 0.225562 0.294440 0.245960
O O1 0.401707 0.500000 0.817217
O O2 0.368445 0.328397 0.786543
O O3 0.494155 0.353977 0.850751
O O4 0.000000 0.389097 0.000000
O O5 0.682069 0.883099 0.155471
O O6 0.754919 0.810809 0.234588
O O7 0.847061 0.000000 0.173533
O O8 0.173303 0.868127 0.009038
O O9 0.678583 0.814854 0.784616
O O10 0.515842 0.000000 0.846355
O O11 0.155003 0.500000 0.518252
O O12 0.444080 0.340704 0.391225
O O13 0.000000 0.374907 0.500000
O O14 0.970705 0.331364 0.626544
O O15 0.028428 0.358195 0.829687
O O16 0.836643 0.500000 0.839253
O O17 0.883287 0.675678 0.776681
O O18 0.500000 0.632000 0.000000
#
# Coordination Sequence:
#
# PCOD9154284 Si02
#       7
#     4   4   4   4   4   4   4
#     4  11  20  31  54  82 105 139 189 240 290 342
#     4   9  17  32  57  87 114 143 189 249 305 351
#     4   9  17  32  57  87 114 143 189 249 305 351
#     4  11  22  37  58  84 115 154 203 248 281 337
#     4  12  22  37  57  81 117 155 193 238 289 345
#     4  11  24  39  56  84 121 155 191 242 300 356
#     4  12  22  37  57  81 117 155 193 238 289 345
#
# _framework density 18.26932
#
# number of rings (size 3 to 8) (size 9 to 14) (size 15 to 20)
#    0.000    1.286    2.857    6.000    0.000    2.857 
#    0.000    2.857    0.000    5.143    0.000    2.000 
#    0.000    0.000    0.000    0.000    0.000    0.000 
#
# Total GULP energy -156399.620589 kJ/mol
# GULP energy per Si atom -5585.700735 kJ/mol
# Density = 1.822774 g / cm^3
# Si number density = 18.269320 Si / 1000 Ang^3
#
#
#
# Elastic Constant Matrix: (Units=GPa)
#
#
# Indices 1 2 3 4 5 6 
#
# 1 24.5770 7.9819 11.3529 0.0000 -0.4406 0.0000
# 2 7.9819 134.2578 59.8296 0.0000 2.1139 0.0000
# 3 11.3529 59.8296 83.7523 0.0000 -4.8774 0.0000
# 4 0.0000 0.0000 0.0000 23.7146 0.0000 5.4718
# 5 -0.4406 2.1139 -4.8774 0.0000 23.7561 0.0000
# 6 0.0000 0.0000 0.0000 5.4718 0.0000 11.1336
#
#
#
# Elastic Compliance Matrix: (Units=1/GPa)
#
#
# Indices 1 2 3 4 5 6 
#
# 1 0.043411 0.000087 -0.005972 0.000000 -0.000429 0.000000
# 2 0.000087 0.011089 -0.008087 0.000000 -0.002646 0.000000
# 3 -0.005972 -0.008087 0.018787 0.000000 0.004466 0.000000
# 4 0.000000 0.000000 0.000000 0.047562 0.000000 -0.023375
# 5 -0.000429 -0.002646 0.004466 0.000000 0.043239 0.000000
# 6 0.000000 0.000000 0.000000 -0.023375 0.000000 0.101307
#
#
# Mechanical properties :
#
#
# Convention : Reuss Voigt Hill
#
# Bulk Modulus (GPa) = 22.05419 44.54620 33.30019
# Shear Modulus (GPa) = 16.20998 22.61570 19.41284
#
# Velocity S-wave (km/s) = 2.98195 3.52221 3.26328
# Velocity P-wave (km/s) = 4.89428 6.40135 5.69786
#
# Compressibility (1/GPa) = 0.04534286
#
# Stress axis : x y z
#
# Youngs Moduli (GPa) = 23.03560 90.18113 53.22882
#
# Poissons Ratio (x) = -0.00785 0.31786
# Poissons Ratio (y) = -0.00201 0.43048
# Poissons Ratio (z) = 0.13756 0.72932
#
# Static dielectric constant tensor:
#      x y z
#    x 1.597550 0.000000 -0.004360 
#    y 0.000000 1.637850 0.000000 
#    z -0.004360 0.000000 1.631640 
# 
# From -- ./inp_files/82897.got.cif
#   From: 2010.05.17/outbox.cif.g08.bks.cpg/sg10_42_cif.got.tgz:82897.got - 2010.06.03 11:33:40.
