data_PCOD9154788
_publ_section_title
;
Structure prediction by ZEFSAII (Michael W. Deem and Ramdas Pophale) SiO2 
 PCOD9154788
Probable space group: P 2/M
;
_chemical_formula_sum "Si O2"
_cell_formula_units_Z 20
_cell_length_a 18.141383
_cell_length_b 11.433180
_cell_length_c 5.148690
_cell_angle_alpha 90.000000
_cell_angle_beta 106.369702
_cell_angle_gamma 90.000000
_cell_volume 1024.619161
_symmetry_space_group_name_H-M "P 2/M"
_symmetry_group_IT_number 10
_symmetry_cell_setting 'monoclinic'
loop_
_space_group_symop_operation_xyz
x,y,z
-x,y,-z
-x,-y,-z
x,-y,z
loop_
_atom_site_type_symbol
_atom_site_label
_atom_site_fract_x
_atom_site_fract_y
_atom_site_fract_z
Si Si1 0.165781 0.639672 0.229225
Si Si2 0.411408 0.638442 0.992879
Si Si3 0.665713 0.742879 0.589378
Si Si4 0.089192 0.748826 0.658755
Si Si5 0.166833 0.000000 0.751202
Si Si6 0.723134 0.000000 0.639861
O O1 0.168429 0.500000 0.231501
O O2 0.250204 0.691760 0.260793
O O3 0.137302 0.687317 0.477618
O O4 0.109567 0.686636 0.949393
O O5 0.395650 0.500000 0.000558
O O6 0.360039 0.692801 0.713420
O O7 0.500000 0.653051 0.000000
O O8 0.391720 0.699462 0.244698
O O9 0.673415 0.882360 0.588117
O O10 0.115849 0.883382 0.702692
O O11 0.000000 0.740733 0.500000
O O12 0.220408 0.000000 0.550762
O O13 0.222888 0.000000 0.053787
#
# Coordination Sequence:
#
# PCOD9154788 Si02
#       6
#     4   4   4   4   2   2
#     4  12  25  42  65  94 130 171 216 263 321 386
#     4  11  24  43  69 100 134 169 207 258 316 376
#     4  12  23  44  67  97 129 169 218 262 312 379
#     4  12  25  42  65  94 128 168 218 270 324 380
#     4  12  21  46  64  92 125 166 218 274 315 376
#     4  12  24  42  70  92 128 166 214 270 318 368
#
# _framework density 19.519448000000001
#
# number of rings (size 3 to 8) (size 9 to 14) (size 15 to 20)
#    0.000    0.200    4.000    6.300    0.000    4.000 
#    0.000    6.000    0.000    0.000    0.000    0.000 
#    0.000    0.000    0.000    0.000    0.000    0.000 
#
# Total GULP energy -112017.071543 kJ/mol
# GULP energy per Si atom -5600.853577 kJ/mol
# Density = 1.947502 g / cm^3
# Si number density = 19.519448 Si / 1000 Ang^3
#
#
#
# Elastic Constant Matrix: (Units=GPa)
#
#
# Indices 1 2 3 4 5 6 
#
# 1 44.8817 21.1430 -18.6169 0.0000 -1.8669 0.0000
# 2 21.1430 159.8043 -3.3246 0.0000 8.3448 0.0000
# 3 -18.6169 -3.3246 68.2031 0.0000 -1.5416 0.0000
# 4 0.0000 0.0000 0.0000 -23.4279 0.0000 145.1335
# 5 -1.8669 8.3448 -1.5416 0.0000 36.1525 0.0000
# 6 0.0000 0.0000 0.0000 145.1335 0.0000 -250.6657
#
#
#
# Elastic Compliance Matrix: (Units=1/GPa)
#
#
# Indices 1 2 3 4 5 6 
#
# 1 0.027083 -0.003564 0.007276 0.000000 0.002532 0.000000
# 2 -0.003564 0.006808 -0.000681 0.000000 -0.001785 0.000000
# 3 0.007276 -0.000681 0.016643 0.000000 0.001243 0.000000
# 4 0.000000 0.000000 0.000000 0.016501 0.000000 0.009554
# 5 0.002532 -0.001785 0.001243 0.000000 0.028256 0.000000
# 6 0.000000 0.000000 0.000000 0.009554 0.000000 0.001542
#
#
# Mechanical properties :
#
#
# Convention : Reuss Voigt Hill
#
# Bulk Modulus (GPa) = 17.66908 30.14359 23.90633
# Shear Modulus (GPa) = 45.60484 -29.34237 8.13123
#
# Velocity S-wave (km/s) = 4.83885 -3.88137 2.04322
# Velocity P-wave (km/s) = 6.34752 2.14716 4.22379
#
# Compressibility (1/GPa) = 0.05659603
#
# Stress axis : x y z
#
# Youngs Moduli (GPa) = 36.92327 146.88133 60.08500
#
# Poissons Ratio (x) = 0.52350 -0.43719
# Poissons Ratio (y) = 0.13160 0.04094
# Poissons Ratio (z) = -0.26866 0.10007
#
# Static dielectric constant tensor:
#      x y z
#    x 1.659450 0.000000 0.000090 
#    y 0.000000 1.653360 0.000000 
#    z 0.000090 0.000000 1.656140 
# 
# From -- ./inp_files/10850.got.cif
#   From: 2010.05.17/outbox.cif.g08.bks.cpg/sg10_6_cif.got.tgz:10850.got - 2010.06.03 11:33:40.
