data_PCOD9154721
_publ_section_title
;
Structure prediction by ZEFSAII (Michael W. Deem and Ramdas Pophale) SiO2 
 PCOD9154721
Probable space group: P 2/M
;
_chemical_formula_sum "Si O2"
_cell_formula_units_Z 20
_cell_length_a 8.699025
_cell_length_b 13.896900
_cell_length_c 7.211225
_cell_angle_alpha 90.000000
_cell_angle_beta 93.968809
_cell_angle_gamma 90.000000
_cell_volume 869.670653
_symmetry_space_group_name_H-M "P 2/M"
_symmetry_group_IT_number 10
_symmetry_cell_setting 'monoclinic'
loop_
_space_group_symop_operation_xyz
x,y,z
-x,y,-z
-x,-y,-z
x,-y,z
loop_
_atom_site_type_symbol
_atom_site_label
_atom_site_fract_x
_atom_site_fract_y
_atom_site_fract_z
Si Si1 0.602387 0.500000 0.301611
Si Si2 0.385322 0.165799 0.859627
Si Si3 0.580157 0.000000 0.700341
Si Si4 0.819689 0.000000 0.977402
Si Si5 0.263260 0.500000 0.100044
Si Si6 0.233708 0.310916 0.570553
Si Si7 0.937292 0.683950 0.802446
O O1 0.422894 0.500000 0.228657
O O2 0.660238 0.405484 0.415900
O O3 0.690070 0.500000 0.111006
O O4 0.510939 0.091790 0.795565
O O5 0.318045 0.227942 0.690103
O O6 0.500000 0.229348 0.000000
O O7 0.252565 0.095890 0.932175
O O8 0.500000 0.000000 0.500000
O O9 0.759706 0.000000 0.759240
O O10 0.000000 0.000000 0.000000
O O11 0.156844 0.591406 0.136426
O O12 0.819994 0.273811 0.636948
O O13 0.085242 0.336838 0.686097
O O14 0.000000 0.731660 0.000000
#
# Coordination Sequence:
#
# PCOD9154721 Si02
#       7
#     2   4   2   2   2   4   4
#     4  11  24  41  64  94 133 172 226 267 329 387
#     4   9  21  43  69  94 135 166 215 272 330 388
#     4   9  19  45  68  96 130 176 211 264 333 401
#     4   9  19  43  72 102 129 172 215 275 334 397
#     4  11  23  42  65  88 126 180 222 281 324 386
#     4  11  24  42  66  96 129 176 219 272 325 396
#     4  11  23  43  62  87 131 173 222 273 330 378
#
# _framework density 22.997212000000001
#
# number of rings (size 3 to 8) (size 9 to 14) (size 15 to 20)
#    0.000    1.800    2.000    2.700    2.800    4.000 
#   18.000    1.000    0.000    0.000    0.000    2.100 
#    0.000    0.000    0.000    0.000    0.000    0.000 
#
# Total GULP energy -111606.037183 kJ/mol
# GULP energy per Si atom -5580.301859 kJ/mol
# Density = 2.294487 g / cm^3
# Si number density = 22.997212 Si / 1000 Ang^3
#
#
#
# Elastic Constant Matrix: (Units=GPa)
#
#
# Indices 1 2 3 4 5 6 
#
# 1 160.8441 44.3299 61.9980 0.0000 44.2009 0.0000
# 2 44.3299 76.6447 26.9356 0.0000 24.6386 0.0000
# 3 61.9980 26.9356 157.6858 0.0000 46.9796 0.0000
# 4 0.0000 0.0000 0.0000 5.0348 0.0000 23.7551
# 5 44.2009 24.6386 46.9796 0.0000 60.0895 0.0000
# 6 0.0000 0.0000 0.0000 23.7551 0.0000 -5.2923
#
#
#
# Elastic Compliance Matrix: (Units=1/GPa)
#
#
# Indices 1 2 3 4 5 6 
#
# 1 0.008846 -0.003276 -0.001799 0.000000 -0.003757 0.000000
# 2 -0.003276 0.016352 -0.000294 0.000000 -0.004065 0.000000
# 3 -0.001799 -0.000294 0.008694 0.000000 -0.005354 0.000000
# 4 0.000000 0.000000 0.000000 0.008956 0.000000 0.040198
# 5 -0.003757 -0.004065 -0.005354 0.000000 0.025258 0.000000
# 6 0.000000 0.000000 0.000000 0.040198 0.000000 -0.008520
#
#
# Mechanical properties :
#
#
# Convention : Reuss Voigt Hill
#
# Bulk Modulus (GPa) = 43.18930 73.52239 58.35584
# Shear Modulus (GPa) = 64.06726 29.42716 46.74721
#
# Velocity S-wave (km/s) = 5.28386 3.58103 4.51348
# Velocity P-wave (km/s) = 7.48643 7.00984 7.25205
#
# Compressibility (1/GPa) = 0.02315389
#
# Stress axis : x y z
#
# Youngs Moduli (GPa) = 113.04389 61.15345 115.01840
#
# Poissons Ratio (x) = 0.20036 0.20692
# Poissons Ratio (y) = 0.37038 0.03381
# Poissons Ratio (z) = 0.20337 0.01798
#
# Static dielectric constant tensor:
#      x y z
#    x 1.967970 0.000000 0.213130 
#    y 0.000000 1.834460 0.000000 
#    z 0.213130 0.000000 2.235010 
# 
# From -- ./inp_files/18581.got.cif
#   From: 2010.05.17/outbox.cif.g08.bks.cpg/sg10_10_cif.got.tgz:18581.got - 2010.06.03 11:33:40.
