data_PCOD9154587
_publ_section_title
;
Structure prediction by ZEFSAII (Michael W. Deem and Ramdas Pophale) SiO2 
 PCOD9154587
Probable space group: P 2/M
;
_chemical_formula_sum "Si O2"
_cell_formula_units_Z 24
_cell_length_a 19.026742
_cell_length_b 11.655000
_cell_length_c 18.672864
_cell_angle_alpha 90.000000
_cell_angle_beta 15.890929
_cell_angle_gamma 90.000000
_cell_volume 1133.788674
_symmetry_space_group_name_H-M "P 2/M"
_symmetry_group_IT_number 10
_symmetry_cell_setting 'monoclinic'
loop_
_space_group_symop_operation_xyz
x,y,z
-x,y,-z
-x,-y,-z
x,-y,z
loop_
_atom_site_type_symbol
_atom_site_label
_atom_site_fract_x
_atom_site_fract_y
_atom_site_fract_z
Si Si1 0.123347 0.870198 0.596496
Si Si2 0.464297 0.864650 0.695412
Si Si3 0.945869 0.140055 0.134274
Si Si4 0.507846 0.337198 0.074056
Si Si5 0.976278 0.625434 0.345685
Si Si6 0.786042 0.872037 0.657976
O O1 0.410101 0.856986 0.348956
O O2 0.108183 0.880067 0.526168
O O3 0.015887 0.740328 0.710740
O O4 0.035398 0.000000 0.709968
O O5 0.182391 0.822540 0.952722
O O6 0.448644 0.000000 0.695889
O O7 0.680519 0.818644 0.428990
O O8 0.932778 0.000000 0.146071
O O9 0.000000 0.175934 0.000000
O O10 0.470746 0.200302 0.101385
O O11 0.266674 0.368501 0.361335
O O12 0.500000 0.380015 0.000000
O O13 0.767473 0.370005 0.858034
O O14 0.964039 0.500000 0.321277
O O15 0.000000 0.815585 0.500000
O O16 0.743271 0.000000 0.726395
#
# Coordination Sequence:
#
# PCOD9154587 Si02
#       6
#     4   4   4   4   4   4
#     4   9  19  36  56  78 107 141 179 223 268 316
#     4   9  17  28  45  70  99 134 171 206 251 306
#     4   9  16  27  44  69 103 137 166 201 250 308
#     4  11  22  37  56  77 101 132 175 225 278 329
#     4  11  24  39  56  78 105 137 175 221 270 323
#     4   9  18  34  55  79 108 143 183 227 274 321
#
# _framework density 21.167966
#
# number of rings (size 3 to 8) (size 9 to 14) (size 15 to 20)
#    0.000    2.333    0.000    3.500    0.000    7.667 
#    0.000    5.000    0.000    0.000    0.000    0.000 
#    0.000    4.000    0.000    0.000    0.000    0.000 
#
# Total GULP energy -133655.757584 kJ/mol
# GULP energy per Si atom -5568.989899 kJ/mol
# Density = 2.111979 g / cm^3
# Si number density = 21.167966 Si / 1000 Ang^3
#
#
#
# Elastic Constant Matrix: (Units=GPa)
#
#
# Indices 1 2 3 4 5 6 
#
# 1 87.8686 14.2040 25.5991 0.0000 5.0880 0.0000
# 2 14.2040 139.1248 16.2940 0.0000 -11.6751 0.0000
# 3 25.5991 16.2940 106.2026 0.0000 -4.6667 0.0000
# 4 0.0000 0.0000 0.0000 734.4033 0.0000 -541.7697
# 5 5.0880 -11.6751 -4.6667 0.0000 28.7517 0.0000
# 6 0.0000 0.0000 0.0000 -541.7697 0.0000 400.3354
#
#
#
# Elastic Compliance Matrix: (Units=1/GPa)
#
#
# Indices 1 2 3 4 5 6 
#
# 1 0.012637 -0.001208 -0.003002 0.000000 -0.003214 0.000000
# 2 -0.001208 0.007667 -0.000744 0.000000 0.003206 0.000000
# 3 -0.003002 -0.000744 0.010337 0.000000 0.001907 0.000000
# 4 0.000000 0.000000 0.000000 0.811652 0.000000 1.098400
# 5 -0.003214 0.003206 0.001907 0.000000 0.036961 0.000000
# 6 0.000000 0.000000 0.000000 1.098400 0.000000 1.488951
#
#
# Mechanical properties :
#
#
# Convention : Reuss Voigt Hill
#
# Bulk Modulus (GPa) = 48.23252 49.48779 48.86015
# Shear Modulus (GPa) = 2.09641 251.17135 126.63388
#
# Velocity S-wave (km/s) = 0.99625 10.90477 7.74295
# Velocity P-wave (km/s) = 4.91512 13.49004 10.15233
#
# Compressibility (1/GPa) = 0.02073290
#
# Stress axis : x y z
#
# Youngs Moduli (GPa) = 79.13532 130.42244 96.73535
#
# Poissons Ratio (x) = 0.15759 0.29038
# Poissons Ratio (y) = 0.09562 0.07199
# Poissons Ratio (z) = 0.23755 0.09706
#
# Static dielectric constant tensor:
#      x y z
#    x 1.777230 0.000000 0.034710 
#    y 0.000000 1.840730 0.000000 
#    z 0.034710 0.000000 1.854260 
# 
# From -- ./inp_files/78981.got.cif
#   From: 2010.05.17/outbox.cif.g08.bks.cpg/sg10_40_cif.got.tgz:78981.got - 2010.06.03 11:33:40.
