data_PCOD9154506
_publ_section_title
;
Structure prediction by ZEFSAII (Michael W. Deem and Ramdas Pophale) SiO2 
 PCOD9154506
Probable space group: P 2/M
;
_chemical_formula_sum "Si O2"
_cell_formula_units_Z 28
_cell_length_a 31.062643
_cell_length_b 7.616967
_cell_length_c 10.321923
_cell_angle_alpha 90.000000
_cell_angle_beta 142.607727
_cell_angle_gamma 90.000000
_cell_volume 1483.071162
_symmetry_space_group_name_H-M "P 2/M"
_symmetry_group_IT_number 10
_symmetry_cell_setting 'monoclinic'
loop_
_space_group_symop_operation_xyz
x,y,z
-x,y,-z
-x,-y,-z
x,-y,z
loop_
_atom_site_type_symbol
_atom_site_label
_atom_site_fract_x
_atom_site_fract_y
_atom_site_fract_z
Si Si1 0.591275 0.712486 0.590631
Si Si2 0.252244 0.796294 0.103304
Si Si3 0.185627 0.701673 0.672641
Si Si4 0.921122 0.000000 0.648850
Si Si5 0.564689 0.285942 0.825785
Si Si6 0.295714 0.712760 0.710655
Si Si7 0.193960 0.702218 0.239665
Si Si8 0.086100 0.000000 0.056145
O O1 0.594104 0.500000 0.593258
O O2 0.662768 0.780400 0.698322
O O3 0.516590 0.770009 0.349819
O O4 0.587383 0.762527 0.733426
O O5 0.220843 0.712599 0.157376
O O6 0.232135 0.000000 0.054614
O O7 0.221462 0.712755 0.898872
O O8 0.166600 0.500000 0.598700
O O9 0.243901 0.760149 0.705622
O O10 0.119253 0.830187 0.502606
O O11 0.912243 0.000000 0.783465
O O12 0.004369 0.000000 0.818869
O O13 0.563809 0.500000 0.826111
O O14 0.625123 0.223806 0.068579
O O15 0.299680 0.500000 0.718821
O O16 0.257307 0.764877 0.486601
O O17 0.177004 0.500000 0.232517
O O18 0.128134 0.829833 0.106388
#
# Coordination Sequence:
#
# PCOD9154506 Si02
#       8
#     4   4   4   2   4   4   4   2
#     4   9  16  29  52  82 116 154 197 248 305 354
#     4  12  23  37  59  85 122 162 203 255 305 353
#     4  11  21  38  63  93 122 156 205 246 290 355
#     4  11  24  41  67  99 128 154 189 244 301 350
#     4   8  14  27  51  83 116 151 197 253 300 347
#     4   9  17  32  59  87 114 155 206 246 290 353
#     4  11  23  41  63  88 121 164 204 244 299 360
#     4  11  24  43  65  97 130 155 192 240 297 365
#
# _framework density 18.879740000000002
#
# number of rings (size 3 to 8) (size 9 to 14) (size 15 to 20)
#    0.000    1.857    4.286    2.143    0.000    0.571 
#    0.000    5.000    3.143    6.000    0.000    0.000 
#    0.000    0.000    0.000    0.000    0.000    0.000 
#
# Total GULP energy -156335.296024 kJ/mol
# GULP energy per Si atom -5583.403429 kJ/mol
# Density = 1.883677 g / cm^3
# Si number density = 18.879740 Si / 1000 Ang^3
#
#
#
# Elastic Constant Matrix: (Units=GPa)
#
#
# Indices 1 2 3 4 5 6 
#
# 1 81.2575 16.8322 48.6226 0.0000 9.3698 0.0000
# 2 16.8322 82.3457 24.5468 0.0000 15.1989 0.0000
# 3 48.6226 24.5468 111.5850 0.0000 19.1825 0.0000
# 4 0.0000 0.0000 0.0000 20.2572 0.0000 4.1222
# 5 9.3698 15.1989 19.1825 0.0000 37.7643 0.0000
# 6 0.0000 0.0000 0.0000 4.1222 0.0000 23.4049
#
#
#
# Elastic Compliance Matrix: (Units=1/GPa)
#
#
# Indices 1 2 3 4 5 6 
#
# 1 0.016784 -0.001329 -0.007009 0.000000 -0.000069 0.000000
# 2 -0.001329 0.013720 -0.001695 0.000000 -0.004331 0.000000
# 3 -0.007009 -0.001695 0.013118 0.000000 -0.004242 0.000000
# 4 0.000000 0.000000 0.000000 0.051200 0.000000 -0.009018
# 5 -0.000069 -0.004331 -0.004242 0.000000 0.030395 0.000000
# 6 0.000000 0.000000 0.000000 -0.009018 0.000000 0.044314
#
#
# Mechanical properties :
#
#
# Convention : Reuss Voigt Hill
#
# Bulk Modulus (GPa) = 42.45011 50.57681 46.51346
# Shear Modulus (GPa) = 25.32291 28.63106 26.97699
#
# Velocity S-wave (km/s) = 3.66631 3.89845 3.78416
# Velocity P-wave (km/s) = 6.36049 6.86374 6.61690
#
# Compressibility (1/GPa) = 0.02355706
#
# Stress axis : x y z
#
# Youngs Moduli (GPa) = 59.58056 72.88554 76.23015
#
# Poissons Ratio (x) = 0.09683 0.53433
# Poissons Ratio (y) = 0.07916 0.12918
# Poissons Ratio (z) = 0.41762 0.12352
#
# Static dielectric constant tensor:
#      x y z
#    x 1.617120 0.000000 0.001560 
#    y 0.000000 1.688000 0.000000 
#    z 0.001560 0.000000 1.656080 
# 
# From -- ./inp_files/38071.got.cif
#   From: 2010.05.17/outbox.cif.g08.bks.cpg/sg10_20_cif.got.tgz:38071.got - 2010.06.03 11:33:40.
