data_PCOD9154442
_publ_section_title
;
Structure prediction by ZEFSAII (Michael W. Deem and Ramdas Pophale) SiO2 
 PCOD9154442
Probable space group: P 2/M
;
_chemical_formula_sum "Si O2"
_cell_formula_units_Z 20
_cell_length_a 12.309534
_cell_length_b 16.512638
_cell_length_c 5.028138
_cell_angle_alpha 90.000000
_cell_angle_beta 98.451816
_cell_angle_gamma 90.000000
_cell_volume 1010.934331
_symmetry_space_group_name_H-M "P 2/M"
_symmetry_group_IT_number 10
_symmetry_cell_setting 'monoclinic'
loop_
_space_group_symop_operation_xyz
x,y,z
-x,y,-z
-x,-y,-z
x,-y,z
loop_
_atom_site_type_symbol
_atom_site_label
_atom_site_fract_x
_atom_site_fract_y
_atom_site_fract_z
Si Si1 0.686718 0.091815 0.489430
Si Si2 0.621408 0.806531 0.955369
Si Si3 0.073521 0.860516 0.264986
Si Si4 0.809795 0.306793 0.827115
Si Si5 0.126402 0.405113 0.638299
O O1 0.618853 0.131556 0.706152
O O2 0.813207 0.094057 0.632535
O O3 0.653065 0.000000 0.420413
O O4 0.676702 0.147336 0.224605
O O5 0.696413 0.732195 0.887986
O O6 0.500000 0.782764 0.000000
O O7 0.112119 0.770327 0.196939
O O8 0.000000 0.857178 0.500000
O O9 0.000000 0.894796 0.000000
O O10 0.802270 0.356534 0.552046
O O11 0.858207 0.364247 0.071209
O O12 0.153712 0.500000 0.656395
O O13 0.000000 0.397427 0.500000
#
# Coordination Sequence:
#
# PCOD9154442 Si02
#       5
#     4   4   4   4   4
#     4  11  24  39  57  86 117 147 191 241 290 343
#     4  11  24  41  62  84 108 149 198 244 292 332
#     4  11  21  35  57  83 115 156 193 227 277 341
#     4  11  21  37  58  81 114 148 189 234 272 334
#     4  11  22  35  57  89 120 149 179 220 279 338
#
# _framework density 19.783681000000001
#
# number of rings (size 3 to 8) (size 9 to 14) (size 15 to 20)
#    0.000    1.000    0.000   10.200    0.000    4.800 
#    0.000    0.000    0.000    3.600    0.000    0.000 
#    0.000    0.000    0.000    0.000    0.000    0.000 
#
# Total GULP energy -111940.139632 kJ/mol
# GULP energy per Si atom -5597.006982 kJ/mol
# Density = 1.973865 g / cm^3
# Si number density = 19.783681 Si / 1000 Ang^3
#
#
#
# Elastic Constant Matrix: (Units=GPa)
#
#
# Indices 1 2 3 4 5 6 
#
# 1 99.0345 9.8238 14.2200 0.0000 -21.6395 0.0000
# 2 9.8238 84.6898 12.1728 0.0000 -8.8792 0.0000
# 3 14.2200 12.1728 105.8151 0.0000 -14.8605 0.0000
# 4 0.0000 0.0000 0.0000 3.4280 0.0000 -7.9821
# 5 -21.6395 -8.8792 -14.8605 0.0000 36.3459 0.0000
# 6 0.0000 0.0000 0.0000 -7.9821 0.0000 -2.4427
#
#
#
# Elastic Compliance Matrix: (Units=1/GPa)
#
#
# Indices 1 2 3 4 5 6 
#
# 1 0.011674 -0.000582 -0.000579 0.000000 0.006572 0.000000
# 2 -0.000582 0.012256 -0.001018 0.000000 0.002231 0.000000
# 3 -0.000579 -0.001018 0.010145 0.000000 0.003554 0.000000
# 4 0.000000 0.000000 0.000000 0.033885 0.000000 -0.110728
# 5 0.006572 0.002231 0.003554 0.000000 0.033424 0.000000
# 6 0.000000 0.000000 0.000000 -0.110728 0.000000 -0.047553
#
#
# Mechanical properties :
#
#
# Convention : Reuss Voigt Hill
#
# Bulk Modulus (GPa) = 33.65200 40.21916 36.93558
# Shear Modulus (GPa) = 73.42645 24.35441 48.89043
#
# Velocity S-wave (km/s) = 6.09879 3.51242 4.97656
# Velocity P-wave (km/s) = 8.16337 6.06820 7.19248
#
# Compressibility (1/GPa) = 0.02971592
#
# Stress axis : x y z
#
# Youngs Moduli (GPa) = 85.65818 81.59539 98.57507
#
# Poissons Ratio (x) = 0.04749 0.05707
# Poissons Ratio (y) = 0.04985 0.10038
# Poissons Ratio (z) = 0.04959 0.08309
#
# Static dielectric constant tensor:
#      x y z
#    x 1.701770 0.000000 0.009180 
#    y 0.000000 1.677550 0.000000 
#    z 0.009180 0.000000 1.689440 
# 
# From -- ./inp_files/6776.got.cif
#   From: 2010.05.17/outbox.cif.g08.bks.cpg/sg10_4_cif.got.tgz:6776.got - 2010.06.03 11:33:40.
