data_PCOD9154329
_publ_section_title
;
Structure prediction by ZEFSAII (Michael W. Deem and Ramdas Pophale) SiO2 
 PCOD9154329
Probable space group: P 2/M
;
_chemical_formula_sum "Si O2"
_cell_formula_units_Z 32
_cell_length_a 8.561438
_cell_length_b 15.460735
_cell_length_c 21.734546
_cell_angle_alpha 90.000000
_cell_angle_beta 30.289930
_cell_angle_gamma 90.000000
_cell_volume 1451.047825
_symmetry_space_group_name_H-M "P 2/M"
_symmetry_group_IT_number 10
_symmetry_cell_setting 'monoclinic'
loop_
_space_group_symop_operation_xyz
x,y,z
-x,y,-z
-x,-y,-z
x,-y,z
loop_
_atom_site_type_symbol
_atom_site_label
_atom_site_fract_x
_atom_site_fract_y
_atom_site_fract_z
Si Si1 0.776693 0.317083 0.945395
Si Si2 0.559395 0.403972 0.827895
Si Si3 0.718899 0.325888 0.560935
Si Si4 0.766955 0.841807 0.354685
Si Si5 0.313827 0.094315 0.237748
Si Si6 0.813789 0.138763 0.502095
Si Si7 0.629824 0.747456 0.200404
Si Si8 0.137246 0.360756 0.704610
O O1 0.009396 0.255176 0.903361
O O2 0.967323 0.368847 0.828421
O O3 0.500000 0.274046 0.000000
O O4 0.625968 0.379721 0.046982
O O5 0.484764 0.500000 0.831913
O O6 0.461670 0.333209 0.811576
O O7 0.919752 0.398736 0.726062
O O8 0.841110 0.243232 0.480453
O O9 0.537539 0.274493 0.677580
O O10 0.492379 0.384441 0.597851
O O11 0.000000 0.371318 0.500000
O O12 0.500000 0.847497 0.500000
O O13 0.550757 0.881642 0.374601
O O14 0.831585 0.741287 0.320436
O O15 0.109709 0.879865 0.247361
O O16 0.523232 0.167967 0.198689
O O17 0.016337 0.090456 0.383651
O O18 0.460727 0.000000 0.182082
O O19 0.000000 0.121477 0.500000
#
# Coordination Sequence:
#
# PCOD9154329 Si02
#       8
#     4   4   4   4   4   4   4   4
#     4   9  21  38  60  88 107 142 180 243 300 354
#     4  11  23  39  62  91 113 138 187 250 304 347
#     4   9  16  32  56  84 114 162 196 225 272 338
#     4   9  18  31  54  82 118 161 199 228 272 333
#     4  11  21  33  52  86 124 157 194 233 283 335
#     4   9  16  30  50  80 114 155 195 241 268 318
#     4  11  20  37  60  85 119 152 187 233 293 345
#     4   9  18  33  58  85 115 154 183 231 293 343
#
# _framework density 22.053028999999999
#
# number of rings (size 3 to 8) (size 9 to 14) (size 15 to 20)
#    0.000    2.250    3.750    0.375    0.000    5.750 
#    0.000    3.125    0.000    6.000    0.000    0.000 
#    0.000    0.000    0.000    0.000    0.000    0.000 
#
# Total GULP energy -178148.703004 kJ/mol
# GULP energy per Si atom -5567.146969 kJ/mol
# Density = 2.200284 g / cm^3
# Si number density = 22.053029 Si / 1000 Ang^3
#
#
#
# Elastic Constant Matrix: (Units=GPa)
#
#
# Indices 1 2 3 4 5 6 
#
# 1 121.9582 42.4582 15.6105 0.0000 -45.5380 0.0000
# 2 42.4582 109.0783 15.9459 0.0000 -15.4784 0.0000
# 3 15.6105 15.9459 33.5884 0.0000 -18.6048 0.0000
# 4 0.0000 0.0000 0.0000 2.9464 0.0000 -4.1336
# 5 -45.5380 -15.4784 -18.6048 0.0000 50.5548 0.0000
# 6 0.0000 0.0000 0.0000 -4.1336 0.0000 -14.0891
#
#
#
# Elastic Compliance Matrix: (Units=1/GPa)
#
#
# Indices 1 2 3 4 5 6 
#
# 1 0.013786 -0.003975 0.002116 0.000000 0.011979 0.000000
# 2 -0.003975 0.011105 -0.004427 0.000000 -0.001810 0.000000
# 3 0.002116 -0.004427 0.039183 0.000000 0.014970 0.000000
# 4 0.000000 0.000000 0.000000 0.240434 0.000000 -0.070542
# 5 0.011979 -0.001810 0.014970 0.000000 0.035526 0.000000
# 6 0.000000 0.000000 0.000000 -0.070542 0.000000 -0.050280
#
#
# Mechanical properties :
#
#
# Convention : Reuss Voigt Hill
#
# Bulk Modulus (GPa) = 19.41769 45.85046 32.63408
# Shear Modulus (GPa) = 15.64975 20.58976 18.11975
#
# Velocity S-wave (km/s) = 2.66680 3.05888 2.86954
# Velocity P-wave (km/s) = 4.27861 5.77164 5.08027
#
# Compressibility (1/GPa) = 0.05149944
#
# Stress axis : x y z
#
# Youngs Moduli (GPa) = 72.53982 90.04553 25.52154
#
# Poissons Ratio (x) = 0.35797 -0.05399
# Poissons Ratio (y) = 0.28837 0.11299
# Poissons Ratio (z) = -0.15346 0.39865
#
# Static dielectric constant tensor:
#      x y z
#    x 2.042630 0.000000 -0.013580 
#    y 0.000000 1.818960 0.000000 
#    z -0.013580 0.000000 1.894390 
# 
# From -- ./inp_files/88258.got.cif
#   From: 2010.05.17/outbox.cif.g08.bks.cpg/sg10_45_cif.got.tgz:88258.got - 2010.06.03 11:33:40.
