data_PCOD9154883
_publ_section_title
;
Structure prediction by ZEFSAII (Michael W. Deem and Ramdas Pophale) SiO2 
 PCOD9154883
Probable space group: P 2/M
;
_chemical_formula_sum "Si O2"
_cell_formula_units_Z 24
_cell_length_a 17.243564
_cell_length_b 7.326816
_cell_length_c 17.882809
_cell_angle_alpha 90.000000
_cell_angle_beta 156.458500
_cell_angle_gamma 90.000000
_cell_volume 902.402878
_symmetry_space_group_name_H-M "P 2/M"
_symmetry_group_IT_number 10
_symmetry_cell_setting 'monoclinic'
loop_
_space_group_symop_operation_xyz
x,y,z
-x,y,-z
-x,-y,-z
x,-y,z
loop_
_atom_site_type_symbol
_atom_site_label
_atom_site_fract_x
_atom_site_fract_y
_atom_site_fract_z
Si Si1 0.455170 0.210728 0.543746
Si Si2 0.338068 0.791269 0.597563
Si Si3 0.745875 0.782241 0.155801
Si Si4 0.888081 0.719957 0.972066
Si Si5 0.297834 0.776984 0.723028
Si Si6 0.781593 0.714611 0.027429
O O1 0.500000 0.291399 0.500000
O O2 0.336332 0.288356 0.511026
O O3 0.669831 0.221229 0.766135
O O4 0.393171 0.000000 0.477180
O O5 0.248943 0.711690 0.596062
O O6 0.567971 0.798540 0.825516
O O7 0.270697 0.000000 0.530570
O O8 0.805092 0.717847 0.290574
O O9 0.744157 0.000000 0.159558
O O10 0.523019 0.727117 0.940259
O O11 0.855854 0.738898 0.176708
O O12 0.908623 0.500000 0.988030
O O13 0.926951 0.779354 0.091040
O O14 0.000000 0.793559 0.000000
O O15 0.284202 0.000000 0.707069
O O16 0.749357 0.500000 0.987797
#
# Coordination Sequence:
#
# PCOD9154883 Si02
#       6
#     4   4   4   4   4   4
#     4   9  17  28  43  64  86 106 132 168 207 243
#     4   8  13  23  36  48  69 101 129 151 183 230
#     4   8  12  19  30  44  65  93 124 152 181 225
#     4   9  18  31  44  58  79 109 142 170 197 237
#     4   7  10  17  30  45  62  92 128 151 172 219
#     4   9  15  22  33  50  71  94 123 159 196 228
#
# _framework density 26.595656999999999
#
# number of rings (size 3 to 8) (size 9 to 14) (size 15 to 20)
#    0.000    3.667    0.000    2.500    0.000    1.333 
#    0.000    6.667    0.000    0.000    0.000    0.000 
#    0.000    1.333    0.000   16.667    0.000    9.667 
#
# Total GULP energy -133637.289840 kJ/mol
# GULP energy per Si atom -5568.220410 kJ/mol
# Density = 2.653512 g / cm^3
# Si number density = 26.595657 Si / 1000 Ang^3
#
#
#
# Elastic Constant Matrix: (Units=GPa)
#
#
# Indices 1 2 3 4 5 6 
#
# 1 338.1644 -5.6091 35.7105 0.0000 -93.4020 0.0000
# 2 -5.6091 120.6849 -8.8488 0.0000 -4.9194 0.0000
# 3 35.7105 -8.8488 99.4062 0.0000 -21.4032 0.0000
# 4 0.0000 0.0000 0.0000 -3.1166 0.0000 4.2738
# 5 -93.4020 -4.9194 -21.4032 0.0000 40.4747 0.0000
# 6 0.0000 0.0000 0.0000 4.2738 0.0000 5.1676
#
#
#
# Elastic Compliance Matrix: (Units=1/GPa)
#
#
# Indices 1 2 3 4 5 6 
#
# 1 0.008508 0.001344 0.001496 0.000000 0.020588 0.000000
# 2 0.001344 0.008644 0.001332 0.000000 0.004857 0.000000
# 3 0.001496 0.001332 0.011758 0.000000 0.009832 0.000000
# 4 0.000000 0.000000 0.000000 -0.150351 0.000000 0.124344
# 5 0.020588 0.004857 0.009832 0.000000 0.078006 0.000000
# 6 0.000000 0.000000 0.000000 0.124344 0.000000 0.090677
#
#
# Mechanical properties :
#
#
# Convention : Reuss Voigt Hill
#
# Bulk Modulus (GPa) = 26.84162 66.75120 46.79641
# Shear Modulus (GPa) = 97.43744 44.30534 70.87139
#
# Velocity S-wave (km/s) = 6.05938 4.08596 5.16774
# Velocity P-wave (km/s) = 7.68565 6.88571 7.29665
#
# Compressibility (1/GPa) = 0.03725558
#
# Stress axis : x y z
#
# Youngs Moduli (GPa) = 117.53842 115.68427 85.04973
#
# Poissons Ratio (x) = -0.15552 -0.12724
# Poissons Ratio (y) = -0.15801 -0.11332
# Poissons Ratio (z) = -0.17585 -0.15414
#
# Static dielectric constant tensor:
#      x y z
#    x 2.288470 0.000000 -0.045720 
#    y 0.000000 2.025700 0.000000 
#    z -0.045720 0.000000 2.015310 
# 
# From -- ./inp_files/52386.got.cif
#   From: 2010.05.17/outbox.cif.g08.bks.cpg/sg10_27_cif.got.tgz:52386.got - 2010.06.03 11:33:40.
