data_PCOD9154696
_publ_section_title
;
Structure prediction by ZEFSAII (Michael W. Deem and Ramdas Pophale) SiO2 
 PCOD9154696
Probable space group: P 2/M
;
_chemical_formula_sum "Si O2"
_cell_formula_units_Z 21
_cell_length_a 17.406110
_cell_length_b 7.476400
_cell_length_c 12.144184
_cell_angle_alpha 90.000000
_cell_angle_beta 143.935766
_cell_angle_gamma 90.000000
_cell_volume 930.359138
_symmetry_space_group_name_H-M "P 2/M"
_symmetry_group_IT_number 10
_symmetry_cell_setting 'monoclinic'
loop_
_space_group_symop_operation_xyz
x,y,z
-x,y,-z
-x,-y,-z
x,-y,z
loop_
_atom_site_type_symbol
_atom_site_label
_atom_site_fract_x
_atom_site_fract_y
_atom_site_fract_z
Si Si1 0.796932 0.283452 0.717222
Si Si2 0.495902 0.204817 0.618144
Si Si3 0.058480 0.717759 0.897112
Si Si4 0.595309 0.296760 0.960354
Si Si5 0.113776 0.281762 0.713772
Si Si6 0.500000 0.000000 0.000000
O O1 0.790717 0.500000 0.708051
O O2 0.655686 0.212777 0.523803
O O3 0.914929 0.229467 0.773632
O O4 0.839556 0.227640 0.890072
O O5 0.500000 0.284323 0.500000
O O6 0.579196 0.295593 0.809710
O O7 0.540641 0.000000 0.662487
O O8 0.060115 0.500000 0.898149
O O9 0.089102 0.779185 0.809984
O O10 0.578332 0.500000 0.978254
O O11 0.741658 0.230568 0.157305
O O12 0.498852 0.157556 0.903553
O O13 0.113330 0.500000 0.714669
O O14 0.000000 0.223185 0.500000
#
# Coordination Sequence:
#
# PCOD9154696 Si02
#       6
#     4   4   4   4   4   1
#     4   9  17  31  56  87 119 161 207 253 320 390
#     4  11  23  39  60  92 134 171 213 274 327 381
#     4   8  15  30  53  85 123 157 202 265 314 377
#     4  11  24  44  71  96 129 180 218 265 337 386
#     4   9  18  34  59  92 123 159 213 265 315 382
#     4  12  26  48  64  94 140 164 226 284 298 386
#
# _framework density 22.571928
#
# number of rings (size 3 to 8) (size 9 to 14) (size 15 to 20)
#    0.000    2.286    0.952    3.143    0.000    4.571 
#    0.000    6.190    2.095    0.000    0.000    0.000 
#    0.000    0.000    0.000    0.000    0.000    0.000 
#
# Total GULP energy -117131.059323 kJ/mol
# GULP energy per Si atom -5577.669492 kJ/mol
# Density = 2.252055 g / cm^3
# Si number density = 22.571928 Si / 1000 Ang^3
#
#
#
# Elastic Constant Matrix: (Units=GPa)
#
#
# Indices 1 2 3 4 5 6 
#
# 1 43.0781 14.3255 10.3044 0.0000 -18.4155 0.0000
# 2 14.3255 101.0762 5.0548 0.0000 -7.4951 0.0000
# 3 10.3044 5.0548 91.8651 0.0000 6.5011 0.0000
# 4 0.0000 0.0000 0.0000 14.4807 0.0000 -1.7015
# 5 -18.4155 -7.4951 6.5011 0.0000 33.4102 0.0000
# 6 0.0000 0.0000 0.0000 -1.7015 0.0000 3.6940
#
#
#
# Elastic Compliance Matrix: (Units=1/GPa)
#
#
# Indices 1 2 3 4 5 6 
#
# 1 0.033396 -0.003104 -0.004896 0.000000 0.018664 0.000000
# 2 -0.003104 0.010397 -0.000272 0.000000 0.000674 0.000000
# 3 -0.004896 -0.000272 0.011808 0.000000 -0.005057 0.000000
# 4 0.000000 0.000000 0.000000 0.073009 0.000000 0.033627
# 5 0.018664 0.000674 -0.005057 0.000000 0.041354 0.000000
# 6 0.000000 0.000000 0.000000 0.033627 0.000000 0.286195
#
#
# Mechanical properties :
#
#
# Convention : Reuss Voigt Hill
#
# Bulk Modulus (GPa) = 25.60389 32.82098 29.21244
# Shear Modulus (GPa) = 10.29400 24.07263 17.18331
#
# Velocity S-wave (km/s) = 2.13786 3.26925 2.76210
# Velocity P-wave (km/s) = 4.17873 5.36869 4.81065
#
# Compressibility (1/GPa) = 0.03905656
#
# Stress axis : x y z
#
# Youngs Moduli (GPa) = 29.94396 96.18084 84.69170
#
# Poissons Ratio (x) = 0.29858 0.41465
# Poissons Ratio (y) = 0.09296 0.02300
# Poissons Ratio (z) = 0.14660 0.02612
#
# Static dielectric constant tensor:
#      x y z
#    x 1.866640 0.000000 0.006390 
#    y 0.000000 2.096290 0.000000 
#    z 0.006390 0.000000 1.805280 
# 
# From -- ./inp_files/52928.got.cif
#   From: 2010.05.17/outbox.cif.g08.bks.cpg/sg10_27_cif.got.tgz:52928.got - 2010.06.03 11:33:40.
