data_PCOD9154469
_publ_section_title
;
Structure prediction by ZEFSAII (Michael W. Deem and Ramdas Pophale) SiO2 
 PCOD9154469
Probable space group: P 2/M
;
_chemical_formula_sum "Si O2"
_cell_formula_units_Z 24
_cell_length_a 17.907516
_cell_length_b 8.588999
_cell_length_c 25.597580
_cell_angle_alpha 90.000000
_cell_angle_beta 19.461015
_cell_angle_gamma 90.000000
_cell_volume 1311.706566
_symmetry_space_group_name_H-M "P 2/M"
_symmetry_group_IT_number 10
_symmetry_cell_setting 'monoclinic'
loop_
_space_group_symop_operation_xyz
x,y,z
-x,y,-z
-x,-y,-z
x,-y,z
loop_
_atom_site_type_symbol
_atom_site_label
_atom_site_fract_x
_atom_site_fract_y
_atom_site_fract_z
Si Si1 0.823051 0.186475 0.465623
Si Si2 0.331564 0.186503 0.957142
Si Si3 0.564225 0.687732 0.541454
Si Si4 0.287580 0.189660 0.106254
Si Si5 0.141490 0.687713 0.752819
Si Si6 0.214434 0.686532 0.392755
O O1 0.630209 0.240242 0.553012
O O2 0.802640 0.253891 0.536834
O O3 0.056755 0.240363 0.285168
O O4 0.825069 0.000000 0.467381
O O5 0.555241 0.253883 0.784314
O O6 0.344701 0.000000 0.947799
O O7 0.310632 0.240316 0.031241
O O8 0.102651 0.240159 0.080577
O O9 0.570985 0.500000 0.540541
O O10 0.321515 0.731703 0.678478
O O11 0.745219 0.734465 0.377393
O O12 0.286224 0.000000 0.106935
O O13 0.500000 0.240867 0.000000
O O14 0.124857 0.500000 0.763604
O O15 0.214590 0.500000 0.392691
O O16 0.000000 0.740365 0.500000
#
# Coordination Sequence:
#
# PCOD9154469 Si02
#       6
#     4   4   4   4   4   4
#     4  11  21  36  59  87 117 151 191 240 292 342
#     4  11  21  36  59  87 117 151 191 240 292 342
#     4   9  18  34  57  85 119 157 192 231 284 344
#     4   9  18  32  52  81 114 144 181 231 286 341
#     4   9  18  34  57  85 119 157 192 231 284 344
#     4  11  25  43  60  81 114 157 199 238 286 347
#
# _framework density 18.296775
#
# number of rings (size 3 to 8) (size 9 to 14) (size 15 to 20)
#    0.000    2.000    1.667    3.500    0.000    3.333 
#    0.000    2.500    0.000    9.000    0.000    0.000 
#    0.000    0.000    0.000    0.000    0.000    0.000 
#
# Total GULP energy -134018.790546 kJ/mol
# GULP energy per Si atom -5584.116273 kJ/mol
# Density = 1.825513 g / cm^3
# Si number density = 18.296775 Si / 1000 Ang^3
#
#
#
# Elastic Constant Matrix: (Units=GPa)
#
#
# Indices 1 2 3 4 5 6 
#
# 1 172.4564 41.4476 102.8669 0.0000 -6.7769 0.0000
# 2 41.4476 37.2679 39.5620 0.0000 -1.7121 0.0000
# 3 102.8669 39.5620 160.3418 0.0000 -4.2421 0.0000
# 4 0.0000 0.0000 0.0000 19.0151 0.0000 -2.6862
# 5 -6.7769 -1.7121 -4.2421 0.0000 33.2734 0.0000
# 6 0.0000 0.0000 0.0000 -2.6862 0.0000 21.9999
#
#
#
# Elastic Compliance Matrix: (Units=1/GPa)
#
#
# Indices 1 2 3 4 5 6 
#
# 1 0.010344 -0.006014 -0.005122 0.000000 0.001144 0.000000
# 2 -0.006014 0.039870 -0.005977 0.000000 0.000065 0.000000
# 3 -0.005122 -0.005977 0.010999 0.000000 0.000051 0.000000
# 4 0.000000 0.000000 0.000000 0.053513 0.000000 0.006534
# 5 0.001144 0.000065 0.000051 0.000000 0.030297 0.000000
# 6 0.000000 0.000000 0.000000 0.006534 0.000000 0.046253
#
#
# Mechanical properties :
#
#
# Convention : Reuss Voigt Hill
#
# Bulk Modulus (GPa) = 37.05674 81.97991 59.51832
# Shear Modulus (GPa) = 21.32223 27.27032 24.29627
#
# Velocity S-wave (km/s) = 3.41743 3.86481 3.64799
# Velocity P-wave (km/s) = 5.98907 8.05100 7.09534
#
# Compressibility (1/GPa) = 0.02698565
#
# Stress axis : x y z
#
# Youngs Moduli (GPa) = 96.67205 25.08180 90.91874
#
# Poissons Ratio (x) = 0.15085 0.46569
# Poissons Ratio (y) = 0.58143 0.54342
# Poissons Ratio (z) = 0.49516 0.14991
#
# Static dielectric constant tensor:
#      x y z
#    x 1.621330 0.000000 -0.012210 
#    y 0.000000 1.617940 0.000000 
#    z -0.012210 0.000000 1.607490 
# 
# From -- ./inp_files/84159.got.cif
#   From: 2010.05.17/outbox.cif.g08.bks.cpg/sg10_43_cif.got.tgz:84159.got - 2010.06.03 11:33:40.
