data_PCOD9154086
_publ_section_title
;
Structure prediction by ZEFSAII (Michael W. Deem and Ramdas Pophale) SiO2 
 PCOD9154086
Probable space group: P 2/M
;
_chemical_formula_sum "Si O2"
_cell_formula_units_Z 16
_cell_length_a 8.637706
_cell_length_b 16.395389
_cell_length_c 5.310314
_cell_angle_alpha 90.000000
_cell_angle_beta 111.688592
_cell_angle_gamma 90.000000
_cell_volume 698.799251
_symmetry_space_group_name_H-M "P 2/M"
_symmetry_group_IT_number 10
_symmetry_cell_setting 'monoclinic'
loop_
_space_group_symop_operation_xyz
x,y,z
-x,y,-z
-x,-y,-z
x,-y,z
loop_
_atom_site_type_symbol
_atom_site_label
_atom_site_fract_x
_atom_site_fract_y
_atom_site_fract_z
Si Si1 0.500000 0.324512 0.500000
Si Si2 0.188467 0.667616 0.012608
Si Si3 0.648755 0.198627 0.224472
Si Si4 0.888904 0.092438 0.686947
Si Si5 0.889218 0.500000 0.191588
O O1 0.544040 0.269507 0.290018
O O2 0.679865 0.357376 0.689594
O O3 0.228084 0.752034 0.888512
O O4 0.203680 0.586491 0.853063
O O5 0.000000 0.674899 0.000000
O O6 0.743515 0.152485 0.507128
O O7 0.500000 0.147336 0.000000
O O8 0.000000 0.089802 0.500000
O O9 0.826651 0.000000 0.697379
O O10 0.000000 0.113710 0.000000
O O11 0.000000 0.500000 0.500000
O O12 0.000000 0.500000 0.000000
#
# Coordination Sequence:
#
# PCOD9154086 Si02
#       5
#     2   4   4   4   2
#     4  10  24  41  61 104 130 176 236 272 337 415
#     4  10  24  43  69  98 136 179 228 285 341 405
#     4  10  24  42  65 100 137 177 231 280 342 412
#     4  10  24  43  67 101 134 175 230 281 340 411
#     4  10  24  43  67 101 134 175 235 279 339 412
#
# _framework density 22.896421
#
# number of rings (size 3 to 8) (size 9 to 14) (size 15 to 20)
#    0.000    2.000    0.000    0.000   17.500    1.000 
#    0.000    6.250    0.000    0.000    0.000    0.000 
#    0.000    0.000    0.000    0.000    0.000    0.000 
#
# Total GULP energy -89083.760111 kJ/mol
# GULP energy per Si atom -5567.735007 kJ/mol
# Density = 2.284431 g / cm^3
# Si number density = 22.896421 Si / 1000 Ang^3
#
#
#
# Elastic Constant Matrix: (Units=GPa)
#
#
# Indices 1 2 3 4 5 6 
#
# 1 82.1972 18.8306 38.3809 0.0000 13.1643 0.0000
# 2 18.8306 95.9133 57.2888 0.0000 18.4606 0.0000
# 3 38.3809 57.2888 225.1767 0.0000 34.5241 0.0000
# 4 0.0000 0.0000 0.0000 13.0437 0.0000 -46.5001
# 5 13.1643 18.4606 34.5241 0.0000 46.6675 0.0000
# 6 0.0000 0.0000 0.0000 -46.5001 0.0000 -82.1643
#
#
#
# Elastic Compliance Matrix: (Units=1/GPa)
#
#
# Indices 1 2 3 4 5 6 
#
# 1 0.013571 -0.001264 -0.001671 0.000000 -0.002092 0.000000
# 2 -0.001264 0.012764 -0.002608 0.000000 -0.002763 0.000000
# 3 -0.001671 -0.002608 0.005819 0.000000 -0.002802 0.000000
# 4 0.000000 0.000000 0.000000 0.025406 0.000000 -0.014379
# 5 -0.002092 -0.002763 -0.002802 0.000000 0.025184 0.000000
# 6 0.000000 0.000000 0.000000 -0.014379 0.000000 -0.004033
#
#
# Mechanical properties :
#
#
# Convention : Reuss Voigt Hill
#
# Bulk Modulus (GPa) = 47.46581 70.25422 58.86001
# Shear Modulus (GPa) = 51.64286 14.76185 33.20235
#
# Velocity S-wave (km/s) = 4.75436 2.54189 3.81216
# Velocity P-wave (km/s) = 7.13542 6.27416 6.71861
#
# Compressibility (1/GPa) = 0.02106780
#
# Stress axis : x y z
#
# Youngs Moduli (GPa) = 73.68876 78.34572 171.85389
#
# Poissons Ratio (x) = 0.09900 0.28714
# Poissons Ratio (y) = 0.09312 0.44825
# Poissons Ratio (z) = 0.12312 0.20435
#
# Static dielectric constant tensor:
#      x y z
#    x 1.797500 0.000000 -0.097610 
#    y 0.000000 1.928950 0.000000 
#    z -0.097610 0.000000 1.804310 
# 
# From -- ./inp_files/3854.got.cif
#   From: 2010.05.17/outbox.cif.g08.bks.cpg/sg10_2_cif.got.tgz:3854.got - 2010.06.03 11:33:40.
