data_PCOD9154066
_publ_section_title
;
Structure prediction by ZEFSAII (Michael W. Deem and Ramdas Pophale) SiO2 
 PCOD9154066
Probable space group: P 2/M
;
_chemical_formula_sum "Si O2"
_cell_formula_units_Z 15
_cell_length_a 5.344565
_cell_length_b 10.722050
_cell_length_c 10.314298
_cell_angle_alpha 90.000000
_cell_angle_beta 85.000517
_cell_angle_gamma 90.000000
_cell_volume 588.808994
_symmetry_space_group_name_H-M "P 2/M"
_symmetry_group_IT_number 10
_symmetry_cell_setting 'monoclinic'
loop_
_space_group_symop_operation_xyz
x,y,z
-x,y,-z
-x,-y,-z
x,-y,z
loop_
_atom_site_type_symbol
_atom_site_label
_atom_site_fract_x
_atom_site_fract_y
_atom_site_fract_z
Si Si1 0.230941 0.500000 0.586008
Si Si2 0.000000 0.500000 0.000000
Si Si3 0.388714 0.240252 0.650370
Si Si4 0.048060 0.000000 0.650230
Si Si5 0.736031 0.000000 0.891585
Si Si6 0.725017 0.724602 0.886504
O O1 0.500000 0.500000 0.500000
O O2 0.232103 0.368595 0.658490
O O3 0.000000 0.500000 0.500000
O O4 0.095456 0.609899 0.096134
O O5 0.500000 0.224510 0.500000
O O6 0.598371 0.262940 0.750589
O O7 0.212110 0.120975 0.681687
O O8 0.000000 0.000000 0.500000
O O9 0.776712 0.000000 0.733088
O O10 0.836063 0.138915 0.910027
O O11 0.500000 0.000000 0.000000
O O12 0.500000 0.702800 0.000000
#
# Coordination Sequence:
#
# PCOD9154066 Si02
#       6
#     2   1   4   2   2   4
#     4  10  23  45  71 111 160 220 273 336 418 515
#     4  12  28  48  82 108 162 206 286 342 424 484
#     4  11  24  47  76 118 168 212 275 342 425 507
#     4  12  24  43  83 128 160 219 271 352 431 497
#     4  10  25  50  79 110 164 212 280 331 421 512
#     4  11  26  51  73 115 155 212 269 346 410 496
#
# _framework density 25.475155000000001
#
# number of rings (size 3 to 8) (size 9 to 14) (size 15 to 20)
#    0.000    1.067    0.000    4.800    3.733    2.667 
#    9.600    0.000    0.000    0.000    0.000    0.000 
#    0.000    0.000    0.000    0.000    0.000    0.000 
#
# Total GULP energy -83571.074483 kJ/mol
# GULP energy per Si atom -5571.404966 kJ/mol
# Density = 2.541717 g / cm^3
# Si number density = 25.475155 Si / 1000 Ang^3
#
#
#
# Elastic Constant Matrix: (Units=GPa)
#
#
# Indices 1 2 3 4 5 6 
#
# 1 107.2685 49.8310 103.3525 0.0000 -20.6810 0.0000
# 2 49.8310 339.1521 62.8742 0.0000 36.1892 0.0000
# 3 103.3525 62.8742 240.3458 0.0000 17.0091 0.0000
# 4 0.0000 0.0000 0.0000 33.6353 0.0000 37.3617
# 5 -20.6810 36.1892 17.0091 0.0000 80.5356 0.0000
# 6 0.0000 0.0000 0.0000 37.3617 0.0000 -2.7575
#
#
#
# Elastic Compliance Matrix: (Units=1/GPa)
#
#
# Indices 1 2 3 4 5 6 
#
# 1 0.020318 -0.002228 -0.008725 0.000000 0.008061 0.000000
# 2 -0.002228 0.003470 0.000204 0.000000 -0.002175 0.000000
# 3 -0.008725 0.000204 0.008146 0.000000 -0.004053 0.000000
# 4 0.000000 0.000000 0.000000 0.001852 0.000000 0.025098
# 5 0.008061 -0.002175 -0.004053 0.000000 0.016320 0.000000
# 6 0.000000 0.000000 0.000000 0.025098 0.000000 -0.022595
#
#
# Mechanical properties :
#
#
# Convention : Reuss Voigt Hill
#
# Bulk Modulus (GPa) = 95.81527 124.32021 110.06774
# Shear Modulus (GPa) = 95.26213 53.66327 74.46270
#
# Velocity S-wave (km/s) = 6.12171 4.59464 5.41230
# Velocity P-wave (km/s) = 9.36269 8.77804 9.07508
#
# Compressibility (1/GPa) = 0.01043675
#
# Stress axis : x y z
#
# Youngs Moduli (GPa) = 49.21839 288.17918 122.76355
#
# Poissons Ratio (x) = 0.64206 1.07106
# Poissons Ratio (y) = 0.10966 -0.02507
# Poissons Ratio (z) = 0.42941 -0.05885
#
# Static dielectric constant tensor:
#      x y z
#    x 1.964110 0.000000 -0.116950 
#    y 0.000000 1.931710 0.000000 
#    z -0.116950 0.000000 2.089790 
# 
# From -- ./inp_files/38844.got.cif
#   From: 2010.05.17/outbox.cif.g08.bks.cpg/sg10_20_cif.got.tgz:38844.got - 2010.06.03 11:33:40.
