data_PCOD9154584
_publ_section_title
;
Structure prediction by ZEFSAII (Michael W. Deem and Ramdas Pophale) SiO2 
 PCOD9154584
Probable space group: P 2/M
;
_chemical_formula_sum "Si O2"
_cell_formula_units_Z 28
_cell_length_a 21.296392
_cell_length_b 13.636588
_cell_length_c 21.852198
_cell_angle_alpha 90.000000
_cell_angle_beta 13.171552
_cell_angle_gamma 90.000000
_cell_volume 1446.069510
_symmetry_space_group_name_H-M "P 2/M"
_symmetry_group_IT_number 10
_symmetry_cell_setting 'monoclinic'
loop_
_space_group_symop_operation_xyz
x,y,z
-x,y,-z
-x,-y,-z
x,-y,z
loop_
_atom_site_type_symbol
_atom_site_label
_atom_site_fract_x
_atom_site_fract_y
_atom_site_fract_z
Si Si1 0.897432 0.300001 0.352162
Si Si2 0.804994 0.860335 0.129895
Si Si3 0.981510 0.392316 0.887227
Si Si4 0.469407 0.340757 0.593380
Si Si5 0.287007 0.381189 0.253098
Si Si6 0.210547 0.110672 0.631393
Si Si7 0.558426 0.619769 0.125015
O O1 0.821155 0.196142 0.390856
O O2 0.630047 0.344723 0.639003
O O3 0.014915 0.370455 0.186959
O O4 0.163853 0.313931 0.142924
O O5 0.714706 0.754684 0.241710
O O6 0.501470 0.892017 0.392712
O O7 0.000000 0.900254 0.000000
O O8 0.980252 0.870340 0.901722
O O9 0.095756 0.500000 0.790757
O O10 0.216781 0.319818 0.687858
O O11 0.692112 0.386595 0.196248
O O12 0.500000 0.394308 0.500000
O O13 0.276965 0.500000 0.261286
O O14 0.380641 0.358762 0.232787
O O15 0.000000 0.343415 0.500000
O O16 0.500000 0.348564 0.000000
O O17 0.171373 0.000000 0.643222
O O18 0.608521 0.500000 0.079781
#
# Coordination Sequence:
#
# PCOD9154584 Si02
#       7
#     4   4   4   4   4   4   4
#     4  12  23  42  57  85 122 154 198 245 284 344
#     4  12  23  43  66  86 110 138 180 244 319 380
#     4  12  24  38  58  80 110 151 191 236 286 340
#     4  12  23  40  58  80 108 142 185 237 294 352
#     4   9  17  31  52  84 126 165 200 237 274 316
#     4  12  26  44  65  88 113 147 189 244 313 368
#     4  11  22  36  61  91 125 169 204 233 277 335
#
# _framework density 19.362829999999999
#
# number of rings (size 3 to 8) (size 9 to 14) (size 15 to 20)
#    0.000    0.571    2.857    7.286    0.000    5.714 
#    0.000    0.000    0.000    0.000    0.000    0.000 
#    0.000   11.429    0.000    0.000    0.000    0.000 
#
# Total GULP energy -155874.693690 kJ/mol
# GULP energy per Si atom -5566.953346 kJ/mol
# Density = 1.931876 g / cm^3
# Si number density = 19.362830 Si / 1000 Ang^3
#
#
#
# Elastic Constant Matrix: (Units=GPa)
#
#
# Indices 1 2 3 4 5 6 
#
# 1 87.0608 26.5398 23.0898 0.0000 -6.3453 0.0000
# 2 26.5398 102.9382 16.5587 0.0000 -2.2796 0.0000
# 3 23.0898 16.5587 128.1259 0.0000 -3.5644 0.0000
# 4 0.0000 0.0000 0.0000 -19.7604 0.0000 35.3333
# 5 -6.3453 -2.2796 -3.5644 0.0000 37.1090 0.0000
# 6 0.0000 0.0000 0.0000 35.3333 0.0000 3.6200
#
#
#
# Elastic Compliance Matrix: (Units=1/GPa)
#
#
# Indices 1 2 3 4 5 6 
#
# 1 0.013048 -0.003016 -0.001910 0.000000 0.001862 0.000000
# 2 -0.003016 0.010627 -0.000828 0.000000 0.000058 0.000000
# 3 -0.001910 -0.000828 0.008268 0.000000 0.000417 0.000000
# 4 0.000000 0.000000 0.000000 -0.002742 0.000000 0.026768
# 5 0.001862 0.000058 0.000417 0.000000 0.027310 0.000000
# 6 0.000000 0.000000 0.000000 0.026768 0.000000 0.014970
#
#
# Mechanical properties :
#
#
# Convention : Reuss Voigt Hill
#
# Bulk Modulus (GPa) = 48.93667 50.05573 49.49620
# Shear Modulus (GPa) = 55.68039 20.98951 38.33495
#
# Velocity S-wave (km/s) = 5.36831 3.29600 4.45435
# Velocity P-wave (km/s) = 7.98457 6.35550 7.21616
#
# Compressibility (1/GPa) = 0.02043457
#
# Stress axis : x y z
#
# Youngs Moduli (GPa) = 76.64159 94.10384 120.95349
#
# Poissons Ratio (x) = 0.28377 0.23100
# Poissons Ratio (y) = 0.23112 0.10019
# Poissons Ratio (z) = 0.14637 0.07795
#
# Static dielectric constant tensor:
#      x y z
#    x 1.784820 0.000000 -0.049260 
#    y 0.000000 1.741990 0.000000 
#    z -0.049260 0.000000 1.693140 
# 
# From -- ./inp_files/90948.got.cif
#   From: 2010.05.17/outbox.cif.g08.bks.cpg/sg10_46_cif.got.tgz:90948.got - 2010.06.03 11:33:40.
