data_PCOD9154085
_publ_section_title
;
Structure prediction by ZEFSAII (Michael W. Deem and Ramdas Pophale) SiO2 
 PCOD9154085
Probable space group: P 2/M
;
_chemical_formula_sum "Si O2"
_cell_formula_units_Z 32
_cell_length_a 10.987166
_cell_length_b 15.234037
_cell_length_c 15.736376
_cell_angle_alpha 90.000000
_cell_angle_beta 147.105035
_cell_angle_gamma 90.000000
_cell_volume 1430.493043
_symmetry_space_group_name_H-M "P 2/M"
_symmetry_group_IT_number 10
_symmetry_cell_setting 'monoclinic'
loop_
_space_group_symop_operation_xyz
x,y,z
-x,y,-z
-x,-y,-z
x,-y,z
loop_
_atom_site_type_symbol
_atom_site_label
_atom_site_fract_x
_atom_site_fract_y
_atom_site_fract_z
Si Si1 0.418337 0.594813 0.853656
Si Si2 0.256615 0.725916 0.042787
Si Si3 0.614250 0.905129 0.421863
Si Si4 0.521126 0.284423 0.652561
Si Si5 0.079529 0.839059 0.644868
Si Si6 0.440362 0.097321 0.123998
Si Si7 0.856989 0.398298 0.753724
Si Si8 0.954337 0.346392 0.620586
O O1 0.496895 0.500000 0.865756
O O2 0.533018 0.675410 0.874871
O O3 0.149484 0.599534 0.690136
O O4 0.500000 0.598483 0.000000
O O5 0.302572 0.730212 0.169357
O O6 0.262383 0.824446 0.009570
O O7 0.049022 0.664110 0.903393
O O8 0.538921 0.812420 0.418285
O O9 0.511241 0.903219 0.265641
O O10 0.882143 0.899022 0.566214
O O11 0.553121 0.000000 0.423897
O O12 0.629571 0.353254 0.652281
O O13 0.292273 0.324064 0.558763
O O14 0.326173 0.879528 0.786081
O O15 0.000000 0.819668 0.500000
O O16 0.070460 0.749425 0.692981
O O17 0.362600 0.000000 0.055153
O O18 0.868683 0.500000 0.786284
O O19 0.900033 0.390132 0.678624
#
# Coordination Sequence:
#
# PCOD9154085 Si02
#       8
#     4   4   4   4   4   4   4   4
#     4  11  22  38  60  86 118 159 197 236 305 381
#     4  11  22  40  63  89 121 155 199 250 299 354
#     4   8  15  30  55  87 120 153 190 233 292 360
#     4  10  24  40  63  92 117 151 205 261 297 327
#     4   9  16  29  55  89 124 156 188 231 293 357
#     4   9  16  29  54  89 122 152 188 235 291 355
#     4  12  26  45  63  79 114 169 214 242 295 371
#     4  11  22  38  63  88 122 153 195 246 301 354
#
# _framework density 22.369910000000001
#
# number of rings (size 3 to 8) (size 9 to 14) (size 15 to 20)
#    0.000    1.875    2.500    2.625    0.000    4.500 
#    0.000    1.250    0.000   16.125    0.000    0.000 
#    0.000    0.000    0.000    0.000    0.000    0.000 
#
# Total GULP energy -178597.570731 kJ/mol
# GULP energy per Si atom -5581.174085 kJ/mol
# Density = 2.231900 g / cm^3
# Si number density = 22.369910 Si / 1000 Ang^3
#
#
#
# Elastic Constant Matrix: (Units=GPa)
#
#
# Indices 1 2 3 4 5 6 
#
# 1 57.3863 38.3404 7.1274 0.0000 21.1683 0.0000
# 2 38.3404 205.7707 36.0670 0.0000 18.9145 0.0000
# 3 7.1274 36.0670 65.0665 0.0000 15.7260 0.0000
# 4 0.0000 0.0000 0.0000 15.5596 0.0000 9.2878
# 5 21.1683 18.9145 15.7260 0.0000 22.7623 0.0000
# 6 0.0000 0.0000 0.0000 9.2878 0.0000 19.3350
#
#
#
# Elastic Compliance Matrix: (Units=1/GPa)
#
#
# Indices 1 2 3 4 5 6 
#
# 1 0.029863 -0.003964 0.005813 0.000000 -0.028493 0.000000
# 2 -0.003964 0.006073 -0.003125 0.000000 0.000799 0.000000
# 3 0.005813 -0.003125 0.020580 0.000000 -0.017027 0.000000
# 4 0.000000 0.000000 0.000000 0.090105 0.000000 -0.043283
# 5 -0.028493 0.000799 -0.017027 0.000000 0.081530 0.000000
# 6 0.000000 0.000000 0.000000 -0.043283 0.000000 0.072511
#
#
# Mechanical properties :
#
#
# Convention : Reuss Voigt Hill
#
# Bulk Modulus (GPa) = 18.53142 54.58812 36.55977
# Shear Modulus (GPa) = 15.56658 27.97730 21.77194
#
# Velocity S-wave (km/s) = 2.64080 3.54031 3.12311
# Velocity P-wave (km/s) = 4.19529 6.41617 5.42069
#
# Compressibility (1/GPa) = 0.05396241
#
# Stress axis : x y z
#
# Youngs Moduli (GPa) = 33.48665 164.67281 48.59154
#
# Poissons Ratio (x) = 0.65275 -0.28245
# Poissons Ratio (y) = 0.13274 0.15185
# Poissons Ratio (z) = -0.19465 0.51462
#
# Static dielectric constant tensor:
#      x y z
#    x 1.843630 0.000000 -0.001560 
#    y 0.000000 1.832720 0.000000 
#    z -0.001560 0.000000 1.850850 
# 
# From -- ./inp_files/77027.got.cif
#   From: 2010.05.17/outbox.cif.g08.bks.cpg/sg10_39_cif.got.tgz:77027.got - 2010.06.03 11:33:40.
