data_PCOD9154293
_publ_section_title
;
Structure prediction by ZEFSAII (Michael W. Deem and Ramdas Pophale) SiO2 
 PCOD9154293
Probable space group: P 2/M
;
_chemical_formula_sum "Si O2"
_cell_formula_units_Z 32
_cell_length_a 13.290883
_cell_length_b 17.016193
_cell_length_c 10.655769
_cell_angle_alpha 90.000000
_cell_angle_beta 34.200985
_cell_angle_gamma 90.000000
_cell_volume 1354.605277
_symmetry_space_group_name_H-M "P 2/M"
_symmetry_group_IT_number 10
_symmetry_cell_setting 'monoclinic'
loop_
_space_group_symop_operation_xyz
x,y,z
-x,y,-z
-x,-y,-z
x,-y,z
loop_
_atom_site_type_symbol
_atom_site_label
_atom_site_fract_x
_atom_site_fract_y
_atom_site_fract_z
Si Si1 0.810538 0.405112 0.363891
Si Si2 0.793758 0.877752 0.936096
Si Si3 0.194595 0.254058 0.265326
Si Si4 0.484170 0.669479 0.818694
Si Si5 0.787803 0.915065 0.683465
Si Si6 0.217344 0.405504 0.895467
Si Si7 0.524024 0.181308 0.612024
Si Si8 0.115305 0.910996 0.769284
O O1 0.801420 0.500000 0.380578
O O2 0.680505 0.370152 0.604773
O O3 0.019834 0.381220 0.148772
O O4 0.752924 0.380871 0.280638
O O5 0.834319 0.791624 0.837864
O O6 0.702520 0.918600 0.910912
O O7 0.980089 0.911420 0.791667
O O8 0.647855 0.874848 0.194510
O O9 0.243540 0.179219 0.308163
O O10 0.000000 0.287059 0.500000
O O11 0.352939 0.315043 0.073293
O O12 0.515033 0.754886 0.728500
O O13 0.365116 0.622878 0.839616
O O14 0.000000 0.916117 0.500000
O O15 0.745738 0.000000 0.663026
O O16 0.216730 0.500000 0.892539
O O17 0.500000 0.217906 0.500000
O O18 0.706270 0.135154 0.438434
O O19 0.158766 0.000000 0.760725
O O20 0.000000 0.873194 0.000000
#
# Coordination Sequence:
#
# PCOD9154293 Si02
#       8
#     4   4   4   4   4   4   4   4
#     4   9  18  33  54  81 114 144 175 212 250 303
#     4   9  18  35  55  71  98 134 173 223 271 309
#     4   8  18  34  53  79 104 135 182 226 280 332
#     4  11  20  32  54  78 104 140 173 215 269 316
#     4   8  14  29  56  78  92 125 178 232 276 313
#     4   9  18  33  54  82 111 143 178 211 249 305
#     4  11  22  35  47  75 108 141 177 214 257 314
#     4  11  23  36  51  71 102 146 185 215 256 318
#
# _framework density 23.623118999999999
#
# number of rings (size 3 to 8) (size 9 to 14) (size 15 to 20)
#    0.750    1.750    1.250    2.625    0.000    4.250 
#    2.250    0.000    0.000   12.000    0.000   11.375 
#    0.000    0.000    0.000    0.000    0.000    0.000 
#
# Total GULP energy -178284.155433 kJ/mol
# GULP energy per Si atom -5571.379857 kJ/mol
# Density = 2.356935 g / cm^3
# Si number density = 23.623119 Si / 1000 Ang^3
#
#
#
# Elastic Constant Matrix: (Units=GPa)
#
#
# Indices 1 2 3 4 5 6 
#
# 1 52.5123 4.4415 23.9834 0.0000 -10.3456 0.0000
# 2 4.4415 44.2983 44.3083 0.0000 -9.4003 0.0000
# 3 23.9834 44.3083 176.5970 0.0000 -7.2898 0.0000
# 4 0.0000 0.0000 0.0000 45.4438 0.0000 -8.1222
# 5 -10.3456 -9.4003 -7.2898 0.0000 27.1043 0.0000
# 6 0.0000 0.0000 0.0000 -8.1222 0.0000 72.8633
#
#
#
# Elastic Compliance Matrix: (Units=1/GPa)
#
#
# Indices 1 2 3 4 5 6 
#
# 1 0.022019 0.002992 -0.003389 0.000000 0.008531 0.000000
# 2 0.002992 0.032620 -0.008167 0.000000 0.010259 0.000000
# 3 -0.003389 -0.008167 0.008092 0.000000 -0.001950 0.000000
# 4 0.000000 0.000000 0.000000 0.022453 0.000000 0.002503
# 5 0.008531 0.010259 -0.001950 0.000000 0.043184 0.000000
# 6 0.000000 0.000000 0.000000 0.002503 0.000000 0.014003
#
#
# Mechanical properties :
#
#
# Convention : Reuss Voigt Hill
#
# Bulk Modulus (GPa) = 21.92864 46.54156 34.23510
# Shear Modulus (GPa) = 28.62061 42.46059 35.54060
#
# Velocity S-wave (km/s) = 3.48451 4.24419 3.88298
# Velocity P-wave (km/s) = 5.04895 6.61529 5.88447
#
# Compressibility (1/GPa) = 0.04560246
#
# Stress axis : x y z
#
# Youngs Moduli (GPa) = 45.41627 30.65569 123.58554
#
# Poissons Ratio (x) = -0.09173 0.41882
# Poissons Ratio (y) = -0.13590 1.00937
# Poissons Ratio (z) = 0.15391 0.25038
#
# Static dielectric constant tensor:
#      x y z
#    x 1.978770 0.000000 0.062670 
#    y 0.000000 1.908080 0.000000 
#    z 0.062670 0.000000 2.003800 
# 
# From -- ./inp_files/51971.got.cif
#   From: 2010.05.17/outbox.cif.g08.bks.cpg/sg10_26_cif.got.tgz:51971.got - 2010.06.03 11:33:40.
