data_PCOD9154974
_publ_section_title
;
Structure prediction by ZEFSAII (Michael W. Deem and Ramdas Pophale) SiO2 
 PCOD9154974
Probable space group: P 2/M
;
_chemical_formula_sum "Si O2"
_cell_formula_units_Z 28
_cell_length_a 17.276069
_cell_length_b 7.381259
_cell_length_c 20.280394
_cell_angle_alpha 90.000000
_cell_angle_beta 22.505980
_cell_angle_gamma 90.000000
_cell_volume 989.921684
_symmetry_space_group_name_H-M "P 2/M"
_symmetry_group_IT_number 10
_symmetry_cell_setting 'monoclinic'
loop_
_space_group_symop_operation_xyz
x,y,z
-x,y,-z
-x,-y,-z
x,-y,z
loop_
_atom_site_type_symbol
_atom_site_label
_atom_site_fract_x
_atom_site_fract_y
_atom_site_fract_z
Si Si1 0.260500 0.792664 0.902396
Si Si2 0.898138 0.779347 0.830877
Si Si3 0.740285 0.778331 0.238712
Si Si4 0.508556 0.215705 0.899711
Si Si5 0.687488 0.710380 0.613034
Si Si6 0.726872 0.780113 0.394733
Si Si7 0.920094 0.284311 0.634128
O O1 0.190792 0.719803 0.027391
O O2 0.186797 0.715628 0.890596
O O3 0.506567 0.796617 0.713199
O O4 0.189987 0.000000 0.958274
O O5 0.723110 0.712957 0.919224
O O6 0.899282 0.000000 0.827259
O O7 0.129519 0.719465 0.658703
O O8 0.809145 0.725034 0.257595
O O9 0.504078 0.724018 0.422040
O O10 0.751023 0.000000 0.228658
O O11 0.606609 0.275807 0.752794
O O12 0.680123 0.253368 0.818891
O O13 0.491692 0.000000 0.911252
O O14 0.690532 0.500000 0.593848
O O15 0.918362 0.785952 0.438607
O O16 0.725246 0.000000 0.396860
O O17 0.949040 0.500000 0.611967
O O18 0.000000 0.214314 0.500000
#
# Coordination Sequence:
#
# PCOD9154974 Si02
#       7
#     4   4   4   4   4   4   4
#     4   9  16  25  37  59  84 101 126 166 202 227
#     4   8  14  22  33  53  82 107 126 155 196 235
#     4   8  14  23  37  57  80 104 131 161 192 231
#     4   9  15  22  34  55  80 104 130 162 198 230
#     4   9  16  25  36  52  76 107 136 159 191 236
#     4   8  13  23  37  55  80 107 130 155 193 237
#     4   8  14  23  34  50  74 104 135 161 189 231
#
# _framework density 28.285064999999999
#
# number of rings (size 3 to 8) (size 9 to 14) (size 15 to 20)
#    0.000    3.571    0.000    3.429    0.000    3.714 
#    0.000    2.857    0.000    0.000    0.000   17.000 
#    0.000    8.000    0.000    0.000    0.000    0.000 
#
# Total GULP energy -156464.131523 kJ/mol
# GULP energy per Si atom -5588.004697 kJ/mol
# Density = 2.822069 g / cm^3
# Si number density = 28.285065 Si / 1000 Ang^3
#
#
#
# Elastic Constant Matrix: (Units=GPa)
#
#
# Indices 1 2 3 4 5 6 
#
# 1 206.7334 19.0046 29.7574 0.0000 -37.3143 0.0000
# 2 19.0046 111.0696 -8.3215 0.0000 -3.9878 0.0000
# 3 29.7574 -8.3215 133.0018 0.0000 -46.8869 0.0000
# 4 0.0000 0.0000 0.0000 0.6380 0.0000 44.8091
# 5 -37.3143 -3.9878 -46.8869 0.0000 61.1340 0.0000
# 6 0.0000 0.0000 0.0000 44.8091 0.0000 -112.8135
#
#
#
# Elastic Compliance Matrix: (Units=1/GPa)
#
#
# Indices 1 2 3 4 5 6 
#
# 1 0.005513 -0.000841 -0.000163 0.000000 0.003185 0.000000
# 2 -0.000841 0.009263 0.001096 0.000000 0.000931 0.000000
# 3 -0.000163 0.001096 0.010435 0.000000 0.007975 0.000000
# 4 0.000000 0.000000 0.000000 0.054242 0.000000 0.021545
# 5 0.003185 0.000931 0.007975 0.000000 0.024479 0.000000
# 6 0.000000 0.000000 0.000000 0.021545 0.000000 -0.000307
#
#
# Mechanical properties :
#
#
# Convention : Reuss Voigt Hill
#
# Bulk Modulus (GPa) = 39.37912 59.07620 49.22766
# Shear Modulus (GPa) = 44.68027 17.14930 30.91478
#
# Velocity S-wave (km/s) = 3.97878 2.46499 3.30960
# Velocity P-wave (km/s) = 5.92115 5.38822 5.66096
#
# Compressibility (1/GPa) = 0.02539417
#
# Stress axis : x y z
#
# Youngs Moduli (GPa) = 181.39568 107.95803 95.82857
#
# Poissons Ratio (x) = 0.09081 0.01565
# Poissons Ratio (y) = 0.15258 -0.10504
# Poissons Ratio (z) = 0.02963 -0.11833
#
# Static dielectric constant tensor:
#      x y z
#    x 2.208640 0.000000 0.049820 
#    y 0.000000 2.056150 0.000000 
#    z 0.049820 0.000000 2.368440 
# 
# From -- ./inp_files/86699.got.cif
#   From: 2010.05.17/outbox.cif.g08.bks.cpg/sg10_44_cif.got.tgz:86699.got - 2010.06.03 11:33:40.
