data_PCOD9154381
_publ_section_title
;
Structure prediction by ZEFSAII (Michael W. Deem and Ramdas Pophale) SiO2 
 PCOD9154381
Probable space group: P 2/M
;
_chemical_formula_sum "Si O2"
_cell_formula_units_Z 20
_cell_length_a 24.533296
_cell_length_b 8.244608
_cell_length_c 14.868773
_cell_angle_alpha 90.000000
_cell_angle_beta 160.697993
_cell_angle_gamma 90.000000
_cell_volume 994.110947
_symmetry_space_group_name_H-M "P 2/M"
_symmetry_group_IT_number 10
_symmetry_cell_setting 'monoclinic'
loop_
_space_group_symop_operation_xyz
x,y,z
-x,y,-z
-x,-y,-z
x,-y,z
loop_
_atom_site_type_symbol
_atom_site_label
_atom_site_fract_x
_atom_site_fract_y
_atom_site_fract_z
Si Si1 0.409531 0.191965 0.125569
Si Si2 0.343886 0.198070 0.816494
Si Si3 0.106827 0.677667 0.754766
Si Si4 0.377657 0.306992 0.393574
Si Si5 0.985191 0.817810 0.217178
O O1 0.577975 0.226095 0.441220
O O2 0.376020 0.000000 0.075524
O O3 0.378179 0.246834 0.973886
O O4 0.287088 0.286419 0.000787
O O5 0.170723 0.254346 0.502119
O O6 0.335141 0.000000 0.803036
O O7 0.500000 0.246678 0.000000
O O8 0.097440 0.500000 0.784633
O O9 0.040120 0.815829 0.714709
O O10 0.000000 0.673484 0.500000
O O11 0.500000 0.251781 0.500000
O O12 0.398640 0.500000 0.432258
O O13 0.184598 0.267534 0.076322
O O14 0.986942 0.000000 0.182916
#
# Coordination Sequence:
#
# PCOD9154381 Si02
#       5
#     4   4   4   4   4
#     4  11  21  35  59  87 114 149 192 237 280 336
#     4   9  20  39  61  86 114 145 190 245 292 329
#     4  11  21  32  51  82 121 154 180 226 291 348
#     4  11  23  37  54  83 123 161 184 223 289 352
#     4  11  21  35  59  87 114 149 192 237 280 336
#
# _framework density 20.118479000000001
#
# number of rings (size 3 to 8) (size 9 to 14) (size 15 to 20)
#    0.000    1.400    4.000    2.400    0.000    1.600 
#    0.000    1.000    0.000   15.600    0.000    0.000 
#    0.000    0.000    0.000    0.000    0.000    0.000 
#
# Total GULP energy -111373.919638 kJ/mol
# GULP energy per Si atom -5568.695982 kJ/mol
# Density = 2.007269 g / cm^3
# Si number density = 20.118479 Si / 1000 Ang^3
#
#
#
# Elastic Constant Matrix: (Units=GPa)
#
#
# Indices 1 2 3 4 5 6 
#
# 1 28.9733 -5.3102 29.6166 0.0000 11.8356 0.0000
# 2 -5.3102 38.9409 9.1918 0.0000 -2.5702 0.0000
# 3 29.6166 9.1918 151.5048 0.0000 5.2080 0.0000
# 4 0.0000 0.0000 0.0000 51.5031 0.0000 -34.2563
# 5 11.8356 -2.5702 5.2080 0.0000 32.2071 0.0000
# 6 0.0000 0.0000 0.0000 -34.2563 0.0000 37.8854
#
#
#
# Elastic Compliance Matrix: (Units=1/GPa)
#
#
# Indices 1 2 3 4 5 6 
#
# 1 0.053927 0.008674 -0.010469 0.000000 -0.017432 0.000000
# 2 0.008674 0.027626 -0.003357 0.000000 -0.000440 0.000000
# 3 -0.010469 -0.003357 0.008776 0.000000 0.002160 0.000000
# 4 0.000000 0.000000 0.000000 0.048713 0.000000 0.044047
# 5 -0.017432 -0.000440 0.002160 0.000000 0.037071 0.000000
# 6 0.000000 0.000000 0.000000 0.044047 0.000000 0.066223
#
#
# Mechanical properties :
#
#
# Convention : Reuss Voigt Hill
#
# Bulk Modulus (GPa) = 12.49582 31.82393 22.15988
# Shear Modulus (GPa) = 17.90102 36.71383 27.30743
#
# Velocity S-wave (km/s) = 2.98615 4.27650 3.68819
# Velocity P-wave (km/s) = 4.25607 6.34328 5.40145
#
# Compressibility (1/GPa) = 0.08002675
#
# Stress axis : x y z
#
# Youngs Moduli (GPa) = 18.54373 36.19768 113.94307
#
# Poissons Ratio (x) = -0.31399 1.19284
# Poissons Ratio (y) = -0.16085 0.38246
# Poissons Ratio (z) = 0.19413 0.12150
#
# Static dielectric constant tensor:
#      x y z
#    x 1.690930 0.000000 -0.025190 
#    y 0.000000 1.710490 0.000000 
#    z -0.025190 0.000000 1.747520 
# 
# From -- ./inp_files/44616.got.cif
#   From: 2010.05.17/outbox.cif.g08.bks.cpg/sg10_23_cif.got.tgz:44616.got - 2010.06.03 11:33:40.
