data_PCOD9154988
_publ_section_title
;
Structure prediction by ZEFSAII (Michael W. Deem and Ramdas Pophale) SiO2 
 PCOD9154988
Probable space group: P 2/M
;
_chemical_formula_sum "Si O2"
_cell_formula_units_Z 28
_cell_length_a 30.484702
_cell_length_b 7.569952
_cell_length_c 9.440963
_cell_angle_alpha 90.000000
_cell_angle_beta 140.857077
_cell_angle_gamma 90.000000
_cell_volume 1375.300449
_symmetry_space_group_name_H-M "P 2/M"
_symmetry_group_IT_number 10
_symmetry_cell_setting 'monoclinic'
loop_
_space_group_symop_operation_xyz
x,y,z
-x,y,-z
-x,-y,-z
x,-y,z
loop_
_atom_site_type_symbol
_atom_site_label
_atom_site_fract_x
_atom_site_fract_y
_atom_site_fract_z
Si Si1 0.297145 0.715727 0.074066
Si Si2 0.145953 0.290484 0.718196
Si Si3 0.567802 0.283699 0.081825
Si Si4 0.567745 0.716230 0.757242
Si Si5 0.150588 0.799282 0.058035
Si Si6 0.696109 0.705836 0.585599
Si Si7 0.996942 0.212651 0.329156
O O1 0.299318 0.500000 0.079566
O O2 0.218842 0.764894 0.830979
O O3 0.361055 0.775195 0.139021
O O4 0.305373 0.777903 0.257679
O O5 0.150081 0.500000 0.754440
O O6 0.144485 0.203576 0.870587
O O7 0.072920 0.254638 0.458690
O O8 0.568531 0.500000 0.080592
O O9 0.637498 0.221115 0.335402
O O10 0.500000 0.230834 0.000000
O O11 0.564178 0.226001 0.910579
O O12 0.500000 0.771794 0.500000
O O13 0.567923 0.500000 0.756698
O O14 0.075910 0.722041 0.918585
O O15 0.154980 0.000000 0.118944
O O16 0.225258 0.716297 0.275319
O O17 0.679128 0.500000 0.559765
O O18 0.000000 0.279028 0.500000
O O19 0.991267 0.000000 0.319433
#
# Coordination Sequence:
#
# PCOD9154988 Si02
#       7
#     4   4   4   4   4   4   4
#     4   8  14  23  34  53  82 111 137 167 205 246
#     4   9  15  22  35  56  83 112 140 174 212 248
#     4   9  16  25  39  61  87 112 138 171 209 247
#     4   9  15  23  37  57  83 114 140 163 201 252
#     4   9  16  25  37  55  81 112 143 174 209 250
#     4   9  16  26  40  60  86 111 138 175 212 245
#     4   8  14  23  34  52  80 110 140 174 210 249
#
# _framework density 20.359186999999999
#
# number of rings (size 3 to 8) (size 9 to 14) (size 15 to 20)
#    0.000    3.286    0.000    3.429    0.000    6.571 
#    0.000    0.000    0.000    0.429    0.000    6.000 
#    0.000   27.429    0.000    0.000    0.000    0.000 
#
# Total GULP energy -155905.308308 kJ/mol
# GULP energy per Si atom -5568.046725 kJ/mol
# Density = 2.031285 g / cm^3
# Si number density = 20.359187 Si / 1000 Ang^3
#
#
#
# Elastic Constant Matrix: (Units=GPa)
#
#
# Indices 1 2 3 4 5 6 
#
# 1 140.1104 2.4882 105.3398 0.0000 41.0576 0.0000
# 2 2.4882 45.3985 -0.0081 0.0000 -2.0023 0.0000
# 3 105.3398 -0.0081 149.9666 0.0000 41.2353 0.0000
# 4 0.0000 0.0000 0.0000 18.3503 0.0000 31.6387
# 5 41.0576 -2.0023 41.2353 0.0000 35.9276 0.0000
# 6 0.0000 0.0000 0.0000 31.6387 0.0000 38.6119
#
#
#
# Elastic Compliance Matrix: (Units=1/GPa)
#
#
# Indices 1 2 3 4 5 6 
#
# 1 0.016694 -0.001283 -0.009440 0.000000 -0.008314 0.000000
# 2 -0.001283 0.022205 0.000233 0.000000 0.002437 0.000000
# 3 -0.009440 0.000233 0.015092 0.000000 -0.006521 0.000000
# 4 0.000000 0.000000 0.000000 -0.132021 0.000000 0.108178
# 5 -0.008314 0.002437 -0.006521 0.000000 0.044955 0.000000
# 6 0.000000 0.000000 0.000000 0.108178 0.000000 -0.062743
#
#
# Mechanical properties :
#
#
# Convention : Reuss Voigt Hill
#
# Bulk Modulus (GPa) = 30.29470 61.23504 45.76487
# Shear Modulus (GPa) = -78.32913 33.75499 -22.28707
#
# Velocity S-wave (km/s) = -6.20944 4.07624 -3.31220
# Velocity P-wave (km/s) = 6.04128 7.23166 2.81068
#
# Compressibility (1/GPa) = 0.03300907
#
# Stress axis : x y z
#
# Youngs Moduli (GPa) = 59.90270 45.03486 66.26046
#
# Poissons Ratio (x) = 0.05780 0.62550
# Poissons Ratio (y) = 0.07688 -0.01541
# Poissons Ratio (z) = 0.56548 -0.01047
#
# Static dielectric constant tensor:
#      x y z
#    x 1.725120 0.000000 0.050670 
#    y 0.000000 1.775160 0.000000 
#    z 0.050670 0.000000 1.742670 
# 
# From -- ./inp_files/38039.got.cif
#   From: 2010.05.17/outbox.cif.g08.bks.cpg/sg10_20_cif.got.tgz:38039.got - 2010.06.03 11:33:40.
