data_PCOD9154009
_publ_section_title
;
Structure prediction by ZEFSAII (Michael W. Deem and Ramdas Pophale) SiO2 
 PCOD9154009
Probable space group: P 2/M
;
_chemical_formula_sum "Si O2"
_cell_formula_units_Z 32
_cell_length_a 12.310618
_cell_length_b 8.472192
_cell_length_c 18.058354
_cell_angle_alpha 90.000000
_cell_angle_beta 65.601871
_cell_angle_gamma 90.000000
_cell_volume 1715.251408
_symmetry_space_group_name_H-M "P 2/M"
_symmetry_group_IT_number 10
_symmetry_cell_setting 'monoclinic'
loop_
_space_group_symop_operation_xyz
x,y,z
-x,y,-z
-x,-y,-z
x,-y,z
loop_
_atom_site_type_symbol
_atom_site_label
_atom_site_fract_x
_atom_site_fract_y
_atom_site_fract_z
Si Si1 0.378396 0.308578 0.995202
Si Si2 0.943689 0.690526 0.400041
Si Si3 0.931942 0.809533 0.095099
Si Si4 0.187085 0.309804 0.416739
Si Si5 0.983609 0.188096 0.765837
Si Si6 0.584809 0.813897 0.733347
Si Si7 0.730385 0.313250 0.828196
Si Si8 0.664032 0.689571 0.158590
O O1 0.380458 0.500000 0.989631
O O2 0.281677 0.261883 0.083039
O O3 0.500000 0.258901 0.000000
O O4 0.360169 0.249802 0.918369
O O5 0.946170 0.500000 0.392550
O O6 0.845042 0.731738 0.489626
O O7 0.924408 0.765690 0.324916
O O8 0.071068 0.740126 0.401021
O O9 0.988977 0.759699 0.157852
O O10 0.794919 0.754374 0.139072
O O11 0.934573 0.000000 0.092091
O O12 0.000000 0.754167 0.000000
O O13 0.191880 0.500000 0.409749
O O14 0.311402 0.244511 0.351200
O O15 0.864395 0.273153 0.771135
O O16 0.967037 0.000000 0.771052
O O17 0.637527 0.766908 0.799261
O O18 0.452837 0.740426 0.762585
O O19 0.573959 0.000000 0.731207
O O20 0.707355 0.500000 0.829874
O O21 0.669298 0.500000 0.157571
#
# Coordination Sequence:
#
# PCOD9154009 Si02
#       8
#     4   4   4   4   4   4   4   4
#     4   9  17  31  50  74 104 137 177 227 277 321
#     4   9  18  33  56  83 114 150 188 231 279 335
#     4  10  23  43  61  80 115 156 192 238 287 332
#     4   9  18  34  55  82 115 152 187 225 280 339
#     4  11  22  35  55  83 114 148 189 233 284 337
#     4  12  23  34  52  82 118 151 182 223 283 345
#     4  11  20  33  53  77 110 147 186 232 278 328
#     4  11  22  38  60  82 107 146 196 240 281 335
#
# _framework density 18.656155999999999
#
# number of rings (size 3 to 8) (size 9 to 14) (size 15 to 20)
#    0.000    1.750    2.500    3.750    0.000    1.750 
#    0.000    3.750    0.000    0.750    0.000    5.250 
#    0.000    0.000    0.000    0.000    0.000    0.000 
#
# Total GULP energy -178429.084560 kJ/mol
# GULP energy per Si atom -5575.908892 kJ/mol
# Density = 1.861369 g / cm^3
# Si number density = 18.656156 Si / 1000 Ang^3
#
#
#
# Elastic Constant Matrix: (Units=GPa)
#
#
# Indices 1 2 3 4 5 6 
#
# 1 71.9359 6.5766 32.5295 0.0000 -13.2521 0.0000
# 2 6.5766 20.9196 17.6770 0.0000 -0.8610 0.0000
# 3 32.5295 17.6770 132.5614 0.0000 -8.4091 0.0000
# 4 0.0000 0.0000 0.0000 -52.0613 0.0000 27.5183
# 5 -13.2521 -0.8610 -8.4091 0.0000 28.8863 0.0000
# 6 0.0000 0.0000 0.0000 27.5183 0.0000 12.4270
#
#
#
# Elastic Compliance Matrix: (Units=1/GPa)
#
#
# Indices 1 2 3 4 5 6 
#
# 1 0.016880 -0.002130 -0.003434 0.000000 0.006681 0.000000
# 2 -0.002130 0.054148 -0.006783 0.000000 -0.001337 0.000000
# 3 -0.003434 -0.006783 0.009351 0.000000 0.000944 0.000000
# 4 0.000000 0.000000 0.000000 -0.008850 0.000000 0.019597
# 5 0.006681 -0.001337 0.000944 0.000000 0.037918 0.000000
# 6 0.000000 0.000000 0.000000 0.019597 0.000000 0.037075
#
#
# Mechanical properties :
#
#
# Convention : Reuss Voigt Hill
#
# Bulk Modulus (GPa) = 17.95816 37.66479 27.81148
# Shear Modulus (GPa) = 26.34665 9.09264 17.71965
#
# Velocity S-wave (km/s) = 3.76203 2.21006 3.08523
# Velocity P-wave (km/s) = 5.34016 5.17158 5.25655
#
# Compressibility (1/GPa) = 0.05568500
#
# Stress axis : x y z
#
# Youngs Moduli (GPa) = 59.24275 18.46787 106.94213
#
# Poissons Ratio (x) = 0.03933 0.36728
# Poissons Ratio (y) = 0.12616 0.72538
# Poissons Ratio (z) = 0.20346 0.12527
#
# Static dielectric constant tensor:
#      x y z
#    x 1.633940 0.000000 -0.016740 
#    y 0.000000 1.637240 0.000000 
#    z -0.016740 0.000000 1.727120 
# 
# From -- ./inp_files/83339.got.cif
#   From: 2010.05.17/outbox.cif.g08.bks.cpg/sg10_42_cif.got.tgz:83339.got - 2010.06.03 11:33:40.
