data_PCOD9154113
_publ_section_title
;
Structure prediction by ZEFSAII (Michael W. Deem and Ramdas Pophale) SiO2 
 PCOD9154113
Probable space group: P 2/M
;
_chemical_formula_sum "Si O2"
_cell_formula_units_Z 16
_cell_length_a 5.140580
_cell_length_b 22.911243
_cell_length_c 5.261513
_cell_angle_alpha 90.000000
_cell_angle_beta 88.038187
_cell_angle_gamma 90.000000
_cell_volume 619.322405
_symmetry_space_group_name_H-M "P 2/M"
_symmetry_group_IT_number 10
_symmetry_cell_setting 'monoclinic'
loop_
_space_group_symop_operation_xyz
x,y,z
-x,y,-z
-x,-y,-z
x,-y,z
loop_
_atom_site_type_symbol
_atom_site_label
_atom_site_fract_x
_atom_site_fract_y
_atom_site_fract_z
Si Si1 0.500000 0.218605 0.500000
Si Si2 0.818356 0.310383 0.757513
Si Si3 0.818889 0.437963 0.755905
Si Si4 0.737292 0.871267 0.170086
Si Si5 0.824646 0.000000 0.258224
O O1 0.607551 0.260808 0.715080
O O2 0.276056 0.175006 0.604283
O O3 0.686002 0.374795 0.764891
O O4 0.000000 0.308565 0.500000
O O5 0.000000 0.302820 0.000000
O O6 0.669390 0.500000 0.756657
O O7 0.000000 0.437951 0.500000
O O8 0.000000 0.438324 0.000000
O O9 0.683063 0.937943 0.258267
O O10 0.500000 0.854846 0.000000
O O11 0.000000 0.869525 0.000000
O O12 0.000000 0.000000 0.500000
O O13 0.000000 0.000000 0.000000
#
# Coordination Sequence:
#
# PCOD9154113 Si02
#       5
#     2   4   4   4   2
#     4  12  30  43  75 106 158 196 262 298 386 456
#     4  10  24  43  66  98 145 194 247 311 375 447
#     4   8  14  30  58  90 126 178 239 303 371 435
#     4  11  29  51  79 113 151 200 252 316 379 458
#     4  10  25  51  81 113 152 190 252 317 385 444
#
# _framework density 25.834689000000001
#
# number of rings (size 3 to 8) (size 9 to 14) (size 15 to 20)
#    0.000    2.000    0.000    0.375   14.000    0.500 
#    0.000    0.625    0.000    0.000    0.000   17.500 
#    0.000    3.000    0.000    0.750    0.000    0.000 
#
# Total GULP energy -89618.356366 kJ/mol
# GULP energy per Si atom -5601.147273 kJ/mol
# Density = 2.577589 g / cm^3
# Si number density = 25.834689 Si / 1000 Ang^3
#
#
#
# Elastic Constant Matrix: (Units=GPa)
#
#
# Indices 1 2 3 4 5 6 
#
# 1 85.4600 46.3251 44.8275 0.0000 -1.8293 0.0000
# 2 46.3251 295.7218 45.7563 0.0000 2.7475 0.0000
# 3 44.8275 45.7563 183.7672 0.0000 4.0601 0.0000
# 4 0.0000 0.0000 0.0000 43.3230 0.0000 50.9311
# 5 -1.8293 2.7475 4.0601 0.0000 55.6685 0.0000
# 6 0.0000 0.0000 0.0000 50.9311 0.0000 63.0642
#
#
#
# Elastic Compliance Matrix: (Units=1/GPa)
#
#
# Indices 1 2 3 4 5 6 
#
# 1 0.014284 -0.001771 -0.003060 0.000000 0.000780 0.000000
# 2 -0.001771 0.003737 -0.000494 0.000000 -0.000207 0.000000
# 3 -0.003060 -0.000494 0.006323 0.000000 -0.000537 0.000000
# 4 0.000000 0.000000 0.000000 0.456454 0.000000 -0.368635
# 5 0.000780 -0.000207 -0.000537 0.000000 0.018039 0.000000
# 6 0.000000 0.000000 0.000000 -0.368635 0.000000 0.313569
#
#
# Mechanical properties :
#
#
# Convention : Reuss Voigt Hill
#
# Bulk Modulus (GPa) = 73.03163 93.19631 83.11397
# Shear Modulus (GPa) = 6.04141 60.94716 33.49428
#
# Velocity S-wave (km/s) = 1.53087 4.86235 3.60458
# Velocity P-wave (km/s) = 5.60847 8.22652 7.04026
#
# Compressibility (1/GPa) = 0.01369270
#
# Stress axis : x y z
#
# Youngs Moduli (GPa) = 70.01049 267.56800 158.15053
#
# Poissons Ratio (x) = 0.47393 0.48402
# Poissons Ratio (y) = 0.12401 0.07812
# Poissons Ratio (z) = 0.21427 0.13216
#
# Static dielectric constant tensor:
#      x y z
#    x 1.952960 0.000000 -0.107560 
#    y 0.000000 2.091180 0.000000 
#    z -0.107560 0.000000 2.000920 
# 
# From -- ./inp_files/1644.got.cif
#   From: 2010.05.17/outbox.cif.g08.bks.cpg/sg10_1_cif.got.tgz:1644.got - 2010.06.03 11:33:40.
