data_PCOD9154748
_publ_section_title
;
Structure prediction by ZEFSAII (Michael W. Deem and Ramdas Pophale) SiO2 
 PCOD9154748
Probable space group: P 2/M
;
_chemical_formula_sum "Si O2"
_cell_formula_units_Z 28
_cell_length_a 23.438721
_cell_length_b 7.471305
_cell_length_c 19.007776
_cell_angle_alpha 90.000000
_cell_angle_beta 156.441601
_cell_angle_gamma 90.000000
_cell_volume 1330.386983
_symmetry_space_group_name_H-M "P 2/M"
_symmetry_group_IT_number 10
_symmetry_cell_setting 'monoclinic'
loop_
_space_group_symop_operation_xyz
x,y,z
-x,y,-z
-x,-y,-z
x,-y,z
loop_
_atom_site_type_symbol
_atom_site_label
_atom_site_fract_x
_atom_site_fract_y
_atom_site_fract_z
Si Si1 0.709343 0.208897 0.843893
Si Si2 0.398213 0.216986 0.527542
Si Si3 0.488075 0.217552 0.783377
Si Si4 0.193991 0.781655 0.897884
Si Si5 0.374217 0.218824 0.805031
Si Si6 0.147264 0.705343 0.139606
Si Si7 0.943463 0.218863 0.512627
O O1 0.547244 0.279388 0.660636
O O2 0.786407 0.220467 0.856952
O O3 0.690206 0.000000 0.838371
O O4 0.795485 0.279147 0.008968
O O5 0.410571 0.270470 0.623272
O O6 0.263898 0.285138 0.332819
O O7 0.389603 0.000000 0.514635
O O8 0.413307 0.277241 0.770256
O O9 0.487853 0.000000 0.783619
O O10 0.654611 0.270463 0.966016
O O11 0.056908 0.721225 0.699610
O O12 0.188426 0.000000 0.889842
O O13 0.217708 0.276622 0.653092
O O14 0.373382 0.000000 0.804044
O O15 0.500000 0.274154 0.000000
O O16 0.116379 0.500000 0.087050
O O17 0.000000 0.789466 0.000000
O O18 0.000000 0.273817 0.500000
O O19 0.941831 0.000000 0.510964
#
# Coordination Sequence:
#
# PCOD9154748 Si02
#       7
#     4   4   4   4   4   4   4
#     4   9  18  33  53  74  94 120 157 198 239 285
#     4   9  18  33  53  74  94 120 157 198 239 285
#     4   8  14  25  40  59  84 112 144 185 229 272
#     4   8  14  25  40  59  84 112 144 185 229 272
#     4   9  15  21  31  50  79 116 153 185 220 264
#     4  11  24  37  48  68  98 127 156 193 236 282
#     4   9  15  21  31  50  79 116 153 185 220 264
#
# _framework density 21.046507999999999
#
# number of rings (size 3 to 8) (size 9 to 14) (size 15 to 20)
#    0.000    3.000    0.000    3.429    0.000    8.000 
#    0.000    2.857    0.000    0.000    0.000    0.000 
#    0.000    1.143    0.000    3.714    0.000    8.286 
#
# Total GULP energy -156251.405850 kJ/mol
# GULP energy per Si atom -5580.407352 kJ/mol
# Density = 2.099861 g / cm^3
# Si number density = 21.046508 Si / 1000 Ang^3
#
#
#
# Elastic Constant Matrix: (Units=GPa)
#
#
# Indices 1 2 3 4 5 6 
#
# 1 179.0686 -8.4776 119.4951 0.0000 13.2079 0.0000
# 2 -8.4776 52.6126 -6.9708 0.0000 1.5831 0.0000
# 3 119.4951 -6.9708 200.7997 0.0000 -2.3947 0.0000
# 4 0.0000 0.0000 0.0000 6.4004 0.0000 19.0236
# 5 13.2079 1.5831 -2.3947 0.0000 23.4289 0.0000
# 6 0.0000 0.0000 0.0000 19.0236 0.0000 -45.8227
#
#
#
# Elastic Compliance Matrix: (Units=1/GPa)
#
#
# Indices 1 2 3 4 5 6 
#
# 1 0.010175 0.001025 -0.006096 0.000000 -0.006429 0.000000
# 2 0.001025 0.019233 0.000035 0.000000 -0.001874 0.000000
# 3 -0.006096 0.000035 0.008661 0.000000 0.004320 0.000000
# 4 0.000000 0.000000 0.000000 0.069939 0.000000 0.029036
# 5 -0.006429 -0.001874 0.004320 0.000000 0.046875 0.000000
# 6 0.000000 0.000000 0.000000 0.029036 0.000000 -0.009769
#
#
# Mechanical properties :
#
#
# Convention : Reuss Voigt Hill
#
# Bulk Modulus (GPa) = 35.71760 71.17491 53.44625
# Shear Modulus (GPa) = 30.39182 18.69695 24.54438
#
# Velocity S-wave (km/s) = 3.80416 2.98378 3.41867
# Velocity P-wave (km/s) = 6.02521 6.76475 6.40566
#
# Compressibility (1/GPa) = 0.02799740
#
# Stress axis : x y z
#
# Youngs Moduli (GPa) = 98.27641 51.99370 115.46324
#
# Poissons Ratio (x) = -0.05331 0.70391
# Poissons Ratio (y) = -0.10076 -0.00406
# Poissons Ratio (z) = 0.59913 -0.00183
#
# Static dielectric constant tensor:
#      x y z
#    x 1.730900 0.000000 0.011680 
#    y 0.000000 1.792240 0.000000 
#    z 0.011680 0.000000 1.729330 
# 
# From -- ./inp_files/86533.got.cif
#   From: 2010.05.17/outbox.cif.g08.bks.cpg/sg10_44_cif.got.tgz:86533.got - 2010.06.03 11:33:40.
