data_PCOD9154037
_publ_section_title
;
Structure prediction by ZEFSAII (Michael W. Deem and Ramdas Pophale) SiO2 
 PCOD9154037
Probable space group: P 2/M
;
_chemical_formula_sum "Si O2"
_cell_formula_units_Z 20
_cell_length_a 14.545559
_cell_length_b 9.010413
_cell_length_c 14.105888
_cell_angle_alpha 90.000000
_cell_angle_beta 29.609828
_cell_angle_gamma 90.000000
_cell_volume 913.445188
_symmetry_space_group_name_H-M "P 2/M"
_symmetry_group_IT_number 10
_symmetry_cell_setting 'monoclinic'
loop_
_space_group_symop_operation_xyz
x,y,z
-x,y,-z
-x,-y,-z
x,-y,z
loop_
_atom_site_type_symbol
_atom_site_label
_atom_site_fract_x
_atom_site_fract_y
_atom_site_fract_z
Si Si1 0.242683 0.326506 0.032377
Si Si2 0.720500 0.177545 0.403328
Si Si3 0.922326 0.822320 0.415001
Si Si4 0.385792 0.674797 0.194531
Si Si5 0.274088 0.176894 0.808948
O O1 0.198476 0.500000 0.073227
O O2 0.125387 0.245736 0.219301
O O3 0.461044 0.309602 0.859454
O O4 0.199821 0.255676 0.968920
O O5 0.819436 0.230092 0.409722
O O6 0.498311 0.198586 0.608475
O O7 0.787934 0.231782 0.239547
O O8 0.749428 0.000000 0.374833
O O9 0.798060 0.762167 0.611956
O O10 0.929245 0.000000 0.411791
O O11 0.342204 0.500000 0.221268
O O12 0.500000 0.725106 0.000000
O O13 0.237328 0.000000 0.849382
#
# Coordination Sequence:
#
# PCOD9154037 Si02
#       5
#     4   4   4   4   4
#     4  11  23  38  58  87 120 153 190 235 290 345
#     4   8  16  31  56  85 114 152 193 234 277 330
#     4  11  22  38  62  90 118 150 192 239 285 337
#     4  10  23  44  65  83 111 152 193 237 292 350
#     4   9  16  33  58  83 114 153 198 235 273 330
#
# _framework density 21.895128
#
# number of rings (size 3 to 8) (size 9 to 14) (size 15 to 20)
#    0.000    2.200    2.000    2.400    0.000    2.800 
#    0.000   12.000    0.000    0.000    0.000    0.000 
#    0.000    0.000    0.000    0.000    0.000    0.000 
#
# Total GULP energy -111738.372634 kJ/mol
# GULP energy per Si atom -5586.918632 kJ/mol
# Density = 2.184529 g / cm^3
# Si number density = 21.895128 Si / 1000 Ang^3
#
#
#
# Elastic Constant Matrix: (Units=GPa)
#
#
# Indices 1 2 3 4 5 6 
#
# 1 43.6538 12.9407 10.4465 0.0000 14.9333 0.0000
# 2 12.9407 66.0044 67.6587 0.0000 4.5956 0.0000
# 3 10.4465 67.6587 162.6197 0.0000 20.7387 0.0000
# 4 0.0000 0.0000 0.0000 42.0472 0.0000 7.8485
# 5 14.9333 4.5956 20.7387 0.0000 38.2709 0.0000
# 6 0.0000 0.0000 0.0000 7.8485 0.0000 15.9940
#
#
#
# Elastic Compliance Matrix: (Units=1/GPa)
#
#
# Indices 1 2 3 4 5 6 
#
# 1 0.028535 -0.007732 0.002885 0.000000 -0.011769 0.000000
# 2 -0.007732 0.028835 -0.012293 0.000000 0.006216 0.000000
# 3 0.002885 -0.012293 0.011853 0.000000 -0.006073 0.000000
# 4 0.000000 0.000000 0.000000 0.026181 0.000000 -0.012847
# 5 -0.011769 0.006216 -0.006073 0.000000 0.033266 0.000000
# 6 0.000000 0.000000 0.000000 -0.012847 0.000000 0.068828
#
#
# Mechanical properties :
#
#
# Convention : Reuss Voigt Hill
#
# Bulk Modulus (GPa) = 28.61849 50.48553 39.55201
# Shear Modulus (GPa) = 20.54015 31.34455 25.94235
#
# Velocity S-wave (km/s) = 3.06619 3.78772 3.44589
# Velocity P-wave (km/s) = 5.06305 6.49900 5.82544
#
# Compressibility (1/GPa) = 0.03494244
#
# Stress axis : x y z
#
# Youngs Moduli (GPa) = 35.04411 34.68065 84.36778
#
# Poissons Ratio (x) = 0.26817 -0.24340
# Poissons Ratio (y) = 0.27098 1.03711
# Poissons Ratio (z) = -0.10110 0.42632
#
# Static dielectric constant tensor:
#      x y z
#    x 1.863430 0.000000 0.004790 
#    y 0.000000 1.728120 0.000000 
#    z 0.004790 0.000000 1.809810 
# 
# From -- ./inp_files/31147.got.cif
#   From: 2010.05.17/outbox.cif.g08.bks.cpg/sg10_16_cif.got.tgz:31147.got - 2010.06.03 11:33:40.
