data_PCOD9154053
_publ_section_title
;
Structure prediction by ZEFSAII (Michael W. Deem and Ramdas Pophale) SiO2 
 PCOD9154053
Probable space group: P 2/M
;
_chemical_formula_sum "Si O2"
_cell_formula_units_Z 16
_cell_length_a 5.126854
_cell_length_b 23.134881
_cell_length_c 6.297664
_cell_angle_alpha 90.000000
_cell_angle_beta 103.392224
_cell_angle_gamma 90.000000
_cell_volume 726.648759
_symmetry_space_group_name_H-M "P 2/M"
_symmetry_group_IT_number 10
_symmetry_cell_setting 'monoclinic'
loop_
_space_group_symop_operation_xyz
x,y,z
-x,y,-z
-x,-y,-z
x,-y,z
loop_
_atom_site_type_symbol
_atom_site_label
_atom_site_fract_x
_atom_site_fract_y
_atom_site_fract_z
Si Si1 0.500000 0.598890 0.000000
Si Si2 0.130234 0.000000 0.280785
Si Si3 0.294441 0.882807 0.151139
Si Si4 0.704537 0.500000 0.347505
Si Si5 0.000000 0.320822 0.000000
Si Si6 0.777230 0.233300 0.624481
O O1 0.361233 0.556343 0.804267
O O2 0.738423 0.639468 0.964490
O O3 0.284552 0.060490 0.294849
O O4 0.000000 0.000000 0.500000
O O5 0.000000 0.000000 0.000000
O O6 0.340100 0.821983 0.272906
O O7 0.500000 0.892519 0.000000
O O8 0.000000 0.875881 0.000000
O O9 0.500000 0.500000 0.500000
O O10 0.000000 0.500000 0.500000
O O11 0.050739 0.278030 0.205445
O O12 0.500000 0.263537 0.500000
O O13 0.000000 0.211110 0.500000
#
# Coordination Sequence:
#
# PCOD9154053 Si02
#       6
#     2   2   4   2   2   4
#     4  11  26  44  70 106 138 193 226 294 354 421
#     4  10  23  44  72 104 144 189 247 319 392 464
#     4  11  23  44  70  99 139 184 240 306 376 449
#     4  11  24  45  74 104 144 181 236 287 351 419
#     4  12  26  45  68  99 152 176 246 290 352 428
#     4  12  26  43  69 100 136 191 241 298 366 435
#
# _framework density 22.018892000000001
#
# number of rings (size 3 to 8) (size 9 to 14) (size 15 to 20)
#    0.000    0.750    1.250    5.625    1.750   10.000 
#    0.000    5.625    0.000    0.000    0.000    0.000 
#    0.000    0.000    0.000    0.000    0.000    0.000 
#
# Total GULP energy -89299.422988 kJ/mol
# GULP energy per Si atom -5581.213937 kJ/mol
# Density = 2.196878 g / cm^3
# Si number density = 22.018892 Si / 1000 Ang^3
#
#
#
# Elastic Constant Matrix: (Units=GPa)
#
#
# Indices 1 2 3 4 5 6 
#
# 1 154.9378 25.2052 55.3915 0.0000 -6.8029 0.0000
# 2 25.2052 137.9511 43.5288 0.0000 -13.4961 0.0000
# 3 55.3915 43.5288 106.8623 0.0000 -1.8819 0.0000
# 4 0.0000 0.0000 0.0000 118.7643 0.0000 121.5077
# 5 -6.8029 -13.4961 -1.8819 0.0000 64.0439 0.0000
# 6 0.0000 0.0000 0.0000 121.5077 0.0000 178.0163
#
#
#
# Elastic Compliance Matrix: (Units=1/GPa)
#
#
# Indices 1 2 3 4 5 6 
#
# 1 0.007957 -0.000100 -0.004071 0.000000 0.000704 0.000000
# 2 -0.000100 0.008498 -0.003380 0.000000 0.001681 0.000000
# 3 -0.004071 -0.003380 0.012831 0.000000 -0.000768 0.000000
# 4 0.000000 0.000000 0.000000 0.027912 0.000000 -0.019051
# 5 0.000704 0.001681 -0.000768 0.000000 0.016021 0.000000
# 6 0.000000 0.000000 0.000000 -0.019051 0.000000 0.018621
#
#
# Mechanical properties :
#
#
# Convention : Reuss Voigt Hill
#
# Bulk Modulus (GPa) = 70.50421 72.00023 71.25222
# Shear Modulus (GPa) = 44.77431 90.53995 67.65713
#
# Velocity S-wave (km/s) = 4.51427 6.41938 5.54919
# Velocity P-wave (km/s) = 7.69811 9.36562 8.57251
#
# Compressibility (1/GPa) = 0.01418355
#
# Stress axis : x y z
#
# Youngs Moduli (GPa) = 125.67673 117.67128 77.93384
#
# Poissons Ratio (x) = 0.01180 0.31728
# Poissons Ratio (y) = 0.01260 0.26342
# Poissons Ratio (z) = 0.51165 0.39773
#
# Static dielectric constant tensor:
#      x y z
#    x 1.813790 0.000000 0.054550 
#    y 0.000000 1.858210 0.000000 
#    z 0.054550 0.000000 1.944870 
# 
# From -- ./inp_files/1819.got.cif
#   From: 2010.05.17/outbox.cif.g08.bks.cpg/sg10_1_cif.got.tgz:1819.got - 2010.06.03 11:33:40.
