data_PCOD9154052
_publ_section_title
;
Structure prediction by ZEFSAII (Michael W. Deem and Ramdas Pophale) SiO2 
 PCOD9154052
Probable space group: P 2/M
;
_chemical_formula_sum "Si O2"
_cell_formula_units_Z 20
_cell_length_a 5.264363
_cell_length_b 28.717825
_cell_length_c 5.563475
_cell_angle_alpha 90.000000
_cell_angle_beta 100.316356
_cell_angle_gamma 90.000000
_cell_volume 827.494891
_symmetry_space_group_name_H-M "P 2/M"
_symmetry_group_IT_number 10
_symmetry_cell_setting 'monoclinic'
loop_
_space_group_symop_operation_xyz
x,y,z
-x,y,-z
-x,-y,-z
x,-y,z
loop_
_atom_site_type_symbol
_atom_site_label
_atom_site_fract_x
_atom_site_fract_y
_atom_site_fract_z
Si Si1 0.350644 0.000000 0.217512
Si Si2 0.782768 0.747299 0.664194
Si Si3 0.218409 0.550925 0.332078
Si Si4 0.657712 0.350598 0.780192
Si Si5 0.790304 0.096805 0.650375
Si Si6 0.000000 0.820519 0.000000
O O1 0.500000 0.000000 0.500000
O O2 0.232678 0.948362 0.188559
O O3 0.500000 0.000000 0.000000
O O4 0.500000 0.749530 0.500000
O O5 0.832572 0.694458 0.758158
O O6 0.000000 0.760085 0.500000
O O7 0.784757 0.782038 0.892605
O O8 0.500000 0.549530 0.500000
O O9 0.190962 0.500000 0.208856
O O10 0.221239 0.598102 0.180176
O O11 0.000000 0.555010 0.500000
O O12 0.500000 0.352795 0.500000
O O13 0.500000 0.342066 0.000000
O O14 0.500000 0.107647 0.500000
O O15 0.000000 0.079062 0.500000
O O16 0.929108 0.142243 0.781719
#
# Coordination Sequence:
#
# PCOD9154052 Si02
#       6
#     2   4   4   4   4   2
#     4  10  25  49  81 113 158 200 252 303 371 445
#     4  11  27  48  71 106 144 191 253 308 373 445
#     4   9  18  37  65 100 139 180 230 292 363 437
#     4  10  23  44  71 101 141 188 242 300 364 441
#     4  11  27  49  75 116 153 196 251 306 370 447
#     4  12  28  45  84 100 157 192 254 308 384 426
#
# _framework density 24.169331
#
# number of rings (size 3 to 8) (size 9 to 14) (size 15 to 20)
#    0.000    1.600    0.000    2.100   11.200    2.400 
#    0.000    0.000    0.000   10.800    0.000    0.000 
#    0.000    0.000    0.000    0.000    0.000    0.200 
#
# Total GULP energy -111360.248564 kJ/mol
# GULP energy per Si atom -5568.012428 kJ/mol
# Density = 2.411432 g / cm^3
# Si number density = 24.169331 Si / 1000 Ang^3
#
#
#
# Elastic Constant Matrix: (Units=GPa)
#
#
# Indices 1 2 3 4 5 6 
#
# 1 147.5233 5.1077 67.7133 0.0000 1.4498 0.0000
# 2 5.1077 192.1547 29.9586 0.0000 -15.5494 0.0000
# 3 67.7133 29.9586 115.4320 0.0000 10.5352 0.0000
# 4 0.0000 0.0000 0.0000 1844.6118 0.0000 -396.6032
# 5 1.4498 -15.5494 10.5352 0.0000 54.3896 0.0000
# 6 0.0000 0.0000 0.0000 -396.6032 0.0000 94.5214
#
#
#
# Elastic Compliance Matrix: (Units=1/GPa)
#
#
# Indices 1 2 3 4 5 6 
#
# 1 0.009410 0.000744 -0.005812 0.000000 0.001088 0.000000
# 2 0.000744 0.005673 -0.002092 0.000000 0.002007 0.000000
# 3 -0.005812 -0.002092 0.012884 0.000000 -0.002939 0.000000
# 4 0.000000 0.000000 0.000000 0.005540 0.000000 0.023246
# 5 0.001088 0.002007 -0.002939 0.000000 0.019500 0.000000
# 6 0.000000 0.000000 0.000000 0.023246 0.000000 0.108118
#
#
# Mechanical properties :
#
#
# Convention : Reuss Voigt Hill
#
# Bulk Modulus (GPa) = 73.28032 73.40768 73.34400
# Shear Modulus (GPa) = 27.77870 422.19325 224.98598
#
# Velocity S-wave (km/s) = 3.39387 13.23105 9.65865
# Velocity P-wave (km/s) = 6.76337 16.24353 12.44177
#
# Compressibility (1/GPa) = 0.01364623
#
# Stress axis : x y z
#
# Youngs Moduli (GPa) = 106.26956 176.27508 77.61643
#
# Poissons Ratio (x) = -0.13116 0.45114
# Poissons Ratio (y) = -0.07907 0.16237
# Poissons Ratio (z) = 0.61768 0.36877
#
# Static dielectric constant tensor:
#      x y z
#    x 1.928930 0.000000 0.053220 
#    y 0.000000 1.947750 0.000000 
#    z 0.053220 0.000000 1.989400 
# 
# From -- ./inp_files/2300.got.cif
#   From: 2010.05.17/outbox.cif.g08.bks.cpg/sg10_2_cif.got.tgz:2300.got - 2010.06.03 11:33:40.
