data_PCOD9154964
_publ_section_title
;
Structure prediction by ZEFSAII (Michael W. Deem and Ramdas Pophale) SiO2 
 PCOD9154964
Probable space group: P 2/M
;
_chemical_formula_sum "Si O2"
_cell_formula_units_Z 28
_cell_length_a 19.832384
_cell_length_b 7.487615
_cell_length_c 19.832362
_cell_angle_alpha 90.000000
_cell_angle_beta 27.842302
_cell_angle_gamma 90.000000
_cell_volume 1375.455620
_symmetry_space_group_name_H-M "P 2/M"
_symmetry_group_IT_number 10
_symmetry_cell_setting 'monoclinic'
loop_
_space_group_symop_operation_xyz
x,y,z
-x,y,-z
-x,-y,-z
x,-y,z
loop_
_atom_site_type_symbol
_atom_site_label
_atom_site_fract_x
_atom_site_fract_y
_atom_site_fract_z
Si Si1 0.838611 0.718653 0.661389
Si Si2 0.519378 0.714333 0.695432
Si Si3 0.559129 0.212263 0.377322
Si Si4 0.403183 0.282135 0.230244
Si Si5 0.195431 0.714334 0.019379
Si Si6 0.730243 0.717865 0.903183
Si Si7 0.877322 0.787737 0.059128
O O1 0.836916 0.500000 0.663084
O O2 0.722056 0.777522 0.708945
O O3 0.791054 0.777523 0.777945
O O4 0.000000 0.774231 0.500000
O O5 0.518581 0.500000 0.698252
O O6 0.544625 0.763132 0.595657
O O7 0.612054 0.774352 0.677945
O O8 0.356301 0.777595 0.856302
O O9 0.500000 0.284874 0.500000
O O10 0.718158 0.285607 0.218158
O O11 0.575368 0.000000 0.371178
O O12 0.401791 0.500000 0.230721
O O13 0.562986 0.229871 0.062987
O O14 0.198250 0.500000 0.018583
O O15 0.095656 0.763132 0.044625
O O16 0.177945 0.774352 0.112054
O O17 0.730720 0.500000 0.901792
O O18 0.871178 0.000000 0.075367
O O19 0.000000 0.715127 0.000000
#
# Coordination Sequence:
#
# PCOD9154964 Si02
#       7
#     4   4   4   4   4   4   4
#     4   9  15  21  31  51  80 107 126 152 194 235
#     4   8  14  25  41  60  81 105 134 167 200 234
#     4   9  17  29  44  61  81 105 133 165 200 238
#     4   8  13  22  36  52  71  99 133 162 188 225
#     4   8  14  25  41  60  81 105 134 167 200 234
#     4   8  13  22  36  52  71  99 133 162 188 225
#     4   9  17  29  44  61  81 105 133 165 200 238
#
# _framework density 20.356891999999998
#
# number of rings (size 3 to 8) (size 9 to 14) (size 15 to 20)
#    0.000    3.571    0.000    2.143    0.000    2.286 
#    0.000    1.429    0.000    1.714    0.000    1.000 
#    0.000    8.000    0.000    0.000    0.000    0.000 
#
# Total GULP energy -155910.987012 kJ/mol
# GULP energy per Si atom -5568.249536 kJ/mol
# Density = 2.031056 g / cm^3
# Si number density = 20.356892 Si / 1000 Ang^3
#
#
#
# Elastic Constant Matrix: (Units=GPa)
#
#
# Indices 1 2 3 4 5 6 
#
# 1 238.8460 3.9470 97.3715 0.0000 35.5079 0.0000
# 2 3.9470 53.4733 3.4033 0.0000 0.2289 0.0000
# 3 97.3715 3.4033 89.8097 0.0000 27.0185 0.0000
# 4 0.0000 0.0000 0.0000 -0.3461 0.0000 13.6853
# 5 35.5079 0.2289 27.0185 0.0000 31.9807 0.0000
# 6 0.0000 0.0000 0.0000 13.6853 0.0000 32.2687
#
#
#
# Elastic Compliance Matrix: (Units=1/GPa)
#
#
# Indices 1 2 3 4 5 6 
#
# 1 0.007596 -0.000066 -0.007637 0.000000 -0.001981 0.000000
# 2 -0.000066 0.018756 -0.000832 0.000000 0.000642 0.000000
# 3 -0.007637 -0.000832 0.022650 0.000000 -0.010651 0.000000
# 4 0.000000 0.000000 0.000000 -0.162599 0.000000 0.068959
# 5 -0.001981 0.000642 -0.010651 0.000000 0.042462 0.000000
# 6 0.000000 0.000000 0.000000 0.068959 0.000000 0.001744
#
#
# Mechanical properties :
#
#
# Convention : Reuss Voigt Hill
#
# Bulk Modulus (GPa) = 31.31699 65.73028 48.52364
# Shear Modulus (GPa) = -119.97022 31.27447 -44.34788
#
# Velocity S-wave (km/s) = -7.68514 3.92383 -4.67252
# Velocity P-wave (km/s) = 7.95809 7.27239 2.28512
#
# Compressibility (1/GPa) = 0.03193155
#
# Stress axis : x y z
#
# Youngs Moduli (GPa) = 131.65275 53.31617 44.14982
#
# Poissons Ratio (x) = 0.00353 0.33716
# Poissons Ratio (y) = 0.00871 0.03675
# Poissons Ratio (z) = 1.00540 0.04437
#
# Static dielectric constant tensor:
#      x y z
#    x 1.759080 0.000000 0.021800 
#    y 0.000000 1.768640 0.000000 
#    z 0.021800 0.000000 1.707120 
# 
# From -- ./inp_files/67098.got.cif
#   From: 2010.05.17/outbox.cif.g08.bks.cpg/sg10_34_cif.got.tgz:67098.got - 2010.06.03 11:33:40.
