data_PCOD9154589
_publ_section_title
;
Structure prediction by ZEFSAII (Michael W. Deem and Ramdas Pophale) SiO2 
 PCOD9154589
Probable space group: P 2/M
;
_chemical_formula_sum "Si O2"
_cell_formula_units_Z 28
_cell_length_a 32.259809
_cell_length_b 7.561249
_cell_length_c 32.259924
_cell_angle_alpha 90.000000
_cell_angle_beta 170.595606
_cell_angle_gamma 90.000000
_cell_volume 1285.804775
_symmetry_space_group_name_H-M "P 2/M"
_symmetry_group_IT_number 10
_symmetry_cell_setting 'monoclinic'
loop_
_space_group_symop_operation_xyz
x,y,z
-x,y,-z
-x,-y,-z
x,-y,z
loop_
_atom_site_type_symbol
_atom_site_label
_atom_site_fract_x
_atom_site_fract_y
_atom_site_fract_z
Si Si1 0.403291 0.216860 0.998572
Si Si2 0.275933 0.284019 0.155862
Si Si3 0.200473 0.283120 0.369193
Si Si4 0.737299 0.716277 0.761823
Si Si5 0.542021 0.207796 0.854031
Si Si6 0.932868 0.292184 0.671052
Si Si7 0.927471 0.784058 0.474656
O O1 0.143673 0.271743 0.720355
O O2 0.402091 0.000000 0.997551
O O3 0.428602 0.282936 0.070688
O O4 0.649594 0.271510 0.215384
O O5 0.276433 0.500000 0.156674
O O6 0.526069 0.227369 0.377856
O O7 0.281574 0.226553 0.209143
O O8 0.022506 0.228913 0.881977
O O9 0.201990 0.500000 0.370999
O O10 0.139905 0.217111 0.355730
O O11 0.500000 0.773228 0.500000
O O12 0.735537 0.500000 0.760391
O O13 0.000000 0.771482 0.000000
O O14 0.276341 0.246069 0.569725
O O15 0.551534 0.000000 0.869018
O O16 0.782767 0.253610 0.063169
O O17 0.917394 0.500000 0.660917
O O18 0.000000 0.726369 0.500000
O O19 0.926472 0.000000 0.473286
#
# Coordination Sequence:
#
# PCOD9154589 Si02
#       7
#     4   4   4   4   4   4   4
#     4   9  17  28  43  66  98 133 165 201 250 309
#     4   9  15  24  37  54  79 113 155 199 244 293
#     4   9  17  28  43  62  85 117 159 208 252 291
#     4   9  15  21  30  47  73 107 149 193 232 281
#     4  11  22  37  56  79 110 145 177 213 268 327
#     4  11  22  37  56  79 106 137 182 231 266 305
#     4   9  15  24  40  64  96 131 163 199 248 301
#
# _framework density 21.776244999999999
#
# number of rings (size 3 to 8) (size 9 to 14) (size 15 to 20)
#    0.000    2.429    0.000    3.857    0.000    9.714 
#    0.000    0.000    0.000    0.000    0.000    0.000 
#    0.000   40.000    0.000    0.000    0.000  180.000 
#
# Total GULP energy -156478.012452 kJ/mol
# GULP energy per Si atom -5588.500445 kJ/mol
# Density = 2.172668 g / cm^3
# Si number density = 21.776245 Si / 1000 Ang^3
#
#
#
# Elastic Constant Matrix: (Units=GPa)
#
#
# Indices 1 2 3 4 5 6 
#
# 1 57.9459 -1.8198 -37.6466 0.0000 -0.3753 0.0000
# 2 -1.8198 49.7815 -4.4185 0.0000 -0.3337 0.0000
# 3 -37.6466 -4.4185 65.7164 0.0000 1.3115 0.0000
# 4 0.0000 0.0000 0.0000 9.3434 0.0000 -3.2925
# 5 -0.3753 -0.3337 1.3115 0.0000 45.0635 0.0000
# 6 0.0000 0.0000 0.0000 -3.2925 0.0000 35.5374
#
#
#
# Elastic Compliance Matrix: (Units=1/GPa)
#
#
# Indices 1 2 3 4 5 6 
#
# 1 0.027782 0.002442 0.016084 0.000000 -0.000219 0.000000
# 2 0.002442 0.020424 0.002770 0.000000 0.000091 0.000000
# 3 0.016084 0.002770 0.024628 0.000000 -0.000562 0.000000
# 4 0.000000 0.000000 0.000000 0.110640 0.000000 0.010251
# 5 -0.000219 0.000091 -0.000562 0.000000 0.022206 0.000000
# 6 0.000000 0.000000 0.000000 0.010251 0.000000 0.029089
#
#
# Mechanical properties :
#
#
# Convention : Reuss Voigt Hill
#
# Bulk Modulus (GPa) = 8.66358 9.51935 9.09147
# Shear Modulus (GPa) = 21.67765 32.47745 27.07755
#
# Velocity S-wave (km/s) = 3.15853 3.86608 3.53008
# Velocity P-wave (km/s) = 4.15799 4.93048 4.56062
#
# Compressibility (1/GPa) = 0.11542571
#
# Stress axis : x y z
#
# Youngs Moduli (GPa) = 35.99423 48.96319 40.60371
#
# Poissons Ratio (x) = -0.11955 -0.65307
# Poissons Ratio (y) = -0.08789 -0.11248
# Poissons Ratio (z) = -0.57893 -0.13564
#
# Static dielectric constant tensor:
#      x y z
#    x 1.782660 0.000000 -0.006570 
#    y 0.000000 1.893540 0.000000 
#    z -0.006570 0.000000 1.716410 
# 
# From -- ./inp_files/94304.got.cif
#   From: 2010.05.17/outbox.cif.g08.bks.cpg/sg10_48_cif.got.tgz:94304.got - 2010.06.03 11:33:40.
