data_PCOD9154907
_publ_section_title
;
Structure prediction by ZEFSAII (Michael W. Deem and Ramdas Pophale) SiO2 
 PCOD9154907
Probable space group: P 2/M
;
_chemical_formula_sum "Si O2"
_cell_formula_units_Z 32
_cell_length_a 21.650675
_cell_length_b 7.417383
_cell_length_c 9.856544
_cell_angle_alpha 90.000000
_cell_angle_beta 91.568653
_cell_angle_gamma 90.000000
_cell_volume 1582.282498
_symmetry_space_group_name_H-M "P 2/M"
_symmetry_group_IT_number 10
_symmetry_cell_setting 'monoclinic'
loop_
_space_group_symop_operation_xyz
x,y,z
-x,y,-z
-x,-y,-z
x,-y,z
loop_
_atom_site_type_symbol
_atom_site_label
_atom_site_fract_x
_atom_site_fract_y
_atom_site_fract_z
Si Si1 0.626173 0.216216 0.839683
Si Si2 0.443358 0.712930 0.905728
Si Si3 0.511105 0.210690 0.652170
Si Si4 0.847172 0.219555 0.530097
Si Si5 0.898395 0.779364 0.258767
Si Si6 0.961282 0.219274 0.723495
Si Si7 0.239439 0.779884 0.240108
Si Si8 0.126182 0.780486 0.044936
O O1 0.569329 0.285752 0.742656
O O2 0.692136 0.282642 0.791183
O O3 0.625997 0.000000 0.828057
O O4 0.614242 0.254197 0.998460
O O5 0.450955 0.500000 0.896147
O O6 0.453014 0.779020 0.752802
O O7 0.500000 0.789689 0.000000
O O8 0.500000 0.286092 0.500000
O O9 0.525095 0.000000 0.633059
O O10 0.853045 0.277962 0.375982
O O11 0.910465 0.274509 0.610039
O O12 0.789284 0.277405 0.617396
O O13 0.846557 0.000000 0.532049
O O14 0.968790 0.721515 0.292474
O O15 0.898801 0.000000 0.257902
O O16 0.879205 0.718960 0.108738
O O17 0.932271 0.272667 0.866380
O O18 0.962537 0.000000 0.719903
O O19 0.188569 0.725478 0.125439
O O20 0.240638 0.000000 0.240046
O O21 0.126044 0.000000 0.044107
#
# Coordination Sequence:
#
# PCOD9154907 Si02
#       8
#     4   4   4   4   4   4   4   4
#     4   9  16  28  46  62  81 113 146 173 204 246
#     4   9  17  29  46  68  90 111 138 171 206 244
#     4   9  17  29  45  67  92 114 138 170 208 247
#     4   8  13  19  26  37  56  82 116 156 192 231
#     4   9  13  16  24  38  55  79 114 157 199 233
#     4   8  12  17  24  34  51  78 113 152 194 237
#     4   8  14  24  34  45  64  94 129 160 194 235
#     4   8  13  19  26  38  57  81 115 158 195 230
#
# _framework density 20.223949000000001
#
# number of rings (size 3 to 8) (size 9 to 14) (size 15 to 20)
#    0.000    3.500    0.000    2.625    0.000    4.750 
#    0.000    1.250    0.000    6.000    0.000    0.000 
#    0.000    0.000    0.000    0.000    0.000   20.000 
#
# Total GULP energy -178299.545456 kJ/mol
# GULP energy per Si atom -5571.860796 kJ/mol
# Density = 2.017792 g / cm^3
# Si number density = 20.223949 Si / 1000 Ang^3
#
#
#
# Elastic Constant Matrix: (Units=GPa)
#
#
# Indices 1 2 3 4 5 6 
#
# 1 99.5430 -1.4285 49.2622 0.0000 -35.4251 0.0000
# 2 -1.4285 64.3608 -2.4944 0.0000 1.1071 0.0000
# 3 49.2622 -2.4944 154.5529 0.0000 -38.4367 0.0000
# 4 0.0000 0.0000 0.0000 -59.3540 0.0000 48.5827
# 5 -35.4251 1.1071 -38.4367 0.0000 22.4515 0.0000
# 6 0.0000 0.0000 0.0000 48.5827 0.0000 -59.0332
#
#
#
# Elastic Compliance Matrix: (Units=1/GPa)
#
#
# Indices 1 2 3 4 5 6 
#
# 1 0.023704 -0.000089 0.003040 0.000000 0.042611 0.000000
# 2 -0.000089 0.015552 0.000094 0.000000 -0.000747 0.000000
# 3 0.003040 0.000094 0.011658 0.000000 0.024751 0.000000
# 4 0.000000 0.000000 0.000000 -0.051622 0.000000 -0.042483
# 5 0.042611 -0.000747 0.024751 0.000000 0.154186 0.000000
# 6 0.000000 0.000000 0.000000 -0.042483 0.000000 -0.051902
#
#
# Mechanical properties :
#
#
# Convention : Reuss Voigt Hill
#
# Bulk Modulus (GPa) = 17.54251 45.45949 31.50100
# Shear Modulus (GPa) = 43.67242 -0.97933 21.34655
#
# Velocity S-wave (km/s) = 4.65202 -0.69663 3.25238
# Velocity P-wave (km/s) = 6.12764 4.67758 5.45105
#
# Compressibility (1/GPa) = 0.05700439
#
# Stress axis : x y z
#
# Youngs Moduli (GPa) = 42.18611 64.30077 85.77570
#
# Poissons Ratio (x) = 0.00572 -0.26078
# Poissons Ratio (y) = 0.00376 -0.00803
# Poissons Ratio (z) = -0.12826 -0.00602
#
# Static dielectric constant tensor:
#      x y z
#    x 1.698840 0.000000 -0.016170 
#    y 0.000000 1.766940 0.000000 
#    z -0.016170 0.000000 1.730500 
# 
# From -- ./inp_files/35685.got.cif
#   From: 2010.05.17/outbox.cif.g08.bks.cpg/sg10_18_cif.got.tgz:35685.got - 2010.06.03 11:33:40.
