data_PCOD9154937
_publ_section_title
;
Structure prediction by ZEFSAII (Michael W. Deem and Ramdas Pophale) SiO2 
 PCOD9154937
Probable space group: P 2/M
;
_chemical_formula_sum "Si O2"
_cell_formula_units_Z 28
_cell_length_a 15.417255
_cell_length_b 13.328444
_cell_length_c 7.327517
_cell_angle_alpha 90.000000
_cell_angle_beta 103.747580
_cell_angle_gamma 90.000000
_cell_volume 1462.581342
_symmetry_space_group_name_H-M "P 2/M"
_symmetry_group_IT_number 10
_symmetry_cell_setting 'monoclinic'
loop_
_space_group_symop_operation_xyz
x,y,z
-x,y,-z
-x,-y,-z
x,-y,z
loop_
_atom_site_type_symbol
_atom_site_label
_atom_site_fract_x
_atom_site_fract_y
_atom_site_fract_z
Si Si1 0.599712 0.885249 0.017304
Si Si2 0.599712 0.885249 0.582409
Si Si3 0.897167 0.000000 0.170796
Si Si4 0.214275 0.803600 0.330024
Si Si5 0.102833 0.000000 0.273628
Si Si6 0.102647 0.386655 0.273510
Si Si7 0.214274 0.803600 0.884251
Si Si8 0.102647 0.386655 0.829138
O O1 0.610000 0.892055 0.805000
O O2 0.684010 0.821826 0.125401
O O3 0.603890 0.000000 0.090659
O O4 0.500000 0.845716 0.000000
O O5 0.500000 0.845717 0.500000
O O6 0.684010 0.821826 0.558609
O O7 0.603891 0.000000 0.513232
O O8 0.844413 0.099943 0.200059
O O9 0.000000 0.000000 0.281302
O O10 0.897520 0.000000 0.948761
O O11 0.155587 0.900058 0.355645
O O12 0.168395 0.700820 0.368002
O O13 0.213476 0.801885 0.106738
O O14 0.125768 0.500000 0.342216
O O15 0.000000 0.365966 0.275952
O O16 0.103497 0.386263 0.051749
O O17 0.168395 0.700819 0.800393
O O18 0.125768 0.500000 0.783553
#
# Coordination Sequence:
#
# PCOD9154937 Si02
#       8
#     4   4   2   4   2   4   4   4
#     4   9  16  26  39  55  76 100 128 160 191 225
#     4   9  16  26  39  55  76 100 128 160 191 225
#     4   9  14  18  27  46  71  95 115 141 184 229
#     4   9  14  21  32  48  71  97 122 151 186 222
#     4   9  14  18  27  46  71  95 115 141 184 229
#     4   8  13  20  30  46  70 100 128 149 176 222
#     4   9  14  21  32  48  71  97 122 151 186 222
#     4   8  13  20  30  46  70 100 128 149 176 222
#
# _framework density 19.144234000000001
#
# number of rings (size 3 to 8) (size 9 to 14) (size 15 to 20)
#    0.000    3.286    1.429    1.714    0.000    3.429 
#    0.000    0.000    0.000    0.857    0.000    0.000 
#    0.000    5.714    0.000    3.143    0.000    2.857 
#
# Total GULP energy -156187.654154 kJ/mol
# GULP energy per Si atom -5578.130505 kJ/mol
# Density = 1.910066 g / cm^3
# Si number density = 19.144234 Si / 1000 Ang^3
#
#
#
# Elastic Constant Matrix: (Units=GPa)
#
#
# Indices 1 2 3 4 5 6 
#
# 1 165.1914 113.7797 32.8647 0.0000 54.9374 0.0000
# 2 113.7797 158.5472 21.4947 0.0000 42.4003 0.0000
# 3 32.8647 21.4947 63.3902 0.0000 -8.1658 0.0000
# 4 0.0000 0.0000 0.0000 -1.3460 0.0000 7.4928
# 5 54.9374 42.4003 -8.1658 0.0000 35.3702 0.0000
# 6 0.0000 0.0000 0.0000 7.4928 0.0000 14.9647
#
#
#
# Elastic Compliance Matrix: (Units=1/GPa)
#
#
# Indices 1 2 3 4 5 6 
#
# 1 0.025345 -0.006834 -0.015293 0.000000 -0.034704 0.000000
# 2 -0.006834 0.012735 -0.001416 0.000000 -0.004978 0.000000
# 3 -0.015293 -0.001416 0.028305 0.000000 0.031986 0.000000
# 4 0.000000 0.000000 0.000000 -0.196168 0.000000 0.098222
# 5 -0.034704 -0.004978 0.031986 0.000000 0.095527 0.000000
# 6 0.000000 0.000000 0.000000 0.098222 0.000000 0.017644
#
#
# Mechanical properties :
#
#
# Convention : Reuss Voigt Hill
#
# Bulk Modulus (GPa) = 51.82119 80.37858 66.09988
# Shear Modulus (GPa) = 135.47171 24.39709 79.93440
#
# Velocity S-wave (km/s) = 8.42124 3.57372 6.46873
# Velocity P-wave (km/s) = 11.03105 7.68802 9.50762
#
# Compressibility (1/GPa) = 0.01929713
#
# Stress axis : x y z
#
# Youngs Moduli (GPa) = 39.45590 78.52267 35.32986
#
# Poissons Ratio (x) = 0.53664 0.54030
# Poissons Ratio (y) = 0.26965 0.05004
# Poissons Ratio (z) = 0.60340 0.11122
#
# Static dielectric constant tensor:
#      x y z
#    x 1.677210 0.000000 -0.047380 
#    y 0.000000 1.631820 0.000000 
#    z -0.047380 0.000000 1.780340 
# 
# From -- ./inp_files/50421.got.cif
#   From: 2010.05.17/outbox.cif.g08.bks.cpg/sg10_26_cif.got.tgz:50421.got - 2010.06.03 11:33:40.
