data_PCOD9154365
_publ_section_title
;
Structure prediction by ZEFSAII (Michael W. Deem and Ramdas Pophale) SiO2 
 PCOD9154365
Probable space group: P 2/M
;
_chemical_formula_sum "Si O2"
_cell_formula_units_Z 24
_cell_length_a 16.542942
_cell_length_b 7.657197
_cell_length_c 9.323152
_cell_angle_alpha 90.000000
_cell_angle_beta 64.857155
_cell_angle_gamma 90.000000
_cell_volume 1069.090589
_symmetry_space_group_name_H-M "P 2/M"
_symmetry_group_IT_number 10
_symmetry_cell_setting 'monoclinic'
loop_
_space_group_symop_operation_xyz
x,y,z
-x,y,-z
-x,-y,-z
x,-y,z
loop_
_atom_site_type_symbol
_atom_site_label
_atom_site_fract_x
_atom_site_fract_y
_atom_site_fract_z
Si Si1 0.584802 0.713301 0.346783
Si Si2 0.138262 0.287622 0.989631
Si Si3 0.223349 0.194907 0.320696
Si Si4 0.671269 0.709169 0.004343
Si Si5 0.228098 0.711152 0.646021
Si Si6 0.952028 0.695653 0.672952
O O1 0.500000 0.775607 0.500000
O O2 0.581534 0.500000 0.346827
O O3 0.595754 0.770374 0.172667
O O4 0.676052 0.760181 0.359643
O O5 0.130202 0.500000 0.995122
O O6 0.234768 0.245664 0.987553
O O7 0.150741 0.231430 0.815683
O O8 0.061870 0.225847 0.157685
O O9 0.223790 0.220431 0.489173
O O10 0.149167 0.318528 0.308148
O O11 0.193335 0.000000 0.309329
O O12 0.316153 0.224368 0.166595
O O13 0.665425 0.500000 0.001003
O O14 0.224862 0.500000 0.642814
O O15 0.992070 0.500000 0.659474
O O16 0.000000 0.782146 0.500000
#
# Coordination Sequence:
#
# PCOD9154365 Si02
#       6
#     4   4   4   4   4   4
#     4   8  14  27  51  79  97 113 150 203 245 275
#     4   7  12  25  46  69  88 113 151 187 221 269
#     4  11  21  31  45  67  96 127 160 193 225 270
#     4   8  14  28  49  69  91 120 155 192 232 280
#     4   9  16  29  49  69  93 123 154 191 233 276
#     4   9  17  32  54  75  93 116 150 192 238 285
#
# _framework density 22.448986000000001
#
# number of rings (size 3 to 8) (size 9 to 14) (size 15 to 20)
#    0.000    3.333    0.000    4.500    0.000    0.333 
#    0.000    9.167    0.000   12.000    0.000    0.000 
#    0.000    0.000    0.000    0.000    0.000    0.000 
#
# Total GULP energy -133619.052190 kJ/mol
# GULP energy per Si atom -5567.460508 kJ/mol
# Density = 2.239789 g / cm^3
# Si number density = 22.448986 Si / 1000 Ang^3
#
#
#
# Elastic Constant Matrix: (Units=GPa)
#
#
# Indices 1 2 3 4 5 6 
#
# 1 23.6514 1.5555 37.6171 0.0000 -9.0975 0.0000
# 2 1.5555 57.4240 12.8711 0.0000 -0.7690 0.0000
# 3 37.6171 12.8711 274.1210 0.0000 -17.7303 0.0000
# 4 0.0000 0.0000 0.0000 0.4436 0.0000 47.4185
# 5 -9.0975 -0.7690 -17.7303 0.0000 31.5807 0.0000
# 6 0.0000 0.0000 0.0000 47.4185 0.0000 21.8537
#
#
#
# Elastic Compliance Matrix: (Units=1/GPa)
#
#
# Indices 1 2 3 4 5 6 
#
# 1 0.058722 0.000203 -0.007236 0.000000 0.012859 0.000000
# 2 0.000203 0.017600 -0.000854 0.000000 0.000008 0.000000
# 3 -0.007236 -0.000854 0.004716 0.000000 0.000542 0.000000
# 4 0.000000 0.000000 0.000000 -0.009761 0.000000 0.021180
# 5 0.012859 0.000008 0.000542 0.000000 0.035674 0.000000
# 6 0.000000 0.000000 0.000000 0.021180 0.000000 -0.000198
#
#
# Mechanical properties :
#
#
# Convention : Reuss Voigt Hill
#
# Bulk Modulus (GPa) = 15.32196 51.03155 33.17676
# Shear Modulus (GPa) = 34.65436 30.98578 32.82007
#
# Velocity S-wave (km/s) = 3.93325 3.71924 3.82774
# Velocity P-wave (km/s) = 5.24093 6.42069 5.86057
#
# Compressibility (1/GPa) = 0.06526580
#
# Stress axis : x y z
#
# Youngs Moduli (GPa) = 17.02925 56.81722 212.03445
#
# Poissons Ratio (x) = -0.01156 1.53433
# Poissons Ratio (y) = -0.00346 0.18104
# Poissons Ratio (z) = 0.12323 0.04851
#
# Static dielectric constant tensor:
#      x y z
#    x 1.805190 0.000000 -0.022140 
#    y 0.000000 1.843750 0.000000 
#    z -0.022140 0.000000 1.954050 
# 
# From -- ./inp_files/27171.got.cif
#   From: 2010.05.17/outbox.cif.g08.bks.cpg/sg10_14_cif.got.tgz:27171.got - 2010.06.03 11:33:40.
