data_PCOD9154699
_publ_section_title
;
Structure prediction by ZEFSAII (Michael W. Deem and Ramdas Pophale) SiO2 
 PCOD9154699
Probable space group: P 2/M
;
_chemical_formula_sum "Si O2"
_cell_formula_units_Z 32
_cell_length_a 8.866284
_cell_length_b 23.196284
_cell_length_c 14.674526
_cell_angle_alpha 90.000000
_cell_angle_beta 149.230974
_cell_angle_gamma 90.000000
_cell_volume 1543.961153
_symmetry_space_group_name_H-M "P 2/M"
_symmetry_group_IT_number 10
_symmetry_cell_setting 'monoclinic'
loop_
_space_group_symop_operation_xyz
x,y,z
-x,y,-z
-x,-y,-z
x,-y,z
loop_
_atom_site_type_symbol
_atom_site_label
_atom_site_fract_x
_atom_site_fract_y
_atom_site_fract_z
Si Si1 0.264999 0.217722 0.796477
Si Si2 0.788373 0.345500 0.304500
Si Si3 0.314741 0.858108 0.310934
Si Si4 0.141090 0.436066 0.807318
Si Si5 0.118252 0.366082 0.960290
Si Si6 0.330985 0.887845 0.687208
Si Si7 0.266732 0.934808 0.958746
Si Si8 0.810589 0.261073 0.698341
O O1 0.287865 0.280598 0.764217
O O2 0.296083 0.168910 0.735429
O O3 0.957990 0.225662 0.691059
O O4 0.500000 0.210267 0.000000
O O5 0.932494 0.384497 0.300233
O O6 0.000000 0.344818 0.500000
O O7 0.467975 0.371480 0.154568
O O8 0.500000 0.864932 0.500000
O O9 0.506766 0.876709 0.323946
O O10 0.247238 0.790396 0.261036
O O11 0.010229 0.892881 0.168912
O O12 0.048072 0.500000 0.730520
O O13 0.023899 0.418501 0.845852
O O14 0.500000 0.435978 0.000000
O O15 0.016651 0.309148 0.850744
O O16 0.000000 0.364087 0.000000
O O17 0.000000 0.909102 0.500000
O O18 0.535954 0.931109 0.848889
O O19 0.163502 0.000000 0.886904
O O20 0.500000 0.918855 0.000000
O O21 0.500000 0.285125 0.500000
#
# Coordination Sequence:
#
# PCOD9154699 Si02
#       8
#     4   4   4   4   4   4   4   4
#     4  12  22  41  64  92 131 168 216 267 328 391
#     4  11  23  39  62  93 125 168 218 263 321 394
#     4  11  25  44  66  98 136 175 220 275 335 390
#     4   9  19  42  65  87 124 170 218 268 320 384
#     4  11  24  37  61  96 128 166 211 269 330 389
#     4  12  25  41  67  99 133 174 221 274 333 394
#     4  11  25  46  71  98 133 180 226 273 325 389
#     4  11  23  39  62  89 134 170 208 268 334 394
#
# _framework density 20.725912000000001
#
# number of rings (size 3 to 8) (size 9 to 14) (size 15 to 20)
#    0.000    1.000    2.500    5.250    3.500    2.000 
#    0.000    0.000    0.000    2.625    0.000    0.000 
#    0.000    0.000    0.000    0.000    0.000    0.000 
#
# Total GULP energy -178643.420037 kJ/mol
# GULP energy per Si atom -5582.606876 kJ/mol
# Density = 2.067874 g / cm^3
# Si number density = 20.725912 Si / 1000 Ang^3
#
#
#
# Elastic Constant Matrix: (Units=GPa)
#
#
# Indices 1 2 3 4 5 6 
#
# 1 131.1607 10.5751 28.7586 0.0000 -6.7964 0.0000
# 2 10.5751 74.3011 19.5544 0.0000 -10.3008 0.0000
# 3 28.7586 19.5544 117.9398 0.0000 -3.7982 0.0000
# 4 0.0000 0.0000 0.0000 -1.5157 0.0000 -3.8460
# 5 -6.7964 -10.3008 -3.7982 0.0000 31.4888 0.0000
# 6 0.0000 0.0000 0.0000 -3.8460 0.0000 15.2290
#
#
#
# Elastic Compliance Matrix: (Units=1/GPa)
#
#
# Indices 1 2 3 4 5 6 
#
# 1 0.008142 -0.000478 -0.001862 0.000000 0.001376 0.000000
# 2 -0.000478 0.014717 -0.002180 0.000000 0.004448 0.000000
# 3 -0.001862 -0.002180 0.009295 0.000000 0.000006 0.000000
# 4 0.000000 0.000000 0.000000 -0.402084 0.000000 -0.101545
# 5 0.001376 0.004448 0.000006 0.000000 0.033510 0.000000
# 6 0.000000 0.000000 0.000000 -0.101545 0.000000 0.040019
#
#
# Mechanical properties :
#
#
# Convention : Reuss Voigt Hill
#
# Bulk Modulus (GPa) = 43.26422 49.01977 46.14200
# Shear Modulus (GPa) = -17.87915 26.67463 4.39774
#
# Velocity S-wave (km/s) = -2.94027 3.59140 1.45824
# Velocity P-wave (km/s) = 3.06477 6.39533 5.01464
#
# Compressibility (1/GPa) = 0.02311379
#
# Stress axis : x y z
#
# Youngs Moduli (GPa) = 122.81487 67.94733 107.58951
#
# Poissons Ratio (x) = 0.03248 0.20032
# Poissons Ratio (y) = 0.05871 0.23458
# Poissons Ratio (z) = 0.22866 0.14815
#
# Static dielectric constant tensor:
#      x y z
#    x 1.793050 0.000000 0.023560 
#    y 0.000000 1.774060 0.000000 
#    z 0.023560 0.000000 1.739370 
# 
# From -- ./inp_files/62708.got.cif
#   From: 2010.05.17/outbox.cif.g08.bks.cpg/sg10_32_cif.got.tgz:62708.got - 2010.06.03 11:33:40.
