data_PCOD9154475
_publ_section_title
;
Structure prediction by ZEFSAII (Michael W. Deem and Ramdas Pophale) SiO2 
 PCOD9154475
Probable space group: P 2/M
;
_chemical_formula_sum "Si O2"
_cell_formula_units_Z 20
_cell_length_a 8.154097
_cell_length_b 23.694892
_cell_length_c 9.587263
_cell_angle_alpha 90.000000
_cell_angle_beta 31.538565
_cell_angle_gamma 90.000000
_cell_volume 968.917966
_symmetry_space_group_name_H-M "P 2/M"
_symmetry_group_IT_number 10
_symmetry_cell_setting 'monoclinic'
loop_
_space_group_symop_operation_xyz
x,y,z
-x,y,-z
-x,-y,-z
x,-y,z
loop_
_atom_site_type_symbol
_atom_site_label
_atom_site_fract_x
_atom_site_fract_y
_atom_site_fract_z
Si Si1 0.071081 0.742835 0.112742
Si Si2 0.300240 0.318670 0.384936
Si Si3 0.303083 0.065860 0.379290
Si Si4 0.060042 0.874085 0.121771
Si Si5 0.372528 0.438018 0.247880
O O1 0.420983 0.719192 0.877753
O O2 0.049310 0.808341 0.170175
O O3 0.000000 0.738742 0.000000
O O4 0.826541 0.706660 0.379360
O O5 0.428493 0.382855 0.300070
O O6 0.000000 0.318664 0.500000
O O7 0.597796 0.099211 0.104218
O O8 0.000000 0.070456 0.500000
O O9 0.385791 0.000000 0.333451
O O10 0.194920 0.092355 0.604020
O O11 0.000000 0.878166 0.000000
O O12 0.489648 0.500000 0.209864
O O13 0.000000 0.442169 0.500000
O O14 0.500000 0.426989 0.000000
#
# Coordination Sequence:
#
# PCOD9154475 Si02
#       5
#     4   4   4   4   4
#     4  11  24  40  57  82 120 157 187 233 294 342
#     4  11  21  36  60  88 112 146 199 242 279 338
#     4  11  24  41  62  89 119 148 183 236 296 341
#     4  11  24  41  61  85 114 154 198 232 276 344
#     4   9  17  31  53  83 116 146 184 239 290 330
#
# _framework density 20.641583000000001
#
# number of rings (size 3 to 8) (size 9 to 14) (size 15 to 20)
#    0.000    1.400    0.000    6.600    0.000   12.000 
#    0.000    0.000    0.000    3.600    0.000    0.000 
#    0.000    0.000    0.000    0.000    0.000    0.000 
#
# Total GULP energy -111812.456200 kJ/mol
# GULP energy per Si atom -5590.622810 kJ/mol
# Density = 2.059460 g / cm^3
# Si number density = 20.641583 Si / 1000 Ang^3
#
#
#
# Elastic Constant Matrix: (Units=GPa)
#
#
# Indices 1 2 3 4 5 6 
#
# 1 33.0301 40.7364 8.0514 0.0000 -3.1487 0.0000
# 2 40.7364 169.8214 51.0771 0.0000 20.1445 0.0000
# 3 8.0514 51.0771 131.8081 0.0000 9.1215 0.0000
# 4 0.0000 0.0000 0.0000 38.6142 0.0000 62.2948
# 5 -3.1487 20.1445 9.1215 0.0000 28.0106 0.0000
# 6 0.0000 0.0000 0.0000 62.2948 0.0000 -131.2367
#
#
#
# Elastic Compliance Matrix: (Units=1/GPa)
#
#
# Indices 1 2 3 4 5 6 
#
# 1 0.048353 -0.013773 0.001352 0.000000 0.014900 0.000000
# 2 -0.013773 0.011068 -0.002854 0.000000 -0.008579 0.000000
# 3 0.001352 -0.002854 0.008653 0.000000 -0.000613 0.000000
# 4 0.000000 0.000000 0.000000 0.014666 0.000000 0.006962
# 5 0.014900 -0.008579 -0.000613 0.000000 0.043745 0.000000
# 6 0.000000 0.000000 0.000000 0.006962 0.000000 -0.004315
#
#
# Mechanical properties :
#
#
# Convention : Reuss Voigt Hill
#
# Bulk Modulus (GPa) = 26.64937 59.37658 43.01298
# Shear Modulus (GPa) = 30.26139 2.73059 16.49599
#
# Velocity S-wave (km/s) = 3.83304 1.15140 2.83001
# Velocity P-wave (km/s) = 5.70335 5.53133 5.61800
#
# Compressibility (1/GPa) = 0.03752434
#
# Stress axis : x y z
#
# Youngs Moduli (GPa) = 20.68143 90.34676 115.57209
#
# Poissons Ratio (x) = 1.24434 -0.15631
# Poissons Ratio (y) = 0.28484 0.32986
# Poissons Ratio (z) = -0.02797 0.25786
#
# Static dielectric constant tensor:
#      x y z
#    x 1.756150 0.000000 -0.015340 
#    y 0.000000 1.761770 0.000000 
#    z -0.015340 0.000000 1.723130 
# 
# From -- ./inp_files/20593.got.cif
#   From: 2010.05.17/outbox.cif.g08.bks.cpg/sg10_11_cif.got.tgz:20593.got - 2010.06.03 11:33:40.
