data_PCOD9154421
_publ_section_title
;
Structure prediction by ZEFSAII (Michael W. Deem and Ramdas Pophale) SiO2 
 PCOD9154421
Probable space group: P 2/M
;
_chemical_formula_sum "Si O2"
_cell_formula_units_Z 32
_cell_length_a 7.990340
_cell_length_b 17.658832
_cell_length_c 23.557264
_cell_angle_alpha 90.000000
_cell_angle_beta 31.585874
_cell_angle_gamma 90.000000
_cell_volume 1740.995289
_symmetry_space_group_name_H-M "P 2/M"
_symmetry_group_IT_number 10
_symmetry_cell_setting 'monoclinic'
loop_
_space_group_symop_operation_xyz
x,y,z
-x,y,-z
-x,-y,-z
x,-y,z
loop_
_atom_site_type_symbol
_atom_site_label
_atom_site_fract_x
_atom_site_fract_y
_atom_site_fract_z
Si Si1 0.380479 0.173227 0.875918
Si Si2 0.642639 0.413399 0.221431
Si Si3 0.697783 0.590975 0.383473
Si Si4 0.207806 0.320973 0.048174
Si Si5 0.730973 0.912343 0.878404
Si Si6 0.431662 0.650855 0.168003
Si Si7 0.241063 0.815052 0.795727
Si Si8 0.357225 0.308223 0.385146
O O1 0.566924 0.127470 0.871316
O O2 0.526902 0.258587 0.834971
O O3 0.411292 0.146936 0.801023
O O4 0.000000 0.169113 0.000000
O O5 0.609306 0.500000 0.242273
O O6 0.625058 0.392634 0.160761
O O7 0.361931 0.367404 0.331854
O O8 0.981218 0.381168 0.144941
O O9 0.500000 0.598463 0.500000
O O10 0.697758 0.500000 0.369675
O O11 0.520211 0.644503 0.388889
O O12 0.067063 0.620903 0.276979
O O13 0.984576 0.247704 0.107272
O O14 0.500000 0.291997 0.000000
O O15 0.375627 0.359225 0.946085
O O16 0.040206 0.869495 0.813398
O O17 0.794932 0.000000 0.846346
O O18 0.500000 0.909922 0.000000
O O19 0.452542 0.763701 0.693112
O O20 0.000000 0.285494 0.500000
#
# Coordination Sequence:
#
# PCOD9154421 Si02
#       8
#     4   4   4   4   4   4   4   4
#     4  12  20  36  63  89 123 165 202 239 293 355
#     4  11  23  36  53  81 114 150 194 249 306 354
#     4  11  25  40  56  81 115 155 199 259 323 367
#     4  11  21  34  55  80 111 153 200 241 296 355
#     4  11  23  37  60  97 135 165 192 232 291 365
#     4  12  20  36  57  80 111 154 202 247 293 361
#     4  11  22  40  61  90 122 159 201 249 297 356
#     4  11  23  41  62  83 110 149 205 253 302 360
#
# _framework density 18.380291
#
# number of rings (size 3 to 8) (size 9 to 14) (size 15 to 20)
#    0.000    0.750    5.000    5.250    0.000    4.500 
#    0.000    0.000    0.000    0.375    0.000    0.875 
#    0.000    0.000    0.000    0.000    0.000    0.000 
#
# Total GULP energy -178427.105014 kJ/mol
# GULP energy per Si atom -5575.847032 kJ/mol
# Density = 1.833846 g / cm^3
# Si number density = 18.380291 Si / 1000 Ang^3
#
#
#
# Elastic Constant Matrix: (Units=GPa)
#
#
# Indices 1 2 3 4 5 6 
#
# 1 107.2417 49.1008 43.7487 0.0000 1.2130 0.0000
# 2 49.1008 106.6747 42.2586 0.0000 -11.7522 0.0000
# 3 43.7487 42.2586 102.8261 0.0000 -1.4390 0.0000
# 4 0.0000 0.0000 0.0000 -6.1251 0.0000 4.6672
# 5 1.2130 -11.7522 -1.4390 0.0000 24.0118 0.0000
# 6 0.0000 0.0000 0.0000 4.6672 0.0000 21.6473
#
#
#
# Elastic Compliance Matrix: (Units=1/GPa)
#
#
# Indices 1 2 3 4 5 6 
#
# 1 0.013100 -0.004979 -0.003574 0.000000 -0.003313 0.000000
# 2 -0.004979 0.013781 -0.003450 0.000000 0.006790 0.000000
# 3 -0.003574 -0.003450 0.012653 0.000000 -0.000750 0.000000
# 4 0.000000 0.000000 0.000000 -0.140225 0.000000 0.030233
# 5 -0.003313 0.006790 -0.000750 0.000000 0.045092 0.000000
# 6 0.000000 0.000000 0.000000 0.030233 0.000000 0.039677
#
#
# Mechanical properties :
#
#
# Convention : Reuss Voigt Hill
#
# Bulk Modulus (GPa) = 64.39916 65.21762 64.80839
# Shear Modulus (GPa) = 377.12888 20.01577 198.57232
#
# Velocity S-wave (km/s) = 14.33968 3.30355 10.40529
# Velocity P-wave (km/s) = 17.58641 7.07889 13.40508
#
# Compressibility (1/GPa) = 0.01552815
#
# Stress axis : x y z
#
# Youngs Moduli (GPa) = 76.33815 72.56508 79.03259
#
# Poissons Ratio (x) = 0.36129 0.28243
# Poissons Ratio (y) = 0.38008 0.27267
# Poissons Ratio (z) = 0.27280 0.25036
#
# Static dielectric constant tensor:
#      x y z
#    x 1.729920 0.000000 0.020240 
#    y 0.000000 1.612040 0.000000 
#    z 0.020240 0.000000 1.631750 
# 
# From -- ./inp_files/88318.got.cif
#   From: 2010.05.17/outbox.cif.g08.bks.cpg/sg10_45_cif.got.tgz:88318.got - 2010.06.03 11:33:40.
