data_PCOD9154204
_publ_section_title
;
Structure prediction by ZEFSAII (Michael W. Deem and Ramdas Pophale) SiO2 
 PCOD9154204
Probable space group: P 2/M
;
_chemical_formula_sum "Si O2"
_cell_formula_units_Z 32
_cell_length_a 11.819162
_cell_length_b 14.542605
_cell_length_c 13.234034
_cell_angle_alpha 90.000000
_cell_angle_beta 67.527975
_cell_angle_gamma 90.000000
_cell_volume 2101.959082
_symmetry_space_group_name_H-M "P 2/M"
_symmetry_group_IT_number 10
_symmetry_cell_setting 'monoclinic'
loop_
_space_group_symop_operation_xyz
x,y,z
-x,y,-z
-x,-y,-z
x,-y,z
loop_
_atom_site_type_symbol
_atom_site_label
_atom_site_fract_x
_atom_site_fract_y
_atom_site_fract_z
Si Si1 0.236773 0.894059 0.769603
Si Si2 0.440464 0.749999 0.203304
Si Si3 0.236773 0.394059 0.769603
Si Si4 0.630624 0.605787 0.059417
Si Si5 0.630624 0.894213 0.059417
Si Si6 0.571681 0.250000 0.371251
Si Si7 0.760049 0.249999 0.873277
Si Si8 0.027005 0.750000 0.869595
O O1 0.287349 0.891087 0.867149
O O2 0.338361 0.837725 0.671987
O O3 0.110497 0.838104 0.814284
O O4 0.224692 0.000000 0.742896
O O5 0.508751 0.662379 0.129402
O O6 0.508752 0.837620 0.129401
O O7 0.478011 0.750000 0.307902
O O8 0.299410 0.750000 0.217875
O O9 0.224692 0.500000 0.742896
O O10 0.287349 0.391088 0.867149
O O11 0.338361 0.337725 0.671987
O O12 0.110497 0.338104 0.814284
O O13 0.608140 0.500000 0.041670
O O14 0.703371 0.661907 0.950284
O O15 0.608137 0.000000 0.041673
O O16 0.703372 0.838095 0.950283
O O17 0.500000 0.250000 0.500000
O O18 0.903491 0.250000 0.846582
O O19 0.000000 0.750000 0.000000
#
# Coordination Sequence:
#
# PCOD9154204 Si02
#       8
#     4   4   4   4   4   4   4   4
#     4   9  18  31  48  71  95 121 157 194 226 265
#     4   9  19  30  42  67  94 114 150 193 231 278
#     4   9  18  31  48  71  95 121 157 194 226 265
#     4   9  16  28  45  64  92 126 152 182 223 268
#     4   9  16  28  45  64  92 126 152 182 223 268
#     4   9  18  35  55  71  87 111 151 204 249 280
#     4  11  19  27  41  65  96 129 155 178 214 269
#     4  11  18  30  44  66 100 134 162 181 205 263
#
# _framework density 15.223893
#
# number of rings (size 3 to 8) (size 9 to 14) (size 15 to 20)
#    0.000    2.500    2.500    3.000    0.000    4.000 
#    0.000    0.000    0.000    3.000    0.000    1.750 
#    0.000    0.000    0.000    0.000    0.000    0.000 
#
# Total GULP energy -178310.984040 kJ/mol
# GULP energy per Si atom -5572.218251 kJ/mol
# Density = 1.518924 g / cm^3
# Si number density = 15.223893 Si / 1000 Ang^3
#
#
#
# Elastic Constant Matrix: (Units=GPa)
#
#
# Indices 1 2 3 4 5 6 
#
# 1 148.6985 50.8887 47.4959 0.0000 1.1376 0.0000
# 2 50.8887 145.6600 43.8791 0.0000 -3.7193 0.0000
# 3 47.4959 43.8791 81.0027 0.0000 -11.2733 0.0000
# 4 0.0000 0.0000 0.0000 6.7450 0.0000 2.1392
# 5 1.1376 -3.7193 -11.2733 0.0000 6.9748 0.0000
# 6 0.0000 0.0000 0.0000 2.1392 0.0000 5.0925
#
#
#
# Elastic Compliance Matrix: (Units=1/GPa)
#
#
# Indices 1 2 3 4 5 6 
#
# 1 0.009449 -0.001700 -0.006400 0.000000 -0.012791 0.000000
# 2 -0.001700 0.008581 -0.003840 0.000000 -0.001354 0.000000
# 3 -0.006400 -0.003840 0.023273 0.000000 0.036613 0.000000
# 4 0.000000 0.000000 0.000000 0.171045 0.000000 -0.071851
# 5 -0.012791 -0.001354 0.036613 0.000000 0.203916 0.000000
# 6 0.000000 0.000000 0.000000 -0.071851 0.000000 0.226549
#
#
# Mechanical properties :
#
#
# Convention : Reuss Voigt Hill
#
# Bulk Modulus (GPa) = 57.39169 73.32096 65.35633
# Shear Modulus (GPa) = 7.43494 19.30230 13.36862
#
# Velocity S-wave (km/s) = 2.21231 3.56461 2.96655
# Velocity P-wave (km/s) = 6.65628 8.07517 7.39981
#
# Compressibility (1/GPa) = 0.01742413
#
# Stress axis : x y z
#
# Youngs Moduli (GPa) = 105.83440 116.53034 42.96737
#
# Poissons Ratio (x) = 0.19808 0.27498
# Poissons Ratio (y) = 0.17990 0.16501
# Poissons Ratio (z) = 0.67730 0.44751
#
# Static dielectric constant tensor:
#      x y z
#    x 1.527150 0.000000 0.020850 
#    y 0.000000 1.517130 0.000000 
#    z 0.020850 0.000000 1.470730 
# 
# From -- ./inp_files/47395.got.cif
#   From: 2010.05.17/outbox.cif.g08.bks.cpg/sg10_24_cif.got.tgz:47395.got - 2010.06.03 11:33:40.
