data_PCOD9154880
_publ_section_title
;
Structure prediction by ZEFSAII (Michael W. Deem and Ramdas Pophale) SiO2 
 PCOD9154880
Probable space group: P 2/M
;
_chemical_formula_sum "Si O2"
_cell_formula_units_Z 32
_cell_length_a 16.213777
_cell_length_b 7.384599
_cell_length_c 17.405576
_cell_angle_alpha 90.000000
_cell_angle_beta 50.683510
_cell_angle_gamma 90.000000
_cell_volume 1612.309713
_symmetry_space_group_name_H-M "P 2/M"
_symmetry_group_IT_number 10
_symmetry_cell_setting 'monoclinic'
loop_
_space_group_symop_operation_xyz
x,y,z
-x,y,-z
-x,-y,-z
x,-y,z
loop_
_atom_site_type_symbol
_atom_site_label
_atom_site_fract_x
_atom_site_fract_y
_atom_site_fract_z
Si Si1 0.931088 0.784937 0.113867
Si Si2 0.892669 0.721921 0.736305
Si Si3 0.139248 0.721454 0.578718
Si Si4 0.128872 0.713619 0.417179
Si Si5 0.865817 0.285112 0.917756
Si Si6 0.556165 0.721304 0.350214
Si Si7 0.732693 0.291139 0.141079
Si Si8 0.659349 0.720218 0.449926
O O1 0.814278 0.711106 0.165696
O O2 0.007959 0.739796 0.138909
O O3 0.921825 0.000000 0.115689
O O4 0.000000 0.718795 0.000000
O O5 0.890997 0.500000 0.736078
O O6 0.844327 0.784690 0.683497
O O7 0.841796 0.782745 0.846529
O O8 0.017353 0.775703 0.664421
O O9 0.139048 0.500000 0.578587
O O10 0.171385 0.782769 0.473502
O O11 0.225046 0.781523 0.590639
O O12 0.154150 0.500000 0.401019
O O13 0.000000 0.728849 0.500000
O O14 0.849512 0.500000 0.926811
O O15 0.795920 0.210781 0.030424
O O16 0.558225 0.500000 0.347735
O O17 0.622212 0.786674 0.237629
O O18 0.619017 0.778551 0.390234
O O19 0.433614 0.773110 0.435179
O O20 0.712519 0.500000 0.133655
O O21 0.661402 0.500000 0.446870
#
# Coordination Sequence:
#
# PCOD9154880 Si02
#       8
#     4   4   4   4   4   4   4   4
#     4   9  17  27  36  48  70  97 122 148 173 201
#     4   8  13  19  29  47  71  92 111 140 174 208
#     4   8  12  17  28  44  66  93 116 140 176 214
#     4   7  10  17  26  40  64  92 114 135 170 212
#     4   9  16  24  35  53  72  93 120 143 170 212
#     4   8  14  22  31  45  68  91 115 149 181 205
#     4   9  16  25  37  51  69  94 120 146 176 208
#     4   8  13  20  29  45  66  90 118 147 180 211
#
# _framework density 19.847304000000001
#
# number of rings (size 3 to 8) (size 9 to 14) (size 15 to 20)
#    0.000    3.750    0.000    2.625    1.750    1.500 
#    0.000    0.000    0.000    0.000    0.000    2.625 
#    0.000   11.500    0.000    0.125    0.000   10.625 
#
# Total GULP energy -178143.941627 kJ/mol
# GULP energy per Si atom -5566.998176 kJ/mol
# Density = 1.980213 g / cm^3
# Si number density = 19.847304 Si / 1000 Ang^3
#
#
#
# Elastic Constant Matrix: (Units=GPa)
#
#
# Indices 1 2 3 4 5 6 
#
# 1 23.9763 -1.0397 2.4603 0.0000 5.8641 0.0000
# 2 -1.0397 68.9008 2.7811 0.0000 1.6205 0.0000
# 3 2.4603 2.7811 94.1081 0.0000 9.2789 0.0000
# 4 0.0000 0.0000 0.0000 -17.2121 0.0000 8.8558
# 5 5.8641 1.6205 9.2789 0.0000 28.3609 0.0000
# 6 0.0000 0.0000 0.0000 8.8558 0.0000 -57.8045
#
#
#
# Elastic Compliance Matrix: (Units=1/GPa)
#
#
# Indices 1 2 3 4 5 6 
#
# 1 0.043990 0.000888 -0.000284 0.000000 -0.009054 0.000000
# 2 0.000888 0.014563 -0.000365 0.000000 -0.000896 0.000000
# 3 -0.000284 -0.000365 0.010991 0.000000 -0.003516 0.000000
# 4 0.000000 0.000000 0.000000 -0.063070 0.000000 -0.009663
# 5 -0.009054 -0.000896 -0.003516 0.000000 0.038334 0.000000
# 6 0.000000 0.000000 0.000000 -0.009663 0.000000 -0.018780
#
#
# Mechanical properties :
#
#
# Convention : Reuss Voigt Hill
#
# Bulk Modulus (GPa) = 14.28116 21.70986 17.99551
# Shear Modulus (GPa) = 102.27230 2.85442 52.56336
#
# Velocity S-wave (km/s) = 7.18620 1.20055 5.15183
# Velocity P-wave (km/s) = 8.72160 3.58942 6.66897
#
# Compressibility (1/GPa) = 0.07002232
#
# Stress axis : x y z
#
# Youngs Moduli (GPa) = 22.73257 68.66788 90.98350
#
# Poissons Ratio (x) = -0.06099 0.02581
# Poissons Ratio (y) = -0.02019 0.03323
# Poissons Ratio (z) = 0.00645 0.02508
#
# Static dielectric constant tensor:
#      x y z
#    x 1.690740 0.000000 0.028500 
#    y 0.000000 1.742010 0.000000 
#    z 0.028500 0.000000 1.760060 
# 
# From -- ./inp_files/68243.got.cif
#   From: 2010.05.17/outbox.cif.g08.bks.cpg/sg10_35_cif.got.tgz:68243.got - 2010.06.03 11:33:40.
