data_PCOD9154472
_publ_section_title
;
Structure prediction by ZEFSAII (Michael W. Deem and Ramdas Pophale) SiO2 
 PCOD9154472
Probable space group: P 2/M
;
_chemical_formula_sum "Si O2"
_cell_formula_units_Z 32
_cell_length_a 9.614807
_cell_length_b 18.689126
_cell_length_c 12.341891
_cell_angle_alpha 90.000000
_cell_angle_beta 46.667489
_cell_angle_gamma 90.000000
_cell_volume 1613.149839
_symmetry_space_group_name_H-M "P 2/M"
_symmetry_group_IT_number 10
_symmetry_cell_setting 'monoclinic'
loop_
_space_group_symop_operation_xyz
x,y,z
-x,y,-z
-x,-y,-z
x,-y,z
loop_
_atom_site_type_symbol
_atom_site_label
_atom_site_fract_x
_atom_site_fract_y
_atom_site_fract_z
Si Si1 0.705552 0.814313 0.118847
Si Si2 0.203862 0.346410 0.386887
Si Si3 0.900165 0.210392 0.222744
Si Si4 0.437017 0.675255 0.913565
Si Si5 0.430512 0.921211 0.158069
Si Si6 0.275777 0.355310 0.601992
Si Si7 0.097306 0.808183 0.341120
Si Si8 0.061166 0.418164 0.091501
O O1 0.755675 0.827198 0.217380
O O2 0.582399 0.743181 0.156832
O O3 0.600536 0.884429 0.133360
O O4 0.898333 0.795689 0.948527
O O5 0.393489 0.374135 0.225830
O O6 0.252572 0.337392 0.487339
O O7 0.157209 0.273204 0.342933
O O8 0.000000 0.386746 0.500000
O O9 0.799145 0.286995 0.290381
O O10 0.956334 0.189087 0.314290
O O11 0.500000 0.699335 0.000000
O O12 0.235030 0.634503 0.029024
O O13 0.272315 0.860200 0.230723
O O14 0.372045 0.000000 0.231466
O O15 0.500000 0.930806 0.000000
O O16 0.500000 0.371838 0.500000
O O17 0.120695 0.411724 0.730581
O O18 0.000000 0.837366 0.500000
O O19 0.129362 0.500000 0.055913
O O20 0.000000 0.400925 0.000000
#
# Coordination Sequence:
#
# PCOD9154472 Si02
#       8
#     4   4   4   4   4   4   4   4
#     4  11  21  36  63  95 122 162 212 273 323 365
#     4  11  21  36  59  97 125 159 205 271 319 373
#     4  11  21  36  60  95 127 156 210 271 318 375
#     4  12  22  39  68  94 126 164 220 272 319 379
#     4  11  23  40  62  89 126 170 217 262 320 388
#     4  12  23  37  61  98 131 161 213 265 327 379
#     4  11  21  38  60  91 126 165 206 256 323 381
#     4  11  25  45  65  92 133 176 216 259 319 396
#
# _framework density 19.836967000000001
#
# number of rings (size 3 to 8) (size 9 to 14) (size 15 to 20)
#    0.000    0.750    6.250    4.125    0.000    0.750 
#    0.000    2.500    0.000    2.250    0.000    0.000 
#    0.000    0.000    0.000    0.000    0.000    0.000 
#
# Total GULP energy -178297.713022 kJ/mol
# GULP energy per Si atom -5571.803532 kJ/mol
# Density = 1.979182 g / cm^3
# Si number density = 19.836967 Si / 1000 Ang^3
#
#
#
# Elastic Constant Matrix: (Units=GPa)
#
#
# Indices 1 2 3 4 5 6 
#
# 1 156.2026 39.3357 31.5103 0.0000 18.2387 0.0000
# 2 39.3357 57.2459 8.7395 0.0000 1.6980 0.0000
# 3 31.5103 8.7395 79.9501 0.0000 -0.5986 0.0000
# 4 0.0000 0.0000 0.0000 10.7071 0.0000 -3.4670
# 5 18.2387 1.6980 -0.5986 0.0000 46.5006 0.0000
# 6 0.0000 0.0000 0.0000 -3.4670 0.0000 10.6771
#
#
#
# Elastic Compliance Matrix: (Units=1/GPa)
#
#
# Indices 1 2 3 4 5 6 
#
# 1 0.008740 -0.005470 -0.002871 0.000000 -0.003265 0.000000
# 2 -0.005470 0.021210 -0.000152 0.000000 0.001369 0.000000
# 3 -0.002871 -0.000152 0.013666 0.000000 0.001308 0.000000
# 4 0.000000 0.000000 0.000000 0.104370 0.000000 0.033890
# 5 -0.003265 0.001369 0.001308 0.000000 0.022753 0.000000
# 6 0.000000 0.000000 0.000000 0.033890 0.000000 0.104663
#
#
# Mechanical properties :
#
#
# Convention : Reuss Voigt Hill
#
# Bulk Modulus (GPa) = 37.55399 50.28552 43.91975
# Shear Modulus (GPa) = 16.59667 27.83116 22.21391
#
# Velocity S-wave (km/s) = 2.89563 3.74972 3.35001
# Velocity P-wave (km/s) = 5.49108 6.64467 6.09523
#
# Compressibility (1/GPa) = 0.02662833
#
# Stress axis : x y z
#
# Youngs Moduli (GPa) = 114.41709 47.14752 73.17533
#
# Poissons Ratio (x) = 0.25791 0.21009
# Poissons Ratio (y) = 0.62590 0.01114
# Poissons Ratio (z) = 0.32850 0.00718
#
# Static dielectric constant tensor:
#      x y z
#    x 1.741620 0.000000 -0.033990 
#    y 0.000000 1.689030 0.000000 
#    z -0.033990 0.000000 1.735050 
# 
# From -- ./inp_files/43607.got.cif
#   From: 2010.05.17/outbox.cif.g08.bks.cpg/sg10_22_cif.got.tgz:43607.got - 2010.06.03 11:33:40.
