data_PCOD9154316
_publ_section_title
;
Structure prediction by ZEFSAII (Michael W. Deem and Ramdas Pophale) SiO2 
 PCOD9154316
Probable space group: P 2/M
;
_chemical_formula_sum "Si O2"
_cell_formula_units_Z 24
_cell_length_a 11.110918
_cell_length_b 11.100019
_cell_length_c 15.048855
_cell_angle_alpha 90.000000
_cell_angle_beta 139.156962
_cell_angle_gamma 90.000000
_cell_volume 1213.801284
_symmetry_space_group_name_H-M "P 2/M"
_symmetry_group_IT_number 10
_symmetry_cell_setting 'monoclinic'
loop_
_space_group_symop_operation_xyz
x,y,z
-x,y,-z
-x,-y,-z
x,-y,z
loop_
_atom_site_type_symbol
_atom_site_label
_atom_site_fract_x
_atom_site_fract_y
_atom_site_fract_z
Si Si1 0.483003 0.250693 0.213186
Si Si2 0.846962 0.859176 0.345769
Si Si3 0.952997 0.760501 0.697264
Si Si4 0.041494 0.500000 0.374560
Si Si5 0.904916 0.143754 0.042737
Si Si6 0.434585 0.140208 0.563721
Si Si7 0.688499 0.500000 0.304199
O O1 0.646143 0.163101 0.271859
O O2 0.471302 0.226483 0.312277
O O3 0.559809 0.382346 0.232983
O O4 0.289539 0.212399 0.064611
O O5 0.000000 0.806834 0.500000
O O6 0.872763 0.798438 0.264978
O O7 0.882839 0.000000 0.356410
O O8 0.781756 0.831116 0.558044
O O9 0.930093 0.619055 0.668196
O O10 0.974913 0.803294 0.809899
O O11 0.839595 0.500000 0.309128
O O12 0.189008 0.500000 0.537352
O O13 0.879748 0.000000 0.041691
O O14 0.000000 0.160365 0.000000
O O15 0.500000 0.161015 0.500000
O O16 0.470168 0.000000 0.606094
#
# Coordination Sequence:
#
# PCOD9154316 Si02
#       7
#     4   4   4   2   4   4   2
#     4  12  23  41  66  98 130 176 224 268 331 396
#     4  11  20  34  62  99 132 161 213 286 343 390
#     4  12  23  41  66  98 130 176 224 268 331 396
#     4  11  22  43  68  97 137 179 215 270 333 398
#     4  11  26  48  69  94 136 182 222 273 334 395
#     4  11  22  38  63  94 128 170 224 283 334 383
#     4  11  22  43  68  97 137 179 215 270 333 398
#
# _framework density 19.772594000000002
#
# number of rings (size 3 to 8) (size 9 to 14) (size 15 to 20)
#    0.000    0.667    5.000    4.000    0.000    4.000 
#    0.000    7.500    0.000    0.000    0.000    0.000 
#    0.000    0.000    0.000    0.000    0.000    0.000 
#
# Total GULP energy -134193.865312 kJ/mol
# GULP energy per Si atom -5591.411055 kJ/mol
# Density = 1.972759 g / cm^3
# Si number density = 19.772594 Si / 1000 Ang^3
#
#
#
# Elastic Constant Matrix: (Units=GPa)
#
#
# Indices 1 2 3 4 5 6 
#
# 1 58.1986 12.9378 -6.2710 0.0000 -6.5730 0.0000
# 2 12.9378 85.9017 6.4176 0.0000 -6.6173 0.0000
# 3 -6.2710 6.4176 57.8954 0.0000 -2.8170 0.0000
# 4 0.0000 0.0000 0.0000 21.4453 0.0000 -8.1640
# 5 -6.5730 -6.6173 -2.8170 0.0000 35.5225 0.0000
# 6 0.0000 0.0000 0.0000 -8.1640 0.0000 16.9709
#
#
#
# Elastic Compliance Matrix: (Units=1/GPa)
#
#
# Indices 1 2 3 4 5 6 
#
# 1 0.018399 -0.002715 0.002444 0.000000 0.003092 0.000000
# 2 -0.002715 0.012296 -0.001576 0.000000 0.001663 0.000000
# 3 0.002444 -0.001576 0.017788 0.000000 0.001569 0.000000
# 4 0.000000 0.000000 0.000000 0.057085 0.000000 0.027461
# 5 0.003092 0.001663 0.001569 0.000000 0.029158 0.000000
# 6 0.000000 0.000000 0.000000 0.027461 0.000000 0.072135
#
#
# Mechanical properties :
#
#
# Convention : Reuss Voigt Hill
#
# Bulk Modulus (GPa) = 22.32704 25.35160 23.83932
# Shear Modulus (GPa) = 22.17446 27.38181 24.77813
#
# Velocity S-wave (km/s) = 3.35248 3.72538 3.54383
# Velocity P-wave (km/s) = 5.12854 5.59946 5.36917
#
# Compressibility (1/GPa) = 0.04478873
#
# Stress axis : x y z
#
# Youngs Moduli (GPa) = 54.35113 81.32677 56.21643
#
# Poissons Ratio (x) = 0.22084 -0.13741
# Poissons Ratio (y) = 0.14759 0.08861
# Poissons Ratio (z) = -0.13286 0.12819
#
# Static dielectric constant tensor:
#      x y z
#    x 1.744750 0.000000 -0.011220 
#    y 0.000000 1.675810 0.000000 
#    z -0.011220 0.000000 1.720550 
# 
# From -- ./inp_files/64505.got.cif
#   From: 2010.05.17/outbox.cif.g08.bks.cpg/sg10_33_cif.got.tgz:64505.got - 2010.06.03 11:33:40.
