data_PCOD9154855
_publ_section_title
;
Structure prediction by ZEFSAII (Michael W. Deem and Ramdas Pophale) SiO2 
 PCOD9154855
Probable space group: P 2/M
;
_chemical_formula_sum "Si O2"
_cell_formula_units_Z 24
_cell_length_a 24.359892
_cell_length_b 7.359499
_cell_length_c 18.505142
_cell_angle_alpha 90.000000
_cell_angle_beta 22.115230
_cell_angle_gamma 90.000000
_cell_volume 1248.955661
_symmetry_space_group_name_H-M "P 2/M"
_symmetry_group_IT_number 10
_symmetry_cell_setting 'monoclinic'
loop_
_space_group_symop_operation_xyz
x,y,z
-x,y,-z
-x,-y,-z
x,-y,z
loop_
_atom_site_type_symbol
_atom_site_label
_atom_site_fract_x
_atom_site_fract_y
_atom_site_fract_z
Si Si1 0.154169 0.721989 0.845489
Si Si2 0.417699 0.000000 0.025556
Si Si3 0.101455 0.284676 0.219095
Si Si4 0.243692 0.721112 0.895947
Si Si5 0.582869 0.284560 0.095816
Si Si6 0.081849 0.000000 0.476383
Si Si7 0.452611 0.721109 0.407043
O O1 0.152878 0.500000 0.846808
O O2 0.182248 0.779661 0.893881
O O3 0.295951 0.779627 0.626926
O O4 0.000000 0.780554 0.000000
O O5 0.249352 0.000000 0.252817
O O6 0.500000 0.000000 0.000000
O O7 0.450721 0.827946 0.934274
O O8 0.073357 0.500000 0.253745
O O9 0.143708 0.227761 0.086109
O O10 0.248923 0.252058 0.085681
O O11 0.971885 0.172641 0.412090
O O12 0.246960 0.500000 0.891423
O O13 0.409797 0.778867 0.711257
O O14 0.564657 0.500000 0.107635
O O15 0.488580 0.227654 0.280796
O O16 0.000000 0.000000 0.500000
O O17 0.454008 0.500000 0.406931
#
# Coordination Sequence:
#
# PCOD9154855 Si02
#       7
#     4   2   4   4   4   2   4
#     4   9  15  23  39  70 109 141 176 217 254 306
#     4  12  26  42  56  81 114 143 181 226 277 338
#     4   9  18  34  59  88 111 137 182 234 276 319
#     4   8  14  26  45  71 104 139 175 216 260 310
#     4   9  18  36  60  83 110 144 183 227 274 326
#     4  12  22  38  62  85 106 141 181 226 283 334
#     4   8  14  26  47  72  99 138 180 216 260 310
#
# _framework density 19.216055999999998
#
# number of rings (size 3 to 8) (size 9 to 14) (size 15 to 20)
#    0.000    2.833    1.667    2.500    0.000    3.333 
#    3.000    0.000    0.000    1.000    0.000    5.833 
#    0.000    0.000    0.000    0.000    0.000    0.000 
#
# Total GULP energy -133959.324619 kJ/mol
# GULP energy per Si atom -5581.638526 kJ/mol
# Density = 1.917232 g / cm^3
# Si number density = 19.216056 Si / 1000 Ang^3
#
#
#
# Elastic Constant Matrix: (Units=GPa)
#
#
# Indices 1 2 3 4 5 6 
#
# 1 187.7890 41.5029 95.1189 0.0000 6.8725 0.0000
# 2 41.5029 72.3462 23.0687 0.0000 6.8909 0.0000
# 3 95.1189 23.0687 121.1056 0.0000 4.5879 0.0000
# 4 0.0000 0.0000 0.0000 39.0408 0.0000 38.7290
# 5 6.8725 6.8909 4.5879 0.0000 20.7944 0.0000
# 6 0.0000 0.0000 0.0000 38.7290 0.0000 45.1470
#
#
#
# Elastic Compliance Matrix: (Units=1/GPa)
#
#
# Indices 1 2 3 4 5 6 
#
# 1 0.009527 -0.003228 -0.006846 0.000000 -0.000568 0.000000
# 2 -0.003228 0.016200 -0.000391 0.000000 -0.004215 0.000000
# 3 -0.006846 -0.000391 0.013733 0.000000 -0.000638 0.000000
# 4 0.000000 0.000000 0.000000 0.171897 0.000000 -0.147461
# 5 -0.000568 -0.004215 -0.000638 0.000000 0.049815 0.000000
# 6 0.000000 0.000000 0.000000 -0.147461 0.000000 0.148648
#
#
# Mechanical properties :
#
#
# Convention : Reuss Voigt Hill
#
# Bulk Modulus (GPa) = 53.96618 77.84685 65.90651
# Shear Modulus (GPa) = 11.44351 35.76645 23.60498
#
# Velocity S-wave (km/s) = 2.44297 4.31894 3.50865
# Velocity P-wave (km/s) = 6.00852 8.09137 7.12645
#
# Compressibility (1/GPa) = 0.01853012
#
# Stress axis : x y z
#
# Youngs Moduli (GPa) = 104.96193 61.72650 72.81641
#
# Poissons Ratio (x) = 0.19927 0.49853
# Poissons Ratio (y) = 0.33885 0.02845
# Poissons Ratio (z) = 0.71862 0.02412
#
# Static dielectric constant tensor:
#      x y z
#    x 1.633120 0.000000 0.011420 
#    y 0.000000 1.732160 0.000000 
#    z 0.011420 0.000000 1.635800 
# 
# From -- ./inp_files/80088.got.cif
#   From: 2010.05.17/outbox.cif.g08.bks.cpg/sg10_41_cif.got.tgz:80088.got - 2010.06.03 11:33:40.
