data_PCOD9154303
_publ_section_title
;
Structure prediction by ZEFSAII (Michael W. Deem and Ramdas Pophale) SiO2 
 PCOD9154303
Probable space group: P 2/M
;
_chemical_formula_sum "Si O2"
_cell_formula_units_Z 28
_cell_length_a 9.121247
_cell_length_b 16.343771
_cell_length_c 21.160274
_cell_angle_alpha 90.000000
_cell_angle_beta 28.448963
_cell_angle_gamma 90.000000
_cell_volume 1502.717763
_symmetry_space_group_name_H-M "P 2/M"
_symmetry_group_IT_number 10
_symmetry_cell_setting 'monoclinic'
loop_
_space_group_symop_operation_xyz
x,y,z
-x,y,-z
-x,-y,-z
x,-y,z
loop_
_atom_site_type_symbol
_atom_site_label
_atom_site_fract_x
_atom_site_fract_y
_atom_site_fract_z
Si Si1 0.627480 0.189821 0.521704
Si Si2 0.659747 0.770604 0.727297
Si Si3 0.371262 0.089937 0.360852
Si Si4 0.665702 0.408931 0.659272
Si Si5 0.788002 0.673459 0.257635
Si Si6 0.211016 0.302441 0.979665
Si Si7 0.300087 0.410025 0.139843
O O1 0.500000 0.179448 0.500000
O O2 0.552007 0.114290 0.596554
O O3 0.459032 0.265583 0.619512
O O4 0.993491 0.207088 0.384299
O O5 0.552987 0.835381 0.714764
O O6 0.656354 0.677174 0.701384
O O7 0.418236 0.772199 0.876204
O O8 0.000000 0.086887 0.500000
O O9 0.489782 0.000000 0.298227
O O10 0.626440 0.500000 0.704133
O O11 0.398794 0.397668 0.707784
O O12 0.000000 0.408886 0.500000
O O13 0.006373 0.642747 0.231306
O O14 0.005624 0.710858 0.119806
O O15 0.463537 0.370318 0.901382
O O16 0.000000 0.326645 0.000000
O O17 0.202144 0.500000 0.197034
O O18 0.500000 0.415624 0.000000
#
# Coordination Sequence:
#
# PCOD9154303 Si02
#       7
#     4   4   4   4   4   4   4
#     4  11  21  35  60  83 115 148 186 235 284 339
#     4  11  20  39  55  87 117 147 190 237 284 341
#     4   9  18  35  61  86 113 146 183 232 287 340
#     4  11  20  33  57  82 111 153 195 237 282 328
#     4  11  20  38  55  78 111 156 192 232 286 336
#     4  11  21  34  57  80 109 150 191 241 283 336
#     4   9  20  35  49  72 108 148 195 239 277 323
#
# _framework density 18.632905999999998
#
# number of rings (size 3 to 8) (size 9 to 14) (size 15 to 20)
#    0.000    1.571    4.286    1.714    0.000    1.714 
#    0.000    0.000    0.000    6.000    0.000    0.000 
#    0.000   16.000    0.000    0.000    0.000    0.000 
#
# Total GULP energy -156053.012050 kJ/mol
# GULP energy per Si atom -5573.321859 kJ/mol
# Density = 1.859050 g / cm^3
# Si number density = 18.632906 Si / 1000 Ang^3
#
#
#
# Elastic Constant Matrix: (Units=GPa)
#
#
# Indices 1 2 3 4 5 6 
#
# 1 123.5081 36.4930 37.6478 0.0000 -3.4776 0.0000
# 2 36.4930 98.5177 27.4443 0.0000 10.3206 0.0000
# 3 37.6478 27.4443 86.4482 0.0000 -1.7855 0.0000
# 4 0.0000 0.0000 0.0000 -1.7074 0.0000 2.0853
# 5 -3.4776 10.3206 -1.7855 0.0000 32.9332 0.0000
# 6 0.0000 0.0000 0.0000 2.0853 0.0000 5.9649
#
#
#
# Elastic Compliance Matrix: (Units=1/GPa)
#
#
# Indices 1 2 3 4 5 6 
#
# 1 0.010062 -0.002969 -0.003402 0.000000 0.001808 0.000000
# 2 -0.002969 0.012477 -0.002758 0.000000 -0.004373 0.000000
# 3 -0.003402 -0.002758 0.013951 0.000000 0.001262 0.000000
# 4 0.000000 0.000000 0.000000 -0.410437 0.000000 0.143484
# 5 0.001808 -0.004373 0.001262 0.000000 0.031994 0.000000
# 6 0.000000 0.000000 0.000000 0.143484 0.000000 0.117486
#
#
# Mechanical properties :
#
#
# Convention : Reuss Voigt Hill
#
# Bulk Modulus (GPa) = 54.85150 56.84935 55.85042
# Shear Modulus (GPa) = -24.98347 21.23074 -1.87637
#
# Velocity S-wave (km/s) = -3.66570 3.37919 -1.00459
# Velocity P-wave (km/s) = 3.40373 6.76770 5.35664
#
# Compressibility (1/GPa) = 0.01823104
#
# Stress axis : x y z
#
# Youngs Moduli (GPa) = 99.38627 80.14952 71.68003
#
# Poissons Ratio (x) = 0.23795 0.24385
# Poissons Ratio (y) = 0.29506 0.19772
# Poissons Ratio (z) = 0.33811 0.22108
#
# Static dielectric constant tensor:
#      x y z
#    x 1.703840 0.000000 0.022160 
#    y 0.000000 1.665700 0.000000 
#    z 0.022160 0.000000 1.659340 
# 
# From -- ./inp_files/35245.got.cif
#   From: 2010.05.17/outbox.cif.g08.bks.cpg/sg10_18_cif.got.tgz:35245.got - 2010.06.03 11:33:40.
