data_PCOD9154760
_publ_section_title
;
Structure prediction by ZEFSAII (Michael W. Deem and Ramdas Pophale) SiO2 
 PCOD9154760
Probable space group: P 2/M
;
_chemical_formula_sum "Si O2"
_cell_formula_units_Z 20
_cell_length_a 21.774165
_cell_length_b 9.158893
_cell_length_c 13.308934
_cell_angle_alpha 90.000000
_cell_angle_beta 21.305128
_cell_angle_gamma 90.000000
_cell_volume 964.349684
_symmetry_space_group_name_H-M "P 2/M"
_symmetry_group_IT_number 10
_symmetry_cell_setting 'monoclinic'
loop_
_space_group_symop_operation_xyz
x,y,z
-x,y,-z
-x,-y,-z
x,-y,z
loop_
_atom_site_type_symbol
_atom_site_label
_atom_site_fract_x
_atom_site_fract_y
_atom_site_fract_z
Si Si1 0.761380 0.831335 0.552354
Si Si2 0.179270 0.674374 0.174820
Si Si3 0.930955 0.672296 0.995368
Si Si4 0.427098 0.831195 0.946105
Si Si5 0.699105 0.172256 0.209611
O O1 0.676203 0.826561 0.791570
O O2 0.916765 0.722939 0.308598
O O3 0.814287 0.000000 0.453829
O O4 0.617456 0.793253 0.689603
O O5 0.184394 0.500000 0.155367
O O6 0.332213 0.729817 0.012127
O O7 0.000000 0.713812 0.500000
O O8 0.204673 0.751329 0.029271
O O9 0.901279 0.500000 0.035599
O O10 0.767363 0.758740 0.208369
O O11 0.000000 0.711084 0.000000
O O12 0.425838 0.000000 0.911915
O O13 0.500000 0.197089 0.500000
O O14 0.731674 0.000000 0.158608
#
# Coordination Sequence:
#
# PCOD9154760 Si02
#       5
#     4   4   4   4   4
#     4   9  19  37  61  89 123 161 206 258 308 362
#     4  11  24  40  62  93 129 168 209 257 320 385
#     4  11  25  42  62  91 127 166 207 254 314 377
#     4   9  19  36  60  91 123 159 205 258 310 365
#     4  11  26  46  68  95 126 168 219 268 318 375
#
# _framework density 20.739366
#
# number of rings (size 3 to 8) (size 9 to 14) (size 15 to 20)
#    0.000    1.800    0.000    4.200    2.800    9.600 
#    0.000    2.000    0.000    0.000    0.000    0.000 
#    0.000    0.000    0.000    0.000    0.000    0.000 
#
# Total GULP energy -111850.085919 kJ/mol
# GULP energy per Si atom -5592.504296 kJ/mol
# Density = 2.069216 g / cm^3
# Si number density = 20.739366 Si / 1000 Ang^3
#
#
#
# Elastic Constant Matrix: (Units=GPa)
#
#
# Indices 1 2 3 4 5 6 
#
# 1 125.1082 71.9026 38.7457 0.0000 -24.6069 0.0000
# 2 71.9026 75.2564 46.4877 0.0000 -16.1799 0.0000
# 3 38.7457 46.4877 56.8553 0.0000 -13.5800 0.0000
# 4 0.0000 0.0000 0.0000 -34.9118 0.0000 -39.4272
# 5 -24.6069 -16.1799 -13.5800 0.0000 30.9086 0.0000
# 6 0.0000 0.0000 0.0000 -39.4272 0.0000 -501.8937
#
#
#
# Elastic Compliance Matrix: (Units=1/GPa)
#
#
# Indices 1 2 3 4 5 6 
#
# 1 0.019359 -0.019941 0.004804 0.000000 0.007084 0.000000
# 2 -0.019941 0.048077 -0.026257 0.000000 -0.002244 0.000000
# 3 0.004804 -0.026257 0.037332 0.000000 0.006482 0.000000
# 4 0.000000 0.000000 0.000000 -0.031432 0.000000 0.002469
# 5 0.007084 -0.002244 0.006482 0.000000 0.039666 0.000000
# 6 0.000000 0.000000 0.000000 0.002469 0.000000 -0.002186
#
#
# Mechanical properties :
#
#
# Convention : Reuss Voigt Hill
#
# Bulk Modulus (GPa) = 45.49545 63.49910 54.49727
# Shear Modulus (GPa) = 24.88423 -94.50712 -34.81145
#
# Velocity S-wave (km/s) = 3.46765 -6.75780 -4.10142
# Velocity P-wave (km/s) = 6.16581 5.49603 1.97621
#
# Compressibility (1/GPa) = 0.02198022
#
# Stress axis : x y z
#
# Youngs Moduli (GPa) = 51.65528 20.79996 26.78666
#
# Poissons Ratio (x) = 0.41476 -0.12868
# Poissons Ratio (y) = 1.03004 0.70334
# Poissons Ratio (z) = -0.24814 0.54615
#
# Static dielectric constant tensor:
#      x y z
#    x 1.778780 0.000000 0.005190 
#    y 0.000000 1.692210 0.000000 
#    z 0.005190 0.000000 1.742990 
# 
# From -- ./inp_files/40806.got.cif
#   From: 2010.05.17/outbox.cif.g08.bks.cpg/sg10_21_cif.got.tgz:40806.got - 2010.06.03 11:33:40.
