data_PCOD9154141
_publ_section_title
;
Structure prediction by ZEFSAII (Michael W. Deem and Ramdas Pophale) SiO2 
 PCOD9154141
Probable space group: P 2/M
;
_chemical_formula_sum "Si O2"
_cell_formula_units_Z 14
_cell_length_a 4.930689
_cell_length_b 9.900517
_cell_length_c 13.683385
_cell_angle_alpha 90.000000
_cell_angle_beta 123.000588
_cell_angle_gamma 90.000000
_cell_volume 560.205720
_symmetry_space_group_name_H-M "P 2/M"
_symmetry_group_IT_number 10
_symmetry_cell_setting 'monoclinic'
loop_
_space_group_symop_operation_xyz
x,y,z
-x,y,-z
-x,-y,-z
x,-y,z
loop_
_atom_site_type_symbol
_atom_site_label
_atom_site_fract_x
_atom_site_fract_y
_atom_site_fract_z
Si Si1 0.616576 0.289628 0.921309
Si Si2 0.948060 0.500000 0.619275
Si Si3 0.375253 0.000000 0.117198
Si Si4 0.623707 0.500000 0.752331
Si Si5 0.500000 0.752018 0.500000
Si Si6 0.618614 0.000000 0.388492
O O1 0.579879 0.373773 0.815656
O O2 0.468936 0.140161 0.887284
O O3 0.500000 0.352544 0.000000
O O4 0.000000 0.276940 0.000000
O O5 0.915891 0.500000 0.733791
O O6 0.791143 0.645788 0.566660
O O7 0.287429 0.500000 0.629516
O O8 0.468208 0.000000 0.250283
O O9 0.000000 0.000000 0.000000
O O10 0.497877 0.858259 0.410630
O O11 0.000000 0.000000 0.500000
#
# Coordination Sequence:
#
# PCOD9154141 Si02
#       6
#     4   2   2   2   2   2
#     4  11  23  42  66 100 142 189 240 294 360 432
#     4  11  26  43  72 103 143 194 243 298 366 436
#     4  10  24  45  70 103 143 189 238 300 366 434
#     4  12  24  42  70 103 142 191 245 299 362 428
#     4  10  26  46  68 106 146 192 240 304 366 438
#     4  11  25  47  76 107 145 189 249 303 367 434
#
# _framework density 24.990819999999999
#
# number of rings (size 3 to 8) (size 9 to 14) (size 15 to 20)
#    0.000    1.143    0.000    4.714    8.000    3.429 
#   10.286    0.000    0.000    0.000    0.000    0.000 
#    0.000    0.000    0.000    0.000    0.000    0.000 
#
# Total GULP energy -78063.416964 kJ/mol
# GULP energy per Si atom -5575.958355 kJ/mol
# Density = 2.493394 g / cm^3
# Si number density = 24.990820 Si / 1000 Ang^3
#
#
#
# Elastic Constant Matrix: (Units=GPa)
#
#
# Indices 1 2 3 4 5 6 
#
# 1 85.4273 20.2627 27.2706 0.0000 -23.0796 0.0000
# 2 20.2627 202.3098 54.4109 0.0000 -25.4212 0.0000
# 3 27.2706 54.4109 142.4596 0.0000 -36.8356 0.0000
# 4 0.0000 0.0000 0.0000 13.3969 0.0000 -22.4275
# 5 -23.0796 -25.4212 -36.8356 0.0000 57.9925 0.0000
# 6 0.0000 0.0000 0.0000 -22.4275 0.0000 41.4626
#
#
#
# Elastic Compliance Matrix: (Units=1/GPa)
#
#
# Indices 1 2 3 4 5 6 
#
# 1 0.013387 -0.000456 -0.001271 0.000000 0.004320 0.000000
# 2 -0.000456 0.005606 -0.001753 0.000000 0.001162 0.000000
# 3 -0.001271 -0.001753 0.009097 0.000000 0.004504 0.000000
# 4 0.000000 0.000000 0.000000 0.790104 0.000000 0.427374
# 5 0.004320 0.001162 0.004504 0.000000 0.022333 0.000000
# 6 0.000000 0.000000 0.000000 0.427374 0.000000 0.255289
#
#
# Mechanical properties :
#
#
# Convention : Reuss Voigt Hill
#
# Bulk Modulus (GPa) = 47.32877 70.45392 58.89135
# Shear Modulus (GPa) = 4.50523 44.45389 24.47956
#
# Velocity S-wave (km/s) = 1.34412 4.22217 3.13316
# Velocity P-wave (km/s) = 4.62477 7.21263 6.05849
#
# Compressibility (1/GPa) = 0.02112880
#
# Stress axis : x y z
#
# Youngs Moduli (GPa) = 74.69889 178.37367 109.92486
#
# Poissons Ratio (x) = 0.08134 0.13976
# Poissons Ratio (y) = 0.03406 0.19274
# Poissons Ratio (z) = 0.09497 0.31276
#
# Static dielectric constant tensor:
#      x y z
#    x 1.961460 0.000000 0.016840 
#    y 0.000000 1.996170 0.000000 
#    z 0.016840 0.000000 2.102440 
# 
# From -- ./inp_files/8598.got.cif
#   From: 2010.05.17/outbox.cif.g08.bks.cpg/sg10_5_cif.got.tgz:8598.got - 2010.06.03 11:33:40.
