data_PCOD9154223
_publ_section_title
;
Structure prediction by ZEFSAII (Michael W. Deem and Ramdas Pophale) SiO2 
 PCOD9154223
Probable space group: P 2/M
;
_chemical_formula_sum "Si O2"
_cell_formula_units_Z 28
_cell_length_a 8.406124
_cell_length_b 15.438446
_cell_length_c 13.639673
_cell_angle_alpha 90.000000
_cell_angle_beta 72.103168
_cell_angle_gamma 90.000000
_cell_volume 1684.468789
_symmetry_space_group_name_H-M "P 2/M"
_symmetry_group_IT_number 10
_symmetry_cell_setting 'monoclinic'
loop_
_space_group_symop_operation_xyz
x,y,z
-x,y,-z
-x,-y,-z
x,-y,z
loop_
_atom_site_type_symbol
_atom_site_label
_atom_site_fract_x
_atom_site_fract_y
_atom_site_fract_z
Si Si1 0.411776 0.719347 0.302539
Si Si2 0.197571 0.402712 0.483735
Si Si3 0.888508 0.599678 0.111184
Si Si4 0.915240 0.842071 0.422832
Si Si5 0.218637 0.691755 0.681769
Si Si6 0.735099 0.904942 0.632038
Si Si7 0.497156 0.401318 0.884891
O O1 0.291042 0.666077 0.397648
O O2 0.597519 0.710196 0.311372
O O3 0.359673 0.820181 0.311501
O O4 0.410300 0.669903 0.198653
O O5 0.262568 0.500000 0.452813
O O6 0.227164 0.376128 0.590891
O O7 0.000000 0.403441 0.500000
O O8 0.939447 0.500000 0.121459
O O9 0.893571 0.654745 0.209126
O O10 0.695877 0.598779 0.112998
O O11 0.000000 0.632381 0.000000
O O12 0.854491 0.778590 0.351980
O O13 0.768411 0.891953 0.508209
O O14 0.000000 0.791275 0.500000
O O15 0.073462 0.900149 0.363494
O O16 0.663482 0.000000 0.664855
O O17 0.562099 0.500000 0.856788
O O18 0.500000 0.383494 0.000000
#
# Coordination Sequence:
#
# PCOD9154223 Si02
#       7
#     4   4   4   4   4   4   4
#     4  11  21  32  52  76 106 132 166 213 255 305
#     4  11  22  33  47  71 103 140 174 201 243 303
#     4   9  19  33  48  70  99 134 174 210 245 291
#     4   8  17  32  50  70  99 131 165 207 242 308
#     4  11  19  32  50  74 104 134 165 209 260 300
#     4   9  18  34  52  72 103 136 168 208 252 303
#     4   9  19  35  52  73 101 135 172 207 249 296
#
# _framework density 16.622451000000002
#
# number of rings (size 3 to 8) (size 9 to 14) (size 15 to 20)
#    0.857    1.286    1.429    3.429    0.000    4.571 
#    0.000    5.000    0.000    0.429    0.000    0.000 
#    0.000    6.857    0.000    0.000    0.000    0.000 
#
# Total GULP energy -155895.381205 kJ/mol
# GULP energy per Si atom -5567.692186 kJ/mol
# Density = 1.658462 g / cm^3
# Si number density = 16.622451 Si / 1000 Ang^3
#
#
#
# Elastic Constant Matrix: (Units=GPa)
#
#
# Indices 1 2 3 4 5 6 
#
# 1 29.2775 28.9471 25.6712 0.0000 2.1061 0.0000
# 2 28.9471 140.2799 66.8608 0.0000 -1.8698 0.0000
# 3 25.6712 66.8608 110.0693 0.0000 -0.0881 0.0000
# 4 0.0000 0.0000 0.0000 16.7367 0.0000 -8.2095
# 5 2.1061 -1.8698 -0.0881 0.0000 25.3978 0.0000
# 6 0.0000 0.0000 0.0000 -8.2095 0.0000 227.6340
#
#
#
# Elastic Compliance Matrix: (Units=1/GPa)
#
#
# Indices 1 2 3 4 5 6 
#
# 1 0.046993 -0.006376 -0.007090 0.000000 -0.004391 0.000000
# 2 -0.006376 0.010912 -0.005140 0.000000 0.001314 0.000000
# 3 -0.007090 -0.005140 0.013861 0.000000 0.000258 0.000000
# 4 0.000000 0.000000 0.000000 0.060825 0.000000 0.002194
# 5 -0.004391 0.001314 0.000258 0.000000 0.039835 0.000000
# 6 0.000000 0.000000 0.000000 0.002194 0.000000 0.004472
#
#
# Mechanical properties :
#
#
# Convention : Reuss Voigt Hill
#
# Bulk Modulus (GPa) = 28.94121 58.06499 43.50310
# Shear Modulus (GPa) = 22.16018 64.49686 43.32852
#
# Velocity S-wave (km/s) = 3.65519 6.23581 5.11105
# Velocity P-wave (km/s) = 5.93823 9.31958 7.81400
#
# Compressibility (1/GPa) = 0.03455280
#
# Stress axis : x y z
#
# Youngs Moduli (GPa) = 21.27971 91.64410 72.14270
#
# Poissons Ratio (x) = 0.58434 0.51152
# Poissons Ratio (y) = 0.13568 0.37082
# Poissons Ratio (z) = 0.15088 0.47106
#
# Static dielectric constant tensor:
#      x y z
#    x 1.588420 0.000000 -0.013540 
#    y 0.000000 1.577630 0.000000 
#    z -0.013540 0.000000 1.552630 
# 
# From -- ./inp_files/42645.got.cif
#   From: 2010.05.17/outbox.cif.g08.bks.cpg/sg10_22_cif.got.tgz:42645.got - 2010.06.03 11:33:40.
