data_PCOD9154319
_publ_section_title
;
Structure prediction by ZEFSAII (Michael W. Deem and Ramdas Pophale) SiO2 
 PCOD9154319
Probable space group: P 2/M
;
_chemical_formula_sum "Si O2"
_cell_formula_units_Z 20
_cell_length_a 12.941205
_cell_length_b 10.744065
_cell_length_c 12.590685
_cell_angle_alpha 90.000000
_cell_angle_beta 146.225980
_cell_angle_gamma 90.000000
_cell_volume 973.204329
_symmetry_space_group_name_H-M "P 2/M"
_symmetry_group_IT_number 10
_symmetry_cell_setting 'monoclinic'
loop_
_space_group_symop_operation_xyz
x,y,z
-x,y,-z
-x,-y,-z
x,-y,z
loop_
_atom_site_type_symbol
_atom_site_label
_atom_site_fract_x
_atom_site_fract_y
_atom_site_fract_z
Si Si1 0.579069 0.860809 0.708898
Si Si2 0.776937 0.143975 0.325963
Si Si3 0.209480 0.362266 0.225171
Si Si4 0.199438 0.238106 0.429136
Si Si5 0.782919 0.853286 0.101368
O O1 0.669400 0.749135 0.719913
O O2 0.356303 0.854920 0.518025
O O3 0.641907 0.000000 0.731648
O O4 0.646633 0.836902 0.886963
O O5 0.751839 0.236303 0.403768
O O6 0.710724 0.191143 0.154302
O O7 0.000000 0.134776 0.500000
O O8 0.710959 0.000000 0.292250
O O9 0.276740 0.500000 0.251820
O O10 0.210799 0.349647 0.354381
O O11 0.000000 0.348407 0.000000
O O12 0.985348 0.197067 0.243805
O O13 0.807832 0.000000 0.139056
#
# Coordination Sequence:
#
# PCOD9154319 Si02
#       5
#     4   4   4   4   4
#     4  11  23  36  60  94 120 151 194 238 290 346
#     4   8  15  29  53  83 120 157 186 223 283 344
#     4  11  25  45  63  81 112 158 202 244 297 350
#     4  11  20  35  59  84 116 154 193 238 282 344
#     4   9  18  34  54  85 126 159 185 230 286 340
#
# _framework density 20.550671000000001
#
# number of rings (size 3 to 8) (size 9 to 14) (size 15 to 20)
#    0.000    2.000    2.000    3.600    0.000    6.000 
#    0.000    3.000    0.000    6.600    0.000    2.800 
#    0.000    0.000    0.000    0.000    0.000    0.000 
#
# Total GULP energy -111432.747392 kJ/mol
# GULP energy per Si atom -5571.637370 kJ/mol
# Density = 2.050390 g / cm^3
# Si number density = 20.550671 Si / 1000 Ang^3
#
#
#
# Elastic Constant Matrix: (Units=GPa)
#
#
# Indices 1 2 3 4 5 6 
#
# 1 86.2858 54.0020 35.0564 0.0000 -14.6061 0.0000
# 2 54.0020 89.7851 31.0586 0.0000 -7.4270 0.0000
# 3 35.0564 31.0586 74.3115 0.0000 -6.6346 0.0000
# 4 0.0000 0.0000 0.0000 10.6133 0.0000 -3.7482
# 5 -14.6061 -7.4270 -6.6346 0.0000 56.2426 0.0000
# 6 0.0000 0.0000 0.0000 -3.7482 0.0000 -30.0254
#
#
#
# Elastic Compliance Matrix: (Units=1/GPa)
#
#
# Indices 1 2 3 4 5 6 
#
# 1 0.020793 -0.010446 -0.005138 0.000000 0.003414 0.000000
# 2 -0.010446 0.018334 -0.002790 0.000000 -0.000621 0.000000
# 3 -0.005138 -0.002790 0.017075 0.000000 0.000311 0.000000
# 4 0.000000 0.000000 0.000000 0.090243 0.000000 -0.011265
# 5 0.003414 -0.000621 0.000311 0.000000 0.018622 0.000000
# 6 0.000000 0.000000 0.000000 -0.011265 0.000000 -0.031899
#
#
# Mechanical properties :
#
#
# Convention : Reuss Voigt Hill
#
# Bulk Modulus (GPa) = 51.40681 54.51293 52.95987
# Shear Modulus (GPa) = 28.34460 16.05046 22.19753
#
# Velocity S-wave (km/s) = 3.71786 2.79770 3.29011
# Velocity P-wave (km/s) = 6.59537 6.08440 6.34503
#
# Compressibility (1/GPa) = 0.01945268
#
# Stress axis : x y z
#
# Youngs Moduli (GPa) = 48.09425 54.54201 58.56576
#
# Poissons Ratio (x) = 0.56975 0.30092
# Poissons Ratio (y) = 0.50239 0.16342
# Poissons Ratio (z) = 0.24711 0.15220
#
# Static dielectric constant tensor:
#      x y z
#    x 1.806450 0.000000 -0.041610 
#    y 0.000000 1.675960 0.000000 
#    z -0.041610 0.000000 1.816290 
# 
# From -- ./inp_files/46858.got.cif
#   From: 2010.05.17/outbox.cif.g08.bks.cpg/sg10_24_cif.got.tgz:46858.got - 2010.06.03 11:33:40.
