data_PCOD9154314
_publ_section_title
;
Structure prediction by ZEFSAII (Michael W. Deem and Ramdas Pophale) SiO2 
 PCOD9154314
Probable space group: P 2/M
;
_chemical_formula_sum "Si O2"
_cell_formula_units_Z 24
_cell_length_a 13.622690
_cell_length_b 11.899977
_cell_length_c 20.108009
_cell_angle_alpha 90.000000
_cell_angle_beta 21.873428
_cell_angle_gamma 90.000000
_cell_volume 1214.426705
_symmetry_space_group_name_H-M "P 2/M"
_symmetry_group_IT_number 10
_symmetry_cell_setting 'monoclinic'
loop_
_space_group_symop_operation_xyz
x,y,z
-x,y,-z
-x,-y,-z
x,-y,z
loop_
_atom_site_type_symbol
_atom_site_label
_atom_site_fract_x
_atom_site_fract_y
_atom_site_fract_z
Si Si1 0.050792 0.125621 0.888416
Si Si2 0.570533 0.741176 0.577659
Si Si3 0.074410 0.128386 0.240895
Si Si4 0.395677 0.500000 0.639188
Si Si5 0.384401 0.129356 0.181786
Si Si6 0.171174 0.500000 0.962423
Si Si7 0.462727 0.265430 0.797562
O O1 0.322921 0.188869 0.705598
O O2 0.055863 0.000000 0.858443
O O3 0.000000 0.120855 0.000000
O O4 0.800836 0.194152 0.021862
O O5 0.500856 0.611446 0.609412
O O6 0.575358 0.763879 0.654043
O O7 0.840861 0.784039 0.375941
O O8 0.176426 0.139986 0.252667
O O9 0.976952 0.000000 0.294126
O O10 0.331947 0.142049 0.033233
O O11 0.500000 0.500000 0.500000
O O12 0.079531 0.500000 0.831980
O O13 0.353275 0.223146 0.258307
O O14 0.369861 0.000000 0.217147
O O15 0.353501 0.391848 0.858995
O O16 0.000000 0.500000 0.000000
#
# Coordination Sequence:
#
# PCOD9154314 Si02
#       7
#     4   4   4   2   4   2   4
#     4   9  17  29  49  81 114 140 175 226 283 337
#     4  11  21  36  57  85 114 147 192 239 284 332
#     4   9  20  39  59  82 119 156 188 233 287 341
#     4  12  26  40  57  84 117 155 194 234 282 345
#     4   9  20  39  60  84 115 155 193 230 286 346
#     4  12  20  42  59  80 117 157 190 228 290 343
#     4  11  20  34  59  83 112 150 192 236 282 337
#
# _framework density 19.762411
#
# number of rings (size 3 to 8) (size 9 to 14) (size 15 to 20)
#    0.000    1.833    3.333    2.500    2.333    2.667 
#    0.000    2.500    0.000    8.000    0.000    0.000 
#    0.000    0.000    0.000    0.000    0.000    0.000 
#
# Total GULP energy -133944.712179 kJ/mol
# GULP energy per Si atom -5581.029674 kJ/mol
# Density = 1.971743 g / cm^3
# Si number density = 19.762411 Si / 1000 Ang^3
#
#
#
# Elastic Constant Matrix: (Units=GPa)
#
#
# Indices 1 2 3 4 5 6 
#
# 1 68.7580 19.1166 -11.6168 0.0000 15.3337 0.0000
# 2 19.1166 127.0384 14.1870 0.0000 -11.6464 0.0000
# 3 -11.6168 14.1870 60.2333 0.0000 -9.3925 0.0000
# 4 0.0000 0.0000 0.0000 113.3065 0.0000 32.9535
# 5 15.3337 -11.6464 -9.3925 0.0000 21.0244 0.0000
# 6 0.0000 0.0000 0.0000 32.9535 0.0000 22.0069
#
#
#
# Elastic Compliance Matrix: (Units=1/GPa)
#
#
# Indices 1 2 3 4 5 6 
#
# 1 0.019837 -0.004724 0.002445 0.000000 -0.015992 0.000000
# 2 -0.004724 0.009518 -0.001928 0.000000 0.007857 0.000000
# 3 0.002445 -0.001928 0.018362 0.000000 0.005352 0.000000
# 4 0.000000 0.000000 0.000000 0.015634 0.000000 -0.023411
# 5 -0.015992 0.007857 0.005352 0.000000 0.065971 0.000000
# 6 0.000000 0.000000 0.000000 -0.023411 0.000000 0.080496
#
#
# Mechanical properties :
#
#
# Convention : Reuss Voigt Hill
#
# Bulk Modulus (GPa) = 25.44365 33.26705 29.35535
# Shear Modulus (GPa) = 21.61380 46.89044 34.25212
#
# Velocity S-wave (km/s) = 3.31067 4.87633 4.16768
# Velocity P-wave (km/s) = 5.24565 6.96956 6.16813
#
# Compressibility (1/GPa) = 0.03930254
#
# Stress axis : x y z
#
# Youngs Moduli (GPa) = 50.41178 105.06325 54.45948
#
# Poissons Ratio (x) = 0.49633 -0.13314
# Poissons Ratio (y) = 0.23815 0.10499
# Poissons Ratio (z) = -0.12324 0.20254
#
# Static dielectric constant tensor:
#      x y z
#    x 1.755840 0.000000 0.031760 
#    y 0.000000 1.692580 0.000000 
#    z 0.031760 0.000000 1.695860 
# 
# From -- ./inp_files/85184.got.cif
#   From: 2010.05.17/outbox.cif.g08.bks.cpg/sg10_43_cif.got.tgz:85184.got - 2010.06.03 11:33:40.
