data_PCOD9154648
_publ_section_title
;
Structure prediction by ZEFSAII (Michael W. Deem and Ramdas Pophale) SiO2 
 PCOD9154648
Probable space group: P 2/M
;
_chemical_formula_sum "Si O2"
_cell_formula_units_Z 16
_cell_length_a 8.151220
_cell_length_b 11.609106
_cell_length_c 11.269002
_cell_angle_alpha 90.000000
_cell_angle_beta 140.243131
_cell_angle_gamma 90.000000
_cell_volume 681.975173
_symmetry_space_group_name_H-M "P 2/M"
_symmetry_group_IT_number 10
_symmetry_cell_setting 'monoclinic'
loop_
_space_group_symop_operation_xyz
x,y,z
-x,y,-z
-x,-y,-z
x,-y,z
loop_
_atom_site_type_symbol
_atom_site_label
_atom_site_fract_x
_atom_site_fract_y
_atom_site_fract_z
Si Si1 0.745385 0.659347 0.791707
Si Si2 0.652903 0.871866 0.893007
Si Si3 0.898103 0.133596 0.286950
Si Si4 0.177338 0.625497 0.445195
O O1 0.717634 0.789536 0.821325
O O2 0.457794 0.617593 0.660589
O O3 0.783117 0.635311 0.674693
O O4 0.000000 0.617284 0.000000
O O5 0.362441 0.862981 0.780849
O O6 0.694668 0.000000 0.874599
O O7 0.819552 0.852180 0.104860
O O8 0.053009 0.250074 0.403993
O O9 0.001770 0.000000 0.357687
O O10 0.045165 0.500000 0.392948
#
# Coordination Sequence:
#
# PCOD9154648 Si02
#       4
#     4   4   4   4
#     4  11  22  40  63  89 124 165 209 251 312 361
#     4   9  19  38  66  95 125 163 208 254 312 372
#     4   9  19  41  67  93 126 162 205 260 310 367
#     4  11  25  42  62  94 126 162 213 258 303 374
#
# _framework density 23.461265999999998
#
# number of rings (size 3 to 8) (size 9 to 14) (size 15 to 20)
#    0.000    2.000    2.500    3.000    0.000    5.500 
#    0.000   11.250    0.000    0.000    0.000    0.000 
#    0.000    0.000    0.000    0.000    0.000    0.000 
#
# Total GULP energy -89204.986986 kJ/mol
# GULP energy per Si atom -5575.311687 kJ/mol
# Density = 2.340787 g / cm^3
# Si number density = 23.461266 Si / 1000 Ang^3
#
#
#
# Elastic Constant Matrix: (Units=GPa)
#
#
# Indices 1 2 3 4 5 6 
#
# 1 72.4795 57.5502 15.0645 0.0000 -3.5497 0.0000
# 2 57.5502 265.8170 69.6027 0.0000 18.1661 0.0000
# 3 15.0645 69.6027 122.9280 0.0000 13.0747 0.0000
# 4 0.0000 0.0000 0.0000 -280.7936 0.0000 410.9480
# 5 -3.5497 18.1661 13.0747 0.0000 40.3598 0.0000
# 6 0.0000 0.0000 0.0000 410.9480 0.0000 -634.4210
#
#
#
# Elastic Compliance Matrix: (Units=1/GPa)
#
#
# Indices 1 2 3 4 5 6 
#
# 1 0.017075 -0.003855 -0.000263 0.000000 0.003322 0.000000
# 2 -0.003855 0.005346 -0.002343 0.000000 -0.001986 0.000000
# 3 -0.000263 -0.002343 0.009719 0.000000 -0.002117 0.000000
# 4 0.000000 0.000000 0.000000 -0.068489 0.000000 -0.044364
# 5 0.003322 -0.001986 -0.002117 0.000000 0.026649 0.000000
# 6 0.000000 0.000000 0.000000 -0.044364 0.000000 -0.030313
#
#
# Mechanical properties :
#
#
# Convention : Reuss Voigt Hill
#
# Bulk Modulus (GPa) = 52.03593 82.85104 67.44349
# Shear Modulus (GPa) = -241.72914 -153.70382 -197.71648
#
# Velocity S-wave (km/s) = -10.16154 -8.10284 -9.19002
# Velocity P-wave (km/s) = 10.74469 7.22155 9.15421
#
# Compressibility (1/GPa) = 0.01921749
#
# Stress axis : x y z
#
# Youngs Moduli (GPa) = 58.56395 187.05919 102.89128
#
# Poissons Ratio (x) = 0.72111 0.02708
# Poissons Ratio (y) = 0.22576 0.24110
# Poissons Ratio (z) = 0.01541 0.43832
#
# Static dielectric constant tensor:
#      x y z
#    x 1.872870 0.000000 0.061560 
#    y 0.000000 1.946330 0.000000 
#    z 0.061560 0.000000 1.922110 
# 
# From -- ./inp_files/41815.got.cif
#   From: 2010.05.17/outbox.cif.g08.bks.cpg/sg10_21_cif.got.tgz:41815.got - 2010.06.03 11:33:40.
