data_PCOD9154339
_publ_section_title
;
Structure prediction by ZEFSAII (Michael W. Deem and Ramdas Pophale) SiO2 
 PCOD9154339
Probable space group: P 2/M
;
_chemical_formula_sum "Si O2"
_cell_formula_units_Z 16
_cell_length_a 6.568345
_cell_length_b 20.438749
_cell_length_c 5.017948
_cell_angle_alpha 90.000000
_cell_angle_beta 96.733888
_cell_angle_gamma 90.000000
_cell_volume 669.006053
_symmetry_space_group_name_H-M "P 2/M"
_symmetry_group_IT_number 10
_symmetry_cell_setting 'monoclinic'
loop_
_space_group_symop_operation_xyz
x,y,z
-x,y,-z
-x,-y,-z
x,-y,z
loop_
_atom_site_type_symbol
_atom_site_label
_atom_site_fract_x
_atom_site_fract_y
_atom_site_fract_z
Si Si1 0.725108 0.289782 0.399035
Si Si2 0.348648 0.571316 0.727648
Si Si3 0.844111 0.000000 0.224081
Si Si4 0.500000 0.898955 0.000000
Si Si5 0.212025 0.796389 0.110734
O O1 0.500000 0.294502 0.500000
O O2 0.785247 0.363869 0.333415
O O3 0.721630 0.247619 0.130639
O O4 0.836456 0.251442 0.652881
O O5 0.500000 0.566700 0.500000
O O6 0.245011 0.500000 0.744384
O O7 0.500000 0.582168 0.000000
O O8 0.000000 0.000000 0.500000
O O9 0.679207 0.940385 0.170603
O O10 0.000000 0.000000 0.000000
O O11 0.618619 0.851084 0.814508
O O12 0.000000 0.830510 0.000000
#
# Coordination Sequence:
#
# PCOD9154339 Si02
#       5
#     4   4   2   2   4
#     4  11  20  39  62  92 134 177 228 292 347 402
#     4   9  17  30  55  89 124 171 231 286 344 415
#     4  11  28  51  80 112 144 183 231 284 338 411
#     4  11  26  50  76 106 147 188 230 282 345 414
#     4  12  25  41  66  99 138 182 228 280 343 412
#
# _framework density 23.916077000000001
#
# number of rings (size 3 to 8) (size 9 to 14) (size 15 to 20)
#    0.000    1.250    2.500    4.500    0.000    8.000 
#    0.000    0.000    0.000    4.500    0.000    0.000 
#    0.000    0.000    0.000    0.000    0.000    0.000 
#
# Total GULP energy -89372.780794 kJ/mol
# GULP energy per Si atom -5585.798800 kJ/mol
# Density = 2.386164 g / cm^3
# Si number density = 23.916077 Si / 1000 Ang^3
#
#
#
# Elastic Constant Matrix: (Units=GPa)
#
#
# Indices 1 2 3 4 5 6 
#
# 1 110.6180 66.0979 56.1983 0.0000 17.9042 0.0000
# 2 66.0979 188.8239 66.1401 0.0000 13.0753 0.0000
# 3 56.1983 66.1401 187.9180 0.0000 -3.6823 0.0000
# 4 0.0000 0.0000 0.0000 1.3491 0.0000 44.4797
# 5 17.9042 13.0753 -3.6823 0.0000 47.6871 0.0000
# 6 0.0000 0.0000 0.0000 44.4797 0.0000 -79.5894
#
#
#
# Elastic Compliance Matrix: (Units=1/GPa)
#
#
# Indices 1 2 3 4 5 6 
#
# 1 0.013156 -0.003312 -0.002852 0.000000 -0.004252 0.000000
# 2 -0.003312 0.007037 -0.001502 0.000000 -0.000802 0.000000
# 3 -0.002852 -0.001502 0.006742 0.000000 0.002003 0.000000
# 4 0.000000 0.000000 0.000000 0.038157 0.000000 0.021325
# 5 -0.004252 -0.000802 0.002003 0.000000 0.022941 0.000000
# 6 0.000000 0.000000 0.000000 0.021325 0.000000 -0.000647
#
#
# Mechanical properties :
#
#
# Convention : Reuss Voigt Hill
#
# Bulk Modulus (GPa) = 86.18142 96.02584 91.10363
# Shear Modulus (GPa) = 46.91012 13.81761 30.36386
#
# Velocity S-wave (km/s) = 4.43363 2.40626 3.56701
# Velocity P-wave (km/s) = 7.89446 6.92520 7.42567
#
# Compressibility (1/GPa) = 0.01160343
#
# Stress axis : x y z
#
# Youngs Moduli (GPa) = 76.00953 142.10755 148.31699
#
# Poissons Ratio (x) = 0.47065 0.42302
# Poissons Ratio (y) = 0.25174 0.22277
# Poissons Ratio (z) = 0.21679 0.21344
#
# Static dielectric constant tensor:
#      x y z
#    x 1.907090 0.000000 0.062710 
#    y 0.000000 1.985210 0.000000 
#    z 0.062710 0.000000 1.883030 
# 
# From -- ./inp_files/3846.got.cif
#   From: 2010.05.17/outbox.cif.g08.bks.cpg/sg10_2_cif.got.tgz:3846.got - 2010.06.03 11:33:40.
