data_PCOD9154879
_publ_section_title
;
Structure prediction by ZEFSAII (Michael W. Deem and Ramdas Pophale) SiO2 
 PCOD9154879
Probable space group: P 2/M
;
_chemical_formula_sum "Si O2"
_cell_formula_units_Z 28
_cell_length_a 16.035434
_cell_length_b 7.339051
_cell_length_c 18.805283
_cell_angle_alpha 90.000000
_cell_angle_beta 36.304368
_cell_angle_gamma 90.000000
_cell_volume 1310.318706
_symmetry_space_group_name_H-M "P 2/M"
_symmetry_group_IT_number 10
_symmetry_cell_setting 'monoclinic'
loop_
_space_group_symop_operation_xyz
x,y,z
-x,y,-z
-x,-y,-z
x,-y,z
loop_
_atom_site_type_symbol
_atom_site_label
_atom_site_fract_x
_atom_site_fract_y
_atom_site_fract_z
Si Si1 0.801396 0.276793 0.488534
Si Si2 0.183979 0.285585 0.676624
Si Si3 0.344557 0.278019 0.267508
Si Si4 0.849181 0.285034 0.906064
Si Si5 0.079395 0.292688 0.368635
Si Si6 0.818403 0.000000 0.204909
Si Si7 0.591562 0.720494 0.002896
Si Si8 0.838695 0.000000 0.030346
O O1 0.807549 0.500000 0.484847
O O2 0.755062 0.224735 0.441421
O O3 0.702575 0.220040 0.621783
O O4 0.960173 0.213852 0.399263
O O5 0.209468 0.500000 0.669214
O O6 0.225999 0.172214 0.716823
O O7 0.015352 0.258004 0.782415
O O8 0.334427 0.500000 0.273625
O O9 0.229899 0.213875 0.287533
O O10 0.499356 0.230695 0.135466
O O11 0.827124 0.500000 0.931446
O O12 0.751811 0.224185 0.906997
O O13 0.803390 0.175157 0.007190
O O14 0.106075 0.500000 0.324802
O O15 0.000000 0.302414 0.500000
O O16 0.774721 0.000000 0.152885
O O17 0.989771 0.000000 0.083332
O O18 0.593626 0.500000 0.994728
O O19 0.500000 0.788507 0.000000
#
# Coordination Sequence:
#
# PCOD9154879 Si02
#       8
#     4   4   4   4   4   2   4   2
#     4   8  13  21  36  60  89 121 156 193 233 278
#     4   9  17  28  46  72 100 123 151 192 238 286
#     4   8  13  21  34  56  87 125 165 197 228 269
#     4   9  18  31  47  71  97 126 161 193 231 277
#     4   7  10  16  28  50  79 111 152 193 222 257
#     4   9  18  32  50  75  97 120 150 187 243 297
#     4   9  17  26  39  63  97 131 165 203 232 261
#     4   9  18  34  53  69  96 127 152 188 237 294
#
# _framework density 21.368846999999999
#
# number of rings (size 3 to 8) (size 9 to 14) (size 15 to 20)
#    0.000    3.571    0.000    1.714    2.000    0.571 
#    0.000    3.214    0.000    0.857    0.000    6.500 
#    0.000    5.714    0.000    0.000    0.000    0.000 
#
# Total GULP energy -156075.343948 kJ/mol
# GULP energy per Si atom -5574.119427 kJ/mol
# Density = 2.132021 g / cm^3
# Si number density = 21.368847 Si / 1000 Ang^3
#
#
#
# Elastic Constant Matrix: (Units=GPa)
#
#
# Indices 1 2 3 4 5 6 
#
# 1 58.7361 15.4830 11.3310 0.0000 33.8307 0.0000
# 2 15.4830 73.6301 12.7073 0.0000 13.3496 0.0000
# 3 11.3310 12.7073 52.7313 0.0000 21.4928 0.0000
# 4 0.0000 0.0000 0.0000 4.9254 0.0000 17.8804
# 5 33.8307 13.3496 21.4928 0.0000 40.9740 0.0000
# 6 0.0000 0.0000 0.0000 17.8804 0.0000 20.0340
#
#
#
# Elastic Compliance Matrix: (Units=1/GPa)
#
#
# Indices 1 2 3 4 5 6 
#
# 1 0.034021 -0.002654 0.005629 0.000000 -0.030178 0.000000
# 2 -0.002654 0.014807 -0.002448 0.000000 -0.001349 0.000000
# 3 0.005629 -0.002448 0.025329 0.000000 -0.017137 0.000000
# 4 0.000000 0.000000 0.000000 -0.090639 0.000000 0.080895
# 5 -0.030178 -0.001349 -0.017137 0.000000 0.058750 0.000000
# 6 0.000000 0.000000 0.000000 0.080895 0.000000 -0.022284
#
#
# Mechanical properties :
#
#
# Convention : Reuss Voigt Hill
#
# Bulk Modulus (GPa) = 13.29604 29.34891 21.32247
# Shear Modulus (GPa) = 113.63599 22.89176 68.26387
#
# Velocity S-wave (km/s) = 7.30026 3.27657 5.65817
# Velocity P-wave (km/s) = 8.79170 5.29895 7.25854
#
# Compressibility (1/GPa) = 0.07521039
#
# Stress axis : x y z
#
# Youngs Moduli (GPa) = 29.39399 67.53789 39.48025
#
# Poissons Ratio (x) = 0.17925 -0.22225
# Poissons Ratio (y) = 0.07801 0.09665
# Poissons Ratio (z) = -0.16547 0.16534
#
# Static dielectric constant tensor:
#      x y z
#    x 1.769780 0.000000 0.001850 
#    y 0.000000 1.833090 0.000000 
#    z 0.001850 0.000000 1.794610 
# 
# From -- ./inp_files/77741.got.cif
#   From: 2010.05.17/outbox.cif.g08.bks.cpg/sg10_39_cif.got.tgz:77741.got - 2010.06.03 11:33:40.
