data_PCOD9154196
_publ_section_title
;
Structure prediction by ZEFSAII (Michael W. Deem and Ramdas Pophale) SiO2 
 PCOD9154196
Probable space group: P 2/M
;
_chemical_formula_sum "Si O2"
_cell_formula_units_Z 26
_cell_length_a 12.090932
_cell_length_b 15.199672
_cell_length_c 7.051184
_cell_angle_alpha 90.000000
_cell_angle_beta 127.229968
_cell_angle_gamma 90.000000
_cell_volume 1031.776478
_symmetry_space_group_name_H-M "P 2/M"
_symmetry_group_IT_number 10
_symmetry_cell_setting 'monoclinic'
loop_
_space_group_symop_operation_xyz
x,y,z
-x,y,-z
-x,-y,-z
x,-y,z
loop_
_atom_site_type_symbol
_atom_site_label
_atom_site_fract_x
_atom_site_fract_y
_atom_site_fract_z
Si Si1 0.468789 0.351977 0.743492
Si Si2 0.774939 0.000000 0.611356
Si Si3 0.848115 0.188958 0.257048
Si Si4 0.876214 0.650693 0.101810
Si Si5 0.160045 0.399013 0.488064
Si Si6 0.605143 0.835602 0.275997
Si Si7 0.317258 0.500000 0.196467
Si Si8 0.098442 0.000000 0.838149
O O1 0.313666 0.388938 0.568483
O O2 0.466146 0.247590 0.691659
O O3 0.570650 0.420903 0.749012
O O4 0.500000 0.354948 0.000000
O O5 0.678206 0.915277 0.463993
O O6 0.928313 0.000000 0.666610
O O7 0.830616 0.000000 0.882755
O O8 0.822712 0.249600 0.047109
O O9 0.733254 0.207770 0.294563
O O10 0.000000 0.207271 0.500000
O O11 0.847808 0.087437 0.205411
O O12 0.844437 0.622438 0.290506
O O13 0.041615 0.654147 0.257494
O O14 0.802540 0.576770 0.907840
O O15 0.117202 0.500000 0.431599
O O16 0.500000 0.867432 0.000000
#
# Coordination Sequence:
#
# PCOD9154196 Si02
#       8
#     4   2   4   4   4   4   2   2
#     4  11  18  28  45  76 118 161 188 229 289 352
#     4  11  24  45  64  91 120 153 204 258 321 369
#     4  12  20  38  61  90 122 163 208 248 301 361
#     4  11  18  26  45  75 114 157 193 238 281 342
#     4  11  16  25  38  67 115 155 186 228 291 338
#     4  11  22  38  62  93 125 160 200 251 302 359
#     4  12  19  29  46  77 128 162 188 228 298 361
#     4  11  26  42  66  90 118 158 203 262 315 369
#
# _framework density 25.199258
#
# number of rings (size 3 to 8) (size 9 to 14) (size 15 to 20)
#    0.000    0.769    8.462    2.538    0.000    0.000 
#    0.000    1.538    0.000    0.000    0.000    2.154 
#    0.000    3.692    0.000    0.000    0.000    0.000 
#
# Total GULP energy -145035.862356 kJ/mol
# GULP energy per Si atom -5578.302398 kJ/mol
# Density = 2.514190 g / cm^3
# Si number density = 25.199258 Si / 1000 Ang^3
#
#
#
# Elastic Constant Matrix: (Units=GPa)
#
#
# Indices 1 2 3 4 5 6 
#
# 1 69.3501 3.8042 32.7330 0.0000 26.4136 0.0000
# 2 3.8042 196.0588 35.1658 0.0000 0.5075 0.0000
# 3 32.7330 35.1658 135.8829 0.0000 13.1709 0.0000
# 4 0.0000 0.0000 0.0000 8.2203 0.0000 34.1235
# 5 26.4136 0.5075 13.1709 0.0000 45.8672 0.0000
# 6 0.0000 0.0000 0.0000 34.1235 0.0000 -5.2994
#
#
#
# Elastic Compliance Matrix: (Units=1/GPa)
#
#
# Indices 1 2 3 4 5 6 
#
# 1 0.020285 0.000343 -0.003952 0.000000 -0.010550 0.000000
# 2 0.000343 0.005360 -0.001486 0.000000 0.000170 0.000000
# 3 -0.003952 -0.001486 0.008716 0.000000 -0.000210 0.000000
# 4 0.000000 0.000000 0.000000 0.004387 0.000000 0.028248
# 5 -0.010550 0.000170 -0.000210 0.000000 0.027936 0.000000
# 6 0.000000 0.000000 0.000000 0.028248 0.000000 -0.006805
#
#
# Mechanical properties :
#
#
# Convention : Reuss Voigt Hill
#
# Bulk Modulus (GPa) = 41.37527 60.52200 50.94864
# Shear Modulus (GPa) = 63.99802 31.73020 47.86411
#
# Velocity S-wave (km/s) = 5.04499 3.55233 4.36297
# Velocity P-wave (km/s) = 7.09865 6.39491 6.75595
#
# Compressibility (1/GPa) = 0.02416902
#
# Stress axis : x y z
#
# Youngs Moduli (GPa) = 49.29848 186.56761 114.72636
#
# Poissons Ratio (x) = -0.06393 0.45345
# Poissons Ratio (y) = -0.01689 0.17050
# Poissons Ratio (z) = 0.19485 0.27727
#
# Static dielectric constant tensor:
#      x y z
#    x 2.134580 0.000000 -0.146400 
#    y 0.000000 2.002290 0.000000 
#    z -0.146400 0.000000 2.133380 
# 
# From -- ./inp_files/29852.got.cif
#   From: 2010.05.17/outbox.cif.g08.bks.cpg/sg10_15_cif.got.tgz:29852.got - 2010.06.03 11:33:40.
