data_PCOD9154272
_publ_section_title
;
Structure prediction by ZEFSAII (Michael W. Deem and Ramdas Pophale) SiO2 
 PCOD9154272
Probable space group: P 2/M
;
_chemical_formula_sum "Si O2"
_cell_formula_units_Z 28
_cell_length_a 11.122216
_cell_length_b 8.763482
_cell_length_c 19.525068
_cell_angle_alpha 90.000000
_cell_angle_beta 54.678239
_cell_angle_gamma 90.000000
_cell_volume 1552.769977
_symmetry_space_group_name_H-M "P 2/M"
_symmetry_group_IT_number 10
_symmetry_cell_setting 'monoclinic'
loop_
_space_group_symop_operation_xyz
x,y,z
-x,y,-z
-x,-y,-z
x,-y,z
loop_
_atom_site_type_symbol
_atom_site_label
_atom_site_fract_x
_atom_site_fract_y
_atom_site_fract_z
Si Si1 0.655722 0.677676 0.513644
Si Si2 0.658260 0.675400 0.240303
Si Si3 0.365951 0.684113 0.254487
Si Si4 0.161694 0.677904 0.959259
Si Si5 0.548203 0.313554 0.060460
Si Si6 0.170562 0.175522 0.423347
Si Si7 0.666736 0.178101 0.374624
O O1 0.620295 0.500000 0.522088
O O2 0.752456 0.716458 0.546782
O O3 0.505205 0.773021 0.570121
O O4 0.730688 0.730549 0.418095
O O5 0.645430 0.500000 0.268470
O O6 0.497754 0.722624 0.264771
O O7 0.760334 0.678443 0.140230
O O8 0.719636 0.773660 0.282275
O O9 0.348934 0.500000 0.260444
O O10 0.430061 0.728957 0.158743
O O11 0.220878 0.764244 0.332186
O O12 0.137991 0.500000 0.988011
O O13 0.287948 0.739362 0.969478
O O14 0.000000 0.747974 0.000000
O O15 0.553051 0.500000 0.060162
O O16 0.500000 0.266707 0.000000
O O17 0.000000 0.178683 0.500000
O O18 0.221601 0.000000 0.413692
O O19 0.682731 0.000000 0.381300
#
# Coordination Sequence:
#
# PCOD9154272 Si02
#       7
#     4   4   4   4   4   4   4
#     4  11  21  34  52  73  99 129 166 211 255 300
#     4   9  16  28  47  72 100 131 169 211 252 298
#     4   9  17  30  50  73  98 131 172 216 254 301
#     4   8  14  25  43  68  98 130 164 208 261 308
#     4   8  14  26  46  72  99 127 164 213 262 307
#     4  11  23  37  52  72 102 139 176 217 262 312
#     4  11  20  31  50  75 102 131 165 206 255 305
#
# _framework density 18.032291000000001
#
# number of rings (size 3 to 8) (size 9 to 14) (size 15 to 20)
#    0.000    2.429    1.429    5.571    0.000    1.143 
#    0.000    1.429    0.000    4.286    0.000    0.000 
#    0.000    0.000    0.000    0.000    0.000    0.000 
#
# Total GULP energy -155927.786692 kJ/mol
# GULP energy per Si atom -5568.849525 kJ/mol
# Density = 1.799125 g / cm^3
# Si number density = 18.032291 Si / 1000 Ang^3
#
#
#
# Elastic Constant Matrix: (Units=GPa)
#
#
# Indices 1 2 3 4 5 6 
#
# 1 68.3090 12.3370 52.1147 0.0000 12.0725 0.0000
# 2 12.3370 27.3710 22.8553 0.0000 1.8051 0.0000
# 3 52.1147 22.8553 89.5540 0.0000 9.9159 0.0000
# 4 0.0000 0.0000 0.0000 -18.5401 0.0000 -5.3308
# 5 12.0725 1.8051 9.9159 0.0000 31.7197 0.0000
# 6 0.0000 0.0000 0.0000 -5.3308 0.0000 -10.5645
#
#
#
# Elastic Compliance Matrix: (Units=1/GPa)
#
#
# Indices 1 2 3 4 5 6 
#
# 1 0.027282 0.001032 -0.015521 0.000000 -0.005590 0.000000
# 2 0.001032 0.046506 -0.012568 0.000000 0.000889 0.000000
# 3 -0.015521 -0.012568 0.023486 0.000000 -0.000719 0.000000
# 4 0.000000 0.000000 0.000000 -0.063090 0.000000 0.031835
# 5 -0.005590 0.000889 -0.000719 0.000000 0.033828 0.000000
# 6 0.000000 0.000000 0.000000 0.031835 0.000000 -0.110720
#
#
# Mechanical properties :
#
#
# Convention : Reuss Voigt Hill
#
# Bulk Modulus (GPa) = 23.16958 39.98312 31.57635
# Shear Modulus (GPa) = 193.85907 7.05147 100.45527
#
# Velocity S-wave (km/s) = 10.37979 1.97964 7.47191
# Velocity P-wave (km/s) = 12.51120 5.23894 9.59105
#
# Compressibility (1/GPa) = 0.04316005
#
# Stress axis : x y z
#
# Youngs Moduli (GPa) = 36.65375 21.50276 42.57906
#
# Poissons Ratio (x) = -0.02219 0.66087
# Poissons Ratio (y) = -0.03782 0.53512
# Poissons Ratio (z) = 0.56890 0.27024
#
# Static dielectric constant tensor:
#      x y z
#    x 1.635140 0.000000 0.007630 
#    y 0.000000 1.613420 0.000000 
#    z 0.007630 0.000000 1.669610 
# 
# From -- ./inp_files/83314.got.cif
#   From: 2010.05.17/outbox.cif.g08.bks.cpg/sg10_42_cif.got.tgz:83314.got - 2010.06.03 11:33:40.
