data_PCOD9154669
_publ_section_title
;
Structure prediction by ZEFSAII (Michael W. Deem and Ramdas Pophale) SiO2 
 PCOD9154669
Probable space group: P 2/M
;
_chemical_formula_sum "Si O2"
_cell_formula_units_Z 16
_cell_length_a 12.101005
_cell_length_b 10.567438
_cell_length_c 7.083877
_cell_angle_alpha 90.000000
_cell_angle_beta 54.168982
_cell_angle_gamma 90.000000
_cell_volume 734.425121
_symmetry_space_group_name_H-M "P 2/M"
_symmetry_group_IT_number 10
_symmetry_cell_setting 'monoclinic'
loop_
_space_group_symop_operation_xyz
x,y,z
-x,y,-z
-x,-y,-z
x,-y,z
loop_
_atom_site_type_symbol
_atom_site_label
_atom_site_fract_x
_atom_site_fract_y
_atom_site_fract_z
Si Si1 0.000000 0.701760 0.500000
Si Si2 0.500000 0.798241 0.000000
Si Si3 0.750000 0.750000 0.985619
Si Si4 0.911017 0.500000 0.283619
Si Si5 0.334648 0.500000 0.696865
Si Si6 0.411018 0.000000 0.394346
Si Si7 0.165353 0.000000 0.866158
O O1 0.950200 0.617800 0.373871
O O2 0.874783 0.770599 0.717816
O O3 0.374781 0.729402 0.032623
O O4 0.549798 0.882201 0.774272
O O5 0.727481 0.625494 0.137933
O O6 0.772518 0.874506 0.092898
O O7 0.749631 0.500000 0.412318
O O8 0.000000 0.500000 0.000000
O O9 0.500000 0.500000 0.500000
O O10 0.500000 0.000000 0.500000
O O11 0.249631 0.000000 0.588418
O O12 0.000000 0.000000 0.000000
#
# Coordination Sequence:
#
# PCOD9154669 Si02
#       7
#     2   2   4   2   2   2   2
#     4  11  26  45  78 108 154 200 256 316 380 452
#     4  11  26  45  78 108 154 200 256 316 380 452
#     4  12  28  50  74 118 152 208 256 314 388 452
#     4  11  22  51  74 102 150 209 248 308 387 449
#     4  12  30  47  79 116 155 199 264 313 383 466
#     4  11  22  51  74 102 150 209 248 308 387 449
#     4  12  30  47  79 116 155 199 264 313 383 466
#
# _framework density 21.785748999999999
#
# number of rings (size 3 to 8) (size 9 to 14) (size 15 to 20)
#    0.000    0.500    5.000    1.500   14.000    1.000 
#    0.000    0.000    0.000    0.000    0.000    0.000 
#    0.000    0.000    0.000    0.000    0.000    0.000 
#
# Total GULP energy -89120.707247 kJ/mol
# GULP energy per Si atom -5570.044203 kJ/mol
# Density = 2.173616 g / cm^3
# Si number density = 21.785749 Si / 1000 Ang^3
#
#
#
# Elastic Constant Matrix: (Units=GPa)
#
#
# Indices 1 2 3 4 5 6 
#
# 1 143.8086 5.7909 14.7583 0.0000 0.5253 0.0000
# 2 5.7909 80.9362 16.9091 0.0000 9.6291 0.0000
# 3 14.7583 16.9091 127.8409 0.0000 -14.3515 0.0000
# 4 0.0000 0.0000 0.0000 -18.4038 0.0000 -25.0890
# 5 0.5253 9.6291 -14.3515 0.0000 51.9450 0.0000
# 6 0.0000 0.0000 0.0000 -25.0890 0.0000 10.5658
#
#
#
# Elastic Compliance Matrix: (Units=1/GPa)
#
#
# Indices 1 2 3 4 5 6 
#
# 1 0.007049 -0.000309 -0.000799 0.000000 -0.000235 0.000000
# 2 -0.000309 0.013161 -0.002042 0.000000 -0.003001 0.000000
# 3 -0.000799 -0.002042 0.008491 0.000000 0.002733 0.000000
# 4 0.000000 0.000000 0.000000 -0.012824 0.000000 -0.030451
# 5 -0.000235 -0.003001 0.002733 0.000000 0.020565 0.000000
# 6 0.000000 0.000000 0.000000 -0.030451 0.000000 0.022337
#
#
# Mechanical properties :
#
#
# Convention : Reuss Voigt Hill
#
# Bulk Modulus (GPa) = 44.64211 47.50026 46.07119
# Shear Modulus (GPa) = 68.92052 29.82988 49.37520
#
# Velocity S-wave (km/s) = 5.63066 3.70434 4.76584
# Velocity P-wave (km/s) = 7.92517 6.33615 7.17479
#
# Compressibility (1/GPa) = 0.02240037
#
# Stress axis : x y z
#
# Youngs Moduli (GPa) = 141.86368 75.98124 117.76728
#
# Poissons Ratio (x) = 0.02351 0.09412
# Poissons Ratio (y) = 0.04390 0.24047
# Poissons Ratio (z) = 0.11337 0.15515
#
# Static dielectric constant tensor:
#      x y z
#    x 1.816120 0.000000 0.169630 
#    y 0.000000 1.618050 0.000000 
#    z 0.169630 0.000000 2.011950 
# 
# From -- ./inp_files/6213.got.cif
#   From: 2010.05.17/outbox.cif.g08.bks.cpg/sg10_4_cif.got.tgz:6213.got - 2010.06.03 11:33:40.
