data_PCOD9154416
_publ_section_title
;
Structure prediction by ZEFSAII (Michael W. Deem and Ramdas Pophale) SiO2 
 PCOD9154416
Probable space group: P 2/M
;
_chemical_formula_sum "Si O2"
_cell_formula_units_Z 18
_cell_length_a 5.067313
_cell_length_b 23.086016
_cell_length_c 7.672866
_cell_angle_alpha 90.000000
_cell_angle_beta 89.707635
_cell_angle_gamma 90.000000
_cell_volume 897.591400
_symmetry_space_group_name_H-M "P 2/M"
_symmetry_group_IT_number 10
_symmetry_cell_setting 'monoclinic'
loop_
_space_group_symop_operation_xyz
x,y,z
-x,y,-z
-x,-y,-z
x,-y,z
loop_
_atom_site_type_symbol
_atom_site_label
_atom_site_fract_x
_atom_site_fract_y
_atom_site_fract_z
Si Si1 0.379254 0.685620 0.694078
Si Si2 0.878712 0.248369 0.806826
Si Si3 0.247643 0.436371 0.626943
Si Si4 0.250112 0.000000 0.128378
Si Si5 0.248575 0.125133 0.128477
O O1 0.500000 0.683483 0.500000
O O2 0.618002 0.712353 0.803355
O O3 0.292787 0.620263 0.743697
O O4 0.118545 0.724957 0.696759
O O5 0.791508 0.182988 0.759274
O O6 0.000000 0.246522 0.000000
O O7 0.500000 0.440120 0.500000
O O8 0.213343 0.500000 0.711319
O O9 0.000000 0.425887 0.500000
O O10 0.260230 0.062432 0.222280
O O11 0.500000 0.000000 0.000000
O O12 0.000000 0.000000 0.000000
O O13 0.500000 0.132716 0.000000
O O14 0.000000 0.121842 0.000000
#
# Coordination Sequence:
#
# PCOD9154416 Si02
#       5
#     4   4   4   2   4
#     4  11  21  35  54  78 103 133 174 214 251 302
#     4  11  21  34  52  76 108 140 167 205 260 313
#     4   9  17  31  52  76  99 126 167 217 256 289
#     4   8  14  24  42  66  95 124 161 212 251 282
#     4   9  16  28  45  70  99 130 166 207 253 296
#
# _framework density 20.053667000000001
#
# number of rings (size 3 to 8) (size 9 to 14) (size 15 to 20)
#    0.000    2.222    0.000    6.667    0.000    0.000 
#    0.000    0.000    0.000    4.000    0.000    4.667 
#    0.000    0.000    0.000    0.000    0.000    0.000 
#
# Total GULP energy -100264.530222 kJ/mol
# GULP energy per Si atom -5570.251679 kJ/mol
# Density = 2.000802 g / cm^3
# Si number density = 20.053667 Si / 1000 Ang^3
#
#
#
# Elastic Constant Matrix: (Units=GPa)
#
#
# Indices 1 2 3 4 5 6 
#
# 1 154.3264 55.1011 2.9809 0.0000 9.9882 0.0000
# 2 55.1011 242.6186 19.7244 0.0000 5.7780 0.0000
# 3 2.9809 19.7244 16.6583 0.0000 3.5211 0.0000
# 4 0.0000 0.0000 0.0000 24.8924 0.0000 3.5204
# 5 9.9882 5.7780 3.5211 0.0000 27.0164 0.0000
# 6 0.0000 0.0000 0.0000 3.5204 0.0000 36.0968
#
#
#
# Elastic Compliance Matrix: (Units=1/GPa)
#
#
# Indices 1 2 3 4 5 6 
#
# 1 0.007215 -0.001679 0.001218 0.000000 -0.002467 0.000000
# 2 -0.001679 0.004953 -0.005627 0.000000 0.000295 0.000000
# 3 0.001218 -0.005627 0.068195 0.000000 -0.008135 0.000000
# 4 0.000000 0.000000 0.000000 0.040735 0.000000 -0.003973
# 5 -0.002467 0.000295 -0.008135 0.000000 0.038924 0.000000
# 6 0.000000 0.000000 0.000000 -0.003973 0.000000 0.028091
#
#
# Mechanical properties :
#
#
# Convention : Reuss Voigt Hill
#
# Bulk Modulus (GPa) = 14.66533 63.24624 38.95578
# Shear Modulus (GPa) = 22.41978 39.98759 31.20368
#
# Velocity S-wave (km/s) = 3.34726 4.47030 3.94891
# Velocity P-wave (km/s) = 4.71888 7.63228 6.34506
#
# Compressibility (1/GPa) = 0.06818804
#
# Stress axis : x y z
#
# Youngs Moduli (GPa) = 138.59267 201.87934 14.66394
#
# Poissons Ratio (x) = 0.33895 -0.01787
# Poissons Ratio (y) = 0.23269 0.08251
# Poissons Ratio (z) = -0.16885 1.13598
#
# Static dielectric constant tensor:
#      x y z
#    x 1.680270 0.000000 -0.004650 
#    y 0.000000 1.848860 0.000000 
#    z -0.004650 0.000000 1.721370 
# 
# From -- ./inp_files/14946.got.cif
#   From: 2010.05.17/outbox.cif.g08.bks.cpg/sg10_8_cif.got.tgz:14946.got - 2010.06.03 11:33:40.
