data_PCOD9154151
_publ_section_title
;
Structure prediction by ZEFSAII (Michael W. Deem and Ramdas Pophale) SiO2 
 PCOD9154151
Probable space group: P 2/M
;
_chemical_formula_sum "Si O2"
_cell_formula_units_Z 24
_cell_length_a 13.843988
_cell_length_b 8.267450
_cell_length_c 13.596784
_cell_angle_alpha 90.000000
_cell_angle_beta 135.776971
_cell_angle_gamma 90.000000
_cell_volume 1085.385607
_symmetry_space_group_name_H-M "P 2/M"
_symmetry_group_IT_number 10
_symmetry_cell_setting 'monoclinic'
loop_
_space_group_symop_operation_xyz
x,y,z
-x,y,-z
-x,-y,-z
x,-y,z
loop_
_atom_site_type_symbol
_atom_site_label
_atom_site_fract_x
_atom_site_fract_y
_atom_site_fract_z
Si Si1 0.970695 0.500000 0.311585
Si Si2 0.654795 0.806934 0.643761
Si Si3 0.342780 0.825053 0.766414
Si Si4 0.827404 0.315944 0.955459
Si Si5 0.940630 0.811564 0.751041
Si Si6 0.673458 0.823051 0.015972
Si Si7 0.212487 0.500000 0.642731
O O1 0.829401 0.500000 0.271946
O O2 0.001288 0.666133 0.274672
O O3 0.082487 0.500000 0.478727
O O4 0.500000 0.747585 0.500000
O O5 0.778410 0.779997 0.654973
O O6 0.642382 0.000000 0.647885
O O7 0.723279 0.739101 0.793643
O O8 0.508220 0.819603 0.888540
O O9 0.291379 0.665026 0.677865
O O10 0.298364 0.000000 0.692925
O O11 0.294764 0.817912 0.845283
O O12 0.869203 0.500000 0.967822
O O13 0.964796 0.212383 0.081809
O O14 0.738853 0.305206 0.991694
O O15 0.954465 0.000000 0.727867
O O16 0.720260 0.000000 0.013003
#
# Coordination Sequence:
#
# PCOD9154151 Si02
#       7
#     2   4   4   4   4   4   2
#     4  11  26  44  60  96 127 161 224 267 320 391
#     4  10  24  46  69  96 130 171 217 266 327 393
#     4   9  20  37  60  89 126 174 218 265 325 381
#     4  12  24  37  65 103 133 170 219 269 322 389
#     4  11  24  46  72  93 129 176 218 272 324 380
#     4   9  19  36  58  91 130 168 220 270 312 379
#     4  11  24  39  62  88 130 170 208 276 321 389
#
# _framework density 22.111957
#
# number of rings (size 3 to 8) (size 9 to 14) (size 15 to 20)
#    0.000    1.667    0.833    4.000    3.500    7.000 
#    0.000    5.000    0.000    0.000    0.000    0.000 
#    0.000    0.000    0.000    0.000    0.000    0.000 
#
# Total GULP energy -133887.234626 kJ/mol
# GULP energy per Si atom -5578.634776 kJ/mol
# Density = 2.206163 g / cm^3
# Si number density = 22.111957 Si / 1000 Ang^3
#
#
#
# Elastic Constant Matrix: (Units=GPa)
#
#
# Indices 1 2 3 4 5 6 
#
# 1 79.5029 26.1988 23.9036 0.0000 12.3360 0.0000
# 2 26.1988 142.7163 42.8291 0.0000 9.4664 0.0000
# 3 23.9036 42.8291 94.8171 0.0000 16.0431 0.0000
# 4 0.0000 0.0000 0.0000-1012.0341 0.0000 858.5213
# 5 12.3360 9.4664 16.0431 0.0000 31.0610 0.0000
# 6 0.0000 0.0000 0.0000 858.5213 0.0000 -681.6084
#
#
#
# Elastic Compliance Matrix: (Units=1/GPa)
#
#
# Indices 1 2 3 4 5 6 
#
# 1 0.014433 -0.001728 -0.002167 0.000000 -0.004086 0.000000
# 2 -0.001728 0.008324 -0.003300 0.000000 -0.000146 0.000000
# 3 -0.002167 -0.003300 0.013442 0.000000 -0.005077 0.000000
# 4 0.000000 0.000000 0.000000 0.014426 0.000000 0.018171
# 5 -0.004086 -0.000146 -0.005077 0.000000 0.036485 0.000000
# 6 0.000000 0.000000 0.000000 0.018171 0.000000 0.021420
#
#
# Mechanical properties :
#
#
# Convention : Reuss Voigt Hill
#
# Bulk Modulus (GPa) = 45.84900 55.87770 50.86335
# Shear Modulus (GPa) = 38.40575 -317.57598 -139.58511
#
# Velocity S-wave (km/s) = 4.17211 -11.99723 -7.95384
# Velocity P-wave (km/s) = 6.63239 12.90683 7.82936
#
# Compressibility (1/GPa) = 0.02181072
#
# Stress axis : x y z
#
# Youngs Moduli (GPa) = 69.28492 120.13353 74.39245
#
# Poissons Ratio (x) = 0.20763 0.16117
# Poissons Ratio (y) = 0.11975 0.24546
# Poissons Ratio (z) = 0.15011 0.39639
#
# Static dielectric constant tensor:
#      x y z
#    x 1.859260 0.000000 -0.009180 
#    y 0.000000 1.849160 0.000000 
#    z -0.009180 0.000000 1.796620 
# 
# From -- ./inp_files/66743.got.cif
#   From: 2010.05.17/outbox.cif.g08.bks.cpg/sg10_34_cif.got.tgz:66743.got - 2010.06.03 11:33:40.
