data_PCOD9154417
_publ_section_title
;
Structure prediction by ZEFSAII (Michael W. Deem and Ramdas Pophale) SiO2 
 PCOD9154417
Probable space group: P 2/M
;
_chemical_formula_sum "Si O2"
_cell_formula_units_Z 28
_cell_length_a 8.926426
_cell_length_b 13.006430
_cell_length_c 15.438552
_cell_angle_alpha 90.000000
_cell_angle_beta 106.803807
_cell_angle_gamma 90.000000
_cell_volume 1715.894068
_symmetry_space_group_name_H-M "P 2/M"
_symmetry_group_IT_number 10
_symmetry_cell_setting 'monoclinic'
loop_
_space_group_symop_operation_xyz
x,y,z
-x,y,-z
-x,-y,-z
x,-y,z
loop_
_atom_site_type_symbol
_atom_site_label
_atom_site_fract_x
_atom_site_fract_y
_atom_site_fract_z
Si Si1 0.626613 0.880724 0.894133
Si Si2 0.382720 0.379669 0.406037
Si Si3 0.976683 0.620331 0.593963
Si Si4 0.715084 0.305990 0.789740
Si Si5 0.267519 0.880724 0.894133
Si Si6 0.925344 0.694010 0.210260
Si Si7 0.625872 0.500000 0.892915
Si Si8 0.267043 0.500000 0.892915
O O1 0.679766 0.800300 0.831643
O O2 0.442082 0.868264 0.884163
O O3 0.653188 0.000000 0.874931
O O4 0.714850 0.861029 0.000000
O O5 0.500000 0.342789 0.500000
O O6 0.419750 0.500000 0.393996
O O7 0.206787 0.375989 0.413573
O O8 0.381753 0.319993 0.315383
O O9 0.025754 0.500000 0.606004
O O10 0.000000 0.657211 0.500000
O O11 0.066371 0.680007 0.684617
O O12 0.671436 0.399438 0.846081
O O13 0.897577 0.313876 0.795155
O O14 0.151878 0.800300 0.831643
O O15 0.221743 0.000000 0.874931
O O16 0.825355 0.600562 0.153918
O O17 0.440847 0.500000 0.881694
O O18 0.712280 0.500000 1.000000
#
# Coordination Sequence:
#
# PCOD9154417 Si02
#       8
#     4   4   4   4   4   4   2   2
#     4   9  19  36  55  75 102 137 177 216 251 297
#     4   9  18  33  50  72 102 133 167 207 252 303
#     4   9  18  33  50  72 102 133 167 207 252 303
#     4  11  21  34  52  77 107 134 166 213 262 306
#     4   9  19  36  55  75 102 137 177 216 251 297
#     4  11  21  34  52  77 107 134 166 213 262 306
#     4  11  23  35  48  71 104 141 176 205 244 305
#     4  11  23  35  48  71 104 141 176 205 244 305
#
# _framework density 16.318024000000001
#
# number of rings (size 3 to 8) (size 9 to 14) (size 15 to 20)
#    0.000    2.143    1.429    3.000    0.000    8.000 
#    0.000    1.429    0.000    0.857    0.000    0.000 
#    0.000    0.000    0.000    0.000    0.000    0.000 
#
# Total GULP energy -156263.195600 kJ/mol
# GULP energy per Si atom -5580.828414 kJ/mol
# Density = 1.628088 g / cm^3
# Si number density = 16.318024 Si / 1000 Ang^3
#
#
#
# Elastic Constant Matrix: (Units=GPa)
#
#
# Indices 1 2 3 4 5 6 
#
# 1 42.9254 45.5664 66.8368 0.0000 -1.9108 0.0000
# 2 45.5664 94.1521 92.0189 0.0000 -1.0103 0.0000
# 3 66.8368 92.0189 170.9144 0.0000 -0.8727 0.0000
# 4 0.0000 0.0000 0.0000 14.6619 0.0000 0.2940
# 5 -1.9108 -1.0103 -0.8727 0.0000 31.9521 0.0000
# 6 0.0000 0.0000 0.0000 0.2940 0.0000 28.1774
#
#
#
# Elastic Compliance Matrix: (Units=1/GPa)
#
#
# Indices 1 2 3 4 5 6 
#
# 1 0.068193 -0.014610 -0.018785 0.000000 0.003103 0.000000
# 2 -0.014610 0.025551 -0.008045 0.000000 -0.000286 0.000000
# 3 -0.018785 -0.008045 0.017524 0.000000 -0.000899 0.000000
# 4 0.000000 0.000000 0.000000 0.068218 0.000000 -0.000712
# 5 0.003103 -0.000286 -0.000899 0.000000 0.031449 0.000000
# 6 0.000000 0.000000 0.000000 -0.000712 0.000000 0.035497
#
#
# Mechanical properties :
#
#
# Convention : Reuss Voigt Hill
#
# Bulk Modulus (GPa) = 35.22671 79.64847 57.43759
# Shear Modulus (GPa) = 14.75908 21.86294 18.31101
#
# Velocity S-wave (km/s) = 3.01069 3.66430 3.35346
# Velocity P-wave (km/s) = 5.80691 8.17428 7.09010
#
# Compressibility (1/GPa) = 0.02838755
#
# Stress axis : x y z
#
# Youngs Moduli (GPa) = 14.66427 39.13692 57.06585
#
# Poissons Ratio (x) = 0.57179 1.07200
# Poissons Ratio (y) = 0.21425 0.45908
# Poissons Ratio (z) = 0.27547 0.31485
#
# Static dielectric constant tensor:
#      x y z
#    x 1.546170 0.000000 0.000110 
#    y 0.000000 1.523630 0.000000 
#    z 0.000110 0.000000 1.541070 
# 
# From -- ./inp_files/28368.got.cif
#   From: 2010.05.17/outbox.cif.g08.bks.cpg/sg10_15_cif.got.tgz:28368.got - 2010.06.03 11:33:40.
