data_PCOD9154942
_publ_section_title
;
Structure prediction by ZEFSAII (Michael W. Deem and Ramdas Pophale) SiO2 
 PCOD9154942
Probable space group: P 2/M
;
_chemical_formula_sum "Si O2"
_cell_formula_units_Z 24
_cell_length_a 26.497150
_cell_length_b 7.381753
_cell_length_c 31.240708
_cell_angle_alpha 90.000000
_cell_angle_beta 168.668143
_cell_angle_gamma 90.000000
_cell_volume 1200.668085
_symmetry_space_group_name_H-M "P 2/M"
_symmetry_group_IT_number 10
_symmetry_cell_setting 'monoclinic'
loop_
_space_group_symop_operation_xyz
x,y,z
-x,y,-z
-x,-y,-z
x,-y,z
loop_
_atom_site_type_symbol
_atom_site_label
_atom_site_fract_x
_atom_site_fract_y
_atom_site_fract_z
Si Si1 0.214305 0.784272 0.309537
Si Si2 0.795276 0.721070 0.128140
Si Si3 0.207563 0.721071 0.540426
Si Si4 0.205899 0.221379 0.205903
Si Si5 0.791840 0.279416 0.361224
Si Si6 0.786201 0.715611 0.024139
O O1 0.501175 0.720098 0.559866
O O2 0.146632 0.720100 0.205333
O O3 0.000430 0.748979 0.166958
O O4 0.236313 0.000000 0.324210
O O5 0.800567 0.500000 0.133153
O O6 0.000416 0.783412 0.333614
O O7 0.855039 0.780789 0.129202
O O8 0.500909 0.774671 0.892561
O O9 0.203944 0.500000 0.536528
O O10 0.149202 0.774668 0.540852
O O11 0.500010 0.780788 0.774172
O O12 0.200772 0.000000 0.200775
O O13 0.000000 0.283818 0.000000
O O14 0.794631 0.500000 0.363084
O O15 0.000000 0.217079 0.500000
O O16 0.762088 0.500000 0.008063
#
# Coordination Sequence:
#
# PCOD9154942 Si02
#       6
#     4   4   4   4   4   4
#     4   9  17  29  46  65  81 102 134 166 197 235
#     4   8  14  24  36  51  75 107 137 163 197 241
#     4   8  14  24  36  51  75 107 137 163 197 241
#     4   8  15  29  46  62  82 106 130 160 200 242
#     4   8  13  20  31  50  75 103 137 172 201 233
#     4   9  17  28  41  58  82 110 136 162 195 237
#
# _framework density 19.988869999999999
#
# number of rings (size 3 to 8) (size 9 to 14) (size 15 to 20)
#    0.000    3.667    0.000    3.000    0.000    2.000 
#    0.000    5.000    0.000    1.000    0.000    0.000 
#    0.000   10.667    0.000   12.000    0.000   13.333 
#
# Total GULP energy -133792.330104 kJ/mol
# GULP energy per Si atom -5574.680421 kJ/mol
# Density = 1.994337 g / cm^3
# Si number density = 19.988870 Si / 1000 Ang^3
#
#
#
# Elastic Constant Matrix: (Units=GPa)
#
#
# Indices 1 2 3 4 5 6 
#
# 1 195.7298 4.3258 178.9185 0.0000 -4.5152 0.0000
# 2 4.3258 66.2734 4.8792 0.0000 -5.0840 0.0000
# 3 178.9185 4.8792 197.1630 0.0000 -8.9701 0.0000
# 4 0.0000 0.0000 0.0000 7.7589 0.0000 18.8889
# 5 -4.5152 -5.0840 -8.9701 0.0000 49.6799 0.0000
# 6 0.0000 0.0000 0.0000 18.8889 0.0000 9.8112
#
#
#
# Elastic Compliance Matrix: (Units=1/GPa)
#
#
# Indices 1 2 3 4 5 6 
#
# 1 0.030212 -0.000118 -0.027515 0.000000 -0.002234 0.000000
# 2 -0.000118 0.015227 -0.000201 0.000000 0.001511 0.000000
# 3 -0.027515 -0.000201 0.030179 0.000000 0.002928 0.000000
# 4 0.000000 0.000000 0.000000 -0.034957 0.000000 0.067300
# 5 -0.002234 0.001511 0.002928 0.000000 0.020609 0.000000
# 6 0.000000 0.000000 0.000000 0.067300 0.000000 -0.027644
#
#
# Mechanical properties :
#
#
# Convention : Reuss Voigt Hill
#
# Bulk Modulus (GPa) = 50.12416 92.82367 71.47392
# Shear Modulus (GPa) = 52.11442 31.51953 41.81697
#
# Velocity S-wave (km/s) = 5.11159 3.97527 4.57881
# Velocity P-wave (km/s) = 7.74392 8.22246 7.98677
#
# Compressibility (1/GPa) = 0.01995046
#
# Stress axis : x y z
#
# Youngs Moduli (GPa) = 33.09997 65.67090 33.13600
#
# Poissons Ratio (x) = 0.00773 0.91172
# Poissons Ratio (y) = 0.00390 0.00667
# Poissons Ratio (z) = 0.91073 0.01322
#
# Static dielectric constant tensor:
#      x y z
#    x 1.685670 0.000000 0.003030 
#    y 0.000000 1.774870 0.000000 
#    z 0.003030 0.000000 1.685330 
# 
# From -- ./inp_files/91427.got.cif
#   From: 2010.05.17/outbox.cif.g08.bks.cpg/sg10_46_cif.got.tgz:91427.got - 2010.06.03 11:33:40.
