data_PCOD9154596
_publ_section_title
;
Structure prediction by ZEFSAII (Michael W. Deem and Ramdas Pophale) SiO2 
 PCOD9154596
Probable space group: P 2/M
;
_chemical_formula_sum "Si O2"
_cell_formula_units_Z 28
_cell_length_a 14.193084
_cell_length_b 20.848483
_cell_length_c 7.864972
_cell_angle_alpha 90.000000
_cell_angle_beta 146.025176
_cell_angle_gamma 90.000000
_cell_volume 1300.549878
_symmetry_space_group_name_H-M "P 2/M"
_symmetry_group_IT_number 10
_symmetry_cell_setting 'monoclinic'
loop_
_space_group_symop_operation_xyz
x,y,z
-x,y,-z
-x,-y,-z
x,-y,z
loop_
_atom_site_type_symbol
_atom_site_label
_atom_site_fract_x
_atom_site_fract_y
_atom_site_fract_z
Si Si1 0.304419 0.706722 0.409558
Si Si2 0.816222 0.843863 0.274253
Si Si3 0.702854 0.431292 0.007891
Si Si4 0.816480 0.155345 0.677243
Si Si5 0.308084 0.706444 0.006310
Si Si6 0.499340 0.073897 0.207963
Si Si7 0.292783 0.431196 0.390173
O O1 0.204586 0.770865 0.299479
O O2 0.313311 0.700978 0.218592
O O3 0.497589 0.715220 0.761940
O O4 0.235072 0.638108 0.371326
O O5 0.802611 0.845252 0.455156
O O6 0.000000 0.867720 0.500000
O O7 0.792944 0.770002 0.186763
O O8 0.664906 0.887248 0.978472
O O9 0.760124 0.500000 0.167078
O O10 0.759589 0.362171 0.161921
O O11 0.497705 0.429811 0.713656
O O12 0.741583 0.432770 0.863978
O O13 0.663874 0.112096 0.515922
O O14 0.000000 0.130745 0.000000
O O15 0.498289 0.000000 0.259141
O O16 0.500000 0.074259 0.000000
O O17 0.234130 0.500000 0.374470
#
# Coordination Sequence:
#
# PCOD9154596 Si02
#       7
#     4   4   4   4   4   4   4
#     4   9  16  28  50  78 109 144 183 228 273 322
#     4  11  22  37  58  84 113 147 184 224 270 323
#     4   7  10  18  36  66 101 136 176 221 269 319
#     4  11  22  37  58  84 113 147 184 224 270 323
#     4   9  16  28  50  78 109 144 183 228 273 322
#     4   9  20  40  63  85 112 145 178 216 269 329
#     4   7  10  18  36  66 101 136 176 221 269 319
#
# _framework density 21.529354000000001
#
# number of rings (size 3 to 8) (size 9 to 14) (size 15 to 20)
#    0.000    3.000    1.429    3.429    0.000    0.571 
#    0.000    0.000    0.000    7.714    0.000    4.000 
#    0.000    0.000    0.000    0.000    0.000    0.000 
#
# Total GULP energy -156106.864823 kJ/mol
# GULP energy per Si atom -5575.245172 kJ/mol
# Density = 2.148035 g / cm^3
# Si number density = 21.529354 Si / 1000 Ang^3
#
#
#
# Elastic Constant Matrix: (Units=GPa)
#
#
# Indices 1 2 3 4 5 6 
#
# 1 18.9341 23.9447 24.5469 0.0000 3.3859 0.0000
# 2 23.9447 190.5460 63.8238 0.0000 27.1560 0.0000
# 3 24.5469 63.8238 68.4269 0.0000 30.2211 0.0000
# 4 0.0000 0.0000 0.0000 -1.1886 0.0000 -8.6565
# 5 3.3859 27.1560 30.2211 0.0000 23.5084 0.0000
# 6 0.0000 0.0000 0.0000 -8.6565 0.0000 10.2423
#
#
#
# Elastic Compliance Matrix: (Units=1/GPa)
#
#
# Indices 1 2 3 4 5 6 
#
# 1 0.214705 -0.000478 -0.146129 0.000000 0.157485 0.000000
# 2 -0.000478 0.007640 -0.007142 0.000000 0.000425 0.000000
# 3 -0.146129 -0.007142 0.140567 0.000000 -0.151409 0.000000
# 4 0.000000 0.000000 0.000000 -0.117579 0.000000 -0.099375
# 5 0.157485 0.000425 -0.151409 0.000000 0.214007 0.000000
# 6 0.000000 0.000000 0.000000 -0.099375 0.000000 0.013645
#
#
# Mechanical properties :
#
#
# Convention : Reuss Voigt Hill
#
# Bulk Modulus (GPa) = 18.04635 55.83754 36.94195
# Shear Modulus (GPa) = 6.25816 17.55186 11.90501
#
# Velocity S-wave (km/s) = 1.70679 2.85836 2.35408
# Velocity P-wave (km/s) = 3.50493 6.07334 4.95833
#
# Compressibility (1/GPa) = 0.05541287
#
# Stress axis : x y z
#
# Youngs Moduli (GPa) = 4.65755 130.89249 7.11402
#
# Poissons Ratio (x) = 0.06263 1.03957
# Poissons Ratio (y) = 0.00223 0.05081
# Poissons Ratio (z) = 0.68060 0.93483
#
# Static dielectric constant tensor:
#      x y z
#    x 1.784800 0.000000 -0.002570 
#    y 0.000000 1.822240 0.000000 
#    z -0.002570 0.000000 1.780460 
# 
# From -- ./inp_files/30486.got.cif
#   From: 2010.05.17/outbox.cif.g08.bks.cpg/sg10_16_cif.got.tgz:30486.got - 2010.06.03 11:33:40.
