data_PCOD9154076
_publ_section_title
;
Structure prediction by ZEFSAII (Michael W. Deem and Ramdas Pophale) SiO2 
 PCOD9154076
Probable space group: P 2/M
;
_chemical_formula_sum "Si O2"
_cell_formula_units_Z 30
_cell_length_a 26.195511
_cell_length_b 14.241756
_cell_length_c 11.351024
_cell_angle_alpha 90.000000
_cell_angle_beta 22.183578
_cell_angle_gamma 90.000000
_cell_volume 1598.928887
_symmetry_space_group_name_H-M "P 2/M"
_symmetry_group_IT_number 10
_symmetry_cell_setting 'monoclinic'
loop_
_space_group_symop_operation_xyz
x,y,z
-x,y,-z
-x,-y,-z
x,-y,z
loop_
_atom_site_type_symbol
_atom_site_label
_atom_site_fract_x
_atom_site_fract_y
_atom_site_fract_z
Si Si1 0.652718 0.107964 0.126396
Si Si2 0.125872 0.000000 0.959620
Si Si3 0.506018 0.393232 0.845370
Si Si4 0.708804 0.244821 0.789317
Si Si5 0.801505 0.324956 0.180590
Si Si6 0.845749 0.829668 0.282540
Si Si7 0.942308 0.603366 0.257135
Si Si8 0.869779 0.836859 0.856528
O O1 0.500000 0.117181 0.500000
O O2 0.670820 0.000000 0.044640
O O3 0.683782 0.184912 0.959949
O O4 0.752535 0.125118 0.022131
O O5 0.159571 0.919013 0.788817
O O6 0.096054 0.917018 0.121506
O O7 0.462081 0.500000 0.911212
O O8 0.660856 0.378587 0.476771
O O9 0.500000 0.382959 0.000000
O O10 0.415018 0.312562 0.980981
O O11 0.745312 0.171549 0.607661
O O12 0.838460 0.314477 0.512213
O O13 0.803996 0.258624 0.291492
O O14 0.821792 0.255659 0.027849
O O15 0.931074 0.389509 0.925790
O O16 0.000000 0.822797 0.000000
O O17 0.878509 0.500000 0.400255
O O18 0.000000 0.612208 0.000000
O O19 0.000000 0.816038 0.500000
#
# Coordination Sequence:
#
# PCOD9154076 Si02
#       8
#     4   2   4   4   4   4   4   4
#     4  11  26  45  63  86 121 169 213 249 298 359
#     4  10  24  36  61  91 132 157 203 257 303 366
#     4  11  22  38  62  93 126 163 200 244 311 379
#     4  12  22  39  63  91 128 158 205 254 300 370
#     4  11  20  38  61  89 127 156 196 260 300 362
#     4  11  21  36  57  94 130 160 193 249 322 362
#     4  11  20  36  61  93 128 159 194 247 314 377
#     4  11  23  41  66  89 119 163 214 249 297 355
#
# _framework density 18.762560000000001
#
# number of rings (size 3 to 8) (size 9 to 14) (size 15 to 20)
#    0.000    0.933    4.667    2.800    2.800    2.133 
#    0.000    0.000    0.000   18.800    0.000    0.000 
#    0.000    0.000    0.000    0.000    0.000    0.000 
#
# Total GULP energy -167019.710372 kJ/mol
# GULP energy per Si atom -5567.323679 kJ/mol
# Density = 1.871986 g / cm^3
# Si number density = 18.762560 Si / 1000 Ang^3
#
#
#
# Elastic Constant Matrix: (Units=GPa)
#
#
# Indices 1 2 3 4 5 6 
#
# 1 55.2975 38.7051 38.0692 0.0000 14.4215 0.0000
# 2 38.7051 110.8336 34.6457 0.0000 21.2145 0.0000
# 3 38.0692 34.6457 99.7016 0.0000 -0.3229 0.0000
# 4 0.0000 0.0000 0.0000 22.0868 0.0000 -3.4815
# 5 14.4215 21.2145 -0.3229 0.0000 30.9991 0.0000
# 6 0.0000 0.0000 0.0000 -3.4815 0.0000 -25.0796
#
#
#
# Elastic Compliance Matrix: (Units=1/GPa)
#
#
# Indices 1 2 3 4 5 6 
#
# 1 0.032163 -0.005914 -0.010261 0.000000 -0.011022 0.000000
# 2 -0.005914 0.012975 -0.002270 0.000000 -0.006152 0.000000
# 3 -0.010261 -0.002270 0.014758 0.000000 0.006481 0.000000
# 4 0.000000 0.000000 0.000000 0.044306 0.000000 -0.006151
# 5 -0.011022 -0.006152 0.006481 0.000000 0.041664 0.000000
# 6 0.000000 0.000000 0.000000 -0.006151 0.000000 -0.039019
#
#
# Mechanical properties :
#
#
# Convention : Reuss Voigt Hill
#
# Bulk Modulus (GPa) = 43.47137 54.29694 48.88416
# Shear Modulus (GPa) = 33.02361 15.89545 24.45953
#
# Velocity S-wave (km/s) = 4.19988 2.91381 3.61451
# Velocity P-wave (km/s) = 6.83653 6.34998 6.59774
#
# Compressibility (1/GPa) = 0.02300364
#
# Stress axis : x y z
#
# Youngs Moduli (GPa) = 31.09207 77.07025 67.76039
#
# Poissons Ratio (x) = 0.45583 0.69530
# Poissons Ratio (y) = 0.18389 0.15384
# Poissons Ratio (z) = 0.31904 0.17498
#
# Static dielectric constant tensor:
#      x y z
#    x 1.660370 0.000000 -0.072290 
#    y 0.000000 1.638920 0.000000 
#    z -0.072290 0.000000 1.851570 
# 
# From -- ./inp_files/57783.got.cif
#   From: 2010.05.17/outbox.cif.g08.bks.cpg/sg10_29_cif.got.tgz:57783.got - 2010.06.03 11:33:40.
