data_PCOD9154583
_publ_section_title
;
Structure prediction by ZEFSAII (Michael W. Deem and Ramdas Pophale) SiO2 
 PCOD9154583
Probable space group: P 2/M
;
_chemical_formula_sum "Si O2"
_cell_formula_units_Z 24
_cell_length_a 22.687722
_cell_length_b 11.345380
_cell_length_c 22.664335
_cell_angle_alpha 90.000000
_cell_angle_beta 166.697564
_cell_angle_gamma 90.000000
_cell_volume 1342.309810
_symmetry_space_group_name_H-M "P 2/M"
_symmetry_group_IT_number 10
_symmetry_cell_setting 'monoclinic'
loop_
_space_group_symop_operation_xyz
x,y,z
-x,y,-z
-x,-y,-z
x,-y,z
loop_
_atom_site_type_symbol
_atom_site_label
_atom_site_fract_x
_atom_site_fract_y
_atom_site_fract_z
Si Si1 0.233103 0.856649 0.268207
Si Si2 0.586651 0.140581 0.958890
Si Si3 0.607246 0.500000 0.887521
Si Si4 0.832033 0.142290 0.658497
Si Si5 0.067725 0.500000 0.430527
Si Si6 0.363245 0.239545 0.124925
Si Si7 0.940385 0.748192 0.511038
O O1 0.500000 0.816950 0.500000
O O2 0.200117 0.823584 0.304232
O O3 0.233520 0.000000 0.267631
O O4 0.000000 0.816901 0.000000
O O5 0.603832 0.191872 0.909568
O O6 0.334417 0.193852 0.743672
O O7 0.569654 0.000000 0.939946
O O8 0.838580 0.180191 0.239655
O O9 0.634990 0.380748 0.877372
O O10 0.329970 0.500000 0.648663
O O11 0.826775 0.500000 0.151551
O O12 0.596809 0.191915 0.391547
O O13 0.833465 0.000000 0.655955
O O14 0.097422 0.191528 0.891767
O O15 0.060025 0.616731 0.462731
O O16 0.000000 0.746417 0.500000
#
# Coordination Sequence:
#
# PCOD9154583 Si02
#       7
#     4   4   2   4   2   4   4
#     4   9  17  31  52  83 123 161 194 231 282 339
#     4  12  25  42  62  87 124 160 191 237 302 367
#     4  12  24  42  67  82 116 155 198 249 298 349
#     4  11  22  36  60  93 127 158 194 242 292 354
#     4  12  21  46  64  88 112 147 200 255 298 349
#     4  12  23  41  60  88 118 156 202 244 297 352
#     4  12  25  42  65  90 115 153 200 245 300 356
#
# _framework density 17.879626999999999
#
# number of rings (size 3 to 8) (size 9 to 14) (size 15 to 20)
#    0.000    0.667    3.333    5.750    0.000    4.667 
#    0.000    2.500    0.000    0.000    0.000   11.667 
#    0.000    0.000    0.000    0.000    0.000    0.000 
#
# Total GULP energy -134256.277035 kJ/mol
# GULP energy per Si atom -5594.011543 kJ/mol
# Density = 1.783893 g / cm^3
# Si number density = 17.879627 Si / 1000 Ang^3
#
#
#
# Elastic Constant Matrix: (Units=GPa)
#
#
# Indices 1 2 3 4 5 6 
#
# 1 99.5613 38.9256 34.8079 0.0000 -3.3142 0.0000
# 2 38.9256 120.0383 9.6257 0.0000 13.0870 0.0000
# 3 34.8079 9.6257 96.3842 0.0000 12.8799 0.0000
# 4 0.0000 0.0000 0.0000 28.0472 0.0000 2.1084
# 5 -3.3142 13.0870 12.8799 0.0000 29.3536 0.0000
# 6 0.0000 0.0000 0.0000 2.1084 0.0000 21.8539
#
#
#
# Elastic Compliance Matrix: (Units=1/GPa)
#
#
# Indices 1 2 3 4 5 6 
#
# 1 0.013994 -0.004768 -0.005389 0.000000 0.006070 0.000000
# 2 -0.004768 0.010393 0.001461 0.000000 -0.005813 0.000000
# 3 -0.005389 0.001461 0.013113 0.000000 -0.007013 0.000000
# 4 0.000000 0.000000 0.000000 0.035915 0.000000 -0.003465
# 5 0.006070 -0.005813 -0.007013 0.000000 0.040422 0.000000
# 6 0.000000 0.000000 0.000000 -0.003465 0.000000 0.046093
#
#
# Mechanical properties :
#
#
# Convention : Reuss Voigt Hill
#
# Bulk Modulus (GPa) = 49.73071 53.63359 51.68215
# Shear Modulus (GPa) = 27.17043 31.35925 29.26484
#
# Velocity S-wave (km/s) = 3.90247 4.19251 4.05009
# Velocity P-wave (km/s) = 6.94120 7.31426 7.13017
#
# Compressibility (1/GPa) = 0.02010830
#
# Stress axis : x y z
#
# Youngs Moduli (GPa) = 71.45850 96.21557 76.26272
#
# Poissons Ratio (x) = 0.45872 0.41097
# Poissons Ratio (y) = 0.34069 -0.11139
# Poissons Ratio (z) = 0.38508 -0.14053
#
# Static dielectric constant tensor:
#      x y z
#    x 1.570400 0.000000 -0.040660 
#    y 0.000000 1.589590 0.000000 
#    z -0.040660 0.000000 1.439020 
# 
# From -- ./inp_files/90845.got.cif
#   From: 2010.05.17/outbox.cif.g08.bks.cpg/sg10_46_cif.got.tgz:90845.got - 2010.06.03 11:33:40.
