data_PCOD9154358
_publ_section_title
;
Structure prediction by ZEFSAII (Michael W. Deem and Ramdas Pophale) SiO2 
 PCOD9154358
Probable space group: P 2/M
;
_chemical_formula_sum "Si O2"
_cell_formula_units_Z 28
_cell_length_a 20.219583
_cell_length_b 7.544464
_cell_length_c 22.932187
_cell_angle_alpha 90.000000
_cell_angle_beta 162.881505
_cell_angle_gamma 90.000000
_cell_volume 1029.694484
_symmetry_space_group_name_H-M "P 2/M"
_symmetry_group_IT_number 10
_symmetry_cell_setting 'monoclinic'
loop_
_space_group_symop_operation_xyz
x,y,z
-x,y,-z
-x,-y,-z
x,-y,z
loop_
_atom_site_type_symbol
_atom_site_label
_atom_site_fract_x
_atom_site_fract_y
_atom_site_fract_z
Si Si1 0.311476 0.792086 0.257561
Si Si2 0.469071 0.697489 0.263666
Si Si3 0.851634 0.213168 0.514446
Si Si4 0.804111 0.788702 0.285530
Si Si5 0.817720 0.790133 0.730549
Si Si6 0.113335 0.802270 0.879103
Si Si7 0.529130 0.216952 0.902568
O O1 0.357770 0.713485 0.233239
O O2 0.560437 0.781529 0.494853
O O3 0.158984 0.722327 0.183221
O O4 0.258521 0.000000 0.204914
O O5 0.429801 0.500000 0.209630
O O6 0.735201 0.732277 0.477768
O O7 0.329497 0.821980 0.103893
O O8 0.660381 0.263064 0.305369
O O9 0.080559 0.279039 0.676543
O O10 0.867162 0.000000 0.528363
O O11 0.578322 0.722190 0.126958
O O12 0.000000 0.772033 0.500000
O O13 0.769237 0.000000 0.247557
O O14 0.877664 0.000000 0.783862
O O15 0.948070 0.709433 0.785555
O O16 0.230379 0.724008 0.920335
O O17 0.025700 0.000000 0.791421
O O18 0.543074 0.000000 0.916479
#
# Coordination Sequence:
#
# PCOD9154358 Si02
#       7
#     4   4   4   4   4   4   4
#     4   9  17  33  52  68  87 112 145 184 222 260
#     4  11  21  30  41  64  95 122 148 179 217 259
#     4   8  13  23  39  57  80 113 148 179 213 252
#     4   7   9  15  31  56  81 106 138 173 211 253
#     4   8  16  31  53  73  85 106 146 188 220 259
#     4   9  16  29  48  69  91 116 145 178 220 264
#     4   7  10  17  34  60  86 108 134 172 215 257
#
# _framework density 27.192530000000001
#
# number of rings (size 3 to 8) (size 9 to 14) (size 15 to 20)
#    0.000    3.571    0.000    4.714    0.000    0.571 
#    0.000    5.714    0.000   10.714    0.000    1.000 
#    0.000    8.000    0.000    0.000    0.000    0.000 
#
# Total GULP energy -156197.543122 kJ/mol
# GULP energy per Si atom -5578.483683 kJ/mol
# Density = 2.713064 g / cm^3
# Si number density = 27.192530 Si / 1000 Ang^3
#
#
#
# Elastic Constant Matrix: (Units=GPa)
#
#
# Indices 1 2 3 4 5 6 
#
# 1 265.2944 19.8956 69.6111 0.0000 58.0568 0.0000
# 2 19.8956 88.2037 0.0195 0.0000 8.1410 0.0000
# 3 69.6111 0.0195 103.0157 0.0000 54.7387 0.0000
# 4 0.0000 0.0000 0.0000 -19.8948 0.0000 -14.4664
# 5 58.0568 8.1410 54.7387 0.0000 82.8322 0.0000
# 6 0.0000 0.0000 0.0000 -14.4664 0.0000 7.6904
#
#
#
# Elastic Compliance Matrix: (Units=1/GPa)
#
#
# Indices 1 2 3 4 5 6 
#
# 1 0.004836 -0.000928 -0.002335 0.000000 -0.001755 0.000000
# 2 -0.000928 0.011676 0.001370 0.000000 -0.001402 0.000000
# 3 -0.002335 0.001370 0.016162 0.000000 -0.009179 0.000000
# 4 0.000000 0.000000 0.000000 -0.021228 0.000000 -0.039932
# 5 -0.001755 -0.001402 -0.009179 0.000000 0.019506 0.000000
# 6 0.000000 0.000000 0.000000 -0.039932 0.000000 0.054917
#
#
# Mechanical properties :
#
#
# Convention : Reuss Voigt Hill
#
# Bulk Modulus (GPa) = 34.61667 70.61846 52.61756
# Shear Modulus (GPa) = 50.36093 38.59138 44.47616
#
# Velocity S-wave (km/s) = 4.30817 3.77130 4.04865
# Velocity P-wave (km/s) = 6.12413 6.70744 6.42241
#
# Compressibility (1/GPa) = 0.02888781
#
# Stress axis : x y z
#
# Youngs Moduli (GPa) = 206.79252 85.64641 61.87389
#
# Poissons Ratio (x) = 0.07950 0.14447
# Poissons Ratio (y) = 0.19196 -0.08478
# Poissons Ratio (z) = 0.48284 -0.11736
#
# Static dielectric constant tensor:
#      x y z
#    x 2.235550 0.000000 0.035300 
#    y 0.000000 2.000090 0.000000 
#    z 0.035300 0.000000 2.226130 
# 
# From -- ./inp_files/79284.got.cif
#   From: 2010.05.17/outbox.cif.g08.bks.cpg/sg10_40_cif.got.tgz:79284.got - 2010.06.03 11:33:40.
