data_PCOD9154281
_publ_section_title
;
Structure prediction by ZEFSAII (Michael W. Deem and Ramdas Pophale) SiO2 
 PCOD9154281
Probable space group: P 2/M
;
_chemical_formula_sum "Si O2"
_cell_formula_units_Z 28
_cell_length_a 19.631947
_cell_length_b 8.861197
_cell_length_c 16.863427
_cell_angle_alpha 90.000000
_cell_angle_beta 31.149846
_cell_angle_gamma 90.000000
_cell_volume 1517.489396
_symmetry_space_group_name_H-M "P 2/M"
_symmetry_group_IT_number 10
_symmetry_cell_setting 'monoclinic'
loop_
_space_group_symop_operation_xyz
x,y,z
-x,y,-z
-x,-y,-z
x,-y,z
loop_
_atom_site_type_symbol
_atom_site_label
_atom_site_fract_x
_atom_site_fract_y
_atom_site_fract_z
Si Si1 0.957925 0.322655 0.633263
Si Si2 0.709877 0.180375 0.958513
Si Si3 0.149944 0.678488 0.681815
Si Si4 0.141764 0.181571 0.026842
Si Si5 0.840094 0.173884 0.165252
Si Si6 0.541357 0.680550 0.868768
Si Si7 0.210646 0.179710 0.462009
O O1 0.948647 0.500000 0.662708
O O2 0.070830 0.243677 0.572097
O O3 0.000000 0.310059 0.500000
O O4 0.820170 0.242777 0.788450
O O5 0.765938 0.214315 0.990451
O O6 0.696936 0.000000 0.963730
O O7 0.573509 0.260041 0.074040
O O8 0.154797 0.500000 0.666772
O O9 0.197139 0.726492 0.722420
O O10 0.229126 0.759668 0.532812
O O11 0.998402 0.735818 0.825919
O O12 0.115992 0.000000 0.051453
O O13 0.203449 0.220543 0.879612
O O14 0.802074 0.000000 0.217766
O O15 0.000000 0.177419 0.000000
O O16 0.554297 0.500000 0.850927
O O17 0.677090 0.756348 0.707215
O O18 0.500000 0.719306 0.000000
O O19 0.209171 0.000000 0.462520
#
# Coordination Sequence:
#
# PCOD9154281 Si02
#       7
#     4   4   4   4   4   4   4
#     4  11  23  38  57  84 116 148 184 234 294 343
#     4  11  22  37  60  87 115 150 193 236 282 341
#     4  11  20  31  52  83 117 150 189 234 286 337
#     4   9  18  33  53  81 116 152 188 231 282 337
#     4   8  15  29  49  75 113 153 186 225 278 336
#     4  11  25  44  62  82 113 152 192 238 294 349
#     4  12  24  39  60  84 113 150 195 240 285 342
#
# _framework density 18.451528
#
# number of rings (size 3 to 8) (size 9 to 14) (size 15 to 20)
#    0.000    1.571    1.429    5.571    0.000    8.857 
#    0.000    0.000    0.000    0.857    0.000    6.000 
#    0.000    0.000    0.000    0.000    0.000    0.000 
#
# Total GULP energy -156425.652696 kJ/mol
# GULP energy per Si atom -5586.630453 kJ/mol
# Density = 1.840953 g / cm^3
# Si number density = 18.451528 Si / 1000 Ang^3
#
#
#
# Elastic Constant Matrix: (Units=GPa)
#
#
# Indices 1 2 3 4 5 6 
#
# 1 54.9544 31.2854 -0.3077 0.0000 17.8512 0.0000
# 2 31.2854 57.2338 7.6416 0.0000 23.6277 0.0000
# 3 -0.3077 7.6416 34.4639 0.0000 12.2693 0.0000
# 4 0.0000 0.0000 0.0000 -32.9184 0.0000 -50.3333
# 5 17.8512 23.6277 12.2693 0.0000 29.7180 0.0000
# 6 0.0000 0.0000 0.0000 -50.3333 0.0000 -9.0198
#
#
#
# Elastic Compliance Matrix: (Units=1/GPa)
#
#
# Indices 1 2 3 4 5 6 
#
# 1 0.028505 -0.012311 0.006559 0.000000 -0.010042 0.000000
# 2 -0.012311 0.031430 -0.000956 0.000000 -0.017198 0.000000
# 3 0.006559 -0.000956 0.035660 0.000000 -0.017902 0.000000
# 4 0.000000 0.000000 0.000000 0.004033 0.000000 -0.022505
# 5 -0.010042 -0.017198 -0.017902 0.000000 0.060747 0.000000
# 6 0.000000 0.000000 0.000000 -0.022505 0.000000 0.014719
#
#
# Mechanical properties :
#
#
# Convention : Reuss Voigt Hill
#
# Bulk Modulus (GPa) = 12.16879 24.87675 18.52277
# Shear Modulus (GPa) = 23.15877 4.75815 13.95846
#
# Velocity S-wave (km/s) = 3.54660 1.60758 2.75343
# Velocity P-wave (km/s) = 4.83534 4.11792 4.49098
#
# Compressibility (1/GPa) = 0.08217742
#
# Stress axis : x y z
#
# Youngs Moduli (GPa) = 35.08216 31.81716 28.04285
#
# Poissons Ratio (x) = 0.39172 -0.18394
# Poissons Ratio (y) = 0.43191 0.02681
# Poissons Ratio (z) = -0.23011 0.03042
#
# Static dielectric constant tensor:
#      x y z
#    x 1.674690 0.000000 0.021280 
#    y 0.000000 1.611850 0.000000 
#    z 0.021280 0.000000 1.627520 
# 
# From -- ./inp_files/79212.got.cif
#   From: 2010.05.17/outbox.cif.g08.bks.cpg/sg10_40_cif.got.tgz:79212.got - 2010.06.03 11:33:40.
