data_PCOD9154973
_publ_section_title
;
Structure prediction by ZEFSAII (Michael W. Deem and Ramdas Pophale) SiO2 
 PCOD9154973
Probable space group: P 2/M
;
_chemical_formula_sum "Si O2"
_cell_formula_units_Z 20
_cell_length_a 5.249922
_cell_length_b 28.749039
_cell_length_c 5.208513
_cell_angle_alpha 90.000000
_cell_angle_beta 90.076091
_cell_angle_gamma 90.000000
_cell_volume 786.121280
_symmetry_space_group_name_H-M "P 2/M"
_symmetry_group_IT_number 10
_symmetry_cell_setting 'monoclinic'
loop_
_space_group_symop_operation_xyz
x,y,z
-x,y,-z
-x,-y,-z
x,-y,z
loop_
_atom_site_type_symbol
_atom_site_label
_atom_site_fract_x
_atom_site_fract_y
_atom_site_fract_z
Si Si1 0.825088 0.250814 0.754911
Si Si2 0.745914 0.148214 0.674818
Si Si3 0.750348 0.950402 0.681910
Si Si4 0.745955 0.549165 0.824232
Si Si5 0.174382 0.348299 0.255731
O O1 0.712951 0.199366 0.793988
O O2 0.667698 0.299602 0.750199
O O3 0.000000 0.247803 0.500000
O O4 0.000000 0.257048 0.000000
O O5 0.500000 0.143917 0.500000
O O6 0.754807 0.099262 0.828580
O O7 0.000000 0.149356 0.500000
O O8 0.500000 0.951024 0.500000
O O9 0.000000 0.950193 0.500000
O O10 0.751362 0.000000 0.827209
O O11 0.756652 0.500000 0.670890
O O12 0.716224 0.600106 0.702047
O O13 0.500000 0.546285 0.000000
O O14 0.000000 0.549870 0.000000
O O15 0.000000 0.341565 0.500000
O O16 0.000000 0.351423 0.000000
#
# Coordination Sequence:
#
# PCOD9154973 Si02
#       5
#     4   4   4   4   4
#     4   9  18  35  57  82 113 149 189 233 282 336
#     4   9  17  31  50  75 107 142 182 227 276 330
#     4   8  13  22  40  67  98 133 173 218 268 322
#     4   9  18  35  58  84 114 148 187 231 280 334
#     4   9  18  35  58  84 114 149 189 233 282 336
#
# _framework density 25.441364
#
# number of rings (size 3 to 8) (size 9 to 14) (size 15 to 20)
#    0.000    3.200    0.000    0.000    0.000    0.400 
#    0.000   24.000    0.000   11.400    0.000    0.000 
#    0.000   35.200    0.000    0.000    0.000    8.400 
#
# Total GULP energy -111368.518103 kJ/mol
# GULP energy per Si atom -5568.425905 kJ/mol
# Density = 2.538346 g / cm^3
# Si number density = 25.441364 Si / 1000 Ang^3
#
#
#
# Elastic Constant Matrix: (Units=GPa)
#
#
# Indices 1 2 3 4 5 6 
#
# 1 144.8465 -4.7981 29.4908 0.0000 -1.4052 0.0000
# 2 -4.7981 413.5226 -4.1468 0.0000 -0.0153 0.0000
# 3 29.4908 -4.1468 90.9069 0.0000 -2.8016 0.0000
# 4 0.0000 0.0000 0.0000 7.4749 0.0000 -26.3880
# 5 -1.4052 -0.0153 -2.8016 0.0000 49.1292 0.0000
# 6 0.0000 0.0000 0.0000 -26.3880 0.0000 67.0521
#
#
#
# Elastic Compliance Matrix: (Units=1/GPa)
#
#
# Indices 1 2 3 4 5 6 
#
# 1 0.007394 0.000062 -0.002394 0.000000 0.000075 0.000000
# 2 0.000062 0.002420 0.000091 0.000000 0.000008 0.000000
# 3 -0.002394 0.000091 0.011799 0.000000 0.000604 0.000000
# 4 0.000000 0.000000 0.000000 -0.343648 0.000000 -0.135241
# 5 0.000075 0.000008 0.000604 0.000000 0.020391 0.000000
# 6 0.000000 0.000000 0.000000 -0.135241 0.000000 -0.038310
#
#
# Mechanical properties :
#
#
# Convention : Reuss Voigt Hill
#
# Bulk Modulus (GPa) = 58.37363 76.70754 67.54058
# Shear Modulus (GPa) = -15.16254 66.64657 25.74202
#
# Velocity S-wave (km/s) = -2.44392 5.12377 3.18436
# Velocity P-wave (km/s) = 3.87692 8.07590 6.33446
#
# Compressibility (1/GPa) = 0.01713102
#
# Stress axis : x y z
#
# Youngs Moduli (GPa) = 135.24554 413.24482 84.74937
#
# Poissons Ratio (x) = -0.02554 0.20285
# Poissons Ratio (y) = -0.00836 -0.00768
# Poissons Ratio (z) = 0.32371 -0.03743
#
# Static dielectric constant tensor:
#      x y z
#    x 1.772890 0.000000 -0.777570 
#    y 0.000000 2.329810 0.000000 
#    z -0.777570 0.000000 -1.637310 
# 
# From -- ./inp_files/2251.got.cif
#   From: 2010.05.17/outbox.cif.g08.bks.cpg/sg10_2_cif.got.tgz:2251.got - 2010.06.03 11:33:40.
