data_PCOD9154961
_publ_section_title
;
Structure prediction by ZEFSAII (Michael W. Deem and Ramdas Pophale) SiO2 
 PCOD9154961
Probable space group: P 2/M
;
_chemical_formula_sum "Si O2"
_cell_formula_units_Z 32
_cell_length_a 22.499693
_cell_length_b 7.419449
_cell_length_c 22.566819
_cell_angle_alpha 90.000000
_cell_angle_beta 24.906863
_cell_angle_gamma 90.000000
_cell_volume 1586.535089
_symmetry_space_group_name_H-M "P 2/M"
_symmetry_group_IT_number 10
_symmetry_cell_setting 'monoclinic'
loop_
_space_group_symop_operation_xyz
x,y,z
-x,y,-z
-x,-y,-z
x,-y,z
loop_
_atom_site_type_symbol
_atom_site_label
_atom_site_fract_x
_atom_site_fract_y
_atom_site_fract_z
Si Si1 0.625889 0.719428 0.807173
Si Si2 0.935395 0.715844 0.743838
Si Si3 0.340678 0.296230 0.471074
Si Si4 0.622369 0.281297 0.433779
Si Si5 0.747307 0.721429 0.571924
Si Si6 0.052746 0.211511 0.890144
Si Si7 0.977619 0.786030 0.210346
Si Si8 0.307012 0.719952 0.124581
O O1 0.628385 0.500000 0.804244
O O2 0.690620 0.779453 0.686720
O O3 0.705783 0.775198 0.795090
O O4 0.462777 0.773213 0.962039
O O5 0.937253 0.500000 0.736633
O O6 0.814126 0.783814 0.810041
O O7 0.091084 0.780129 0.584059
O O8 0.917923 0.755735 0.829427
O O9 0.396306 0.500000 0.416913
O O10 0.399592 0.214750 0.478701
O O11 0.345327 0.216773 0.400908
O O12 0.171824 0.301203 0.636548
O O13 0.500000 0.222261 0.500000
O O14 0.621016 0.500000 0.437334
O O15 0.778370 0.229229 0.270438
O O16 0.745920 0.500000 0.571499
O O17 0.986856 0.280836 0.887770
O O18 0.016640 0.000000 0.924433
O O19 0.000000 0.290584 0.000000
O O20 0.951198 0.000000 0.230505
O O21 0.304689 0.500000 0.126245
#
# Coordination Sequence:
#
# PCOD9154961 Si02
#       8
#     4   4   4   4   4   4   4   4
#     4   8  13  22  35  54  80 108 134 163 201 241
#     4   9  16  26  40  61  84 104 130 167 206 242
#     4   8  14  26  42  60  84 111 137 169 208 247
#     4   9  17  29  45  66  92 118 144 177 218 264
#     4   8  13  21  36  56  77 102 133 167 202 236
#     4   9  18  32  48  65  86 114 149 185 217 253
#     4   9  16  27  44  63  82 108 139 169 206 249
#     4   8  14  23  35  54  83 110 131 161 202 243
#
# _framework density 20.169739
#
# number of rings (size 3 to 8) (size 9 to 14) (size 15 to 20)
#    0.000    3.500    0.000    1.875    0.000    1.500 
#    0.000    3.750    0.000    3.000    0.000   12.250 
#    0.000    0.000    0.000    0.000    0.000    0.000 
#
# Total GULP energy -178211.075351 kJ/mol
# GULP energy per Si atom -5569.096105 kJ/mol
# Density = 2.012383 g / cm^3
# Si number density = 20.169739 Si / 1000 Ang^3
#
#
#
# Elastic Constant Matrix: (Units=GPa)
#
#
# Indices 1 2 3 4 5 6 
#
# 1 252.9352 -0.0835 88.1962 0.0000 29.5426 0.0000
# 2 -0.0835 67.1650 -2.4351 0.0000 3.3885 0.0000
# 3 88.1962 -2.4351 65.7441 0.0000 31.2563 0.0000
# 4 0.0000 0.0000 0.0000 24.3796 0.0000 30.0035
# 5 29.5426 3.3885 31.2563 0.0000 35.5027 0.0000
# 6 0.0000 0.0000 0.0000 30.0035 0.0000 45.4304
#
#
#
# Elastic Compliance Matrix: (Units=1/GPa)
#
#
# Indices 1 2 3 4 5 6 
#
# 1 0.007895 -0.000706 -0.012944 0.000000 0.004894 0.000000
# 2 -0.000706 0.015198 0.003303 0.000000 -0.003771 0.000000
# 3 -0.012944 0.003303 0.047686 0.000000 -0.031527 0.000000
# 4 0.000000 0.000000 0.000000 0.219082 0.000000 -0.144688
# 5 0.004894 -0.003771 -0.031527 0.000000 0.052210 0.000000
# 6 0.000000 0.000000 0.000000 -0.144688 0.000000 0.117567
#
#
# Mechanical properties :
#
#
# Convention : Reuss Voigt Hill
#
# Bulk Modulus (GPa) = 19.96617 61.91106 40.93862
# Shear Modulus (GPa) = 10.05977 41.07366 25.56671
#
# Velocity S-wave (km/s) = 2.23571 4.51754 3.56417
# Velocity P-wave (km/s) = 4.07248 7.61397 6.10564
#
# Compressibility (1/GPa) = 0.05008472
#
# Stress axis : x y z
#
# Youngs Moduli (GPa) = 126.65640 65.79884 20.97033
#
# Poissons Ratio (x) = 0.04648 0.27145
# Poissons Ratio (y) = 0.08947 -0.06927
# Poissons Ratio (z) = 1.63950 -0.21736
#
# Static dielectric constant tensor:
#      x y z
#    x 1.763680 0.000000 0.033280 
#    y 0.000000 1.770340 0.000000 
#    z 0.033280 0.000000 1.664600 
# 
# From -- ./inp_files/86118.got.cif
#   From: 2010.05.17/outbox.cif.g08.bks.cpg/sg10_44_cif.got.tgz:86118.got - 2010.06.03 11:33:40.
