data_PCOD9154097
_publ_section_title
;
Structure prediction by ZEFSAII (Michael W. Deem and Ramdas Pophale) SiO2 
 PCOD9154097
Probable space group: P 2/M
;
_chemical_formula_sum "Si O2"
_cell_formula_units_Z 32
_cell_length_a 14.950852
_cell_length_b 14.636677
_cell_length_c 21.690408
_cell_angle_alpha 90.000000
_cell_angle_beta 19.335229
_cell_angle_gamma 90.000000
_cell_volume 1571.550350
_symmetry_space_group_name_H-M "P 2/M"
_symmetry_group_IT_number 10
_symmetry_cell_setting 'monoclinic'
loop_
_space_group_symop_operation_xyz
x,y,z
-x,y,-z
-x,-y,-z
x,-y,z
loop_
_atom_site_type_symbol
_atom_site_label
_atom_site_fract_x
_atom_site_fract_y
_atom_site_fract_z
Si Si1 0.710578 0.892138 0.464522
Si Si2 0.961724 0.769611 0.843579
Si Si3 0.677839 0.903569 0.701867
Si Si4 0.552797 0.203177 0.893435
Si Si5 0.066698 0.892263 0.886897
Si Si6 0.076876 0.394450 0.847371
Si Si7 0.444179 0.606080 0.727201
Si Si8 0.171423 0.229949 0.495354
O O1 0.388047 0.882093 0.668999
O O2 0.806277 0.846902 0.466074
O O3 0.854063 0.833666 0.318641
O O4 0.775436 0.000000 0.419072
O O5 0.099336 0.677727 0.778344
O O6 0.916576 0.831580 0.933965
O O7 0.695924 0.744680 0.976867
O O8 0.558310 0.887504 0.847348
O O9 0.665322 0.814828 0.667366
O O10 0.000000 0.910946 0.500000
O O11 0.582093 0.000000 0.736731
O O12 0.853147 0.244043 0.689657
O O13 0.500000 0.189261 0.000000
O O14 0.005654 0.000000 0.920694
O O15 0.000000 0.863084 0.000000
O O16 0.098595 0.500000 0.813809
O O17 0.295969 0.377500 0.758365
O O18 0.786545 0.382305 0.070292
O O19 0.529895 0.500000 0.673378
O O20 0.682441 0.677598 0.580555
#
# Coordination Sequence:
#
# PCOD9154097 Si02
#       8
#     4   4   4   4   4   4   4   4
#     4  11  24  41  63  92 132 173 215 267 324 385
#     4  12  23  40  65  90 129 177 209 260 330 384
#     4   9  20  36  57  84 118 163 215 267 311 361
#     4  11  24  42  58  90 129 176 224 265 312 384
#     4  10  24  42  63  95 127 163 217 270 322 390
#     4   9  20  39  67 103 132 158 209 274 333 395
#     4   9  19  38  68 102 130 160 209 273 337 392
#     4  11  21  41  64  90 129 172 220 271 318 381
#
# _framework density 20.362058999999999
#
# number of rings (size 3 to 8) (size 9 to 14) (size 15 to 20)
#    0.000    1.750    1.250    3.375    5.250    2.750 
#    0.000    1.250    0.000    8.625    0.000    0.000 
#    0.000    0.000    0.000    0.000    0.000    0.000 
#
# Total GULP energy -178766.669175 kJ/mol
# GULP energy per Si atom -5586.458412 kJ/mol
# Density = 2.031571 g / cm^3
# Si number density = 20.362059 Si / 1000 Ang^3
#
#
#
# Elastic Constant Matrix: (Units=GPa)
#
#
# Indices 1 2 3 4 5 6 
#
# 1 117.9492 64.8587 47.5989 0.0000 2.9932 0.0000
# 2 64.8587 133.6443 51.7494 0.0000 -6.5124 0.0000
# 3 47.5989 51.7494 93.5102 0.0000 -12.0245 0.0000
# 4 0.0000 0.0000 0.0000 17.3451 0.0000 20.3221
# 5 2.9932 -6.5124 -12.0245 0.0000 34.7559 0.0000
# 6 0.0000 0.0000 0.0000 20.3221 0.0000 4.4584
#
#
#
# Elastic Compliance Matrix: (Units=1/GPa)
#
#
# Indices 1 2 3 4 5 6 
#
# 1 0.012967 -0.004752 -0.004426 0.000000 -0.003538 0.000000
# 2 -0.004752 0.011265 -0.003654 0.000000 0.001256 0.000000
# 3 -0.004426 -0.003654 0.015625 0.000000 0.005102 0.000000
# 4 0.000000 0.000000 0.000000 -0.013282 0.000000 0.060544
# 5 -0.003538 0.001256 0.005102 0.000000 0.031077 0.000000
# 6 0.000000 0.000000 0.000000 0.060544 0.000000 -0.051675
#
#
# Mechanical properties :
#
#
# Convention : Reuss Voigt Hill
#
# Bulk Modulus (GPa) = 70.45205 74.83530 72.64367
# Shear Modulus (GPa) = 137.47477 23.37165 80.42321
#
# Velocity S-wave (km/s) = 8.22568 3.39160 6.29145
# Velocity P-wave (km/s) = 11.17544 7.22284 9.40903
#
# Compressibility (1/GPa) = 0.01419405
#
# Stress axis : x y z
#
# Youngs Moduli (GPa) = 77.11916 88.77425 63.99994
#
# Poissons Ratio (x) = 0.42182 0.28326
# Poissons Ratio (y) = 0.36644 0.23384
# Poissons Ratio (z) = 0.34132 0.32436
#
# Static dielectric constant tensor:
#      x y z
#    x 1.751910 0.000000 -0.010300 
#    y 0.000000 1.713140 0.000000 
#    z -0.010300 0.000000 1.776260 
# 
# From -- ./inp_files/85376.got.cif
#   From: 2010.05.17/outbox.cif.g08.bks.cpg/sg10_43_cif.got.tgz:85376.got - 2010.06.03 11:33:40.
