data_PCOD9154906
_publ_section_title
;
Structure prediction by ZEFSAII (Michael W. Deem and Ramdas Pophale) SiO2 
 PCOD9154906
Probable space group: P 2/M
;
_chemical_formula_sum "Si O2"
_cell_formula_units_Z 18
_cell_length_a 5.236943
_cell_length_b 25.778553
_cell_length_c 5.054498
_cell_angle_alpha 90.000000
_cell_angle_beta 87.523515
_cell_angle_gamma 90.000000
_cell_volume 681.724039
_symmetry_space_group_name_H-M "P 2/M"
_symmetry_group_IT_number 10
_symmetry_cell_setting 'monoclinic'
loop_
_space_group_symop_operation_xyz
x,y,z
-x,y,-z
-x,-y,-z
x,-y,z
loop_
_atom_site_type_symbol
_atom_site_label
_atom_site_fract_x
_atom_site_fract_y
_atom_site_fract_z
Si Si1 0.238220 0.830937 0.179140
Si Si2 0.756841 0.721209 0.812361
Si Si3 0.756969 0.389377 0.812959
Si Si4 0.756944 0.500000 0.812996
Si Si5 0.683595 0.945365 0.738568
O O1 0.246260 0.776592 0.339264
O O2 0.197542 0.888459 0.294080
O O3 0.500000 0.833111 0.000000
O O4 0.000000 0.824552 0.000000
O O5 0.500000 0.721849 0.000000
O O6 0.758176 0.665915 0.663097
O O7 0.000000 0.719893 0.000000
O O8 0.500000 0.389183 0.000000
O O9 0.758775 0.444689 0.663685
O O10 0.000000 0.389636 0.000000
O O11 0.500000 0.500000 0.000000
O O12 0.000000 0.500000 0.000000
O O13 0.500000 0.948856 0.500000
O O14 0.836877 0.000000 0.748036
O O15 0.500000 0.944360 0.000000
#
# Coordination Sequence:
#
# PCOD9154906 Si02
#       5
#     4   4   4   2   4
#     4   9  17  30  48  70  96 127 164 206 252 302
#     4   8  13  21  34  52  75 105 143 186 232 282
#     4   8  12  17  25  39  61  92 131 174 220 270
#     4   8  12  16  22  34  56  88 127 170 216 266
#     4   9  18  34  55  79 107 139 175 216 262 312
#
# _framework density 26.403642999999999
#
# number of rings (size 3 to 8) (size 9 to 14) (size 15 to 20)
#    0.000    3.556    0.000    0.000    0.000    0.444 
#    0.000    4.444    0.000   12.000    0.000    0.000 
#    0.000    0.000    0.000    1.000    0.000    6.000 
#
# Total GULP energy -100375.090999 kJ/mol
# GULP energy per Si atom -5576.393944 kJ/mol
# Density = 2.634355 g / cm^3
# Si number density = 26.403643 Si / 1000 Ang^3
#
#
#
# Elastic Constant Matrix: (Units=GPa)
#
#
# Indices 1 2 3 4 5 6 
#
# 1 206.1904 -16.0969 40.4525 0.0000 -10.8017 0.0000
# 2 -16.0969 431.6984 3.4343 0.0000 -0.5104 0.0000
# 3 40.4525 3.4343 70.8858 0.0000 -4.1266 0.0000
# 4 0.0000 0.0000 0.0000 -4.0163 0.0000 -23.5388
# 5 -10.8017 -0.5104 -4.1266 0.0000 61.4871 0.0000
# 6 0.0000 0.0000 0.0000 -23.5388 0.0000 63.0193
#
#
#
# Elastic Compliance Matrix: (Units=1/GPa)
#
#
# Indices 1 2 3 4 5 6 
#
# 1 0.005519 0.000231 -0.003117 0.000000 0.000762 0.000000
# 2 0.000231 0.002327 -0.000242 0.000000 0.000044 0.000000
# 3 -0.003117 -0.000242 0.015928 0.000000 0.000519 0.000000
# 4 0.000000 0.000000 0.000000 -0.078074 0.000000 -0.029162
# 5 0.000762 0.000044 0.000519 0.000000 0.016433 0.000000
# 6 0.000000 0.000000 0.000000 -0.029162 0.000000 0.004976
#
#
# Mechanical properties :
#
#
# Convention : Reuss Voigt Hill
#
# Bulk Modulus (GPa) = 57.07973 84.92825 71.00399
# Shear Modulus (GPa) = -240.42548 69.49700 -85.46424
#
# Velocity S-wave (km/s) = -9.55277 5.13596 -5.69549
# Velocity P-wave (km/s) = 10.00044 8.21012 4.03750
#
# Compressibility (1/GPa) = 0.01751935
#
# Stress axis : x y z
#
# Youngs Moduli (GPa) = 181.18127 429.72982 62.78364
#
# Poissons Ratio (x) = -0.09948 0.19567
# Poissons Ratio (y) = -0.04194 0.01521
# Poissons Ratio (z) = 0.56466 0.10413
#
# Static dielectric constant tensor:
#      x y z
#    x -14.077960 0.000000 -16.908870 
#    y 0.000000 2.406440 0.000000 
#    z -16.908870 0.000000 -15.896080 
# 
# From -- ./inp_files/2021.got.cif
#   From: 2010.05.17/outbox.cif.g08.bks.cpg/sg10_2_cif.got.tgz:2021.got - 2010.06.03 11:33:40.
