data_PCOD9154497
_publ_section_title
;
Structure prediction by ZEFSAII (Michael W. Deem and Ramdas Pophale) SiO2 
 PCOD9154497
Probable space group: P 2/M
;
_chemical_formula_sum "Si O2"
_cell_formula_units_Z 30
_cell_length_a 11.690397
_cell_length_b 15.901530
_cell_length_c 8.673620
_cell_angle_alpha 90.000000
_cell_angle_beta 67.137912
_cell_angle_gamma 90.000000
_cell_volume 1485.719727
_symmetry_space_group_name_H-M "P 2/M"
_symmetry_group_IT_number 10
_symmetry_cell_setting 'monoclinic'
loop_
_space_group_symop_operation_xyz
x,y,z
-x,y,-z
-x,-y,-z
x,-y,z
loop_
_atom_site_type_symbol
_atom_site_label
_atom_site_fract_x
_atom_site_fract_y
_atom_site_fract_z
Si Si1 0.000000 0.311321 0.000000
Si Si2 0.401262 0.410019 0.910429
Si Si3 0.862115 0.180969 0.258570
Si Si4 0.869700 0.403241 0.792582
Si Si5 0.395588 0.905074 0.688077
Si Si6 0.491535 0.755121 0.188148
Si Si7 0.200941 0.749313 0.377145
Si Si8 0.921887 0.093400 0.700937
O O1 0.038351 0.367739 0.125147
O O2 0.890031 0.248769 0.111726
O O3 0.410667 0.500000 0.823134
O O4 0.433426 0.327550 0.797612
O O5 0.500000 0.412131 0.000000
O O6 0.266181 0.403068 0.056193
O O7 0.736975 0.128607 0.300829
O O8 0.851813 0.229533 0.427171
O O9 0.980565 0.119901 0.218821
O O10 0.897511 0.500000 0.733609
O O11 0.857656 0.335210 0.662541
O O12 0.500000 0.905684 0.500000
O O13 0.447617 0.838965 0.781501
O O14 0.382327 0.000000 0.753353
O O15 0.349054 0.743723 0.309861
O O16 0.500000 0.758090 0.000000
O O17 0.169910 0.828683 0.281368
O O18 0.000000 0.088349 0.500000
O O19 0.868227 0.000000 0.755820
#
# Coordination Sequence:
#
# PCOD9154497 Si02
#       8
#     2   4   4   4   4   4   4   4
#     4  12  25  42  65  92 128 170 213 264 311 382
#     4   9  17  32  60  90 119 156 205 254 308 370
#     4  11  23  41  66  88 127 166 214 258 320 364
#     4  11  22  40  65  94 126 167 210 258 318 379
#     4  11  24  42  63  93 131 174 211 253 317 384
#     4  11  21  37  63  92 127 164 212 257 315 367
#     4  11  21  39  62  95 123 164 208 263 310 378
#     4   9  19  36  61  87 115 156 207 257 309 365
#
# _framework density 20.192235
#
# number of rings (size 3 to 8) (size 9 to 14) (size 15 to 20)
#    0.000    1.467    5.333    1.400    0.000    1.333 
#    0.000    4.667    0.000    1.200    0.000    0.000 
#    0.000    0.000    0.000    0.000    0.000    0.000 
#
# Total GULP energy -167499.656346 kJ/mol
# GULP energy per Si atom -5583.321878 kJ/mol
# Density = 2.014628 g / cm^3
# Si number density = 20.192235 Si / 1000 Ang^3
#
#
#
# Elastic Constant Matrix: (Units=GPa)
#
#
# Indices 1 2 3 4 5 6 
#
# 1 52.6656 39.2644 5.3129 0.0000 -1.9934 0.0000
# 2 39.2644 213.5796 41.7895 0.0000 10.6684 0.0000
# 3 5.3129 41.7895 32.6090 0.0000 1.5453 0.0000
# 4 0.0000 0.0000 0.0000 30.3060 0.0000 -1.1794
# 5 -1.9934 10.6684 1.5453 0.0000 25.1092 0.0000
# 6 0.0000 0.0000 0.0000 -1.1794 0.0000 24.7304
#
#
#
# Elastic Compliance Matrix: (Units=1/GPa)
#
#
# Indices 1 2 3 4 5 6 
#
# 1 0.022440 -0.004750 0.002258 0.000000 0.003661 0.000000
# 2 -0.004750 0.007374 -0.008535 0.000000 -0.002985 0.000000
# 3 0.002258 -0.008535 0.041176 0.000000 0.001272 0.000000
# 4 0.000000 0.000000 0.000000 0.033058 0.000000 0.001577
# 5 0.003661 -0.002985 0.001272 0.000000 0.041307 0.000000
# 6 0.000000 0.000000 0.000000 0.001577 0.000000 0.040511
#
#
# Mechanical properties :
#
#
# Convention : Reuss Voigt Hill
#
# Bulk Modulus (GPa) = 20.43501 52.39865 36.41683
# Shear Modulus (GPa) = 22.29815 30.19493 26.24654
#
# Velocity S-wave (km/s) = 3.32670 3.87120 3.60923
# Velocity P-wave (km/s) = 4.98980 6.78143 5.95340
#
# Compressibility (1/GPa) = 0.04893563
#
# Stress axis : x y z
#
# Youngs Moduli (GPa) = 44.56371 135.60326 24.28572
#
# Poissons Ratio (x) = 0.64410 -0.05483
# Poissons Ratio (y) = 0.21167 0.20728
# Poissons Ratio (z) = -0.10061 1.15741
#
# Static dielectric constant tensor:
#      x y z
#    x 1.714840 0.000000 -0.017260 
#    y 0.000000 1.761570 0.000000 
#    z -0.017260 0.000000 1.731950 
# 
# From -- ./inp_files/25292.got.cif
#   From: 2010.05.17/outbox.cif.g08.bks.cpg/sg10_13_cif.got.tgz:25292.got - 2010.06.03 11:33:40.
