data_PCOD9154067
_publ_section_title
;
Structure prediction by ZEFSAII (Michael W. Deem and Ramdas Pophale) SiO2 
 PCOD9154067
Probable space group: P 2/M
;
_chemical_formula_sum "Si O2"
_cell_formula_units_Z 28
_cell_length_a 19.294010
_cell_length_b 8.753185
_cell_length_c 14.365473
_cell_angle_alpha 90.000000
_cell_angle_beta 145.875680
_cell_angle_gamma 90.000000
_cell_volume 1361.018368
_symmetry_space_group_name_H-M "P 2/M"
_symmetry_group_IT_number 10
_symmetry_cell_setting 'monoclinic'
loop_
_space_group_symop_operation_xyz
x,y,z
-x,y,-z
-x,-y,-z
x,-y,z
loop_
_atom_site_type_symbol
_atom_site_label
_atom_site_fract_x
_atom_site_fract_y
_atom_site_fract_z
Si Si1 0.804054 0.180656 0.506757
Si Si2 0.489151 0.175546 0.377177
Si Si3 0.261227 0.676413 0.377010
Si Si4 0.884075 0.824265 0.942201
Si Si5 0.327100 0.682140 0.054752
Si Si6 0.469778 0.183623 0.859140
Si Si7 0.057738 0.318125 0.792121
O O1 0.800608 0.220777 0.612562
O O2 0.670889 0.233977 0.320016
O O3 0.928996 0.256998 0.608181
O O4 0.812260 0.000000 0.502618
O O5 0.500000 0.181093 0.500000
O O6 0.594352 0.287208 0.455867
O O7 0.513642 0.000000 0.375789
O O8 0.363690 0.233032 0.191478
O O9 0.233244 0.500000 0.362926
O O10 0.216449 0.726271 0.225488
O O11 0.842347 0.000000 0.906015
O O12 0.921118 0.755633 0.082418
O O13 0.000000 0.822529 0.000000
O O14 0.338574 0.500000 0.078815
O O15 0.183265 0.716593 0.874734
O O16 0.425665 0.741026 0.089072
O O17 0.474260 0.000000 0.849063
O O18 0.500000 0.214749 0.000000
O O19 0.048810 0.500000 0.793206
#
# Coordination Sequence:
#
# PCOD9154067 Si02
#       7
#     4   4   4   4   4   4   4
#     4  11  22  39  64  92 122 159 206 256 312 377
#     4  11  23  38  58  85 122 168 215 261 311 370
#     4  12  23  35  56  84 120 162 209 261 312 365
#     4  11  22  35  54  82 120 168 220 264 308 366
#     4  11  24  41  63  94 129 167 210 262 322 383
#     4  10  23  45  73 100 125 159 208 266 326 389
#     4  11  24  40  60  90 129 170 213 259 316 377
#
# _framework density 20.57283
#
# number of rings (size 3 to 8) (size 9 to 14) (size 15 to 20)
#    0.000    1.000    2.857    4.286    0.000    7.143 
#    0.000    0.714    0.000    4.286    0.000    0.000 
#    0.000    0.000    0.000    0.000    0.000    0.000 
#
# Total GULP energy -156516.056486 kJ/mol
# GULP energy per Si atom -5589.859160 kJ/mol
# Density = 2.052601 g / cm^3
# Si number density = 20.572830 Si / 1000 Ang^3
#
#
#
# Elastic Constant Matrix: (Units=GPa)
#
#
# Indices 1 2 3 4 5 6 
#
# 1 80.7514 27.6822 62.6943 0.0000 13.5095 0.0000
# 2 27.6822 61.8015 32.0294 0.0000 9.5283 0.0000
# 3 62.6943 32.0294 125.5017 0.0000 23.5022 0.0000
# 4 0.0000 0.0000 0.0000 38.0639 0.0000 22.3781
# 5 13.5095 9.5283 23.5022 0.0000 36.6583 0.0000
# 6 0.0000 0.0000 0.0000 22.3781 0.0000 27.5121
#
#
#
# Elastic Compliance Matrix: (Units=1/GPa)
#
#
# Indices 1 2 3 4 5 6 
#
# 1 0.021342 -0.004605 -0.009361 0.000000 -0.000666 0.000000
# 2 -0.004605 0.019776 -0.002389 0.000000 -0.001912 0.000000
# 3 -0.009361 -0.002389 0.014196 0.000000 -0.005031 0.000000
# 4 0.000000 0.000000 0.000000 0.050348 0.000000 -0.040953
# 5 -0.000666 -0.001912 -0.005031 0.000000 0.031247 0.000000
# 6 0.000000 0.000000 0.000000 -0.040953 0.000000 0.069658
#
#
# Mechanical properties :
#
#
# Convention : Reuss Voigt Hill
#
# Bulk Modulus (GPa) = 44.23954 56.98513 50.61234
# Shear Modulus (GPa) = 20.25834 30.15675 25.20755
#
# Velocity S-wave (km/s) = 3.14142 3.83280 3.50420
# Velocity P-wave (km/s) = 5.89140 6.88088 6.40527
#
# Compressibility (1/GPa) = 0.02260421
#
# Stress axis : x y z
#
# Youngs Moduli (GPa) = 46.85656 50.56570 70.44209
#
# Poissons Ratio (x) = 0.23286 0.65942
# Poissons Ratio (y) = 0.21578 0.16826
# Poissons Ratio (z) = 0.43863 0.12078
#
# Static dielectric constant tensor:
#      x y z
#    x 1.752900 0.000000 0.053140 
#    y 0.000000 1.687870 0.000000 
#    z 0.053140 0.000000 1.763620 
# 
# From -- ./inp_files/70286.got.cif
#   From: 2010.05.17/outbox.cif.g08.bks.cpg/sg10_36_cif.got.tgz:70286.got - 2010.06.03 11:33:40.
