data_PCOD9154122
_publ_section_title
;
Structure prediction by ZEFSAII (Michael W. Deem and Ramdas Pophale) SiO2 
 PCOD9154122
Probable space group: P 2/M
;
_chemical_formula_sum "Si O2"
_cell_formula_units_Z 13
_cell_length_a 7.891880
_cell_length_b 7.747779
_cell_length_c 9.751504
_cell_angle_alpha 90.000000
_cell_angle_beta 63.200433
_cell_angle_gamma 90.000000
_cell_volume 532.207439
_symmetry_space_group_name_H-M "P 2/M"
_symmetry_group_IT_number 10
_symmetry_cell_setting 'monoclinic'
loop_
_space_group_symop_operation_xyz
x,y,z
-x,y,-z
-x,-y,-z
x,-y,z
loop_
_atom_site_type_symbol
_atom_site_label
_atom_site_fract_x
_atom_site_fract_y
_atom_site_fract_z
Si Si1 0.950416 0.305811 0.362070
Si Si2 0.640245 0.809091 0.282981
Si Si3 0.500000 0.500000 0.500000
Si Si4 0.717582 0.794782 0.949275
O O1 0.859777 0.500000 0.389364
O O2 0.138689 0.301396 0.201997
O O3 0.000000 0.265282 0.500000
O O4 0.801303 0.186846 0.340400
O O5 0.506510 0.654628 0.377779
O O6 0.550982 0.000000 0.301229
O O7 0.743691 0.767586 0.101797
O O8 0.740802 0.000000 0.914115
O O9 0.500000 0.748430 0.000000
#
# Coordination Sequence:
#
# PCOD9154122 Si02
#       4
#     4   4   1   4
#     4  11  25  43  68 101 138 180 229 281 339 404
#     4  11  25  45  71  99 137 182 227 278 340 407
#     4  12  26  44  70 106 136 178 224 292 332 410
#     4  10  24  44  68  99 135 178 228 279 338 405
#
# _framework density 24.426566999999999
#
# number of rings (size 3 to 8) (size 9 to 14) (size 15 to 20)
#    0.000    1.231    1.538    2.308    6.462    6.769 
#    0.000    0.000    0.000    0.000    0.000    0.000 
#    0.000    0.000    0.000    0.000    0.000    0.000 
#
# Total GULP energy -72574.028501 kJ/mol
# GULP energy per Si atom -5582.617577 kJ/mol
# Density = 2.437097 g / cm^3
# Si number density = 24.426567 Si / 1000 Ang^3
#
#
#
# Elastic Constant Matrix: (Units=GPa)
#
#
# Indices 1 2 3 4 5 6 
#
# 1 36.6421 24.7321 22.8254 0.0000 17.9789 0.0000
# 2 24.7321 139.5815 82.3728 0.0000 -9.2084 0.0000
# 3 22.8254 82.3728 183.7707 0.0000 12.0052 0.0000
# 4 0.0000 0.0000 0.0000 35.3651 0.0000 -7.2876
# 5 17.9789 -9.2084 12.0052 0.0000 51.9736 0.0000
# 6 0.0000 0.0000 0.0000 -7.2876 0.0000 34.7442
#
#
#
# Elastic Compliance Matrix: (Units=1/GPa)
#
#
# Indices 1 2 3 4 5 6 
#
# 1 0.040398 -0.007874 -0.000491 0.000000 -0.015256 0.000000
# 2 -0.007874 0.011687 -0.004644 0.000000 0.005867 0.000000
# 3 -0.000491 -0.004644 0.007744 0.000000 -0.002441 0.000000
# 4 0.000000 0.000000 0.000000 0.029554 0.000000 0.006199
# 5 -0.015256 0.005867 -0.002441 0.000000 0.026122 0.000000
# 6 0.000000 0.000000 0.000000 0.006199 0.000000 0.030082
#
#
# Mechanical properties :
#
#
# Convention : Reuss Voigt Hill
#
# Bulk Modulus (GPa) = 29.57784 68.87277 49.22530
# Shear Modulus (GPa) = 27.34110 39.75419 33.54764
#
# Velocity S-wave (km/s) = 3.34925 4.03860 3.70997
# Velocity P-wave (km/s) = 5.20498 7.07136 6.20870
#
# Compressibility (1/GPa) = 0.03380910
#
# Stress axis : x y z
#
# Youngs Moduli (GPa) = 24.75390 85.56412 129.13837
#
# Poissons Ratio (x) = 0.67377 0.06345
# Poissons Ratio (y) = 0.19492 0.59970
# Poissons Ratio (z) = 0.01216 0.39735
#
# Static dielectric constant tensor:
#      x y z
#    x 0.836450 0.000000 0.564910 
#    y 0.000000 1.898400 0.000000 
#    z 0.564910 0.000000 1.602160 
# 
# From -- ./inp_files/16139.got.cif
#   From: 2010.05.17/outbox.cif.g08.bks.cpg/sg10_9_cif.got.tgz:16139.got - 2010.06.03 11:33:40.
