data_PCOD9154035
_publ_section_title
;
Structure prediction by ZEFSAII (Michael W. Deem and Ramdas Pophale) SiO2 
 PCOD9154035
Probable space group: P 2/M
;
_chemical_formula_sum "Si O2"
_cell_formula_units_Z 16
_cell_length_a 5.081351
_cell_length_b 11.548360
_cell_length_c 11.935798
_cell_angle_alpha 90.000000
_cell_angle_beta 83.993510
_cell_angle_gamma 90.000000
_cell_volume 696.562588
_symmetry_space_group_name_H-M "P 2/M"
_symmetry_group_IT_number 10
_symmetry_cell_setting 'monoclinic'
loop_
_space_group_symop_operation_xyz
x,y,z
-x,y,-z
-x,-y,-z
x,-y,z
loop_
_atom_site_type_symbol
_atom_site_label
_atom_site_fract_x
_atom_site_fract_y
_atom_site_fract_z
Si Si1 0.856452 0.000000 0.379699
Si Si2 0.785181 0.366091 0.202295
Si Si3 0.759161 0.254800 0.427129
Si Si4 0.145772 0.000000 0.118642
Si Si5 0.679020 0.256523 0.888255
O O1 0.705996 0.123128 0.385126
O O2 0.000000 0.000000 0.500000
O O3 0.000672 0.000000 0.249098
O O4 0.777499 0.500000 0.172269
O O5 0.851343 0.341382 0.327339
O O6 0.496925 0.308252 0.202912
O O7 0.021897 0.301941 0.126123
O O8 0.500000 0.297825 0.500000
O O9 0.000000 0.243460 0.500000
O O10 0.309308 0.118407 0.113671
O O11 0.000000 0.000000 0.000000
O O12 0.500000 0.296498 0.000000
#
# Coordination Sequence:
#
# PCOD9154035 Si02
#       5
#     2   4   4   2   4
#     4  10  23  43  75 112 148 196 242 314 382 459
#     4  12  27  47  73 105 147 200 257 308 370 447
#     4  11  24  44  70 105 147 193 245 312 376 448
#     4  12  25  49  79 118 155 195 246 318 392 459
#     4  12  27  47  74 108 148 193 245 314 382 451
#
# _framework density 22.969937999999999
#
# number of rings (size 3 to 8) (size 9 to 14) (size 15 to 20)
#    0.000    0.500    2.500    5.250    3.500    6.000 
#    0.000    0.000    0.000    0.000    0.000    0.000 
#    0.000    0.000    0.000    0.000    0.000    0.000 
#
# Total GULP energy -89323.012725 kJ/mol
# GULP energy per Si atom -5582.688295 kJ/mol
# Density = 2.291766 g / cm^3
# Si number density = 22.969938 Si / 1000 Ang^3
#
#
#
# Elastic Constant Matrix: (Units=GPa)
#
#
# Indices 1 2 3 4 5 6 
#
# 1 96.7187 32.3708 17.4133 0.0000 -13.3528 0.0000
# 2 32.3708 134.4546 -1.6144 0.0000 10.3665 0.0000
# 3 17.4133 -1.6144 119.1346 0.0000 -19.6143 0.0000
# 4 0.0000 0.0000 0.0000 36.1455 0.0000 19.2982
# 5 -13.3528 10.3665 -19.6143 0.0000 41.8570 0.0000
# 6 0.0000 0.0000 0.0000 19.2982 0.0000 17.6290
#
#
#
# Elastic Compliance Matrix: (Units=1/GPa)
#
#
# Indices 1 2 3 4 5 6 
#
# 1 0.012218 -0.003277 -0.001143 0.000000 0.004174 0.000000
# 2 -0.003277 0.008467 0.000083 0.000000 -0.003104 0.000000
# 3 -0.001143 0.000083 0.009209 0.000000 0.003930 0.000000
# 4 0.000000 0.000000 0.000000 0.066577 0.000000 -0.072881
# 5 0.004174 -0.003104 0.003930 0.000000 0.027833 0.000000
# 6 0.000000 0.000000 0.000000 -0.072881 0.000000 0.136506
#
#
# Mechanical properties :
#
#
# Convention : Reuss Voigt Hill
#
# Bulk Modulus (GPa) = 47.12744 49.62746 48.37745
# Shear Modulus (GPa) = 18.07941 39.26884 28.67412
#
# Velocity S-wave (km/s) = 2.80856 4.13919 3.53701
# Velocity P-wave (km/s) = 5.57484 6.67054 6.14715
#
# Compressibility (1/GPa) = 0.02121906
#
# Stress axis : x y z
#
# Youngs Moduli (GPa) = 81.84588 118.10955 108.58762
#
# Poissons Ratio (x) = 0.38706 0.12413
# Poissons Ratio (y) = 0.26822 -0.00899
# Poissons Ratio (z) = 0.09356 -0.00977
#
# Static dielectric constant tensor:
#      x y z
#    x 1.885280 0.000000 0.111310 
#    y 0.000000 1.822810 0.000000 
#    z 0.111310 0.000000 2.051860 
# 
# From -- ./inp_files/38713.got.cif
#   From: 2010.05.17/outbox.cif.g08.bks.cpg/sg10_20_cif.got.tgz:38713.got - 2010.06.03 11:33:40.
