data_PCOD9154541
_publ_section_title
;
Structure prediction by ZEFSAII (Michael W. Deem and Ramdas Pophale) SiO2 
 PCOD9154541
Probable space group: P 2/M
;
_chemical_formula_sum "Si O2"
_cell_formula_units_Z 24
_cell_length_a 14.317914
_cell_length_b 13.899149
_cell_length_c 12.066455
_cell_angle_alpha 90.000000
_cell_angle_beta 30.237204
_cell_angle_gamma 90.000000
_cell_volume 1209.252600
_symmetry_space_group_name_H-M "P 2/M"
_symmetry_group_IT_number 10
_symmetry_cell_setting 'monoclinic'
loop_
_space_group_symop_operation_xyz
x,y,z
-x,y,-z
-x,-y,-z
x,-y,z
loop_
_atom_site_type_symbol
_atom_site_label
_atom_site_fract_x
_atom_site_fract_y
_atom_site_fract_z
Si Si1 0.791709 0.891297 0.162431
Si Si2 0.433039 0.389361 0.697161
Si Si3 0.583623 0.107027 0.777162
Si Si4 0.199011 0.168657 0.253153
Si Si5 0.294977 0.225656 0.541946
Si Si6 0.123848 0.256102 0.101824
O O1 0.698964 0.814466 0.339611
O O2 0.717566 0.000000 0.236241
O O3 0.800711 0.841848 0.033602
O O4 0.000000 0.897423 0.000000
O O5 0.500000 0.388115 0.500000
O O6 0.441622 0.500000 0.724673
O O7 0.572680 0.315771 0.612543
O O8 0.233603 0.343477 0.931329
O O9 0.690127 0.185180 0.745120
O O10 0.636341 0.136170 0.600703
O O11 0.653800 0.000000 0.731244
O O12 0.364498 0.109028 0.024757
O O13 0.151864 0.246909 0.205870
O O14 0.000000 0.129535 0.500000
O O15 0.089876 0.255786 0.715048
#
# Coordination Sequence:
#
# PCOD9154541 Si02
#       6
#     4   4   4   4   4   4
#     4   9  19  34  55  88 126 163 198 239 295 363
#     4  11  24  43  67  95 123 154 202 259 321 385
#     4  11  24  38  59  93 130 170 216 252 294 361
#     4  11  22  40  58  87 123 171 213 253 292 353
#     4  11  21  41  63  91 126 161 202 258 310 367
#     4  11  22  40  64  89 125 164 206 253 309 366
#
# _framework density 19.846971
#
# number of rings (size 3 to 8) (size 9 to 14) (size 15 to 20)
#    0.000    1.333    5.000    1.500    0.000    4.000 
#    0.000    2.500    0.000    2.500    0.000    0.000 
#    0.000    0.000    0.000    0.000    0.000    0.000 
#
# Total GULP energy -133660.241613 kJ/mol
# GULP energy per Si atom -5569.176734 kJ/mol
# Density = 1.980180 g / cm^3
# Si number density = 19.846971 Si / 1000 Ang^3
#
#
#
# Elastic Constant Matrix: (Units=GPa)
#
#
# Indices 1 2 3 4 5 6 
#
# 1 59.6318 4.6469 25.5878 0.0000 -1.4234 0.0000
# 2 4.6469 93.0546 27.3836 0.0000 -9.1712 0.0000
# 3 25.5878 27.3836 120.9488 0.0000 -20.9896 0.0000
# 4 0.0000 0.0000 0.0000 14.3995 0.0000 7.1694
# 5 -1.4234 -9.1712 -20.9896 0.0000 32.4402 0.0000
# 6 0.0000 0.0000 0.0000 7.1694 0.0000 -0.5917
#
#
#
# Elastic Compliance Matrix: (Units=1/GPa)
#
#
# Indices 1 2 3 4 5 6 
#
# 1 0.018554 0.000147 -0.004292 0.000000 -0.001921 0.000000
# 2 0.000147 0.011605 -0.002352 0.000000 0.001765 0.000000
# 3 -0.004292 -0.002352 0.010770 0.000000 0.006115 0.000000
# 4 0.000000 0.000000 0.000000 0.009875 0.000000 0.119648
# 5 -0.001921 0.001765 0.006115 0.000000 0.035197 0.000000
# 6 0.000000 0.000000 0.000000 0.119648 0.000000 -0.240309
#
#
# Mechanical properties :
#
#
# Convention : Reuss Voigt Hill
#
# Bulk Modulus (GPa) = 35.79782 43.20798 39.50290
# Shear Modulus (GPa) = -37.87828 23.65073 -7.11377
#
# Velocity S-wave (km/s) = -4.37340 3.45578 -1.89528
# Velocity P-wave (km/s) = 2.72508 6.14337 3.89326
#
# Compressibility (1/GPa) = 0.02793466
#
# Stress axis : x y z
#
# Youngs Moduli (GPa) = 53.89693 86.16802 92.85290
#
# Poissons Ratio (x) = -0.01268 0.39852
# Poissons Ratio (y) = -0.00793 0.21841
# Poissons Ratio (z) = 0.23132 0.20269
#
# Static dielectric constant tensor:
#      x y z
#    x 1.728800 0.000000 -0.009180 
#    y 0.000000 1.653470 0.000000 
#    z -0.009180 0.000000 1.741620 
# 
# From -- ./inp_files/51548.got.cif
#   From: 2010.05.17/outbox.cif.g08.bks.cpg/sg10_26_cif.got.tgz:51548.got - 2010.06.03 11:33:40.
