data_PCOD9154919
_publ_section_title
;
Structure prediction by ZEFSAII (Michael W. Deem and Ramdas Pophale) SiO2 
 PCOD9154919
Probable space group: P 2/M
;
_chemical_formula_sum "Si O2"
_cell_formula_units_Z 32
_cell_length_a 22.653908
_cell_length_b 7.459981
_cell_length_c 28.052078
_cell_angle_alpha 90.000000
_cell_angle_beta 20.198575
_cell_angle_gamma 90.000000
_cell_volume 1636.857402
_symmetry_space_group_name_H-M "P 2/M"
_symmetry_group_IT_number 10
_symmetry_cell_setting 'monoclinic'
loop_
_space_group_symop_operation_xyz
x,y,z
-x,y,-z
-x,-y,-z
x,-y,z
loop_
_atom_site_type_symbol
_atom_site_label
_atom_site_fract_x
_atom_site_fract_y
_atom_site_fract_z
Si Si1 0.691702 0.719386 0.844957
Si Si2 0.025907 0.284944 0.644212
Si Si3 0.712952 0.212095 0.479116
Si Si4 0.805356 0.716764 0.141568
Si Si5 0.668359 0.280145 0.658126
Si Si6 0.501210 0.213094 0.552878
Si Si7 0.584877 0.297501 0.224007
Si Si8 0.804544 0.281458 0.654810
O O1 0.692079 0.500000 0.845698
O O2 0.838893 0.778369 0.770249
O O3 0.741705 0.775730 0.753905
O O4 0.500000 0.778755 0.000000
O O5 0.023660 0.500000 0.643130
O O6 0.100523 0.238970 0.639711
O O7 0.166851 0.223858 0.498251
O O8 0.656475 0.276481 0.469567
O O9 0.580989 0.303613 0.615601
O O10 0.677152 0.000000 0.508433
O O11 0.806517 0.500000 0.137885
O O12 0.673758 0.759439 0.284279
O O13 0.726250 0.785559 0.151505
O O14 0.000000 0.777835 0.000000
O O15 0.665570 0.500000 0.658876
O O16 0.495926 0.216767 0.762520
O O17 0.695233 0.224352 0.691989
O O18 0.500000 0.287108 0.500000
O O19 0.524132 0.000000 0.531009
O O20 0.641003 0.500000 0.170115
O O21 0.803152 0.500000 0.655723
O O22 0.000000 0.225787 0.500000
#
# Coordination Sequence:
#
# PCOD9154919 Si02
#       8
#     4   4   4   4   4   4   4   4
#     4   9  16  24  36  56  84 111 136 172 213 248
#     4   9  15  25  41  60  84 110 139 173 215 258
#     4   9  16  26  43  66  87 108 142 184 219 255
#     4   9  17  29  46  68  96 126 150 178 222 278
#     4   8  12  19  35  57  76  99 134 174 205 239
#     4   9  18  32  49  69  91 116 153 198 232 262
#     4   8  14  25  41  62  87 114 142 174 215 257
#     4   9  13  19  33  55  78 101 133 170 205 241
#
# _framework density 19.549657
#
# number of rings (size 3 to 8) (size 9 to 14) (size 15 to 20)
#    0.000    3.250    1.250    1.125    0.000    1.000 
#    0.000    0.000    2.750    0.375    0.000    7.000 
#    0.000    0.000    0.000    0.000    0.000    0.000 
#
# Total GULP energy -178185.632127 kJ/mol
# GULP energy per Si atom -5568.301004 kJ/mol
# Density = 1.950516 g / cm^3
# Si number density = 19.549657 Si / 1000 Ang^3
#
#
#
# Elastic Constant Matrix: (Units=GPa)
#
#
# Indices 1 2 3 4 5 6 
#
# 1 213.6818 4.2422 90.4070 0.0000 -38.9748 0.0000
# 2 4.2422 58.9024 -2.5051 0.0000 -1.3581 0.0000
# 3 90.4070 -2.5051 105.7964 0.0000 -26.6513 0.0000
# 4 0.0000 0.0000 0.0000 6.4920 0.0000 -0.3642
# 5 -38.9748 -1.3581 -26.6513 0.0000 34.8860 0.0000
# 6 0.0000 0.0000 0.0000 -0.3642 0.0000 9.7851
#
#
#
# Elastic Compliance Matrix: (Units=1/GPa)
#
#
# Indices 1 2 3 4 5 6 
#
# 1 0.007896 -0.000705 -0.005633 0.000000 0.004491 0.000000
# 2 -0.000705 0.017098 0.001209 0.000000 0.000802 0.000000
# 3 -0.005633 0.001209 0.015752 0.000000 0.005788 0.000000
# 4 0.000000 0.000000 0.000000 0.154358 0.000000 0.005745
# 5 0.004491 0.000802 0.005788 0.000000 0.038135 0.000000
# 6 0.000000 0.000000 0.000000 0.005745 0.000000 0.102410
#
#
# Mechanical properties :
#
#
# Convention : Reuss Voigt Hill
#
# Bulk Modulus (GPa) = 32.79841 62.51876 47.65859
# Shear Modulus (GPa) = 14.04215 29.31506 21.67861
#
# Velocity S-wave (km/s) = 2.68298 3.87656 3.33363
# Velocity P-wave (km/s) = 5.13919 7.21705 6.26487
#
# Compressibility (1/GPa) = 0.03048928
#
# Stress axis : x y z
#
# Youngs Moduli (GPa) = 126.64217 58.48672 63.48234
#
# Poissons Ratio (x) = 0.04122 0.35760
# Poissons Ratio (y) = 0.08925 -0.07676
# Poissons Ratio (z) = 0.71338 -0.07072
#
# Static dielectric constant tensor:
#      x y z
#    x 1.741480 0.000000 -0.042890 
#    y 0.000000 1.739710 0.000000 
#    z -0.042890 0.000000 1.648660 
# 
# From -- ./inp_files/93630.got.cif
#   From: 2010.05.17/outbox.cif.g08.bks.cpg/sg10_47_cif.got.tgz:93630.got - 2010.06.03 11:33:40.
