data_PCOD9154671
_publ_section_title
;
Structure prediction by ZEFSAII (Michael W. Deem and Ramdas Pophale) SiO2 
 PCOD9154671
Probable space group: P 2/M
;
_chemical_formula_sum "Si O2"
_cell_formula_units_Z 32
_cell_length_a 22.538597
_cell_length_b 13.792145
_cell_length_c 9.966120
_cell_angle_alpha 90.000000
_cell_angle_beta 40.649915
_cell_angle_gamma 90.000000
_cell_volume 2018.162731
_symmetry_space_group_name_H-M "P 2/M"
_symmetry_group_IT_number 10
_symmetry_cell_setting 'monoclinic'
loop_
_space_group_symop_operation_xyz
x,y,z
-x,y,-z
-x,-y,-z
x,-y,z
loop_
_atom_site_type_symbol
_atom_site_label
_atom_site_fract_x
_atom_site_fract_y
_atom_site_fract_z
Si Si1 0.112186 0.117654 0.159293
Si Si2 0.536659 0.884862 0.580455
Si Si3 0.747187 0.117265 0.565791
Si Si4 0.427803 0.217063 0.006476
Si Si5 0.423894 0.386748 0.824166
Si Si6 0.365454 0.386615 0.621952
Si Si7 0.096529 0.883026 0.493944
Si Si8 0.733463 0.799188 0.295522
O O1 0.124307 0.145051 0.295057
O O2 0.008190 0.145227 0.300866
O O3 0.121055 0.000000 0.132465
O O4 0.185499 0.168926 0.940677
O O5 0.500000 0.848705 0.500000
O O6 0.479895 0.840397 0.799625
O O7 0.641660 0.856903 0.413996
O O8 0.526536 0.000000 0.601933
O O9 0.830647 0.145378 0.519756
O O10 0.756161 0.169237 0.407463
O O11 0.745635 0.000000 0.552142
O O12 0.653801 0.153660 0.793575
O O13 0.394006 0.315150 0.992858
O O14 0.500000 0.238644 0.000000
O O15 0.409582 0.500000 0.879636
O O16 0.376101 0.366314 0.763099
O O17 0.532812 0.372900 0.613363
O O18 0.342150 0.500000 0.645822
O O19 0.295853 0.312486 0.673775
O O20 0.095545 0.000000 0.493930
#
# Coordination Sequence:
#
# PCOD9154671 Si02
#       8
#     4   4   4   4   4   4   4   4
#     4   9  18  34  56  79 103 132 174 221 257 305
#     4  11  23  34  46  70 104 140 181 214 243 299
#     4  11  23  35  49  74 112 150 176 206 254 309
#     4  12  22  34  49  72 109 149 172 209 258 309
#     4   9  18  34  54  73  97 134 180 225 262 302
#     4   9  18  34  54  76 101 129 172 229 271 300
#     4   8  18  36  53  75 105 137 172 215 264 303
#     4  12  21  33  53  79 101 136 179 217 257 315
#
# _framework density 15.856006000000001
#
# number of rings (size 3 to 8) (size 9 to 14) (size 15 to 20)
#    0.000    1.875    2.500    3.750    3.500    1.250 
#    0.000    2.500    0.000    0.000    0.000    4.375 
#    0.000    0.000    0.000    0.000    0.000    0.000 
#
# Total GULP energy -178554.907352 kJ/mol
# GULP energy per Si atom -5579.840855 kJ/mol
# Density = 1.581992 g / cm^3
# Si number density = 15.856006 Si / 1000 Ang^3
#
#
#
# Elastic Constant Matrix: (Units=GPa)
#
#
# Indices 1 2 3 4 5 6 
#
# 1 125.5617 44.6495 58.7540 0.0000 8.2895 0.0000
# 2 44.6495 87.4788 36.7148 0.0000 8.9718 0.0000
# 3 58.7540 36.7148 114.6176 0.0000 6.1860 0.0000
# 4 0.0000 0.0000 0.0000 -6.5925 0.0000 9.9515
# 5 8.2895 8.9718 6.1860 0.0000 17.0768 0.0000
# 6 0.0000 0.0000 0.0000 9.9515 0.0000 22.7864
#
#
#
# Elastic Compliance Matrix: (Units=1/GPa)
#
#
# Indices 1 2 3 4 5 6 
#
# 1 0.011605 -0.003777 -0.004633 0.000000 -0.001971 0.000000
# 2 -0.003777 0.014965 -0.002583 0.000000 -0.005094 0.000000
# 3 -0.004633 -0.002583 0.011966 0.000000 -0.000729 0.000000
# 4 0.000000 0.000000 0.000000 -0.091419 0.000000 0.039926
# 5 -0.001971 -0.005094 -0.000729 0.000000 0.062456 0.000000
# 6 0.000000 0.000000 0.000000 0.039926 0.000000 0.026449
#
#
# Mechanical properties :
#
#
# Convention : Reuss Voigt Hill
#
# Bulk Modulus (GPa) = 60.41589 67.54385 63.97987
# Shear Modulus (GPa) = 78.70931 19.15679 48.93305
#
# Velocity S-wave (km/s) = 7.05321 3.47965 5.56128
# Velocity P-wave (km/s) = 10.22331 7.67038 9.03744
#
# Compressibility (1/GPa) = 0.01655194
#
# Stress axis : x y z
#
# Youngs Moduli (GPa) = 86.16860 66.82049 83.56918
#
# Poissons Ratio (x) = 0.25237 0.38715
# Poissons Ratio (y) = 0.32544 0.21585
# Poissons Ratio (z) = 0.39920 0.17259
#
# Static dielectric constant tensor:
#      x y z
#    x 1.536960 0.000000 0.009570 
#    y 0.000000 1.535190 0.000000 
#    z 0.009570 0.000000 1.509820 
# 
# From -- ./inp_files/35102.got.cif
#   From: 2010.05.17/outbox.cif.g08.bks.cpg/sg10_18_cif.got.tgz:35102.got - 2010.06.03 11:33:40.
