data_PCOD9154954
_publ_section_title
;
Structure prediction by ZEFSAII (Michael W. Deem and Ramdas Pophale) SiO2 
 PCOD9154954
Probable space group: P 2/M
;
_chemical_formula_sum "Si O2"
_cell_formula_units_Z 24
_cell_length_a 17.947727
_cell_length_b 7.426839
_cell_length_c 19.916571
_cell_angle_alpha 90.000000
_cell_angle_beta 156.268523
_cell_angle_gamma 90.000000
_cell_volume 1068.416989
_symmetry_space_group_name_H-M "P 2/M"
_symmetry_group_IT_number 10
_symmetry_cell_setting 'monoclinic'
loop_
_space_group_symop_operation_xyz
x,y,z
-x,y,-z
-x,-y,-z
x,-y,z
loop_
_atom_site_type_symbol
_atom_site_label
_atom_site_fract_x
_atom_site_fract_y
_atom_site_fract_z
Si Si1 0.886759 0.000000 0.034118
Si Si2 0.968418 0.291770 0.656213
Si Si3 0.276962 0.000000 0.484698
Si Si4 0.131253 0.295000 0.174844
Si Si5 0.704819 0.293329 0.308437
Si Si6 0.458810 0.000000 0.164958
Si Si7 0.287381 0.717970 0.830855
Si Si8 0.375467 0.000000 0.314976
O O1 0.752521 0.000000 0.986805
O O2 0.751681 0.000000 0.857312
O O3 0.014238 0.175719 0.130678
O O4 0.982579 0.500000 0.689593
O O5 0.855317 0.171388 0.614711
O O6 0.848371 0.286652 0.487964
O O7 0.164710 0.217427 0.791675
O O8 0.416903 0.000000 0.664059
O O9 0.412226 0.000000 0.532723
O O10 0.170583 0.500000 0.227740
O O11 0.308630 0.176920 0.299716
O O12 0.000000 0.302305 0.000000
O O13 0.644223 0.500000 0.250946
O O14 0.788459 0.237032 0.305868
O O15 0.530699 0.172441 0.184211
O O16 0.281520 0.500000 0.832493
O O17 0.500000 0.774613 0.000000
#
# Coordination Sequence:
#
# PCOD9154954 Si02
#       8
#     2   4   2   4   4   2   4   2
#     4   8  14  23  33  50  76 103 136 173 202 237
#     4   9  17  29  44  61  82 110 143 178 216 255
#     4   9  17  27  39  57  81 109 142 178 212 249
#     4   8  13  21  34  51  73 104 137 167 201 240
#     4   9  17  29  44  61  82 110 143 178 216 255
#     4   9  17  27  39  57  81 109 142 178 212 249
#     4   9  17  30  47  64  83 109 142 181 219 254
#     4   8  14  23  33  50  76 103 136 173 202 237
#
# _framework density 22.463139999999999
#
# number of rings (size 3 to 8) (size 9 to 14) (size 15 to 20)
#    0.000    3.333    0.000    1.500    0.000    4.000 
#    0.000   10.833    0.000    0.000    0.000    0.000 
#    0.000    0.000    0.000   12.000    0.000   84.667 
#
# Total GULP energy -134014.461342 kJ/mol
# GULP energy per Si atom -5583.935889 kJ/mol
# Density = 2.241201 g / cm^3
# Si number density = 22.463140 Si / 1000 Ang^3
#
#
#
# Elastic Constant Matrix: (Units=GPa)
#
#
# Indices 1 2 3 4 5 6 
#
# 1 91.8672 53.2429 67.0284 0.0000 37.7539 0.0000
# 2 53.2429 155.8485 55.6200 0.0000 47.6784 0.0000
# 3 67.0284 55.6200 108.5215 0.0000 44.5734 0.0000
# 4 0.0000 0.0000 0.0000 4.8020 0.0000 9.5792
# 5 37.7539 47.6784 44.5734 0.0000 67.9100 0.0000
# 6 0.0000 0.0000 0.0000 9.5792 0.0000 2.2402
#
#
#
# Elastic Compliance Matrix: (Units=1/GPa)
#
#
# Indices 1 2 3 4 5 6 
#
# 1 0.021409 -0.002566 -0.010623 0.000000 -0.003128 0.000000
# 2 -0.002566 0.009010 -0.001398 0.000000 -0.003982 0.000000
# 3 -0.010623 -0.001398 0.018707 0.000000 -0.005391 0.000000
# 4 0.000000 0.000000 0.000000 -0.027655 0.000000 0.118256
# 5 -0.003128 -0.003982 -0.005391 0.000000 0.022799 0.000000
# 6 0.000000 0.000000 0.000000 0.118256 0.000000 -0.059281
#
#
# Mechanical properties :
#
#
# Convention : Reuss Voigt Hill
#
# Bulk Modulus (GPa) = 50.11925 78.66885 64.39405
# Shear Modulus (GPa) = 240.23401 27.01350 133.62375
#
# Velocity S-wave (km/s) = 10.35268 3.47157 7.72107
# Velocity P-wave (km/s) = 12.85552 7.15307 10.40266
#
# Compressibility (1/GPa) = 0.01995241
#
# Stress axis : x y z
#
# Youngs Moduli (GPa) = 46.70974 110.98757 53.45578
#
# Poissons Ratio (x) = 0.28476 0.56789
# Poissons Ratio (y) = 0.11984 0.07471
# Poissons Ratio (z) = 0.49622 0.15511
#
# Static dielectric constant tensor:
#      x y z
#    x 1.811040 0.000000 -0.038650 
#    y 0.000000 1.812840 0.000000 
#    z -0.038650 0.000000 1.861030 
# 
# From -- ./inp_files/93510.got.cif
#   From: 2010.05.17/outbox.cif.g08.bks.cpg/sg10_47_cif.got.tgz:93510.got - 2010.06.03 11:33:40.
