data_PCOD9154874
_publ_section_title
;
Structure prediction by ZEFSAII (Michael W. Deem and Ramdas Pophale) SiO2 
 PCOD9154874
Probable space group: P 2/M
;
_chemical_formula_sum "Si O2"
_cell_formula_units_Z 28
_cell_length_a 7.080960
_cell_length_b 7.542110
_cell_length_c 21.445373
_cell_angle_alpha 90.000000
_cell_angle_beta 68.175193
_cell_angle_gamma 90.000000
_cell_volume 1063.208968
_symmetry_space_group_name_H-M "P 2/M"
_symmetry_group_IT_number 10
_symmetry_cell_setting 'monoclinic'
loop_
_space_group_symop_operation_xyz
x,y,z
-x,y,-z
-x,-y,-z
x,-y,z
loop_
_atom_site_type_symbol
_atom_site_label
_atom_site_fract_x
_atom_site_fract_y
_atom_site_fract_z
Si Si1 0.794525 0.789687 0.709231
Si Si2 0.046724 0.717489 0.131266
Si Si3 0.534616 0.287100 0.847240
Si Si4 0.608947 0.197635 0.425107
Si Si5 0.286719 0.711977 0.987600
Si Si6 0.209155 0.301154 0.727041
Si Si7 0.051535 0.797467 0.429442
O O1 0.584692 0.767558 0.771093
O O2 0.984152 0.700649 0.721351
O O3 0.793564 0.719445 0.638972
O O4 0.839938 0.000000 0.701796
O O5 0.032299 0.500000 0.131127
O O6 0.255956 0.762906 0.142536
O O7 0.859952 0.782406 0.197428
O O8 0.103959 0.777220 0.054012
O O9 0.522861 0.500000 0.849321
O O10 0.347186 0.219957 0.911606
O O11 0.500000 0.286425 0.500000
O O12 0.640682 0.244080 0.347750
O O13 0.840398 0.194776 0.419329
O O14 0.521452 0.000000 0.434305
O O15 0.253393 0.500000 0.985585
O O16 0.500000 0.732111 0.000000
O O17 0.270718 0.500000 0.734494
O O18 0.000000 0.705304 0.500000
O O19 0.116369 0.000000 0.435339
#
# Coordination Sequence:
#
# PCOD9154874 Si02
#       7
#     4   4   4   4   4   4   4
#     4   9  15  22  33  48  67  90 116 149 184 214
#     4   7  10  16  27  43  60  81 113 147 172 198
#     4   8  12  18  29  43  60  85 116 146 174 209
#     4   9  17  28  41  57  76  96 118 148 185 218
#     4   7   9  14  25  40  57  80 112 145 171 198
#     4   9  15  23  36  51  67  90 120 150 177 211
#     4   8  14  25  40  55  70  93 125 152 173 207
#
# _framework density 26.335367999999999
#
# number of rings (size 3 to 8) (size 9 to 14) (size 15 to 20)
#    0.000    3.857    0.000    4.286    0.000    0.286 
#    0.000    0.000    0.000   22.286    0.000    0.000 
#    0.000    0.000    0.000    1.286    0.000   30.286 
#
# Total GULP energy -155909.207326 kJ/mol
# GULP energy per Si atom -5568.185976 kJ/mol
# Density = 2.627543 g / cm^3
# Si number density = 26.335368 Si / 1000 Ang^3
#
#
#
# Elastic Constant Matrix: (Units=GPa)
#
#
# Indices 1 2 3 4 5 6 
#
# 1 109.0718 -6.0634 32.2066 0.0000 -27.2584 0.0000
# 2 -6.0634 64.8528 17.3193 0.0000 -3.7591 0.0000
# 3 32.2066 17.3193 383.0603 0.0000 -26.0342 0.0000
# 4 0.0000 0.0000 0.0000 20.9948 0.0000 -9.9002
# 5 -27.2584 -3.7591 -26.0342 0.0000 34.3863 0.0000
# 6 0.0000 0.0000 0.0000 -9.9002 0.0000 0.4853
#
#
#
# Elastic Compliance Matrix: (Units=1/GPa)
#
#
# Indices 1 2 3 4 5 6 
#
# 1 0.011671 0.001737 -0.000441 0.000000 0.009108 0.000000
# 2 0.001737 0.015916 -0.000689 0.000000 0.002595 0.000000
# 3 -0.000441 -0.000689 0.002794 0.000000 0.001690 0.000000
# 4 0.000000 0.000000 0.000000 -0.005525 0.000000 -0.112725
# 5 0.009108 0.002595 0.001690 0.000000 0.037865 0.000000
# 6 0.000000 0.000000 0.000000 -0.112725 0.000000 -0.239050
#
#
# Mechanical properties :
#
#
# Convention : Reuss Voigt Hill
#
# Bulk Modulus (GPa) = 31.65080 71.54556 51.59818
# Shear Modulus (GPa) = -29.93818 45.40811 7.73497
#
# Velocity S-wave (km/s) = -3.37531 4.15688 1.71566
# Velocity P-wave (km/s) = 1.77366 7.08983 4.85385
#
# Compressibility (1/GPa) = 0.03159478
#
# Stress axis : x y z
#
# Youngs Moduli (GPa) = 85.68105 62.82820 357.95311
#
# Poissons Ratio (x) = -0.10912 0.15778
# Poissons Ratio (y) = -0.14881 0.24674
# Poissons Ratio (z) = 0.03777 0.04331
#
# Static dielectric constant tensor:
#      x y z
#    x 2.292490 0.000000 0.050140 
#    y 0.000000 2.020120 0.000000 
#    z 0.050140 0.000000 2.240950 
# 
# From -- ./inp_files/88432.got.cif
#   From: 2010.05.17/outbox.cif.g08.bks.cpg/sg10_45_cif.got.tgz:88432.got - 2010.06.03 11:33:40.
