data_PCOD9154926
_publ_section_title
;
Structure prediction by ZEFSAII (Michael W. Deem and Ramdas Pophale) SiO2 
 PCOD9154926
Probable space group: P 2/M
;
_chemical_formula_sum "Si O2"
_cell_formula_units_Z 32
_cell_length_a 6.971261
_cell_length_b 7.665418
_cell_length_c 22.450842
_cell_angle_alpha 90.000000
_cell_angle_beta 88.611463
_cell_angle_gamma 90.000000
_cell_volume 1199.367490
_symmetry_space_group_name_H-M "P 2/M"
_symmetry_group_IT_number 10
_symmetry_cell_setting 'monoclinic'
loop_
_space_group_symop_operation_xyz
x,y,z
-x,y,-z
-x,-y,-z
x,-y,z
loop_
_atom_site_type_symbol
_atom_site_label
_atom_site_fract_x
_atom_site_fract_y
_atom_site_fract_z
Si Si1 0.976545 0.701498 0.431997
Si Si2 0.266711 0.296201 0.944577
Si Si3 0.523658 0.698028 0.437645
Si Si4 0.394780 0.791135 0.194727
Si Si5 0.292434 0.199893 0.073444
Si Si6 0.851065 0.708656 0.176613
Si Si7 0.051037 0.702316 0.698656
Si Si8 0.491558 0.796755 0.687042
O O1 0.047717 0.500000 0.433765
O O2 0.748907 0.692024 0.428771
O O3 0.021363 0.778425 0.364817
O O4 0.000000 0.775600 0.500000
O O5 0.303395 0.500000 0.932642
O O6 0.473669 0.204221 0.936696
O O7 0.124349 0.234156 0.892893
O O8 0.210447 0.282678 0.014088
O O9 0.500000 0.792603 0.500000
O O10 0.451903 0.500000 0.442774
O O11 0.434538 0.778352 0.380096
O O12 0.277754 0.716536 0.139598
O O13 0.622658 0.750087 0.185969
O O14 0.363786 0.732919 0.263018
O O15 0.371110 0.000000 0.190697
O O16 0.231907 0.000000 0.073865
O O17 0.875549 0.500000 0.179769
O O18 0.964463 0.782012 0.233684
O O19 0.992078 0.500000 0.699319
O O20 0.286120 0.703499 0.692381
O O21 0.452804 0.000000 0.698607
#
# Coordination Sequence:
#
# PCOD9154926 Si02
#       8
#     4   4   4   4   4   4   4   4
#     4   8  13  22  38  57  72  88 115 148 175 201
#     4   9  14  18  23  33  49  69  97 131 162 190
#     4   9  17  28  40  54  73  95 117 142 174 210
#     4   8  14  21  28  39  55  75 100 132 166 197
#     4   9  14  19  25  33  48  71  98 127 161 196
#     4   8  13  19  27  38  53  75 102 132 164 197
#     4   8  13  22  34  47  64  86 111 139 173 209
#     4   9  15  23  35  50  66  84 110 143 174 203
#
# _framework density 26.680726
#
# number of rings (size 3 to 8) (size 9 to 14) (size 15 to 20)
#    0.000    3.500    0.000    2.625    0.000    1.750 
#    0.000    0.000    0.000    6.000    0.000    0.000 
#    0.000    0.000    0.000    0.000    0.000    1.250 
#
# Total GULP energy -178344.465755 kJ/mol
# GULP energy per Si atom -5573.264555 kJ/mol
# Density = 2.662000 g / cm^3
# Si number density = 26.680726 Si / 1000 Ang^3
#
#
#
# Elastic Constant Matrix: (Units=GPa)
#
#
# Indices 1 2 3 4 5 6 
#
# 1 111.5754 7.1084 31.7311 0.0000 32.6896 0.0000
# 2 7.1084 90.0710 10.0224 0.0000 -1.2630 0.0000
# 3 31.7311 10.0224 337.2553 0.0000 42.6935 0.0000
# 4 0.0000 0.0000 0.0000 17.0543 0.0000 -2.8640
# 5 32.6896 -1.2630 42.6935 0.0000 39.2800 0.0000
# 6 0.0000 0.0000 0.0000 -2.8640 0.0000 10.1163
#
#
#
# Elastic Compliance Matrix: (Units=1/GPa)
#
#
# Indices 1 2 3 4 5 6 
#
# 1 0.011969 -0.001110 0.000200 0.000000 -0.010214 0.000000
# 2 -0.001110 0.011266 -0.000456 0.000000 0.001781 0.000000
# 3 0.000200 -0.000456 0.003459 0.000000 -0.003940 0.000000
# 4 0.000000 0.000000 0.000000 0.061563 0.000000 0.017429
# 5 -0.010214 0.001781 -0.003940 0.000000 0.038298 0.000000
# 6 0.000000 0.000000 0.000000 0.017429 0.000000 0.103784
#
#
# Mechanical properties :
#
#
# Convention : Reuss Voigt Hill
#
# Bulk Modulus (GPa) = 41.73446 70.73616 56.23531
# Shear Modulus (GPa) = 20.74195 45.95946 33.35070
#
# Velocity S-wave (km/s) = 2.79124 4.15489 3.53936
# Velocity P-wave (km/s) = 5.10531 7.04181 6.15025
#
# Compressibility (1/GPa) = 0.02396102
#
# Stress axis : x y z
#
# Youngs Moduli (GPa) = 83.55032 88.76534 289.13021
#
# Poissons Ratio (x) = 0.09853 -0.05778
# Poissons Ratio (y) = 0.09274 0.13181
# Poissons Ratio (z) = -0.01670 0.04047
#
# Static dielectric constant tensor:
#      x y z
#    x 1.551220 0.000000 0.042090 
#    y 0.000000 1.975420 0.000000 
#    z 0.042090 0.000000 2.304450 
# 
# From -- ./inp_files/83218.got.cif
#   From: 2010.05.17/outbox.cif.g08.bks.cpg/sg10_42_cif.got.tgz:83218.got - 2010.06.03 11:33:40.
