data_PCOD9154504
_publ_section_title
;
Structure prediction by ZEFSAII (Michael W. Deem and Ramdas Pophale) SiO2 
 PCOD9154504
Probable space group: P 2/M
;
_chemical_formula_sum "Si O2"
_cell_formula_units_Z 20
_cell_length_a 9.488847
_cell_length_b 23.582988
_cell_length_c 8.047949
_cell_angle_alpha 90.000000
_cell_angle_beta 31.801538
_cell_angle_gamma 90.000000
_cell_volume 949.053022
_symmetry_space_group_name_H-M "P 2/M"
_symmetry_group_IT_number 10
_symmetry_cell_setting 'monoclinic'
loop_
_space_group_symop_operation_xyz
x,y,z
-x,y,-z
-x,-y,-z
x,-y,z
loop_
_atom_site_type_symbol
_atom_site_label
_atom_site_fract_x
_atom_site_fract_y
_atom_site_fract_z
Si Si1 0.883164 0.433838 0.931364
Si Si2 0.747648 0.062307 0.874685
Si Si3 0.109054 0.818259 0.201672
Si Si4 0.621689 0.370910 0.694517
Si Si5 0.388492 0.246123 0.425802
O O1 0.833389 0.500000 0.946502
O O2 0.112509 0.408428 0.583739
O O3 0.000000 0.428527 0.000000
O O4 0.610670 0.399304 0.183278
O O5 0.801348 0.117524 0.931149
O O6 0.000000 0.058053 0.500000
O O7 0.708427 0.000000 0.993585
O O8 0.500000 0.073748 0.000000
O O9 0.000000 0.817967 0.500000
O O10 0.868737 0.794075 0.332341
O O11 0.368471 0.779032 0.925878
O O12 0.686302 0.308298 0.563936
O O13 0.500000 0.367867 0.000000
O O14 0.500000 0.249330 0.500000
#
# Coordination Sequence:
#
# PCOD9154504 Si02
#       5
#     4   4   4   4   4
#     4  11  24  43  66  92 124 160 196 239 298 363
#     4   9  17  31  55  88 120 151 193 246 298 347
#     4  11  21  38  62  89 118 153 202 252 295 347
#     4  12  25  42  64  91 121 156 203 252 297 348
#     4  12  25  41  60  85 122 162 199 243 303 365
#
# _framework density 21.073637000000002
#
# number of rings (size 3 to 8) (size 9 to 14) (size 15 to 20)
#    0.000    1.000    0.000    9.000    0.000    4.000 
#    0.000    0.000    0.000    3.600    0.000    0.000 
#    0.000    0.000    0.000    0.000    0.000    0.000 
#
# Total GULP energy -111895.524747 kJ/mol
# GULP energy per Si atom -5594.776237 kJ/mol
# Density = 2.102567 g / cm^3
# Si number density = 21.073637 Si / 1000 Ang^3
#
#
#
# Elastic Constant Matrix: (Units=GPa)
#
#
# Indices 1 2 3 4 5 6 
#
# 1 60.3188 36.2668 12.0907 0.0000 -3.0016 0.0000
# 2 36.2668 137.2404 19.5468 0.0000 -3.2450 0.0000
# 3 12.0907 19.5468 85.1023 0.0000 -22.9932 0.0000
# 4 0.0000 0.0000 0.0000 -49.1784 0.0000 -51.4173
# 5 -3.0016 -3.2450 -22.9932 0.0000 35.5907 0.0000
# 6 0.0000 0.0000 0.0000 -51.4173 0.0000 21.3437
#
#
#
# Elastic Compliance Matrix: (Units=1/GPa)
#
#
# Indices 1 2 3 4 5 6 
#
# 1 0.019940 -0.005033 -0.001631 0.000000 0.000169 0.000000
# 2 -0.005033 0.008811 -0.001462 0.000000 -0.000565 0.000000
# 3 -0.001631 -0.001462 0.014834 0.000000 0.009313 0.000000
# 4 0.000000 0.000000 0.000000 -0.005779 0.000000 -0.013921
# 5 0.000169 -0.000565 0.009313 0.000000 0.034076 0.000000
# 6 0.000000 0.000000 0.000000 -0.013921 0.000000 0.013315
#
#
# Mechanical properties :
#
#
# Convention : Reuss Voigt Hill
#
# Bulk Modulus (GPa) = 36.58458 46.49668 41.54063
# Shear Modulus (GPa) = 45.22391 15.86837 30.54614
#
# Velocity S-wave (km/s) = 4.63751 2.74705 3.81135
# Velocity P-wave (km/s) = 6.78774 5.67217 6.25488
#
# Compressibility (1/GPa) = 0.02733392
#
# Stress axis : x y z
#
# Youngs Moduli (GPa) = 50.15034 113.49096 67.41207
#
# Poissons Ratio (x) = 0.57120 0.10997
# Poissons Ratio (y) = 0.25241 0.09852
# Poissons Ratio (z) = 0.08181 0.16587
#
# Static dielectric constant tensor:
#      x y z
#    x 1.755100 0.000000 0.023950 
#    y 0.000000 1.781800 0.000000 
#    z 0.023950 0.000000 1.729090 
# 
# From -- ./inp_files/20599.got.cif
#   From: 2010.05.17/outbox.cif.g08.bks.cpg/sg10_11_cif.got.tgz:20599.got - 2010.06.03 11:33:40.
