data_PCOD9154551
_publ_section_title
;
Structure prediction by ZEFSAII (Michael W. Deem and Ramdas Pophale) SiO2 
 PCOD9154551
Probable space group: P 2/M
;
_chemical_formula_sum "Si O2"
_cell_formula_units_Z 24
_cell_length_a 15.365500
_cell_length_b 23.097446
_cell_length_c 13.509250
_cell_angle_alpha 90.000000
_cell_angle_beta 160.693221
_cell_angle_gamma 90.000000
_cell_volume 1585.181422
_symmetry_space_group_name_H-M "P 2/M"
_symmetry_group_IT_number 10
_symmetry_cell_setting 'monoclinic'
loop_
_space_group_symop_operation_xyz
x,y,z
-x,y,-z
-x,-y,-z
x,-y,z
loop_
_atom_site_type_symbol
_atom_site_label
_atom_site_fract_x
_atom_site_fract_y
_atom_site_fract_z
Si Si1 0.967352 0.375599 0.583312
Si Si2 0.716518 0.935651 0.146165
Si Si3 0.517945 0.569552 0.225633
Si Si4 0.035183 0.757893 0.657181
Si Si5 0.531100 0.820571 0.153746
Si Si6 0.279483 0.570442 0.340824
O O1 0.968797 0.307798 0.612527
O O2 0.000000 0.379706 0.500000
O O3 0.700168 0.404552 0.334914
O O4 0.221581 0.407028 0.901961
O O5 0.000000 0.919994 0.500000
O O6 0.748102 0.000000 0.134416
O O7 0.500000 0.941498 0.000000
O O8 0.592050 0.883036 0.950288
O O9 0.514369 0.500000 0.215185
O O10 0.649434 0.587044 0.471257
O O11 0.000000 0.762452 0.500000
O O12 0.833608 0.802769 0.491884
O O13 0.338797 0.774086 0.997309
O O14 0.500000 0.817830 0.000000
O O15 0.500000 0.589044 0.500000
O O16 0.275545 0.500000 0.336542
O O17 0.000000 0.590575 0.000000
#
# Coordination Sequence:
#
# PCOD9154551 Si02
#       6
#     4   4   4   4   4   4
#     4  11  22  34  45  61  86 114 144 177 208 244
#     4   9  15  21  30  47  69  89 112 151 206 255
#     4  11  22  34  49  67  85 108 136 167 214 266
#     4   9  17  27  39  51  67  96 134 169 198 226
#     4   9  14  23  36  49  64  89 125 162 200 239
#     4   9  17  31  50  69  86 102 124 159 204 255
#
# _framework density 15.140222
#
# number of rings (size 3 to 8) (size 9 to 14) (size 15 to 20)
#    0.000    2.333    0.000    5.500    0.000    7.333 
#    0.000    0.000    0.000    0.000    0.000    0.000 
#    0.000    0.000    0.000    0.000    0.000    0.000 
#
# Total GULP energy -133604.280985 kJ/mol
# GULP energy per Si atom -5566.845041 kJ/mol
# Density = 1.510576 g / cm^3
# Si number density = 15.140222 Si / 1000 Ang^3
#
#
#
# Elastic Constant Matrix: (Units=GPa)
#
#
# Indices 1 2 3 4 5 6 
#
# 1 34.9726 9.5548 11.7946 0.0000 12.0916 0.0000
# 2 9.5548 75.6380 13.5892 0.0000 8.3343 0.0000
# 3 11.7946 13.5892 50.4693 0.0000 19.2183 0.0000
# 4 0.0000 0.0000 0.0000 19.1552 0.0000 13.9998
# 5 12.0916 8.3343 19.2183 0.0000 29.0820 0.0000
# 6 0.0000 0.0000 0.0000 13.9998 0.0000 7.7713
#
#
#
# Elastic Compliance Matrix: (Units=1/GPa)
#
#
# Indices 1 2 3 4 5 6 
#
# 1 0.034278 -0.002529 -0.002911 0.000000 -0.011604 0.000000
# 2 -0.002529 0.014169 -0.002777 0.000000 -0.001174 0.000000
# 3 -0.002911 -0.002777 0.027364 0.000000 -0.016077 0.000000
# 4 0.000000 0.000000 0.000000 -0.164878 0.000000 0.297024
# 5 -0.011604 -0.001174 -0.016077 0.000000 0.050170 0.000000
# 6 0.000000 0.000000 0.000000 0.297024 0.000000 -0.406402
#
#
# Mechanical properties :
#
#
# Convention : Reuss Voigt Hill
#
# Bulk Modulus (GPa) = 16.84155 25.66190 21.25173
# Shear Modulus (GPa) = -12.22278 19.61112 3.69417
#
# Velocity S-wave (km/s) = -2.84439 3.60293 1.56373
# Velocity P-wave (km/s) = 0.60035 5.85614 4.16262
#
# Compressibility (1/GPa) = 0.05937696
#
# Stress axis : x y z
#
# Youngs Moduli (GPa) = 29.17291 70.57879 36.54428
#
# Poissons Ratio (x) = 0.17846 0.10640
# Poissons Ratio (y) = 0.07376 0.10149
# Poissons Ratio (z) = 0.08494 0.19600
#
# Static dielectric constant tensor:
#      x y z
#    x 1.486810 0.000000 0.015040 
#    y 0.000000 1.557740 0.000000 
#    z 0.015040 0.000000 1.499450 
# 
# From -- ./inp_files/52080.got.cif
#   From: 2010.05.17/outbox.cif.g08.bks.cpg/sg10_27_cif.got.tgz:52080.got - 2010.06.03 11:33:40.
