data_PCOD9154556
_publ_section_title
;
Structure prediction by ZEFSAII (Michael W. Deem and Ramdas Pophale) SiO2 
 PCOD9154556
Probable space group: P 2/M
;
_chemical_formula_sum "Si O2"
_cell_formula_units_Z 28
_cell_length_a 7.515880
_cell_length_b 7.589634
_cell_length_c 20.584783
_cell_angle_alpha 90.000000
_cell_angle_beta 87.493322
_cell_angle_gamma 90.000000
_cell_volume 1173.089646
_symmetry_space_group_name_H-M "P 2/M"
_symmetry_group_IT_number 10
_symmetry_cell_setting 'monoclinic'
loop_
_space_group_symop_operation_xyz
x,y,z
-x,y,-z
-x,-y,-z
x,-y,z
loop_
_atom_site_type_symbol
_atom_site_label
_atom_site_fract_x
_atom_site_fract_y
_atom_site_fract_z
Si Si1 0.285996 0.212203 0.177471
Si Si2 0.109797 0.784397 0.856336
Si Si3 0.671208 0.790904 0.417249
Si Si4 0.234592 0.804559 0.720911
Si Si5 0.424855 0.784453 0.932255
Si Si6 0.750841 0.793461 0.552274
Si Si7 0.862861 0.303711 0.692283
O O1 0.441379 0.271519 0.127231
O O2 0.293663 0.267785 0.253257
O O3 0.093668 0.271763 0.151530
O O4 0.287474 0.000000 0.177156
O O5 0.228232 0.725574 0.792378
O O6 0.222898 0.732406 0.917430
O O7 0.106701 0.000000 0.854192
O O8 0.697478 0.713355 0.345475
O O9 0.779271 0.722367 0.478437
O O10 0.462322 0.781469 0.435092
O O11 0.717110 0.000000 0.412257
O O12 0.024139 0.820823 0.708904
O O13 0.318864 0.000000 0.724270
O O14 0.426684 0.000000 0.933199
O O15 0.500000 0.724474 0.000000
O O16 0.825658 0.713297 0.616823
O O17 0.800793 0.000000 0.551465
O O18 0.926322 0.500000 0.704299
#
# Coordination Sequence:
#
# PCOD9154556 Si02
#       7
#     4   4   4   4   4   4   4
#     4   9  18  33  53  74 101 138 173 212 259 302
#     4   8  15  27  45  73 105 133 166 205 249 303
#     4   8  16  30  52  77  98 126 169 216 256 303
#     4   9  17  32  52  73  96 129 172 213 254 301
#     4   9  17  28  48  82 112 132 161 205 260 314
#     4   9  17  32  52  75 100 129 167 211 260 309
#     4  11  22  34  48  71 101 134 172 214 257 303
#
# _framework density 23.868596
#
# number of rings (size 3 to 8) (size 9 to 14) (size 15 to 20)
#    0.000    3.000    0.000    3.000    2.000    1.143 
#    0.000    8.571    0.000    0.429    0.000    4.000 
#    0.000    0.000    0.000    0.000    0.000    0.000 
#
# Total GULP energy -156139.986908 kJ/mol
# GULP energy per Si atom -5576.428104 kJ/mol
# Density = 2.381427 g / cm^3
# Si number density = 23.868596 Si / 1000 Ang^3
#
#
#
# Elastic Constant Matrix: (Units=GPa)
#
#
# Indices 1 2 3 4 5 6 
#
# 1 55.9789 3.0259 37.2877 0.0000 13.3482 0.0000
# 2 3.0259 67.9958 2.3572 0.0000 3.2384 0.0000
# 3 37.2877 2.3572 81.3776 0.0000 29.6272 0.0000
# 4 0.0000 0.0000 0.0000 -40.9322 0.0000 -11.0636
# 5 13.3482 3.2384 29.6272 0.0000 42.8453 0.0000
# 6 0.0000 0.0000 0.0000 -11.0636 0.0000 -24.2546
#
#
#
# Elastic Compliance Matrix: (Units=1/GPa)
#
#
# Indices 1 2 3 4 5 6 
#
# 1 0.025750 -0.000746 -0.011864 0.000000 0.000238 0.000000
# 2 -0.000746 0.014782 0.000315 0.000000 -0.001103 0.000000
# 3 -0.011864 0.000315 0.021889 0.000000 -0.011464 0.000000
# 4 0.000000 0.000000 0.000000 -0.027866 0.000000 0.012711
# 5 0.000238 -0.001103 -0.011464 0.000000 0.031276 0.000000
# 6 0.000000 0.000000 0.000000 0.012711 0.000000 -0.047027
#
#
# Mechanical properties :
#
#
# Convention : Reuss Voigt Hill
#
# Bulk Modulus (GPa) = 26.43319 32.29932 29.36625
# Shear Modulus (GPa) = 89.28124 6.37712 47.82918
#
# Velocity S-wave (km/s) = 6.12262 1.63633 4.48130
# Velocity P-wave (km/s) = 7.81540 4.13903 6.25348
#
# Compressibility (1/GPa) = 0.03783123
#
# Stress axis : x y z
#
# Youngs Moduli (GPa) = 38.83496 67.65178 45.68519
#
# Poissons Ratio (x) = 0.05047 0.54200
# Poissons Ratio (y) = 0.02897 -0.01440
# Poissons Ratio (z) = 0.46073 -0.02132
#
# Static dielectric constant tensor:
#      x y z
#    x 1.916720 0.000000 -0.017200 
#    y 0.000000 1.910710 0.000000 
#    z -0.017200 0.000000 1.972380 
# 
# From -- ./inp_files/81763.got.cif
#   From: 2010.05.17/outbox.cif.g08.bks.cpg/sg10_41_cif.got.tgz:81763.got - 2010.06.03 11:33:40.
