data_PCOD9154605
_publ_section_title
;
Structure prediction by ZEFSAII (Michael W. Deem and Ramdas Pophale) SiO2 
 PCOD9154605
Probable space group: P 2/M
;
_chemical_formula_sum "Si O2"
_cell_formula_units_Z 28
_cell_length_a 21.999469
_cell_length_b 7.663281
_cell_length_c 19.377769
_cell_angle_alpha 90.000000
_cell_angle_beta 19.699778
_cell_angle_gamma 90.000000
_cell_volume 1101.231607
_symmetry_space_group_name_H-M "P 2/M"
_symmetry_group_IT_number 10
_symmetry_cell_setting 'monoclinic'
loop_
_space_group_symop_operation_xyz
x,y,z
-x,y,-z
-x,-y,-z
x,-y,z
loop_
_atom_site_type_symbol
_atom_site_label
_atom_site_fract_x
_atom_site_fract_y
_atom_site_fract_z
Si Si1 0.169414 0.712401 0.226221
Si Si2 0.173325 0.298298 0.856104
Si Si3 0.137564 0.705173 0.641529
Si Si4 0.744017 0.802813 0.078669
Si Si5 0.451855 0.713415 0.206540
Si Si6 0.221056 0.712460 0.330398
Si Si7 0.369280 0.795737 0.516404
O O1 0.166422 0.500000 0.225614
O O2 0.209023 0.762929 0.263630
O O3 0.964456 0.768839 0.433337
O O4 0.344011 0.771543 0.996971
O O5 0.134923 0.500000 0.915851
O O6 0.220119 0.204409 0.876842
O O7 0.330024 0.290954 0.631461
O O8 0.000000 0.227198 0.000000
O O9 0.165630 0.500000 0.614516
O O10 0.290027 0.777577 0.427502
O O11 0.194747 0.777198 0.654740
O O12 0.927066 0.729461 0.850226
O O13 0.544005 0.720815 0.289057
O O14 0.731457 0.000000 0.067905
O O15 0.452588 0.500000 0.207819
O O16 0.390491 0.764544 0.194903
O O17 0.221472 0.500000 0.328897
O O18 0.402264 0.000000 0.493672
#
# Coordination Sequence:
#
# PCOD9154605 Si02
#       7
#     4   4   4   4   4   4   4
#     4   8  13  22  38  61  91 130 173 213 257 314
#     4  11  22  37  62  93 118 139 170 221 283 333
#     4  11  23  37  54  80 112 149 187 228 277 325
#     4  11  24  41  61  83 109 146 188 227 271 324
#     4   9  17  27  41  64  98 137 176 214 261 318
#     4   8  13  22  38  61  91 130 173 213 257 314
#     4  11  24  41  61  83 109 146 188 227 271 324
#
# _framework density 25.426079000000001
#
# number of rings (size 3 to 8) (size 9 to 14) (size 15 to 20)
#    0.000    2.143    1.429    3.429    0.000    7.429 
#    0.000    2.857    0.000    0.000    0.000    0.000 
#    0.000    9.143    0.000   25.143    0.000   20.571 
#
# Total GULP energy -156500.208500 kJ/mol
# GULP energy per Si atom -5589.293161 kJ/mol
# Density = 2.536821 g / cm^3
# Si number density = 25.426079 Si / 1000 Ang^3
#
#
#
# Elastic Constant Matrix: (Units=GPa)
#
#
# Indices 1 2 3 4 5 6 
#
# 1 40.3362 -2.1349 13.9129 0.0000 -10.8697 0.0000
# 2 -2.1349 55.7716 0.3604 0.0000 -1.1705 0.0000
# 3 13.9129 0.3604 172.6814 0.0000 -10.4107 0.0000
# 4 0.0000 0.0000 0.0000 12.9274 0.0000 -10.0365
# 5 -10.8697 -1.1705 -10.4107 0.0000 44.9918 0.0000
# 6 0.0000 0.0000 0.0000 -10.0365 0.0000 -3.9050
#
#
#
# Elastic Compliance Matrix: (Units=1/GPa)
#
#
# Indices 1 2 3 4 5 6 
#
# 1 0.027143 0.001180 -0.001818 0.000000 0.006168 0.000000
# 2 0.001180 0.017991 -0.000088 0.000000 0.000733 0.000000
# 3 -0.001818 -0.000088 0.005995 0.000000 0.000946 0.000000
# 4 0.000000 0.000000 0.000000 0.025825 0.000000 -0.066373
# 5 0.006168 0.000733 0.000946 0.000000 0.023954 0.000000
# 6 0.000000 0.000000 0.000000 -0.066373 0.000000 -0.085491
#
#
# Mechanical properties :
#
#
# Convention : Reuss Voigt Hill
#
# Bulk Modulus (GPa) = 20.12982 32.56288 26.34635
# Shear Modulus (GPa) = 149.57467 27.91288 88.74377
#
# Velocity S-wave (km/s) = 7.67821 3.31691 5.91426
# Velocity P-wave (km/s) = 9.30273 5.24441 7.55131
#
# Compressibility (1/GPa) = 0.04967755
#
# Stress axis : x y z
#
# Youngs Moduli (GPa) = 36.84184 55.58206 166.81537
#
# Poissons Ratio (x) = -0.06560 0.30319
# Poissons Ratio (y) = -0.04348 0.01476
# Poissons Ratio (z) = 0.06696 0.00492
#
# Static dielectric constant tensor:
#      x y z
#    x 1.974620 0.000000 0.031260 
#    y 0.000000 1.946280 0.000000 
#    z 0.031260 0.000000 2.081700 
# 
# From -- ./inp_files/86471.got.cif
#   From: 2010.05.17/outbox.cif.g08.bks.cpg/sg10_44_cif.got.tgz:86471.got - 2010.06.03 11:33:40.
