data_PCOD9154674
_publ_section_title
;
Structure prediction by ZEFSAII (Michael W. Deem and Ramdas Pophale) SiO2 
 PCOD9154674
Probable space group: P 2/M
;
_chemical_formula_sum "Si O2"
_cell_formula_units_Z 28
_cell_length_a 9.632099
_cell_length_b 8.918432
_cell_length_c 26.286637
_cell_angle_alpha 90.000000
_cell_angle_beta 139.586062
_cell_angle_gamma 90.000000
_cell_volume 1463.942212
_symmetry_space_group_name_H-M "P 2/M"
_symmetry_group_IT_number 10
_symmetry_cell_setting 'monoclinic'
loop_
_space_group_symop_operation_xyz
x,y,z
-x,y,-z
-x,-y,-z
x,-y,z
loop_
_atom_site_type_symbol
_atom_site_label
_atom_site_fract_x
_atom_site_fract_y
_atom_site_fract_z
Si Si1 0.346566 0.175314 0.005212
Si Si2 0.180829 0.675432 0.679379
Si Si3 0.405007 0.177661 0.241052
Si Si4 0.275478 0.317205 0.414102
Si Si5 0.157079 0.680577 0.266286
Si Si6 0.684161 0.674240 0.164792
Si Si7 0.932280 0.321922 0.923843
O O1 0.490242 0.222860 0.093412
O O2 0.289136 0.000000 0.990665
O O3 0.500000 0.202781 0.000000
O O4 0.133699 0.274001 0.945618
O O5 0.185246 0.500000 0.665716
O O6 0.351244 0.765692 0.694165
O O7 0.258832 0.683184 0.759908
O O8 0.935130 0.729876 0.613057
O O9 0.284644 0.242146 0.256811
O O10 0.275584 0.242281 0.156485
O O11 0.395451 0.000000 0.238068
O O12 0.500000 0.266864 0.500000
O O13 0.271205 0.500000 0.413669
O O14 0.246052 0.275148 0.346821
O O15 0.175527 0.500000 0.266646
O O16 0.903465 0.715261 0.196681
O O17 0.630006 0.500000 0.138433
O O18 0.897947 0.500000 0.913107
O O19 0.000000 0.278631 0.000000
#
# Coordination Sequence:
#
# PCOD9154674 Si02
#       7
#     4   4   4   4   4   4   4
#     4  11  23  35  49  74 105 136 173 219 269 318
#     4   9  18  34  56  80 106 136 172 215 263 316
#     4  12  24  36  52  77 110 145 182 221 262 316
#     4   8  15  32  61  92 113 133 173 225 267 309
#     4   9  18  34  57  82 109 142 178 220 270 318
#     4   9  18  33  53  75  98 132 178 221 264 317
#     4  11  24  40  57  76 101 138 183 229 276 321
#
# _framework density 19.126438
#
# number of rings (size 3 to 8) (size 9 to 14) (size 15 to 20)
#    0.000    2.143    0.000    5.571    0.000    9.143 
#    0.000    2.857    0.000    6.000    0.000    0.000 
#    0.000    0.000    0.000    0.000    0.000    0.000 
#
# Total GULP energy -156401.158525 kJ/mol
# GULP energy per Si atom -5585.755662 kJ/mol
# Density = 1.908291 g / cm^3
# Si number density = 19.126438 Si / 1000 Ang^3
#
#
#
# Elastic Constant Matrix: (Units=GPa)
#
#
# Indices 1 2 3 4 5 6 
#
# 1 100.7534 36.4105 23.6604 0.0000 20.5955 0.0000
# 2 36.4105 34.9378 20.0946 0.0000 10.6840 0.0000
# 3 23.6604 20.0946 81.5231 0.0000 21.4774 0.0000
# 4 0.0000 0.0000 0.0000 -20.1403 0.0000 36.6690
# 5 20.5955 10.6840 21.4774 0.0000 25.7265 0.0000
# 6 0.0000 0.0000 0.0000 36.6690 0.0000 -81.6885
#
#
#
# Elastic Compliance Matrix: (Units=1/GPa)
#
#
# Indices 1 2 3 4 5 6 
#
# 1 0.017069 -0.015982 0.001073 0.000000 -0.007923 0.000000
# 2 -0.015982 0.050008 -0.007163 0.000000 -0.001993 0.000000
# 3 0.001073 -0.007163 0.016875 0.000000 -0.011972 0.000000
# 4 0.000000 0.000000 0.000000 -0.271732 0.000000 -0.121977
# 5 -0.007923 -0.001993 -0.011972 0.000000 0.056035 0.000000
# 6 0.000000 0.000000 0.000000 -0.121977 0.000000 -0.066996
#
#
# Mechanical properties :
#
#
# Convention : Reuss Voigt Hill
#
# Bulk Modulus (GPa) = 25.12152 41.94948 33.53550
# Shear Modulus (GPa) = -35.37859 -6.08389 -20.73124
#
# Velocity S-wave (km/s) = -4.30551 -1.78544 -3.29584
# Velocity P-wave (km/s) = 3.39905 4.21070 1.75733
#
# Compressibility (1/GPa) = 0.03980651
#
# Stress axis : x y z
#
# Youngs Moduli (GPa) = 58.58740 19.99700 59.26066
#
# Poissons Ratio (x) = 0.31960 -0.06358
# Poissons Ratio (y) = 0.93636 0.42447
# Poissons Ratio (z) = -0.06286 0.14323
#
# Static dielectric constant tensor:
#      x y z
#    x 1.691270 0.000000 0.003650 
#    y 0.000000 1.637080 0.000000 
#    z 0.003650 0.000000 1.664560 
# 
# From -- ./inp_files/37977.got.cif
#   From: 2010.05.17/outbox.cif.g08.bks.cpg/sg10_19_cif.got.tgz:37977.got - 2010.06.03 11:33:40.
