data_PCOD9154225
_publ_section_title
;
Structure prediction by ZEFSAII (Michael W. Deem and Ramdas Pophale) SiO2 
 PCOD9154225
Probable space group: P 2/M
;
_chemical_formula_sum "Si O2"
_cell_formula_units_Z 28
_cell_length_a 9.966590
_cell_length_b 11.720093
_cell_length_c 15.377623
_cell_angle_alpha 90.000000
_cell_angle_beta 64.434233
_cell_angle_gamma 90.000000
_cell_volume 1620.380405
_symmetry_space_group_name_H-M "P 2/M"
_symmetry_group_IT_number 10
_symmetry_cell_setting 'monoclinic'
loop_
_space_group_symop_operation_xyz
x,y,z
-x,y,-z
-x,-y,-z
x,-y,z
loop_
_atom_site_type_symbol
_atom_site_label
_atom_site_fract_x
_atom_site_fract_y
_atom_site_fract_z
Si Si1 0.308007 0.713198 0.308373
Si Si2 0.169429 0.640616 0.187094
Si Si3 0.164799 0.709902 0.663043
Si Si4 0.353842 0.362582 0.768459
Si Si5 0.164986 0.133538 0.494252
Si Si6 0.840386 0.637451 0.011180
Si Si7 0.672786 0.500000 0.471056
Si Si8 0.157202 0.500000 0.410969
O O1 0.280556 0.721290 0.212527
O O2 0.472628 0.666710 0.278495
O O3 0.270410 0.806208 0.392457
O O4 0.179935 0.616911 0.356164
O O5 0.191279 0.500000 0.189459
O O6 0.999305 0.673694 0.259502
O O7 0.190162 0.669351 0.079440
O O8 0.267950 0.712434 0.720207
O O9 0.165655 0.810078 0.590459
O O10 0.241880 0.607999 0.588951
O O11 0.332335 0.500000 0.756578
O O12 0.282856 0.336479 0.882116
O O13 0.000000 0.146748 0.500000
O O14 0.200090 0.000000 0.491083
O O15 0.851441 0.500000 0.006789
O O16 0.000000 0.681660 0.000000
O O17 0.500000 0.500000 0.500000
O O18 0.704064 0.500000 0.563271
O O19 0.000000 0.500000 0.500000
#
# Coordination Sequence:
#
# PCOD9154225 Si02
#       8
#     4   4   4   4   4   4   2   2
#     4  12  22  35  54  84 113 149 187 229 280 331
#     4  11  19  32  54  84 113 148 190 224 270 338
#     4  12  21  33  57  81 108 151 190 222 272 336
#     4  11  21  35  54  85 124 153 179 223 281 334
#     4  11  25  42  58  80 110 147 194 240 281 330
#     4   9  18  32  50  79 119 155 184 218 268 337
#     4  12  22  30  50  81 116 148 180 221 276 327
#     4  12  20  32  50  75 112 146 180 227 272 327
#
# _framework density 17.279893999999999
#
# number of rings (size 3 to 8) (size 9 to 14) (size 15 to 20)
#    0.000    0.857    7.143    2.143    0.000    0.571 
#    0.000    3.571    0.000    0.000    0.000    6.000 
#    0.000    0.000    0.000    0.000    0.000    0.000 
#
# Total GULP energy -155954.988990 kJ/mol
# GULP energy per Si atom -5569.821035 kJ/mol
# Density = 1.724056 g / cm^3
# Si number density = 17.279894 Si / 1000 Ang^3
#
#
#
# Elastic Constant Matrix: (Units=GPa)
#
#
# Indices 1 2 3 4 5 6 
#
# 1 106.2583 22.0632 54.1513 0.0000 9.2152 0.0000
# 2 22.0632 68.6459 50.9902 0.0000 2.1999 0.0000
# 3 54.1513 50.9902 136.3927 0.0000 15.9946 0.0000
# 4 0.0000 0.0000 0.0000 9.2116 0.0000 1.3638
# 5 9.2152 2.1999 15.9946 0.0000 36.9079 0.0000
# 6 0.0000 0.0000 0.0000 1.3638 0.0000 25.9798
#
#
#
# Elastic Compliance Matrix: (Units=1/GPa)
#
#
# Indices 1 2 3 4 5 6 
#
# 1 0.011844 -0.000513 -0.004391 0.000000 -0.001024 0.000000
# 2 -0.000513 0.020358 -0.007670 0.000000 0.002238 0.000000
# 3 -0.004391 -0.007670 0.012390 0.000000 -0.003816 0.000000
# 4 0.000000 0.000000 0.000000 0.109410 0.000000 -0.005743
# 5 -0.001024 0.002238 -0.003816 0.000000 0.028870 0.000000
# 6 0.000000 0.000000 0.000000 -0.005743 0.000000 0.038793
#
#
# Mechanical properties :
#
#
# Convention : Reuss Voigt Hill
#
# Bulk Modulus (GPa) = 51.42574 62.85626 57.14100
# Shear Modulus (GPa) = 19.74012 26.69268 23.21640
#
# Velocity S-wave (km/s) = 3.38357 3.93456 3.66942
# Velocity P-wave (km/s) = 6.71489 7.55615 7.14791
#
# Compressibility (1/GPa) = 0.01944552
#
# Stress axis : x y z
#
# Youngs Moduli (GPa) = 84.43255 49.12192 80.71210
#
# Poissons Ratio (x) = 0.02518 0.35437
# Poissons Ratio (y) = 0.04327 0.61903
# Poissons Ratio (z) = 0.37071 0.37675
#
# Static dielectric constant tensor:
#      x y z
#    x 1.654210 0.000000 0.098490 
#    y 0.000000 1.555810 0.000000 
#    z 0.098490 0.000000 1.735720 
# 
# From -- ./inp_files/60944.got.cif
#   From: 2010.05.17/outbox.cif.g08.bks.cpg/sg10_31_cif.got.tgz:60944.got - 2010.06.03 11:33:40.
