data_PCOD9154436
_publ_section_title
;
Structure prediction by ZEFSAII (Michael W. Deem and Ramdas Pophale) SiO2 
 PCOD9154436
Probable space group: P 2/M
;
_chemical_formula_sum "Si O2"
_cell_formula_units_Z 16
_cell_length_a 7.778580
_cell_length_b 20.419874
_cell_length_c 9.250162
_cell_angle_alpha 90.000000
_cell_angle_beta 146.778938
_cell_angle_gamma 90.000000
_cell_volume 804.972158
_symmetry_space_group_name_H-M "P 2/M"
_symmetry_group_IT_number 10
_symmetry_cell_setting 'monoclinic'
loop_
_space_group_symop_operation_xyz
x,y,z
-x,y,-z
-x,-y,-z
x,-y,z
loop_
_atom_site_type_symbol
_atom_site_label
_atom_site_fract_x
_atom_site_fract_y
_atom_site_fract_z
Si Si1 0.187255 0.351470 0.877764
Si Si2 0.124009 0.070178 0.750995
Si Si3 0.125611 0.211756 0.752160
Si Si4 0.570798 0.574792 0.379456
O O1 0.059254 0.277083 0.796173
O O2 0.916109 0.394157 0.613220
O O3 0.500000 0.350169 0.000000
O O4 0.312013 0.383178 0.112907
O O5 0.020897 0.140869 0.739856
O O6 0.000000 0.070303 0.500000
O O7 0.029633 0.000000 0.752842
O O8 0.500000 0.069858 0.000000
O O9 0.000000 0.220729 0.500000
O O10 0.500000 0.207677 0.000000
O O11 0.500000 0.574517 0.500000
O O12 0.562934 0.500000 0.319905
#
# Coordination Sequence:
#
# PCOD9154436 Si02
#       4
#     4   4   4   4
#     4  11  21  35  56  80 103 130 167 209 254 301
#     4   8  13  21  35  57  89 128 159 184 228 288
#     4   9  16  27  43  67  99 128 157 199 246 286
#     4  11  24  40  55  73 101 134 167 208 256 304
#
# _framework density 19.876463000000001
#
# number of rings (size 3 to 8) (size 9 to 14) (size 15 to 20)
#    0.000    2.250    0.000    5.250    0.000    5.000 
#    0.000    0.000    0.000    0.000    0.000    0.000 
#    0.000    6.000    0.000    0.000    0.000    0.000 
#
# Total GULP energy -89132.801494 kJ/mol
# GULP energy per Si atom -5570.800093 kJ/mol
# Density = 1.983122 g / cm^3
# Si number density = 19.876463 Si / 1000 Ang^3
#
#
#
# Elastic Constant Matrix: (Units=GPa)
#
#
# Indices 1 2 3 4 5 6 
#
# 1 18.7164 16.5969 1.4402 0.0000 4.3211 0.0000
# 2 16.5969 242.1297 54.9243 0.0000 -13.8359 0.0000
# 3 1.4402 54.9243 151.3330 0.0000 1.0841 0.0000
# 4 0.0000 0.0000 0.0000 32.6129 0.0000 -4.6564
# 5 4.3211 -13.8359 1.0841 0.0000 19.0828 0.0000
# 6 0.0000 0.0000 0.0000 -4.6564 0.0000 -24.3434
#
#
#
# Elastic Compliance Matrix: (Units=1/GPa)
#
#
# Indices 1 2 3 4 5 6 
#
# 1 0.062618 -0.005709 0.001608 0.000000 -0.018410 0.000000
# 2 -0.005709 0.005247 -0.001887 0.000000 0.005204 0.000000
# 3 0.001608 -0.001887 0.007293 0.000000 -0.002147 0.000000
# 4 0.000000 0.000000 0.000000 0.029848 0.000000 -0.005709
# 5 -0.018410 0.005204 -0.002147 0.000000 0.060467 0.000000
# 6 0.000000 0.000000 0.000000 -0.005709 0.000000 -0.039987
#
#
# Mechanical properties :
#
#
# Convention : Reuss Voigt Hill
#
# Bulk Modulus (GPa) = 15.82739 62.01131 38.91935
# Shear Modulus (GPa) = 31.54123 28.08500 29.81311
#
# Velocity S-wave (km/s) = 3.98787 3.76304 3.87708
# Velocity P-wave (km/s) = 5.40225 7.08143 6.29805
#
# Compressibility (1/GPa) = 0.06318161
#
# Stress axis : x y z
#
# Youngs Moduli (GPa) = 15.96980 190.59221 137.11862
#
# Poissons Ratio (x) = 1.08807 -0.22048
# Poissons Ratio (y) = 0.09117 0.25877
# Poissons Ratio (z) = -0.02568 0.35969
#
# Static dielectric constant tensor:
#      x y z
#    x 1.680600 0.000000 0.005700 
#    y 0.000000 1.832510 0.000000 
#    z 0.005700 0.000000 1.656510 
# 
# From -- ./inp_files/4369.got.cif
#   From: 2010.05.17/outbox.cif.g08.bks.cpg/sg10_3_cif.got.tgz:4369.got - 2010.06.03 11:33:40.
