data_PCOD9154851
_publ_section_title
;
Structure prediction by ZEFSAII (Michael W. Deem and Ramdas Pophale) SiO2 
 PCOD9154851
Probable space group: P 2/M
;
_chemical_formula_sum "Si O2"
_cell_formula_units_Z 16
_cell_length_a 13.884539
_cell_length_b 7.425105
_cell_length_c 10.316793
_cell_angle_alpha 90.000000
_cell_angle_beta 120.696545
_cell_angle_gamma 90.000000
_cell_volume 914.572571
_symmetry_space_group_name_H-M "P 2/M"
_symmetry_group_IT_number 10
_symmetry_cell_setting 'monoclinic'
loop_
_space_group_symop_operation_xyz
x,y,z
-x,y,-z
-x,-y,-z
x,-y,z
loop_
_atom_site_type_symbol
_atom_site_label
_atom_site_fract_x
_atom_site_fract_y
_atom_site_fract_z
Si Si1 0.265083 0.713759 0.660325
Si Si2 0.755701 0.286063 0.041959
Si Si3 0.937699 0.000000 0.093002
Si Si4 0.490077 0.718750 0.143056
Si Si5 0.092084 0.000000 0.449307
O O1 0.253845 0.500000 0.630059
O O2 0.250545 0.742652 0.805946
O O3 0.392459 0.771659 0.712229
O O4 0.172071 0.828011 0.523919
O O5 0.769494 0.500000 0.031421
O O6 0.856432 0.171458 0.054940
O O7 0.634528 0.228489 0.900507
O O8 0.027474 0.000000 0.270279
O O9 0.000000 0.000000 0.000000
O O10 0.490317 0.500000 0.142896
O O11 0.500000 0.775773 0.000000
O O12 0.000000 0.000000 0.500000
#
# Coordination Sequence:
#
# PCOD9154851 Si02
#       5
#     4   4   2   4   2
#     4   9  17  31  55  84 109 129 160 218 272 307
#     4   9  17  33  56  79 105 136 170 213 262 308
#     4  12  26  39  49  71 107 146 186 215 243 300
#     4   7  12  25  49  82 108 125 157 208 267 317
#     4  12  22  35  51  77 105 140 182 212 249 310
#
# _framework density 17.494509999999998
#
# number of rings (size 3 to 8) (size 9 to 14) (size 15 to 20)
#    0.000    2.750    2.500    3.000    0.000    3.000 
#    0.000    3.750    0.000    3.000    0.000    5.250 
#    0.000    0.000    0.000    0.000    0.000    0.000 
#
# Total GULP energy -89143.522351 kJ/mol
# GULP energy per Si atom -5571.470147 kJ/mol
# Density = 1.745469 g / cm^3
# Si number density = 17.494510 Si / 1000 Ang^3
#
#
#
# Elastic Constant Matrix: (Units=GPa)
#
#
# Indices 1 2 3 4 5 6 
#
# 1 139.1112 68.3722 89.8524 0.0000 36.9133 0.0000
# 2 68.3722 81.3497 42.8737 0.0000 17.1765 0.0000
# 3 89.8524 42.8737 96.3016 0.0000 29.4056 0.0000
# 4 0.0000 0.0000 0.0000 19.4184 0.0000 19.0855
# 5 36.9133 17.1765 29.4056 0.0000 33.0135 0.0000
# 6 0.0000 0.0000 0.0000 19.0855 0.0000 35.2387
#
#
#
# Elastic Compliance Matrix: (Units=1/GPa)
#
#
# Indices 1 2 3 4 5 6 
#
# 1 0.025057 -0.010890 -0.016079 0.000000 -0.008029 0.000000
# 2 -0.010890 0.020975 0.000600 0.000000 0.000729 0.000000
# 3 -0.016079 0.000600 0.027093 0.000000 -0.006467 0.000000
# 4 0.000000 0.000000 0.000000 0.110112 0.000000 -0.059637
# 5 -0.008029 0.000729 -0.006467 0.000000 0.044649 0.000000
# 6 0.000000 0.000000 0.000000 -0.059637 0.000000 0.060678
#
#
# Mechanical properties :
#
#
# Convention : Reuss Voigt Hill
#
# Bulk Modulus (GPa) = 49.04904 79.88435 64.46670
# Shear Modulus (GPa) = 14.36376 25.24509 19.80442
#
# Velocity S-wave (km/s) = 2.86849 3.80284 3.36822
# Velocity P-wave (km/s) = 6.25050 8.06497 7.21500
#
# Compressibility (1/GPa) = 0.02038776
#
# Stress axis : x y z
#
# Youngs Moduli (GPa) = 39.90928 47.67484 36.90931
#
# Poissons Ratio (x) = 0.51919 0.59345
# Poissons Ratio (y) = 0.43462 -0.02215
# Poissons Ratio (z) = 0.64169 -0.02861
#
# Static dielectric constant tensor:
#      x y z
#    x 1.601430 0.000000 0.041060 
#    y 0.000000 1.628680 0.000000 
#    z 0.041060 0.000000 1.575750 
# 
# From -- ./inp_files/22035.got.cif
#   From: 2010.05.17/outbox.cif.g08.bks.cpg/sg10_12_cif.got.tgz:22035.got - 2010.06.03 11:33:40.
