data_PCOD9154517
_publ_section_title
;
Structure prediction by ZEFSAII (Michael W. Deem and Ramdas Pophale) SiO2 
 PCOD9154517
Probable space group: P 2/M
;
_chemical_formula_sum "Si O2"
_cell_formula_units_Z 28
_cell_length_a 12.310585
_cell_length_b 13.909278
_cell_length_c 10.144868
_cell_angle_alpha 90.000000
_cell_angle_beta 125.766630
_cell_angle_gamma 90.000000
_cell_volume 1409.506301
_symmetry_space_group_name_H-M "P 2/M"
_symmetry_group_IT_number 10
_symmetry_cell_setting 'monoclinic'
loop_
_space_group_symop_operation_xyz
x,y,z
-x,y,-z
-x,-y,-z
x,-y,z
loop_
_atom_site_type_symbol
_atom_site_label
_atom_site_fract_x
_atom_site_fract_y
_atom_site_fract_z
Si Si1 0.495504 0.615201 0.144900
Si Si2 0.860152 0.813286 0.462953
Si Si3 0.840979 0.191750 0.003836
Si Si4 0.129275 0.110119 0.244943
Si Si5 0.788383 0.389925 0.379756
Si Si6 0.803782 0.390776 0.069780
Si Si7 0.340995 0.885632 0.900005
O O1 0.503991 0.500000 0.137352
O O2 0.635732 0.637386 0.312399
O O3 0.346894 0.630561 0.091698
O O4 0.500000 0.656579 0.000000
O O5 0.828619 0.861826 0.578879
O O6 0.874699 0.698092 0.493144
O O7 0.743183 0.835414 0.276029
O O8 0.000000 0.849012 0.500000
O O9 0.813535 0.176928 0.830413
O O10 0.883901 0.300103 0.072938
O O11 0.718988 0.158615 0.008733
O O12 0.968673 0.125149 0.126600
O O13 0.162564 0.000000 0.239273
O O14 0.821366 0.500000 0.443098
O O15 0.795005 0.388728 0.223739
O O16 0.842893 0.500000 0.061823
O O17 0.314405 0.000000 0.877553
O O18 0.500000 0.872383 0.000000
#
# Coordination Sequence:
#
# PCOD9154517 Si02
#       7
#     4   4   4   4   4   4   4
#     4   7  12  23  45  76 111 151 193 232 281 344
#     4  12  23  38  62  94 122 160 206 255 312 367
#     4  11  21  39  64  90 119 163 208 248 309 371
#     4  11  24  42  63  85 118 163 213 258 305 372
#     4   9  17  30  51  84 123 157 194 245 301 355
#     4   9  16  29  53  87 121 154 196 243 294 363
#     4  11  24  40  63  95 125 155 206 270 313 352
#
# _framework density 19.865112
#
# number of rings (size 3 to 8) (size 9 to 14) (size 15 to 20)
#    0.000    2.000    2.857    3.857    2.000    0.857 
#    0.000    3.571    0.000    2.571    0.000    3.000 
#    0.000    0.000    0.000    0.000    0.000    0.000 
#
# Total GULP energy -156136.088915 kJ/mol
# GULP energy per Si atom -5576.288890 kJ/mol
# Density = 1.981990 g / cm^3
# Si number density = 19.865112 Si / 1000 Ang^3
#
#
#
# Elastic Constant Matrix: (Units=GPa)
#
#
# Indices 1 2 3 4 5 6 
#
# 1 60.9573 7.9198 32.2886 0.0000 -7.7420 0.0000
# 2 7.9198 126.0487 9.1671 0.0000 -11.9959 0.0000
# 3 32.2886 9.1671 57.0794 0.0000 -10.5158 0.0000
# 4 0.0000 0.0000 0.0000 24.6316 0.0000 1.7506
# 5 -7.7420 -11.9959 -10.5158 0.0000 25.8439 0.0000
# 6 0.0000 0.0000 0.0000 1.7506 0.0000 15.4799
#
#
#
# Elastic Compliance Matrix: (Units=1/GPa)
#
#
# Indices 1 2 3 4 5 6 
#
# 1 0.023515 -0.000384 -0.012946 0.000000 0.001599 0.000000
# 2 -0.000384 0.008330 -0.000464 0.000000 0.003563 0.000000
# 3 -0.012946 -0.000464 0.026121 0.000000 0.006535 0.000000
# 4 0.000000 0.000000 0.000000 0.040927 0.000000 -0.004628
# 5 0.001599 0.003563 0.006535 0.000000 0.043486 0.000000
# 6 0.000000 0.000000 0.000000 -0.004628 0.000000 0.065124
#
#
# Mechanical properties :
#
#
# Convention : Reuss Voigt Hill
#
# Bulk Modulus (GPa) = 32.91795 38.09293 35.50544
# Shear Modulus (GPa) = 20.39009 26.17174 23.28092
#
# Velocity S-wave (km/s) = 3.20727 3.63364 3.42709
# Velocity P-wave (km/s) = 5.50655 6.06810 5.79413
#
# Compressibility (1/GPa) = 0.03037856
#
# Stress axis : x y z
#
# Youngs Moduli (GPa) = 42.52578 120.04231 38.28318
#
# Poissons Ratio (x) = 0.04608 0.49561
# Poissons Ratio (y) = 0.01632 0.01778
# Poissons Ratio (z) = 0.55053 0.05575
#
# Static dielectric constant tensor:
#      x y z
#    x 1.744440 0.000000 0.038840 
#    y 0.000000 1.751000 0.000000 
#    z 0.038840 0.000000 1.709890 
# 
# From -- ./inp_files/25414.got.cif
#   From: 2010.05.17/outbox.cif.g08.bks.cpg/sg10_13_cif.got.tgz:25414.got - 2010.06.03 11:33:40.
