data_PCOD9154059
_publ_section_title
;
Structure prediction by ZEFSAII (Michael W. Deem and Ramdas Pophale) SiO2 
 PCOD9154059
Probable space group: P 2/M
;
_chemical_formula_sum "Si O2"
_cell_formula_units_Z 28
_cell_length_a 11.054700
_cell_length_b 13.910639
_cell_length_c 8.088535
_cell_angle_alpha 90.000000
_cell_angle_beta 115.963306
_cell_angle_gamma 90.000000
_cell_volume 1118.303394
_symmetry_space_group_name_H-M "P 2/M"
_symmetry_group_IT_number 10
_symmetry_cell_setting 'monoclinic'
loop_
_space_group_symop_operation_xyz
x,y,z
-x,y,-z
-x,-y,-z
x,-y,z
loop_
_atom_site_type_symbol
_atom_site_label
_atom_site_fract_x
_atom_site_fract_y
_atom_site_fract_z
Si Si1 0.380907 0.892232 0.798015
Si Si2 0.135741 0.113735 0.289201
Si Si3 0.180088 0.885128 0.956007
Si Si4 0.431765 0.310661 0.778697
Si Si5 0.689931 0.386291 0.785685
Si Si6 0.175918 0.697657 0.461531
Si Si7 0.928131 0.388047 0.138594
O O1 0.263344 0.853074 0.848547
O O2 0.432715 0.801829 0.723983
O O3 0.645736 0.000000 0.288077
O O4 0.500000 0.906119 0.000000
O O5 0.172506 0.186077 0.456026
O O6 0.977613 0.131530 0.163961
O O7 0.151155 0.000000 0.326571
O O8 0.210744 0.142390 0.163475
O O9 0.199951 0.000000 0.967217
O O10 0.534067 0.368645 0.725751
O O11 0.275061 0.340865 0.663632
O O12 0.500000 0.317593 0.000000
O O13 0.716485 0.500000 0.786167
O O14 0.743897 0.336545 0.653937
O O15 0.780504 0.351600 0.997110
O O16 0.023980 0.662738 0.330389
O O17 0.921848 0.500000 0.181224
O O18 0.000000 0.381026 0.000000
#
# Coordination Sequence:
#
# PCOD9154059 Si02
#       7
#     4   4   4   4   4   4   4
#     4   9  19  36  58  80 119 177 221 247 294 370
#     4   9  19  32  57  95 131 160 204 265 319 362
#     4   8  16  33  55  86 123 167 206 251 317 372
#     4  11  26  42  58  88 128 172 215 254 308 379
#     4  10  23  45  69  91 121 163 209 261 324 388
#     4  11  22  36  65  96 123 162 210 267 311 367
#     4   8  17  36  64  94 116 145 197 258 315 370
#
# _framework density 25.037927
#
# number of rings (size 3 to 8) (size 9 to 14) (size 15 to 20)
#    0.000    2.571    0.000    2.571   10.000    2.571 
#    0.000    2.857    0.000    6.000    0.000    0.000 
#    0.000    0.000    0.000    0.000    0.000    0.000 
#
# Total GULP energy -156285.717992 kJ/mol
# GULP energy per Si atom -5581.632785 kJ/mol
# Density = 2.498094 g / cm^3
# Si number density = 25.037927 Si / 1000 Ang^3
#
#
#
# Elastic Constant Matrix: (Units=GPa)
#
#
# Indices 1 2 3 4 5 6 
#
# 1 69.3609 13.9334 29.7536 0.0000 7.5646 0.0000
# 2 13.9334 77.3169 6.5612 0.0000 0.2535 0.0000
# 3 29.7536 6.5612 143.4580 0.0000 26.3804 0.0000
# 4 0.0000 0.0000 0.0000 5.1185 0.0000 7.5206
# 5 7.5646 0.2535 26.3804 0.0000 37.4016 0.0000
# 6 0.0000 0.0000 0.0000 7.5206 0.0000 29.0032
#
#
#
# Elastic Compliance Matrix: (Units=1/GPa)
#
#
# Indices 1 2 3 4 5 6 
#
# 1 0.016398 -0.002691 -0.003070 0.000000 -0.001133 0.000000
# 2 -0.002691 0.013430 -0.000160 0.000000 0.000566 0.000000
# 3 -0.003070 -0.000160 0.008618 0.000000 -0.005457 0.000000
# 4 0.000000 0.000000 0.000000 0.315620 0.000000 -0.081841
# 5 -0.001133 0.000566 -0.005457 0.000000 0.030811 0.000000
# 6 0.000000 0.000000 0.000000 -0.081841 0.000000 0.055700
#
#
# Mechanical properties :
#
#
# Convention : Reuss Voigt Hill
#
# Bulk Modulus (GPa) = 37.58664 43.40357 40.49510
# Shear Modulus (GPa) = 10.83922 30.29716 20.56819
#
# Velocity S-wave (km/s) = 2.08291 3.48235 2.86926
# Velocity P-wave (km/s) = 4.56390 5.79153 5.21397
#
# Compressibility (1/GPa) = 0.02660520
#
# Stress axis : x y z
#
# Youngs Moduli (GPa) = 60.98210 74.45757 116.03519
#
# Poissons Ratio (x) = 0.20036 0.35618
# Poissons Ratio (y) = 0.16410 0.01860
# Poissons Ratio (z) = 0.18719 0.01193
#
# Static dielectric constant tensor:
#      x y z
#    x 2.006810 0.000000 0.035280 
#    y 0.000000 1.968270 0.000000 
#    z 0.035280 0.000000 2.010720 
# 
# From -- ./inp_files/25390.got.cif
#   From: 2010.05.17/outbox.cif.g08.bks.cpg/sg10_13_cif.got.tgz:25390.got - 2010.06.03 11:33:40.
