data_PCOD9154591
_publ_section_title
;
Structure prediction by ZEFSAII (Michael W. Deem and Ramdas Pophale) SiO2 
 PCOD9154591
Probable space group: P 2/M
;
_chemical_formula_sum "Si O2"
_cell_formula_units_Z 32
_cell_length_a 14.687335
_cell_length_b 7.839437
_cell_length_c 14.416114
_cell_angle_alpha 90.000000
_cell_angle_beta 114.731253
_cell_angle_gamma 90.000000
_cell_volume 1507.633873
_symmetry_space_group_name_H-M "P 2/M"
_symmetry_group_IT_number 10
_symmetry_cell_setting 'monoclinic'
loop_
_space_group_symop_operation_xyz
x,y,z
-x,y,-z
-x,-y,-z
x,-y,z
loop_
_atom_site_type_symbol
_atom_site_label
_atom_site_fract_x
_atom_site_fract_y
_atom_site_fract_z
Si Si1 0.907405 0.208811 0.526411
Si Si2 0.959225 0.201076 0.755612
Si Si3 0.255345 0.804564 0.678384
Si Si4 0.522376 0.297775 0.220065
Si Si5 0.823590 0.301304 0.168164
Si Si6 0.234632 0.294374 0.217367
Si Si7 0.557075 0.708683 0.615623
Si Si8 0.320059 0.291491 0.053677
O O1 0.923819 0.264724 0.638858
O O2 0.804774 0.271124 0.434468
O O3 0.000000 0.259894 0.500000
O O4 0.904798 0.000000 0.524585
O O5 0.870935 0.230965 0.790707
O O6 0.065159 0.284752 0.825022
O O7 0.977837 0.000000 0.755591
O O8 0.362018 0.729213 0.751969
O O9 0.183000 0.791686 0.736240
O O10 0.275937 0.000000 0.665063
O O11 0.506172 0.500000 0.216564
O O12 0.497964 0.234224 0.313499
O O13 0.435540 0.233894 0.113850
O O14 0.802609 0.500000 0.177676
O O15 0.741295 0.231863 0.061443
O O16 0.232444 0.500000 0.216894
O O17 0.326860 0.240117 0.323247
O O18 0.264664 0.242240 0.125840
O O19 0.500000 0.769039 0.500000
O O20 0.555401 0.500000 0.613220
O O21 0.317648 0.500000 0.048220
#
# Coordination Sequence:
#
# PCOD9154591 Si02
#       8
#     4   4   4   4   4   4   4   4
#     4   9  18  36  56  71 104 153 179 206 268 336
#     4  11  22  37  56  81 112 145 180 221 274 328
#     4  11  22  37  56  81 112 145 180 221 274 328
#     4   9  18  35  57  81 109 143 182 221 268 323
#     4  11  22  38  59  81 104 140 190 232 267 318
#     4   9  18  35  57  81 109 143 182 221 268 323
#     4   8  15  29  51  79 110 139 174 225 271 304
#     4   8  18  38  60  79 108 147 181 221 273 324
#
# _framework density 21.22531
#
# number of rings (size 3 to 8) (size 9 to 14) (size 15 to 20)
#    0.000    2.500    1.250    2.625    1.750    1.000 
#    0.000   12.500    0.000    0.750    0.000    0.000 
#    0.000    0.000    0.000    0.000    0.000    0.000 
#
# Total GULP energy -178587.129397 kJ/mol
# GULP energy per Si atom -5580.847794 kJ/mol
# Density = 2.117700 g / cm^3
# Si number density = 21.225310 Si / 1000 Ang^3
#
#
#
# Elastic Constant Matrix: (Units=GPa)
#
#
# Indices 1 2 3 4 5 6 
#
# 1 71.2625 -4.9999 -4.1646 0.0000 23.9256 0.0000
# 2 -4.9999 23.7327 7.4431 0.0000 1.4865 0.0000
# 3 -4.1646 7.4431 90.9693 0.0000 27.9012 0.0000
# 4 0.0000 0.0000 0.0000 12.6516 0.0000 8.6278
# 5 23.9256 1.4865 27.9012 0.0000 24.2119 0.0000
# 6 0.0000 0.0000 0.0000 8.6278 0.0000 52.9974
#
#
#
# Elastic Compliance Matrix: (Units=1/GPa)
#
#
# Indices 1 2 3 4 5 6 
#
# 1 0.033331 0.004876 0.017509 0.000000 -0.053414 0.000000
# 2 0.004876 0.044035 -0.001659 0.000000 -0.005610 0.000000
# 3 0.017509 -0.001659 0.026611 0.000000 -0.047867 0.000000
# 4 0.000000 0.000000 0.000000 0.088912 0.000000 -0.014475
# 5 -0.053414 -0.005610 -0.047867 0.000000 0.149589 0.000000
# 6 0.000000 0.000000 0.000000 -0.014475 0.000000 0.021225
#
#
# Mechanical properties :
#
#
# Convention : Reuss Voigt Hill
#
# Bulk Modulus (GPa) = 6.87613 20.28020 13.57816
# Shear Modulus (GPa) = 13.48701 30.48457 21.98579
#
# Velocity S-wave (km/s) = 2.52349 3.79388 3.22192
# Velocity P-wave (km/s) = 3.42597 5.36347 4.50023
#
# Compressibility (1/GPa) = 0.14543056
#
# Stress axis : x y z
#
# Youngs Moduli (GPa) = 30.00205 22.70928 37.57808
#
# Poissons Ratio (x) = -0.11073 -0.65797
# Poissons Ratio (y) = -0.14629 0.06234
# Poissons Ratio (z) = -0.52532 0.03767
#
# Static dielectric constant tensor:
#      x y z
#    x 1.753830 0.000000 0.026690 
#    y 0.000000 1.777930 0.000000 
#    z 0.026690 0.000000 1.769360 
# 
# From -- ./inp_files/66617.got.cif
#   From: 2010.05.17/outbox.cif.g08.bks.cpg/sg10_34_cif.got.tgz:66617.got - 2010.06.03 11:33:40.
