data_PCOD9154869
_publ_section_title
;
Structure prediction by ZEFSAII (Michael W. Deem and Ramdas Pophale) SiO2 
 PCOD9154869
Probable space group: P 2/M
;
_chemical_formula_sum "Si O2"
_cell_formula_units_Z 30
_cell_length_a 8.636313
_cell_length_b 25.012007
_cell_length_c 14.009699
_cell_angle_alpha 90.000000
_cell_angle_beta 33.575440
_cell_angle_gamma 90.000000
_cell_volume 1673.624083
_symmetry_space_group_name_H-M "P 2/M"
_symmetry_group_IT_number 10
_symmetry_cell_setting 'monoclinic'
loop_
_space_group_symop_operation_xyz
x,y,z
-x,y,-z
-x,-y,-z
x,-y,z
loop_
_atom_site_type_symbol
_atom_site_label
_atom_site_fract_x
_atom_site_fract_y
_atom_site_fract_z
Si Si1 0.328549 0.738811 0.835449
Si Si2 0.671176 0.353447 0.317364
Si Si3 0.458034 0.062870 0.360264
Si Si4 0.338336 0.648783 0.984401
Si Si5 0.340322 0.439164 0.829166
Si Si6 0.960378 0.062768 0.247785
Si Si7 0.500000 0.133272 0.000000
Si Si8 0.679865 0.159834 0.699046
O O1 0.380341 0.697645 0.723031
O O2 0.387260 0.703051 0.899298
O O3 0.508708 0.791825 0.740121
O O4 0.000000 0.752459 0.000000
O O5 0.500000 0.348506 0.500000
O O6 0.579944 0.406108 0.305804
O O7 0.002839 0.355810 0.167461
O O8 0.743613 0.073102 0.272714
O O9 0.210000 0.071996 0.565582
O O10 0.421980 0.102853 0.291046
O O11 0.451104 0.000000 0.336888
O O12 0.423776 0.597925 0.875464
O O13 0.500000 0.649337 0.000000
O O14 0.440454 0.500000 0.782215
O O15 0.000000 0.440091 0.000000
O O16 0.236820 0.097703 0.101954
O O17 0.030355 0.000000 0.209054
O O18 0.383623 0.162831 0.154714
O O19 0.000000 0.164950 0.500000
#
# Coordination Sequence:
#
# PCOD9154869 Si02
#       8
#     4   4   4   4   4   4   2   4
#     4   9  22  42  58  77 110 150 191 237 285 344
#     4   9  18  36  57  84 109 149 196 229 284 338
#     4   9  20  41  64  85 118 155 187 230 289 354
#     4   9  18  34  58  81 111 148 192 237 279 333
#     4   8  15  30  53  81 118 156 189 227 273 334
#     4   9  19  39  64  89 116 151 189 226 280 353
#     4  12  25  38  60  92 118 144 189 240 282 350
#     4  12  26  43  59  89 119 149 191 243 295 347
#
# _framework density 17.925172
#
# number of rings (size 3 to 8) (size 9 to 14) (size 15 to 20)
#    0.000    2.533    1.333    2.600    2.800    2.933 
#    4.800    3.333    0.000    0.800    0.000    0.000 
#    0.000    0.000    0.000    0.000    0.000    0.000 
#
# Total GULP energy -167307.439341 kJ/mol
# GULP energy per Si atom -5576.914645 kJ/mol
# Density = 1.788437 g / cm^3
# Si number density = 17.925172 Si / 1000 Ang^3
#
#
#
# Elastic Constant Matrix: (Units=GPa)
#
#
# Indices 1 2 3 4 5 6 
#
# 1 110.9372 55.8539 44.9069 0.0000 12.9567 0.0000
# 2 55.8539 101.9004 48.1063 0.0000 -11.0903 0.0000
# 3 44.9069 48.1063 83.8226 0.0000 8.4798 0.0000
# 4 0.0000 0.0000 0.0000 5.5475 0.0000 -18.0988
# 5 12.9567 -11.0903 8.4798 0.0000 17.8300 0.0000
# 6 0.0000 0.0000 0.0000 -18.0988 0.0000 -9.1623
#
#
#
# Elastic Compliance Matrix: (Units=1/GPa)
#
#
# Indices 1 2 3 4 5 6 
#
# 1 0.017134 -0.010979 -0.000975 0.000000 -0.018817 0.000000
# 2 -0.010979 0.023902 -0.010659 0.000000 0.027915 0.000000
# 3 -0.000975 -0.010659 0.020138 0.000000 -0.015499 0.000000
# 4 0.000000 0.000000 0.000000 0.024214 0.000000 -0.047830
# 5 -0.018817 0.027915 -0.015499 0.000000 0.094493 0.000000
# 6 0.000000 0.000000 0.000000 -0.047830 0.000000 -0.014660
#
#
# Mechanical properties :
#
#
# Convention : Reuss Voigt Hill
#
# Bulk Modulus (GPa) = 62.70891 66.04385 64.37638
# Shear Modulus (GPa) = 23.17369 12.69591 17.93480
#
# Velocity S-wave (km/s) = 3.59946 2.66423 3.16656
# Velocity P-wave (km/s) = 7.23425 6.81090 7.02576
#
# Compressibility (1/GPa) = 0.01594670
#
# Stress axis : x y z
#
# Youngs Moduli (GPa) = 58.36309 41.83785 49.65849
#
# Poissons Ratio (x) = 0.45935 0.04840
# Poissons Ratio (y) = 0.64079 0.52933
# Poissons Ratio (z) = 0.05689 0.44596
#
# Static dielectric constant tensor:
#      x y z
#    x 1.607420 0.000000 0.008180 
#    y 0.000000 1.596970 0.000000 
#    z 0.008180 0.000000 1.605810 
# 
# From -- ./inp_files/62657.got.cif
#   From: 2010.05.17/outbox.cif.g08.bks.cpg/sg10_32_cif.got.tgz:62657.got - 2010.06.03 11:33:40.
