data_PCOD9154202
_publ_section_title
;
Structure prediction by ZEFSAII (Michael W. Deem and Ramdas Pophale) SiO2 
 PCOD9154202
Probable space group: P 2/M
;
_chemical_formula_sum "Si O2"
_cell_formula_units_Z 24
_cell_length_a 10.076691
_cell_length_b 14.037734
_cell_length_c 16.236175
_cell_angle_alpha 90.000000
_cell_angle_beta 151.990984
_cell_angle_gamma 90.000000
_cell_volume 1078.540528
_symmetry_space_group_name_H-M "P 2/M"
_symmetry_group_IT_number 10
_symmetry_cell_setting 'monoclinic'
loop_
_space_group_symop_operation_xyz
x,y,z
-x,y,-z
-x,-y,-z
x,-y,z
loop_
_atom_site_type_symbol
_atom_site_label
_atom_site_fract_x
_atom_site_fract_y
_atom_site_fract_z
Si Si1 0.597510 0.615297 0.142614
Si Si2 0.937456 0.390518 0.072392
Si Si3 0.087724 0.108465 0.950096
Si Si4 0.172332 0.391454 0.389375
Si Si5 0.329206 0.113421 0.662417
Si Si6 0.623562 0.753412 0.692000
O O1 0.562072 0.500000 0.120885
O O2 0.931129 0.629363 0.325422
O O3 0.500000 0.653550 0.000000
O O4 0.383637 0.647948 0.096035
O O5 0.935597 0.500000 0.046373
O O6 0.036956 0.391138 0.223949
O O7 0.175995 0.328438 0.159290
O O8 0.424786 0.127785 0.133159
O O9 0.039506 0.000000 0.897228
O O10 0.000000 0.114405 0.000000
O O11 0.868918 0.179730 0.786556
O O12 0.281528 0.500000 0.462307
O O13 0.398962 0.309848 0.521507
O O14 0.441754 0.178308 0.650353
O O15 0.000000 0.133835 0.500000
O O16 0.347929 0.000000 0.652711
#
# Coordination Sequence:
#
# PCOD9154202 Si02
#       6
#     4   4   4   4   4   4
#     4   7  12  25  42  58  84 125 166 197 218 242
#     4   9  17  29  45  68 100 136 168 193 221 264
#     4   8  16  32  50  67  87 110 142 190 243 290
#     4   9  17  29  45  69 102 136 167 193 218 261
#     4   9  19  37  57  72  87 112 151 199 247 294
#     4  11  18  25  48  75  97 122 156 193 235 280
#
# _framework density 22.252295
#
# number of rings (size 3 to 8) (size 9 to 14) (size 15 to 20)
#    0.000    3.167    0.000    4.500    0.000    2.667 
#    0.000    0.000    0.000   28.000    0.000    0.000 
#    0.000   32.000    0.000    0.000    0.000    0.000 
#
# Total GULP energy -133645.865664 kJ/mol
# GULP energy per Si atom -5568.577736 kJ/mol
# Density = 2.220165 g / cm^3
# Si number density = 22.252295 Si / 1000 Ang^3
#
#
#
# Elastic Constant Matrix: (Units=GPa)
#
#
# Indices 1 2 3 4 5 6 
#
# 1 76.1848 25.7094 51.3716 0.0000 35.1857 0.0000
# 2 25.7094 133.8783 70.5516 0.0000 20.0107 0.0000
# 3 51.3716 70.5516 155.9428 0.0000 45.4765 0.0000
# 4 0.0000 0.0000 0.0000 66.7344 0.0000 -10.0361
# 5 35.1857 20.0107 45.4765 0.0000 39.6825 0.0000
# 6 0.0000 0.0000 0.0000 -10.0361 0.0000 35.2256
#
#
#
# Elastic Compliance Matrix: (Units=1/GPa)
#
#
# Indices 1 2 3 4 5 6 
#
# 1 0.022868 -0.000650 -0.002135 0.000000 -0.017502 0.000000
# 2 -0.000650 0.009827 -0.004438 0.000000 0.000707 0.000000
# 3 -0.002135 -0.004438 0.011894 0.000000 -0.009500 0.000000
# 4 0.000000 0.000000 0.000000 0.015656 0.000000 0.004460
# 5 -0.017502 0.000707 -0.009500 0.000000 0.051249 0.000000
# 6 0.000000 0.000000 0.000000 0.004460 0.000000 0.029659
#
#
# Mechanical properties :
#
#
# Convention : Reuss Voigt Hill
#
# Bulk Modulus (GPa) = 33.17536 73.47456 53.32496
# Shear Modulus (GPa) = 30.18436 42.88673 36.53554
#
# Velocity S-wave (km/s) = 3.68701 4.39486 4.05640
# Velocity P-wave (km/s) = 5.75035 7.67096 6.77902
#
# Compressibility (1/GPa) = 0.03014285
#
# Stress axis : x y z
#
# Youngs Moduli (GPa) = 43.72829 101.75555 84.07476
#
# Poissons Ratio (x) = 0.06617 0.17952
# Poissons Ratio (y) = 0.02844 0.37313
# Poissons Ratio (z) = 0.09337 0.45160
#
# Static dielectric constant tensor:
#      x y z
#    x 1.943580 0.000000 -0.017540 
#    y 0.000000 1.840880 0.000000 
#    z -0.017540 0.000000 1.929700 
# 
# From -- ./inp_files/93181.got.cif
#   From: 2010.05.17/outbox.cif.g08.bks.cpg/sg10_47_cif.got.tgz:93181.got - 2010.06.03 11:33:40.
