data_PCOD9154746
_publ_section_title
;
Structure prediction by ZEFSAII (Michael W. Deem and Ramdas Pophale) SiO2 
 PCOD9154746
Probable space group: P 2/M
;
_chemical_formula_sum "Si O2"
_cell_formula_units_Z 24
_cell_length_a 20.693578
_cell_length_b 7.423057
_cell_length_c 7.939706
_cell_angle_alpha 90.000000
_cell_angle_beta 44.877404
_cell_angle_gamma 90.000000
_cell_volume 860.550883
_symmetry_space_group_name_H-M "P 2/M"
_symmetry_group_IT_number 10
_symmetry_cell_setting 'monoclinic'
loop_
_space_group_symop_operation_xyz
x,y,z
-x,y,-z
-x,-y,-z
x,-y,z
loop_
_atom_site_type_symbol
_atom_site_label
_atom_site_fract_x
_atom_site_fract_y
_atom_site_fract_z
Si Si1 0.227685 0.287232 0.935352
Si Si2 0.274202 0.715909 0.377145
Si Si3 0.437952 0.283963 0.283944
Si Si4 0.603401 0.716303 0.186825
Si Si5 0.890148 0.281798 0.532272
Si Si6 0.063416 0.792031 0.026649
O O1 0.237894 0.500000 0.942506
O O2 0.162147 0.215860 0.205429
O O3 0.164312 0.273454 0.887950
O O4 0.330126 0.217739 0.785377
O O5 0.268058 0.500000 0.411314
O O6 0.338763 0.787302 0.407929
O O7 0.173613 0.779264 0.507657
O O8 0.333556 0.742729 0.096102
O O9 0.426006 0.500000 0.333363
O O10 0.503452 0.215406 0.313246
O O11 0.500000 0.265927 0.000000
O O12 0.591081 0.500000 0.228668
O O13 0.889300 0.500000 0.539591
O O14 0.993874 0.226063 0.312562
O O15 0.074359 0.000000 0.968119
O O16 0.000000 0.702804 0.000000
#
# Coordination Sequence:
#
# PCOD9154746 Si02
#       6
#     4   4   4   4   4   4
#     4   9  17  30  49  72  94 115 143 180 220 263
#     4   7  10  17  32  58  90 117 138 163 200 248
#     4   7   8  12  26  52  88 121 138 154 192 245
#     4   7  10  17  32  58  90 117 138 163 200 248
#     4   9  17  30  49  72  94 115 143 180 220 263
#     4  11  24  37  46  60  84 115 152 191 228 266
#
# _framework density 27.889111
#
# number of rings (size 3 to 8) (size 9 to 14) (size 15 to 20)
#    0.000    3.667    0.000    5.000    0.000    4.000 
#    0.000    0.000    0.000    0.000    0.000    2.333 
#    0.000   16.000    0.000    0.000    0.000    0.000 
#
# Total GULP energy -134099.039258 kJ/mol
# GULP energy per Si atom -5587.459969 kJ/mol
# Density = 2.782563 g / cm^3
# Si number density = 27.889111 Si / 1000 Ang^3
#
#
#
# Elastic Constant Matrix: (Units=GPa)
#
#
# Indices 1 2 3 4 5 6 
#
# 1 315.7635 9.8503 71.6501 0.0000 -37.8149 0.0000
# 2 9.8503 92.4383 1.6044 0.0000 -7.4016 0.0000
# 3 71.6501 1.6044 116.3031 0.0000 -35.4045 0.0000
# 4 0.0000 0.0000 0.0000 -31.7309 0.0000 45.1808
# 5 -37.8149 -7.4016 -35.4045 0.0000 76.9330 0.0000
# 6 0.0000 0.0000 0.0000 45.1808 0.0000 -48.9250
#
#
#
# Elastic Compliance Matrix: (Units=1/GPa)
#
#
# Indices 1 2 3 4 5 6 
#
# 1 0.003743 -0.000293 -0.002035 0.000000 0.000875 0.000000
# 2 -0.000293 0.010929 0.000356 0.000000 0.001071 0.000000
# 3 -0.002035 0.000356 0.011109 0.000000 0.004146 0.000000
# 4 0.000000 0.000000 0.000000 0.100077 0.000000 0.092418
# 5 0.000875 0.001071 0.004146 0.000000 0.015439 0.000000
# 6 0.000000 0.000000 0.000000 0.092418 0.000000 0.064906
#
#
# Mechanical properties :
#
#
# Convention : Reuss Voigt Hill
#
# Bulk Modulus (GPa) = 45.79710 76.74607 61.27159
# Shear Modulus (GPa) = 22.99617 28.68211 25.83914
#
# Velocity S-wave (km/s) = 2.87463 3.21040 3.04714
# Velocity P-wave (km/s) = 5.24164 6.42808 5.86494
#
# Compressibility (1/GPa) = 0.02183544
#
# Stress axis : x y z
#
# Youngs Moduli (GPa) = 267.18742 91.50072 90.01333
#
# Poissons Ratio (x) = 0.02685 0.18321
# Poissons Ratio (y) = 0.07841 -0.03205
# Poissons Ratio (z) = 0.54384 -0.03258
#
# Static dielectric constant tensor:
#      x y z
#    x 2.244730 0.000000 0.090020 
#    y 0.000000 2.047620 0.000000 
#    z 0.090020 0.000000 2.250160 
# 
# From -- ./inp_files/33759.got.cif
#   From: 2010.05.17/outbox.cif.g08.bks.cpg/sg10_17_cif.got.tgz:33759.got - 2010.06.03 11:33:40.
