data_PCOD9154502
_publ_section_title
;
Structure prediction by ZEFSAII (Michael W. Deem and Ramdas Pophale) SiO2 
 PCOD9154502
Probable space group: P 2/M
;
_chemical_formula_sum "Si O2"
_cell_formula_units_Z 28
_cell_length_a 19.761363
_cell_length_b 7.658740
_cell_length_c 16.676191
_cell_angle_alpha 90.000000
_cell_angle_beta 144.379236
_cell_angle_gamma 90.000000
_cell_volume 1469.960189
_symmetry_space_group_name_H-M "P 2/M"
_symmetry_group_IT_number 10
_symmetry_cell_setting 'monoclinic'
loop_
_space_group_symop_operation_xyz
x,y,z
-x,y,-z
-x,-y,-z
x,-y,z
loop_
_atom_site_type_symbol
_atom_site_label
_atom_site_fract_x
_atom_site_fract_y
_atom_site_fract_z
Si Si1 0.062711 0.787065 0.641242
Si Si2 0.013951 0.500000 0.881997
Si Si3 0.373206 0.799274 0.411956
Si Si4 0.052244 0.798315 0.302763
Si Si5 0.442878 0.788729 0.819780
Si Si6 0.196778 0.500000 0.193765
Si Si7 0.682449 0.295906 0.463843
Si Si8 0.324179 0.212945 0.869830
O O1 0.196306 0.728245 0.770644
O O2 0.000000 0.726775 0.500000
O O3 0.992704 0.739784 0.653361
O O4 0.063630 0.000000 0.639663
O O5 0.000546 0.670414 0.814107
O O6 0.905579 0.500000 0.838942
O O7 0.131829 0.500000 0.046313
O O8 0.500000 0.753081 0.500000
O O9 0.277148 0.668483 0.285034
O O10 0.370049 0.782490 0.505450
O O11 0.348425 0.000000 0.366372
O O12 0.191762 0.785797 0.433006
O O13 0.018136 0.000000 0.257258
O O14 0.398398 0.725136 0.691614
O O15 0.359266 0.734898 0.813102
O O16 0.441568 0.000000 0.816140
O O17 0.572037 0.732627 0.970919
O O18 0.701839 0.500000 0.498018
O O19 0.324413 0.000000 0.870294
#
# Coordination Sequence:
#
# PCOD9154502 Si02
#       8
#     4   2   4   4   4   2   4   4
#     4   9  17  30  54  85 116 157 202 241 289 345
#     4  11  24  42  63  94 122 158 204 248 298 373
#     4  11  23  42  67  93 120 153 199 249 300 367
#     4  11  21  38  62  86 121 160 200 251 295 347
#     4   9  17  31  57  82 108 153 196 242 296 347
#     4  11  23  44  68  88 127 158 192 253 310 366
#     4  12  22  37  59  85 117 151 194 247 299 355
#     4   8  15  31  51  80 117 149 197 247 288 347
#
# _framework density 19.048134000000001
#
# number of rings (size 3 to 8) (size 9 to 14) (size 15 to 20)
#    0.000    1.857    2.857    3.214    0.000    2.857 
#    2.571    3.214    1.571    0.000    0.000    0.000 
#    0.000    0.000    0.000    0.000    0.000    0.000 
#
# Total GULP energy -156414.746266 kJ/mol
# GULP energy per Si atom -5586.240938 kJ/mol
# Density = 1.900478 g / cm^3
# Si number density = 19.048134 Si / 1000 Ang^3
#
#
#
# Elastic Constant Matrix: (Units=GPa)
#
#
# Indices 1 2 3 4 5 6 
#
# 1 158.2873 24.3177 89.4030 0.0000 4.5853 0.0000
# 2 24.3177 79.6348 36.4388 0.0000 -3.9188 0.0000
# 3 89.4030 36.4388 151.9862 0.0000 -15.1528 0.0000
# 4 0.0000 0.0000 0.0000 34.3311 0.0000 23.1484
# 5 4.5853 -3.9188 -15.1528 0.0000 25.8212 0.0000
# 6 0.0000 0.0000 0.0000 23.1484 0.0000 80.3678
#
#
#
# Elastic Compliance Matrix: (Units=1/GPa)
#
#
# Indices 1 2 3 4 5 6 
#
# 1 0.010197 -0.000438 -0.006458 0.000000 -0.005667 0.000000
# 2 -0.000438 0.014124 -0.003088 0.000000 0.000409 0.000000
# 3 -0.006458 -0.003088 0.011881 0.000000 0.007651 0.000000
# 4 0.000000 0.000000 0.000000 0.036149 0.000000 -0.010412
# 5 -0.005667 0.000409 0.007651 0.000000 0.044286 0.000000
# 6 0.000000 0.000000 0.000000 -0.010412 0.000000 0.015442
#
#
# Mechanical properties :
#
#
# Convention : Reuss Voigt Hill
#
# Bulk Modulus (GPa) = 61.59594 76.69191 69.14392
# Shear Modulus (GPa) = 31.75463 44.08727 37.92095
#
# Velocity S-wave (km/s) = 4.08741 4.81616 4.46667
# Velocity P-wave (km/s) = 7.39480 8.44256 7.93599
#
# Compressibility (1/GPa) = 0.01623484
#
# Stress axis : x y z
#
# Youngs Moduli (GPa) = 98.07190 70.80097 84.16454
#
# Poissons Ratio (x) = 0.03098 0.54354
# Poissons Ratio (y) = 0.04291 0.25991
# Poissons Ratio (z) = 0.63335 0.21864
#
# Static dielectric constant tensor:
#      x y z
#    x 1.641770 0.000000 0.003290 
#    y 0.000000 1.686650 0.000000 
#    z 0.003290 0.000000 1.632960 
# 
# From -- ./inp_files/68746.got.cif
#   From: 2010.05.17/outbox.cif.g08.bks.cpg/sg10_35_cif.got.tgz:68746.got - 2010.06.03 11:33:40.
