data_PCOD9154239
_publ_section_title
;
Structure prediction by ZEFSAII (Michael W. Deem and Ramdas Pophale) SiO2 
 PCOD9154239
Probable space group: P 2/M
;
_chemical_formula_sum "Si O2"
_cell_formula_units_Z 24
_cell_length_a 15.211330
_cell_length_b 10.298359
_cell_length_c 15.492655
_cell_angle_alpha 90.000000
_cell_angle_beta 152.085801
_cell_angle_gamma 90.000000
_cell_volume 1136.174382
_symmetry_space_group_name_H-M "P 2/M"
_symmetry_group_IT_number 10
_symmetry_cell_setting 'monoclinic'
loop_
_space_group_symop_operation_xyz
x,y,z
-x,y,-z
-x,-y,-z
x,-y,z
loop_
_atom_site_type_symbol
_atom_site_label
_atom_site_fract_x
_atom_site_fract_y
_atom_site_fract_z
Si Si1 0.813653 0.856496 0.066880
Si Si2 0.454480 0.500000 0.822609
Si Si3 0.397319 0.232309 0.671975
Si Si4 0.094954 0.352731 0.990869
Si Si5 0.825902 0.500000 0.255903
Si Si6 0.476745 0.647439 0.576704
Si Si7 0.998873 0.784320 0.598202
O O1 0.916834 0.746946 0.098563
O O2 0.856880 0.838617 0.205792
O O3 0.874538 0.000000 0.092610
O O4 0.589943 0.842805 0.856793
O O5 0.426568 0.372963 0.741498
O O6 0.303777 0.500000 0.770127
O O7 0.666893 0.500000 0.043559
O O8 0.366540 0.258701 0.544123
O O9 0.206932 0.180257 0.546395
O O10 0.031343 0.500000 0.914500
O O11 0.316044 0.359395 0.203229
O O12 0.000000 0.314843 0.000000
O O13 0.951425 0.629445 0.359688
O O14 0.500000 0.694751 0.500000
O O15 0.400551 0.500000 0.507607
O O16 0.000000 0.827554 0.500000
#
# Coordination Sequence:
#
# PCOD9154239 Si02
#       7
#     4   2   4   4   2   4   4
#     4  11  27  46  65  93 133 181 226 270 333 402
#     4  11  19  38  66  94 135 170 212 278 343 389
#     4  11  22  40  65  90 132 174 215 274 328 393
#     4   9  20  40  67  97 129 165 214 276 335 392
#     4  11  22  37  64 100 135 160 221 284 341 397
#     4   9  18  31  53  91 129 159 198 252 321 388
#     4  12  25  40  66  99 130 173 226 281 335 397
#
# _framework density 21.123517
#
# number of rings (size 3 to 8) (size 9 to 14) (size 15 to 20)
#    0.000    1.500    4.167    0.750    4.667    2.000 
#    0.000    0.833    0.000    2.000    0.000    0.000 
#    0.000    0.000    0.000    0.000    0.000    0.000 
#
# Total GULP energy -134071.647697 kJ/mol
# GULP energy per Si atom -5586.318654 kJ/mol
# Density = 2.107544 g / cm^3
# Si number density = 21.123517 Si / 1000 Ang^3
#
#
#
# Elastic Constant Matrix: (Units=GPa)
#
#
# Indices 1 2 3 4 5 6 
#
# 1 155.9804 29.6868 41.8760 0.0000 -15.3088 0.0000
# 2 29.6868 77.9578 15.3665 0.0000 -14.7663 0.0000
# 3 41.8760 15.3665 97.1684 0.0000 -7.9092 0.0000
# 4 0.0000 0.0000 0.0000 13.8744 0.0000 36.2969
# 5 -15.3088 -14.7663 -7.9092 0.0000 41.6927 0.0000
# 6 0.0000 0.0000 0.0000 36.2969 0.0000 79.3343
#
#
#
# Elastic Compliance Matrix: (Units=1/GPa)
#
#
# Indices 1 2 3 4 5 6 
#
# 1 0.007732 -0.002083 -0.002876 0.000000 0.001556 0.000000
# 2 -0.002083 0.014630 -0.001073 0.000000 0.004213 0.000000
# 3 -0.002876 -0.001073 0.011765 0.000000 0.000796 0.000000
# 4 0.000000 0.000000 0.000000 -0.366019 0.000000 0.167460
# 5 0.001556 0.004213 0.000796 0.000000 0.026199 0.000000
# 6 0.000000 0.000000 0.000000 0.167460 0.000000 -0.064011
#
#
# Mechanical properties :
#
#
# Convention : Reuss Voigt Hill
#
# Bulk Modulus (GPa) = 45.32378 56.10724 50.71551
# Shear Modulus (GPa) = -14.27416 43.25876 14.49230
#
# Velocity S-wave (km/s) = -2.60233 4.53028 2.62214
# Velocity P-wave (km/s) = 3.53180 7.34736 5.76443
#
# Compressibility (1/GPa) = 0.02206348
#
# Stress axis : x y z
#
# Youngs Moduli (GPa) = 129.32610 68.35181 84.99440
#
# Poissons Ratio (x) = 0.14237 0.24447
# Poissons Ratio (y) = 0.26937 0.09121
# Poissons Ratio (z) = 0.37199 0.07335
#
# Static dielectric constant tensor:
#      x y z
#    x 1.779280 0.000000 -0.001800 
#    y 0.000000 1.774790 0.000000 
#    z -0.001800 0.000000 1.768740 
# 
# From -- ./inp_files/67442.got.cif
#   From: 2010.05.17/outbox.cif.g08.bks.cpg/sg10_34_cif.got.tgz:67442.got - 2010.06.03 11:33:40.
