data_PCOD9154932
_publ_section_title
;
Structure prediction by ZEFSAII (Michael W. Deem and Ramdas Pophale) SiO2 
 PCOD9154932
Probable space group: P 2/M
;
_chemical_formula_sum "Si O2"
_cell_formula_units_Z 32
_cell_length_a 22.408013
_cell_length_b 7.438647
_cell_length_c 9.900351
_cell_angle_alpha 90.000000
_cell_angle_beta 77.237476
_cell_angle_gamma 90.000000
_cell_volume 1609.472153
_symmetry_space_group_name_H-M "P 2/M"
_symmetry_group_IT_number 10
_symmetry_cell_setting 'monoclinic'
loop_
_space_group_symop_operation_xyz
x,y,z
-x,y,-z
-x,-y,-z
x,-y,z
loop_
_atom_site_type_symbol
_atom_site_label
_atom_site_fract_x
_atom_site_fract_y
_atom_site_fract_z
Si Si1 0.320614 0.280561 0.932343
Si Si2 0.812996 0.715831 0.687203
Si Si3 0.947137 0.212725 0.930229
Si Si4 0.052863 0.212725 0.377366
Si Si5 0.431318 0.719212 0.378486
Si Si6 0.568682 0.719212 0.309804
Si Si7 0.679386 0.280561 0.752957
Si Si8 0.187004 0.715831 0.000199
O O1 0.321440 0.500000 0.930283
O O2 0.377130 0.218473 0.814083
O O3 0.326450 0.228147 0.086775
O O4 0.253197 0.224378 0.913371
O O5 0.811680 0.500000 0.688402
O O6 0.878818 0.766890 0.596377
O O7 0.746803 0.775622 0.666568
O O8 0.814454 0.777933 0.842773
O O9 0.947989 0.286782 0.776006
O O10 0.878818 0.233110 0.024805
O O11 0.957854 0.000000 0.913010
O O12 0.000000 0.287343 0.000000
O O13 0.000000 0.287343 0.500000
O O14 0.042146 0.000000 0.370865
O O15 0.430803 0.500000 0.376440
O O16 0.500000 0.774646 0.303205
O O17 0.421676 0.772369 0.539162
O O18 0.377130 0.781527 0.308787
O O19 0.569197 0.500000 0.307243
O O20 0.678560 0.500000 0.751723
O O21 0.188320 0.500000 0.000082
#
# Coordination Sequence:
#
# PCOD9154932 Si02
#       8
#     4   4   4   4   4   4   4   4
#     4   8  13  21  33  48  66  91 123 154 182 215
#     4   8  14  25  40  57  78 103 128 156 192 230
#     4   9  17  29  44  60  78 101 128 157 190 228
#     4   9  17  29  44  60  78 101 128 157 190 228
#     4   8  13  20  29  43  67  98 125 148 180 221
#     4   8  13  20  29  43  67  98 125 148 180 221
#     4   8  13  21  33  48  66  91 123 154 182 215
#     4   8  14  25  40  57  78 103 128 156 192 230
#
# _framework density 19.882293000000001
#
# number of rings (size 3 to 8) (size 9 to 14) (size 15 to 20)
#    0.000    3.750    0.000    2.250    0.000    1.000 
#    0.000    3.750    0.000    1.500    0.000    0.000 
#    0.000    1.000    0.000   12.500    0.000   14.500 
#
# Total GULP energy -178138.996170 kJ/mol
# GULP energy per Si atom -5566.843630 kJ/mol
# Density = 1.983704 g / cm^3
# Si number density = 19.882293 Si / 1000 Ang^3
#
#
#
# Elastic Constant Matrix: (Units=GPa)
#
#
# Indices 1 2 3 4 5 6 
#
# 1 218.6127 3.5316 94.1839 0.0000 -32.4028 0.0000
# 2 3.5316 58.5221 3.5940 0.0000 0.0397 0.0000
# 3 94.1839 3.5940 103.6590 0.0000 -40.7523 0.0000
# 4 0.0000 0.0000 0.0000 0.3421 0.0000 -17.9110
# 5 -32.4028 0.0397 -40.7523 0.0000 31.4425 0.0000
# 6 0.0000 0.0000 0.0000 -17.9110 0.0000 28.4870
#
#
#
# Elastic Compliance Matrix: (Units=1/GPa)
#
#
# Indices 1 2 3 4 5 6 
#
# 1 0.007596 0.000022 -0.007799 0.000000 -0.002280 0.000000
# 2 0.000022 0.017164 -0.001253 0.000000 -0.001624 0.000000
# 3 -0.007799 -0.001253 0.027765 0.000000 0.027950 0.000000
# 4 0.000000 0.000000 0.000000 -0.091581 0.000000 -0.057581
# 5 -0.002280 -0.001624 0.027950 0.000000 0.065683 0.000000
# 6 0.000000 0.000000 0.000000 -0.057581 0.000000 -0.001100
#
#
# Mechanical properties :
#
#
# Convention : Reuss Voigt Hill
#
# Bulk Modulus (GPa) = 29.01517 64.82366 46.91941
# Shear Modulus (GPa) = 90.78508 30.68660 60.73584
#
# Velocity S-wave (km/s) = 6.76464 3.93289 5.53299
# Velocity P-wave (km/s) = 8.69707 7.30055 8.02923
#
# Compressibility (1/GPa) = 0.03446473
#
# Stress axis : x y z
#
# Youngs Moduli (GPa) = 131.65038 58.26040 36.01707
#
# Poissons Ratio (x) = -0.00129 0.28089
# Poissons Ratio (y) = -0.00291 0.04515
# Poissons Ratio (z) = 1.02670 0.07303
#
# Static dielectric constant tensor:
#      x y z
#    x 1.723280 0.000000 -0.022960 
#    y 0.000000 1.755360 0.000000 
#    z -0.022960 0.000000 1.687210 
# 
# From -- ./inp_files/53368.got.cif
#   From: 2010.05.17/outbox.cif.g08.bks.cpg/sg10_27_cif.got.tgz:53368.got - 2010.06.03 11:33:40.
