data_PCOD9154191
_publ_section_title
;
Structure prediction by ZEFSAII (Michael W. Deem and Ramdas Pophale) SiO2 
 PCOD9154191
Probable space group: P 2/M
;
_chemical_formula_sum "Si O2"
_cell_formula_units_Z 28
_cell_length_a 11.619366
_cell_length_b 21.335319
_cell_length_c 11.284882
_cell_angle_alpha 90.000000
_cell_angle_beta 26.728301
_cell_angle_gamma 90.000000
_cell_volume 1258.228842
_symmetry_space_group_name_H-M "P 2/M"
_symmetry_group_IT_number 10
_symmetry_cell_setting 'monoclinic'
loop_
_space_group_symop_operation_xyz
x,y,z
-x,y,-z
-x,-y,-z
x,-y,z
loop_
_atom_site_type_symbol
_atom_site_label
_atom_site_fract_x
_atom_site_fract_y
_atom_site_fract_z
Si Si1 0.024041 0.893640 0.605044
Si Si2 0.447523 0.826655 0.333317
Si Si3 0.217851 0.732509 0.705028
Si Si4 0.726883 0.762968 0.883136
Si Si5 0.498099 0.427253 0.144207
Si Si6 0.981750 0.354198 0.309297
Si Si7 0.183121 0.068904 0.945996
O O1 0.855742 0.830320 0.745206
O O2 0.944143 0.924199 0.804869
O O3 0.000000 0.927384 0.500000
O O4 0.312785 0.869725 0.359024
O O5 0.233460 0.794134 0.608709
O O6 0.598694 0.770590 0.130587
O O7 0.627626 0.872741 0.239130
O O8 0.500000 0.725342 0.500000
O O9 0.137321 0.673305 0.701038
O O10 0.000000 0.742641 0.000000
O O11 0.929497 0.707299 0.699240
O O12 0.500000 0.750602 0.000000
O O13 0.496009 0.500000 0.182505
O O14 0.240254 0.393302 0.423606
O O15 0.500000 0.424587 0.000000
O O16 0.757806 0.393417 0.947980
O O17 0.311002 0.000000 0.826566
O O18 0.000000 0.070667 0.000000
#
# Coordination Sequence:
#
# PCOD9154191 Si02
#       7
#     4   4   4   4   4   4   4
#     4  11  23  40  68 103 142 181 230 300 374 444
#     4  11  24  41  70  99 139 187 229 296 373 439
#     4  12  27  44  69 104 144 183 236 302 366 435
#     4  11  22  39  64 102 143 179 224 288 369 444
#     4  11  25  44  70 104 146 192 239 290 352 427
#     4  12  24  43  69 104 142 190 237 297 354 426
#     4  10  26  48  68  97 137 190 255 307 358 438
#
# _framework density 22.253502999999998
#
# number of rings (size 3 to 8) (size 9 to 14) (size 15 to 20)
#    0.000    0.857    2.857    3.857    4.000    4.286 
#    0.000    2.143    0.000    9.000    0.000    0.000 
#    0.000    0.000    0.000    0.000    0.000    0.000 
#
# Total GULP energy -156758.998989 kJ/mol
# GULP energy per Si atom -5598.535678 kJ/mol
# Density = 2.220285 g / cm^3
# Si number density = 22.253503 Si / 1000 Ang^3
#
#
#
# Elastic Constant Matrix: (Units=GPa)
#
#
# Indices 1 2 3 4 5 6 
#
# 1 132.2058 46.6729 40.3024 0.0000 -8.2716 0.0000
# 2 46.6729 133.1378 57.2323 0.0000 -3.3314 0.0000
# 3 40.3024 57.2323 130.8874 0.0000 0.9626 0.0000
# 4 0.0000 0.0000 0.0000 -0.2478 0.0000 -14.6280
# 5 -8.2716 -3.3314 0.9626 0.0000 47.4611 0.0000
# 6 0.0000 0.0000 0.0000 -14.6280 0.0000 70.7729
#
#
#
# Elastic Compliance Matrix: (Units=1/GPa)
#
#
# Indices 1 2 3 4 5 6 
#
# 1 0.009027 -0.002375 -0.001751 0.000000 0.001442 0.000000
# 2 -0.002375 0.009900 -0.003600 0.000000 0.000354 0.000000
# 3 -0.001751 -0.003600 0.009759 0.000000 -0.000756 0.000000
# 4 0.000000 0.000000 0.000000 -0.305691 0.000000 -0.063183
# 5 0.001442 0.000354 -0.000756 0.000000 0.021361 0.000000
# 6 0.000000 0.000000 0.000000 -0.063183 0.000000 0.001070
#
#
# Mechanical properties :
#
#
# Convention : Reuss Voigt Hill
#
# Bulk Modulus (GPa) = 75.57359 76.07181 75.82270
# Shear Modulus (GPa) = -21.30299 40.39878 9.54790
#
# Velocity S-wave (km/s) = -3.09736 4.26536 2.07360
# Velocity P-wave (km/s) = 4.60896 7.64958 6.31501
#
# Compressibility (1/GPa) = 0.01323214
#
# Stress axis : x y z
#
# Youngs Moduli (GPa) = 110.78253 101.00776 102.46722
#
# Poissons Ratio (x) = 0.23994 0.17946
# Poissons Ratio (y) = 0.26316 0.36890
# Poissons Ratio (z) = 0.19402 0.36365
#
# Static dielectric constant tensor:
#      x y z
#    x 1.860060 0.000000 0.031400 
#    y 0.000000 1.791940 0.000000 
#    z 0.031400 0.000000 1.875040 
# 
# From -- ./inp_files/48015.got.cif
#   From: 2010.05.17/outbox.cif.g08.bks.cpg/sg10_25_cif.got.tgz:48015.got - 2010.06.03 11:33:40.
