data_PCOD9154743
_publ_section_title
;
Structure prediction by ZEFSAII (Michael W. Deem and Ramdas Pophale) SiO2 
 PCOD9154743
Probable space group: P 2/M
;
_chemical_formula_sum "Si O2"
_cell_formula_units_Z 24
_cell_length_a 12.850681
_cell_length_b 14.801384
_cell_length_c 16.726776
_cell_angle_alpha 90.000000
_cell_angle_beta 153.052310
_cell_angle_gamma 90.000000
_cell_volume 1441.811266
_symmetry_space_group_name_H-M "P 2/M"
_symmetry_group_IT_number 10
_symmetry_cell_setting 'monoclinic'
loop_
_space_group_symop_operation_xyz
x,y,z
-x,y,-z
-x,-y,-z
x,-y,z
loop_
_atom_site_type_symbol
_atom_site_label
_atom_site_fract_x
_atom_site_fract_y
_atom_site_fract_z
Si Si1 0.104838 0.000000 0.819011
Si Si2 0.152438 0.000000 0.679929
Si Si3 0.000000 0.856550 0.000000
Si Si4 0.485761 0.607309 0.357568
Si Si5 0.702210 0.726821 0.910642
Si Si6 0.478262 0.842013 0.072569
Si Si7 0.880606 0.392807 0.752131
Si Si8 0.746460 0.000000 0.716072
O O1 0.009578 0.000000 0.663937
O O2 0.261688 0.089558 0.930650
O O3 0.926200 0.000000 0.766833
O O4 0.311392 0.911837 0.784100
O O5 0.000000 0.000000 0.500000
O O6 0.848966 0.797200 0.957588
O O7 0.819237 0.915984 0.823475
O O8 0.488353 0.500000 0.342001
O O9 0.441950 0.665794 0.249499
O O10 0.275118 0.622824 0.275304
O O11 0.717091 0.629776 0.565028
O O12 0.545959 0.776224 0.869323
O O13 0.890759 0.664936 0.084318
O O14 0.500000 0.796333 0.000000
O O15 0.929237 0.500000 0.782741
O O16 0.500000 0.000000 0.500000
#
# Coordination Sequence:
#
# PCOD9154743 Si02
#       8
#     2   2   2   4   4   4   4   2
#     4   9  17  38  56  68 104 145 171 224 270 311
#     4   9  19  37  61  78  93 134 194 232 271 309
#     4  11  24  34  49  82 112 140 181 220 264 333
#     4   9  18  32  51  80 112 145 183 213 256 327
#     4  12  19  33  56  78 113 139 173 227 275 311
#     4   9  20  37  55  75 102 137 183 231 267 310
#     4   9  18  32  51  79 114 147 178 212 261 327
#     4  11  24  39  51  75 116 159 175 200 277 349
#
# _framework density 16.645728999999999
#
# number of rings (size 3 to 8) (size 9 to 14) (size 15 to 20)
#    0.000    2.167    3.333    2.500    0.000    4.000 
#    6.000    0.000    0.000    2.000    0.000    2.333 
#    0.000    0.000    0.000    0.000    0.000    0.000 
#
# Total GULP energy -133714.827495 kJ/mol
# GULP energy per Si atom -5571.451146 kJ/mol
# Density = 1.660784 g / cm^3
# Si number density = 16.645729 Si / 1000 Ang^3
#
#
#
# Elastic Constant Matrix: (Units=GPa)
#
#
# Indices 1 2 3 4 5 6 
#
# 1 98.7145 43.3467 35.9918 0.0000 -18.2982 0.0000
# 2 43.3467 64.5486 41.3432 0.0000 -19.8883 0.0000
# 3 35.9918 41.3432 81.9423 0.0000 -23.7611 0.0000
# 4 0.0000 0.0000 0.0000 -51.0996 0.0000 19.0230
# 5 -18.2982 -19.8883 -23.7611 0.0000 23.7782 0.0000
# 6 0.0000 0.0000 0.0000 19.0230 0.0000 -6.9859
#
#
#
# Elastic Compliance Matrix: (Units=1/GPa)
#
#
# Indices 1 2 3 4 5 6 
#
# 1 0.014776 -0.007947 -0.001564 0.000000 0.003161 0.000000
# 2 -0.007947 0.029278 -0.008383 0.000000 0.009996 0.000000
# 3 -0.001564 -0.008383 0.020751 0.000000 0.012521 0.000000
# 4 0.000000 0.000000 0.000000 1.426645 0.000000 3.884829
# 5 0.003161 0.009996 0.012521 0.000000 0.065361 0.000000
# 6 0.000000 0.000000 0.000000 3.884829 0.000000 10.435449
#
#
# Mechanical properties :
#
#
# Convention : Reuss Voigt Hill
#
# Bulk Modulus (GPa) = 34.46195 54.06321 44.26258
# Shear Modulus (GPa) = 0.41536 1.44012 0.92774
#
# Velocity S-wave (km/s) = 0.50007 0.93115 0.74736
# Velocity P-wave (km/s) = 4.59146 5.80563 5.23387
#
# Compressibility (1/GPa) = 0.02901751
#
# Stress axis : x y z
#
# Youngs Moduli (GPa) = 67.67740 34.15543 48.19090
#
# Poissons Ratio (x) = 0.27143 0.07537
# Poissons Ratio (y) = 0.53783 0.40397
# Poissons Ratio (z) = 0.10584 0.28631
#
# Static dielectric constant tensor:
#      x y z
#    x 1.538360 0.000000 -0.018030 
#    y 0.000000 1.560680 0.000000 
#    z -0.018030 0.000000 1.577080 
# 
# From -- ./inp_files/65215.got.cif
#   From: 2010.05.17/outbox.cif.g08.bks.cpg/sg10_33_cif.got.tgz:65215.got - 2010.06.03 11:33:40.
