data_PCOD9154263
_publ_section_title
;
Structure prediction by ZEFSAII (Michael W. Deem and Ramdas Pophale) SiO2 
 PCOD9154263
Probable space group: P 2/M
;
_chemical_formula_sum "Si O2"
_cell_formula_units_Z 32
_cell_length_a 29.202764
_cell_length_b 13.799542
_cell_length_c 10.356679
_cell_angle_alpha 90.000000
_cell_angle_beta 150.549167
_cell_angle_gamma 90.000000
_cell_volume 2052.053135
_symmetry_space_group_name_H-M "P 2/M"
_symmetry_group_IT_number 10
_symmetry_cell_setting 'monoclinic'
loop_
_space_group_symop_operation_xyz
x,y,z
-x,y,-z
-x,-y,-z
x,-y,z
loop_
_atom_site_type_symbol
_atom_site_label
_atom_site_fract_x
_atom_site_fract_y
_atom_site_fract_z
Si Si1 0.309701 0.617096 0.770090
Si Si2 0.204452 0.300672 0.267205
Si Si3 0.492812 0.382750 0.630536
Si Si4 0.112378 0.112361 0.124413
Si Si5 0.008189 0.384556 0.872077
Si Si6 0.183647 0.693701 0.696655
Si Si7 0.714963 0.382564 0.799393
Si Si8 0.892671 0.112635 0.578603
O O1 0.302882 0.500000 0.743325
O O2 0.272980 0.665243 0.549460
O O3 0.244778 0.652263 0.728378
O O4 0.415623 0.644976 0.064864
O O5 0.244554 0.335513 0.230219
O O6 0.179517 0.187349 0.218499
O O7 0.105486 0.351520 0.052693
O O8 0.500000 0.347801 0.500000
O O9 0.494495 0.500000 0.628969
O O10 0.393868 0.356669 0.448628
O O11 0.003009 0.130228 0.824438
O O12 0.131917 0.000000 0.143750
O O13 0.121133 0.125894 0.300951
O O14 0.005606 0.500000 0.870284
O O15 0.919914 0.348170 0.576082
O O16 0.000000 0.347522 0.000000
O O17 0.170033 0.809150 0.648406
O O18 0.229769 0.657522 0.941168
O O19 0.722808 0.500000 0.813871
O O20 0.873433 0.000000 0.501085
#
# Coordination Sequence:
#
# PCOD9154263 Si02
#       8
#     4   4   4   4   4   4   4   4
#     4  11  20  32  56  81 104 140 186 223 262 322
#     4  12  22  35  51  80 113 144 179 221 270 316
#     4   9  18  35  56  77 102 139 183 228 268 313
#     4   9  17  33  55  78 105 139 180 229 270 307
#     4  11  20  30  48  74 108 144 181 213 249 314
#     4  12  20  33  54  79 106 145 184 216 264 322
#     4  11  24  38  52  77 115 147 179 223 270 320
#     4   9  17  32  55  81 103 133 185 237 263 300
#
# _framework density 15.594137999999999
#
# number of rings (size 3 to 8) (size 9 to 14) (size 15 to 20)
#    0.000    1.500    5.000    3.000    0.000    1.000 
#    0.000    3.750    0.000    1.500    0.000    5.250 
#    0.000    0.000    0.000    0.000    0.000    0.000 
#
# Total GULP energy -178583.536327 kJ/mol
# GULP energy per Si atom -5580.735510 kJ/mol
# Density = 1.555864 g / cm^3
# Si number density = 15.594138 Si / 1000 Ang^3
#
#
#
# Elastic Constant Matrix: (Units=GPa)
#
#
# Indices 1 2 3 4 5 6 
#
# 1 87.1936 35.6876 38.3101 0.0000 -1.3860 0.0000
# 2 35.6876 103.6052 35.7264 0.0000 0.4208 0.0000
# 3 38.3101 35.7264 105.4161 0.0000 5.1405 0.0000
# 4 0.0000 0.0000 0.0000 8.9417 0.0000 -8.0098
# 5 -1.3860 0.4208 5.1405 0.0000 24.2412 0.0000
# 6 0.0000 0.0000 0.0000 -8.0098 0.0000 17.8088
#
#
#
# Elastic Compliance Matrix: (Units=1/GPa)
#
#
# Indices 1 2 3 4 5 6 
#
# 1 0.014863 -0.003662 -0.004249 0.000000 0.001814 0.000000
# 2 -0.003662 0.011840 -0.002690 0.000000 0.000155 0.000000
# 3 -0.004249 -0.002690 0.012076 0.000000 -0.002757 0.000000
# 4 0.000000 0.000000 0.000000 0.187294 0.000000 0.084238
# 5 0.001814 0.000155 -0.002757 0.000000 0.041938 0.000000
# 6 0.000000 0.000000 0.000000 0.084238 0.000000 0.094039
#
#
# Mechanical properties :
#
#
# Convention : Reuss Voigt Hill
#
# Bulk Modulus (GPa) = 56.88641 57.29593 57.09117
# Shear Modulus (GPa) = 12.84980 22.63106 17.74043
#
# Velocity S-wave (km/s) = 2.87368 3.81367 3.37654
# Velocity P-wave (km/s) = 6.89705 7.49759 7.20358
#
# Compressibility (1/GPa) = 0.01757889
#
# Stress axis : x y z
#
# Youngs Moduli (GPa) = 67.28003 84.45794 82.80662
#
# Poissons Ratio (x) = 0.30928 0.35184
# Poissons Ratio (y) = 0.24638 0.22271
# Poissons Ratio (z) = 0.28587 0.22715
#
# Static dielectric constant tensor:
#      x y z
#    x 1.505880 0.000000 -0.002420 
#    y 0.000000 1.533490 0.000000 
#    z -0.002420 0.000000 1.513350 
# 
# From -- ./inp_files/36416.got.cif
#   From: 2010.05.17/outbox.cif.g08.bks.cpg/sg10_19_cif.got.tgz:36416.got - 2010.06.03 11:33:40.
