data_PCOD9154742
_publ_section_title
;
Structure prediction by ZEFSAII (Michael W. Deem and Ramdas Pophale) SiO2 
 PCOD9154742
Probable space group: P 2/M
;
_chemical_formula_sum "Si O2"
_cell_formula_units_Z 14
_cell_length_a 5.111028
_cell_length_b 19.759367
_cell_length_c 5.324522
_cell_angle_alpha 90.000000
_cell_angle_beta 91.391492
_cell_angle_gamma 90.000000
_cell_volume 537.568515
_symmetry_space_group_name_H-M "P 2/M"
_symmetry_group_IT_number 10
_symmetry_cell_setting 'monoclinic'
loop_
_space_group_symop_operation_xyz
x,y,z
-x,y,-z
-x,-y,-z
x,-y,z
loop_
_atom_site_type_symbol
_atom_site_label
_atom_site_fract_x
_atom_site_fract_y
_atom_site_fract_z
Si Si1 0.348443 0.595162 0.746997
Si Si2 0.825106 0.745252 0.245498
Si Si3 0.000000 0.000000 0.000000
Si Si4 0.732336 0.894023 0.329164
Si Si5 0.000000 0.500000 0.000000
O O1 0.500000 0.575500 0.500000
O O2 0.335132 0.676139 0.755286
O O3 0.500000 0.570789 0.000000
O O4 0.072746 0.559623 0.791508
O O5 0.675584 0.816489 0.254058
O O6 0.000000 0.742527 0.500000
O O7 0.000000 0.745890 0.000000
O O8 0.200995 0.059036 0.901641
O O9 0.500000 0.919377 0.500000
O O10 0.000000 0.896286 0.500000
#
# Coordination Sequence:
#
# PCOD9154742 Si02
#       5
#     4   4   1   4   1
#     4  12  27  47  75 107 142 195 249 302 374 448
#     4  11  23  48  75 108 143 192 250 315 373 442
#     4  12  24  48  72 108 152 200 248 310 382 468
#     4  11  26  46  72 108 148 196 253 314 380 452
#     4  12  28  48  72 104 162 182 242 306 378 456
#
# _framework density 26.043192000000001
#
# number of rings (size 3 to 8) (size 9 to 14) (size 15 to 20)
#    0.000    0.571    2.857    4.286    0.000    5.714 
#    0.000    0.000    0.000    0.000    0.000    0.000 
#    0.000    0.000    0.000    0.000    0.000    0.000 
#
# Total GULP energy -78017.348759 kJ/mol
# GULP energy per Si atom -5572.667768 kJ/mol
# Density = 2.598392 g / cm^3
# Si number density = 26.043192 Si / 1000 Ang^3
#
#
#
# Elastic Constant Matrix: (Units=GPa)
#
#
# Indices 1 2 3 4 5 6 
#
# 1 96.0854 22.6893 68.2309 0.0000 -34.4301 0.0000
# 2 22.6893 254.6121 43.5999 0.0000 -36.1315 0.0000
# 3 68.2309 43.5999 232.9297 0.0000 -58.4253 0.0000
# 4 0.0000 0.0000 0.0000 57.4588 0.0000 -41.2336
# 5 -34.4301 -36.1315 -58.4253 0.0000 85.4427 0.0000
# 6 0.0000 0.0000 0.0000 -41.2336 0.0000 56.8916
#
#
#
# Elastic Compliance Matrix: (Units=1/GPa)
#
#
# Indices 1 2 3 4 5 6 
#
# 1 0.013927 -0.000220 -0.003203 0.000000 0.003328 0.000000
# 2 -0.000220 0.004214 -0.000362 0.000000 0.001446 0.000000
# 3 -0.003203 -0.000362 0.005959 0.000000 0.002631 0.000000
# 4 0.000000 0.000000 0.000000 0.036266 0.000000 0.026285
# 5 0.003328 0.001446 0.002631 0.000000 0.015456 0.000000
# 6 0.000000 0.000000 0.000000 0.026285 0.000000 0.036628
#
#
# Mechanical properties :
#
#
# Convention : Reuss Voigt Hill
#
# Bulk Modulus (GPa) = 60.49688 94.74084 77.61886
# Shear Modulus (GPa) = 39.83088 69.89907 54.86497
#
# Velocity S-wave (km/s) = 3.91502 5.18632 4.59485
# Velocity P-wave (km/s) = 6.61183 8.50419 7.61701
#
# Compressibility (1/GPa) = 0.01652978
#
# Stress axis : x y z
#
# Youngs Moduli (GPa) = 71.80382 237.28710 167.80946
#
# Poissons Ratio (x) = 0.05225 0.53757
# Poissons Ratio (y) = 0.01581 0.06068
# Poissons Ratio (z) = 0.23002 0.08580
#
# Static dielectric constant tensor:
#      x y z
#    x 2.294840 0.000000 0.080080 
#    y 0.000000 2.001750 0.000000 
#    z 0.080080 0.000000 1.998860 
# 
# From -- ./inp_files/1175.got.cif
#   From: 2010.05.17/outbox.cif.g08.bks.cpg/sg10_1_cif.got.tgz:1175.got - 2010.06.03 11:33:40.
