data_PCOD9154090
_publ_section_title
;
Structure prediction by ZEFSAII (Michael W. Deem and Ramdas Pophale) SiO2 
 PCOD9154090
Probable space group: P 2/M
;
_chemical_formula_sum "Si O2"
_cell_formula_units_Z 17
_cell_length_a 10.546324
_cell_length_b 7.635886
_cell_length_c 17.262928
_cell_angle_alpha 90.000000
_cell_angle_beta 145.984354
_cell_angle_gamma 90.000000
_cell_volume 777.700589
_symmetry_space_group_name_H-M "P 2/M"
_symmetry_group_IT_number 10
_symmetry_cell_setting 'monoclinic'
loop_
_space_group_symop_operation_xyz
x,y,z
-x,y,-z
-x,-y,-z
x,-y,z
loop_
_atom_site_type_symbol
_atom_site_label
_atom_site_fract_x
_atom_site_fract_y
_atom_site_fract_z
Si Si1 0.304210 0.801349 0.200290
Si Si2 0.398617 0.285560 0.073518
Si Si3 0.834537 0.706055 0.197466
Si Si4 0.000000 0.500000 0.000000
Si Si5 0.346550 0.790074 0.492905
O O1 0.366348 0.794379 0.141137
O O2 0.522149 0.749131 0.361553
O O3 0.235878 0.000000 0.187091
O O4 0.113257 0.654833 0.111977
O O5 0.378680 0.500000 0.076094
O O6 0.643504 0.236791 0.161911
O O7 0.224035 0.226073 0.918177
O O8 0.791291 0.500000 0.168530
O O9 0.088421 0.732634 0.353807
O O10 0.500000 0.722097 0.500000
O O11 0.340582 0.000000 0.484209
#
# Coordination Sequence:
#
# PCOD9154090 Si02
#       5
#     4   4   4   1   4
#     4  11  25  42  65  95 123 165 214 257 313 375
#     4   9  19  40  63  94 127 163 211 260 311 365
#     4   9  20  37  65  92 124 167 210 256 309 375
#     4  12  26  44  66  90 132 166 204 264 312 374
#     4  10  24  42  58  87 128 164 206 260 315 373
#
# _framework density 21.859310000000001
#
# number of rings (size 3 to 8) (size 9 to 14) (size 15 to 20)
#    0.000    2.118    1.176    1.765    4.941    3.294 
#    0.000    7.059    0.000    0.000    0.000    0.000 
#    0.000    0.000    0.000    0.000    0.000    0.000 
#
# Total GULP energy -94726.290025 kJ/mol
# GULP energy per Si atom -5572.134707 kJ/mol
# Density = 2.180956 g / cm^3
# Si number density = 21.859310 Si / 1000 Ang^3
#
#
#
# Elastic Constant Matrix: (Units=GPa)
#
#
# Indices 1 2 3 4 5 6 
#
# 1 77.6941 13.6556 47.1110 0.0000 -14.3774 0.0000
# 2 13.6556 82.9821 32.1770 0.0000 3.8453 0.0000
# 3 47.1110 32.1770 173.3655 0.0000 5.8704 0.0000
# 4 0.0000 0.0000 0.0000 40.7570 0.0000 11.7337
# 5 -14.3774 3.8453 5.8704 0.0000 32.4833 0.0000
# 6 0.0000 0.0000 0.0000 11.7337 0.0000 34.2480
#
#
#
# Elastic Compliance Matrix: (Units=1/GPa)
#
#
# Indices 1 2 3 4 5 6 
#
# 1 0.017706 -0.001447 -0.004844 0.000000 0.008884 0.000000
# 2 -0.001447 0.013143 -0.001984 0.000000 -0.001838 0.000000
# 3 -0.004844 -0.001984 0.007564 0.000000 -0.003276 0.000000
# 4 0.000000 0.000000 0.000000 0.027221 0.000000 -0.009326
# 5 0.008884 -0.001838 -0.003276 0.000000 0.035527 0.000000
# 6 0.000000 0.000000 0.000000 -0.009326 0.000000 0.032394
#
#
# Mechanical properties :
#
#
# Convention : Reuss Voigt Hill
#
# Bulk Modulus (GPa) = 45.73840 57.76989 51.75415
# Shear Modulus (GPa) = 31.76776 37.57087 34.66931
#
# Velocity S-wave (km/s) = 3.81633 4.15029 3.98681
# Velocity P-wave (km/s) = 6.35520 7.03221 6.70226
#
# Compressibility (1/GPa) = 0.02186347
#
# Stress axis : x y z
#
# Youngs Moduli (GPa) = 56.47674 76.08377 132.21234
#
# Poissons Ratio (x) = 0.11011 0.64041
# Poissons Ratio (y) = 0.08173 0.26230
# Poissons Ratio (z) = 0.27356 0.15095
#
# Static dielectric constant tensor:
#      x y z
#    x 1.884340 0.000000 0.035650 
#    y 0.000000 1.874670 0.000000 
#    z 0.035650 0.000000 1.792710 
# 
# From -- ./inp_files/22478.got.cif
#   From: 2010.05.17/outbox.cif.g08.bks.cpg/sg10_12_cif.got.tgz:22478.got - 2010.06.03 11:33:40.
