data_PCOD9154145
_publ_section_title
;
Structure prediction by ZEFSAII (Michael W. Deem and Ramdas Pophale) SiO2 
 PCOD9154145
Probable space group: P 2/M
;
_chemical_formula_sum "Si O2"
_cell_formula_units_Z 19
_cell_length_a 5.285968
_cell_length_b 19.954911
_cell_length_c 9.115400
_cell_angle_alpha 90.000000
_cell_angle_beta 73.239111
_cell_angle_gamma 90.000000
_cell_volume 920.653811
_symmetry_space_group_name_H-M "P 2/M"
_symmetry_group_IT_number 10
_symmetry_cell_setting 'monoclinic'
loop_
_space_group_symop_operation_xyz
x,y,z
-x,y,-z
-x,-y,-z
x,-y,z
loop_
_atom_site_type_symbol
_atom_site_label
_atom_site_fract_x
_atom_site_fract_y
_atom_site_fract_z
Si Si1 0.500000 0.735394 0.500000
Si Si2 0.500000 0.500000 0.500000
Si Si3 0.028549 0.192793 0.671233
Si Si4 0.256363 0.388919 0.375153
Si Si5 0.204863 0.921704 0.100490
Si Si6 0.200436 0.313814 0.101616
O O1 0.678106 0.682785 0.561181
O O2 0.666562 0.783161 0.364999
O O3 0.484228 0.440655 0.375856
O O4 0.922984 0.123163 0.751191
O O5 0.879237 0.248506 0.791834
O O6 0.000000 0.193945 0.500000
O O7 0.192481 0.375005 0.217975
O O8 0.000000 0.418312 0.500000
O O9 0.224634 0.000000 0.139432
O O10 0.500000 0.900155 0.000000
O O11 0.000000 0.916031 0.000000
O O12 0.500000 0.306975 0.000000
O O13 0.000000 0.321232 0.000000
#
# Coordination Sequence:
#
# PCOD9154145 Si02
#       6
#     2   1   4   4   4   4
#     4  11  20  39  67  98 139 164 230 292 335 396
#     4  10  26  40  80  88 134 176 246 256 346 396
#     4  12  24  39  67 101 133 177 233 284 338 401
#     4  11  22  45  68  99 130 181 226 280 332 413
#     4  10  24  46  67  94 139 187 228 276 342 411
#     4  12  25  41  67 100 139 175 220 283 350 400
#
# _framework density 20.637505999999998
#
# number of rings (size 3 to 8) (size 9 to 14) (size 15 to 20)
#    0.000    0.842    4.211    2.842    5.895    0.421 
#    0.000    1.579    0.000    0.000    0.000    0.000 
#    0.000    0.000    0.000    0.000    0.000    0.000 
#
# Total GULP energy -105809.419797 kJ/mol
# GULP energy per Si atom -5568.916831 kJ/mol
# Density = 2.059053 g / cm^3
# Si number density = 20.637506 Si / 1000 Ang^3
#
#
#
# Elastic Constant Matrix: (Units=GPa)
#
#
# Indices 1 2 3 4 5 6 
#
# 1 104.9999 35.0041 56.4271 0.0000 0.7719 0.0000
# 2 35.0041 113.8203 68.9279 0.0000 1.4743 0.0000
# 3 56.4271 68.9279 142.5195 0.0000 3.6210 0.0000
# 4 0.0000 0.0000 0.0000 1410.7399 0.0000 -481.4098
# 5 0.7719 1.4743 3.6210 0.0000 57.6596 0.0000
# 6 0.0000 0.0000 0.0000 -481.4098 0.0000 199.1352
#
#
#
# Elastic Compliance Matrix: (Units=1/GPa)
#
#
# Indices 1 2 3 4 5 6 
#
# 1 0.012208 -0.001170 -0.004271 0.000000 0.000135 0.000000
# 2 -0.001170 0.012537 -0.005602 0.000000 0.000047 0.000000
# 3 -0.004271 -0.005602 0.011430 0.000000 -0.000517 0.000000
# 4 0.000000 0.000000 0.000000 0.004050 0.000000 0.009790
# 5 0.000135 0.000047 -0.000517 0.000000 0.017373 0.000000
# 6 0.000000 0.000000 0.000000 0.009790 0.000000 0.028690
#
#
# Mechanical properties :
#
#
# Convention : Reuss Voigt Hill
#
# Bulk Modulus (GPa) = 70.97052 75.78423 73.37737
# Shear Modulus (GPa) = 44.22093 346.90564 195.56329
#
# Velocity S-wave (km/s) = 4.63400 12.97920 9.74509
# Velocity P-wave (km/s) = 7.94328 16.16831 12.73793
#
# Compressibility (1/GPa) = 0.01409036
#
# Stress axis : x y z
#
# Youngs Moduli (GPa) = 81.91264 79.76352 87.48949
#
# Poissons Ratio (x) = 0.09329 0.37369
# Poissons Ratio (y) = 0.09580 0.49007
# Poissons Ratio (z) = 0.34987 0.44680
#
# Static dielectric constant tensor:
#      x y z
#    x 1.869750 0.000000 0.007980 
#    y 0.000000 1.742560 0.000000 
#    z 0.007980 0.000000 1.717650 
# 
# From -- ./inp_files/15142.got.cif
#   From: 2010.05.17/outbox.cif.g08.bks.cpg/sg10_8_cif.got.tgz:15142.got - 2010.06.03 11:33:40.
