data_PCOD9154730
_publ_section_title
;
Structure prediction by ZEFSAII (Michael W. Deem and Ramdas Pophale) SiO2 
 PCOD9154730
Probable space group: P 2/M
;
_chemical_formula_sum "Si O2"
_cell_formula_units_Z 12
_cell_length_a 4.987338
_cell_length_b 14.844956
_cell_length_c 7.795371
_cell_angle_alpha 90.000000
_cell_angle_beta 57.866180
_cell_angle_gamma 90.000000
_cell_volume 488.730578
_symmetry_space_group_name_H-M "P 2/M"
_symmetry_group_IT_number 10
_symmetry_cell_setting 'monoclinic'
loop_
_space_group_symop_operation_xyz
x,y,z
-x,y,-z
-x,-y,-z
x,-y,z
loop_
_atom_site_type_symbol
_atom_site_label
_atom_site_fract_x
_atom_site_fract_y
_atom_site_fract_z
Si Si1 0.599840 0.278517 0.789146
Si Si2 0.000000 0.138587 0.500000
Si Si3 0.122043 0.000000 0.155629
Si Si4 0.177610 0.397230 0.721158
O O1 0.697236 0.204193 0.618421
O O2 0.313096 0.342812 0.835781
O O3 0.902018 0.341796 0.723158
O O4 0.500000 0.231772 0.000000
O O5 0.990213 0.081786 0.679848
O O6 0.500000 0.000000 0.000000
O O7 0.000000 0.000000 0.000000
O O8 0.500000 0.400832 0.500000
O O9 0.075914 0.500000 0.784906
#
# Coordination Sequence:
#
# PCOD9154730 Si02
#       4
#     4   2   2   4
#     4  12  25  42  70 103 140 190 240 291 355 417
#     4  11  26  50  75 108 152 180 233 304 358 427
#     4  11  28  51  80 110 140 187 233 286 366 449
#     4  11  23  43  67  97 143 194 242 295 351 405
#
# _framework density 24.553405999999999
#
# number of rings (size 3 to 8) (size 9 to 14) (size 15 to 20)
#    0.000    0.667    3.333    3.000    0.000   17.333 
#    0.000    0.000    0.000    0.000    0.000    0.000 
#    0.000    0.000    0.000    0.000    0.000    0.000 
#
# Total GULP energy -67121.759695 kJ/mol
# GULP energy per Si atom -5593.479975 kJ/mol
# Density = 2.449752 g / cm^3
# Si number density = 24.553406 Si / 1000 Ang^3
#
#
#
# Elastic Constant Matrix: (Units=GPa)
#
#
# Indices 1 2 3 4 5 6 
#
# 1 183.2053 65.6236 59.1550 0.0000 0.9669 0.0000
# 2 65.6236 161.1236 79.3917 0.0000 0.8576 0.0000
# 3 59.1550 79.3917 198.6354 0.0000 10.9037 0.0000
# 4 0.0000 0.0000 0.0000 345.7675 0.0000 -158.5837
# 5 0.9669 0.8576 10.9037 0.0000 44.9465 0.0000
# 6 0.0000 0.0000 0.0000 -158.5837 0.0000 89.0851
#
#
#
# Elastic Compliance Matrix: (Units=1/GPa)
#
#
# Indices 1 2 3 4 5 6 
#
# 1 0.006582 -0.002131 -0.001118 0.000000 0.000170 0.000000
# 2 -0.002131 0.008435 -0.002767 0.000000 0.000556 0.000000
# 3 -0.001118 -0.002767 0.006556 0.000000 -0.001514 0.000000
# 4 0.000000 0.000000 0.000000 0.015756 0.000000 0.028048
# 5 0.000170 0.000556 -0.001514 0.000000 0.022602 0.000000
# 6 0.000000 0.000000 0.000000 0.028048 0.000000 0.061155
#
#
# Mechanical properties :
#
#
# Convention : Reuss Voigt Hill
#
# Bulk Modulus (GPa) = 104.80823 105.70057 105.25440
# Shear Modulus (GPa) = 36.68435 118.54609 77.61522
#
# Velocity S-wave (km/s) = 3.86951 6.95598 5.62845
# Velocity P-wave (km/s) = 7.92102 10.37579 9.23037
#
# Compressibility (1/GPa) = 0.00954124
#
# Stress axis : x y z
#
# Youngs Moduli (GPa) = 151.93874 118.55631 152.52391
#
# Poissons Ratio (x) = 0.25261 0.17049
# Poissons Ratio (y) = 0.32374 0.42207
# Poissons Ratio (z) = 0.16983 0.32808
#
# Static dielectric constant tensor:
#      x y z
#    x 1.884860 0.000000 0.063780 
#    y 0.000000 1.954170 0.000000 
#    z 0.063780 0.000000 1.994510 
# 
# From -- ./inp_files/14229.got.cif
#   From: 2010.05.17/outbox.cif.g08.bks.cpg/sg10_8_cif.got.tgz:14229.got - 2010.06.03 11:33:40.
