data_PCOD9154892
_publ_section_title
;
Structure prediction by ZEFSAII (Michael W. Deem and Ramdas Pophale) SiO2 
 PCOD9154892
Probable space group: P 2/M
;
_chemical_formula_sum "Si O2"
_cell_formula_units_Z 32
_cell_length_a 23.477828
_cell_length_b 7.585899
_cell_length_c 6.809464
_cell_angle_alpha 90.000000
_cell_angle_beta 92.835596
_cell_angle_gamma 90.000000
_cell_volume 1211.283561
_symmetry_space_group_name_H-M "P 2/M"
_symmetry_group_IT_number 10
_symmetry_cell_setting 'monoclinic'
loop_
_space_group_symop_operation_xyz
x,y,z
-x,y,-z
-x,-y,-z
x,-y,z
loop_
_atom_site_type_symbol
_atom_site_label
_atom_site_fract_x
_atom_site_fract_y
_atom_site_fract_z
Si Si1 0.345978 0.708773 0.572689
Si Si2 0.864805 0.202113 0.825539
Si Si3 0.107652 0.289957 0.717803
Si Si4 0.542841 0.293563 0.668013
Si Si5 0.380276 0.281501 0.005979
Si Si6 0.775566 0.292875 0.391447
Si Si7 0.257692 0.702859 0.078265
Si Si8 0.984421 0.212364 0.773402
O O1 0.335342 0.500000 0.602761
O O2 0.395037 0.716336 0.422346
O O3 0.282517 0.782683 0.523719
O O4 0.373041 0.774344 0.780100
O O5 0.798815 0.257504 0.805762
O O6 0.920508 0.287946 0.732640
O O7 0.864626 0.000000 0.773369
O O8 0.880384 0.216532 0.061277
O O9 0.114087 0.500000 0.733014
O O10 0.159757 0.220642 0.591352
O O11 0.041561 0.253096 0.661249
O O12 0.500000 0.215877 0.500000
O O13 0.525019 0.500000 0.690463
O O14 0.561061 0.222229 0.883044
O O15 0.381733 0.500000 0.011871
O O16 0.320834 0.216291 0.094988
O O17 0.780389 0.500000 0.442793
O O18 0.760551 0.280798 0.154340
O O19 0.268698 0.500000 0.122949
O O20 0.980411 0.000000 0.769988
O O21 0.000000 0.267838 0.000000
#
# Coordination Sequence:
#
# PCOD9154892 Si02
#       8
#     4   4   4   4   4   4   4   4
#     4   8  13  22  34  47  71 106 137 169 207 243
#     4   9  15  21  29  44  69  98 129 168 212 254
#     4   9  14  19  29  44  64  96 138 173 202 247
#     4   9  16  23  33  53  79 108 140 166 196 248
#     4   8  14  24  36  51  74 104 137 172 207 244
#     4   7  11  19  30  44  61  89 129 164 198 238
#     4   8  13  22  35  48  66  97 134 169 205 246
#     4   8  14  21  26  38  66 100 128 162 212 256
#
# _framework density 26.418258000000002
#
# number of rings (size 3 to 8) (size 9 to 14) (size 15 to 20)
#    0.000    3.750    0.000    3.750    0.000    3.250 
#    0.000    2.500    0.000    0.000    0.000    0.000 
#    0.000   11.500    0.000   25.250    0.000   54.000 
#
# Total GULP energy -178485.077655 kJ/mol
# GULP energy per Si atom -5577.658677 kJ/mol
# Density = 2.635813 g / cm^3
# Si number density = 26.418258 Si / 1000 Ang^3
#
#
#
# Elastic Constant Matrix: (Units=GPa)
#
#
# Indices 1 2 3 4 5 6 
#
# 1 77.8827 9.6221 15.6352 0.0000 40.0032 0.0000
# 2 9.6221 68.0085 1.6760 0.0000 4.1948 0.0000
# 3 15.6352 1.6760 53.1858 0.0000 20.6518 0.0000
# 4 0.0000 0.0000 0.0000 8.9646 0.0000 -12.4019
# 5 40.0032 4.1948 20.6518 0.0000 64.1211 0.0000
# 6 0.0000 0.0000 0.0000 -12.4019 0.0000 10.8841
#
#
#
# Elastic Compliance Matrix: (Units=1/GPa)
#
#
# Indices 1 2 3 4 5 6 
#
# 1 0.019215 -0.001982 -0.001122 0.000000 -0.011497 0.000000
# 2 -0.001982 0.014969 0.000013 0.000000 0.000253 0.000000
# 3 -0.001122 0.000013 0.021556 0.000000 -0.006243 0.000000
# 4 0.000000 0.000000 0.000000 -0.193540 0.000000 -0.220531
# 5 -0.011497 0.000253 -0.006243 0.000000 0.024762 0.000000
# 6 0.000000 0.000000 0.000000 -0.220531 0.000000 -0.159408
#
#
# Mechanical properties :
#
#
# Convention : Reuss Voigt Hill
#
# Bulk Modulus (GPa) = 20.17899 28.10483 24.14191
# Shear Modulus (GPa) = -20.02039 28.27019 4.12490
#
# Velocity S-wave (km/s) = -2.75585 3.27479 1.25091
# Velocity P-wave (km/s) = 1.57207 4.99605 3.35329
#
# Compressibility (1/GPa) = 0.04955649
#
# Stress axis : x y z
#
# Youngs Moduli (GPa) = 52.04279 66.80687 46.39133
#
# Poissons Ratio (x) = 0.13240 0.05206
# Poissons Ratio (y) = 0.10314 -0.00059
# Poissons Ratio (z) = 0.05840 -0.00085
#
# Static dielectric constant tensor:
#      x y z
#    x 2.134770 0.000000 -0.003100 
#    y 0.000000 1.987450 0.000000 
#    z -0.003100 0.000000 2.197500 
# 
# From -- ./inp_files/35694.got.cif
#   From: 2010.05.17/outbox.cif.g08.bks.cpg/sg10_18_cif.got.tgz:35694.got - 2010.06.03 11:33:40.
