data_PCOD9154802
_publ_section_title
;
Structure prediction by ZEFSAII (Michael W. Deem and Ramdas Pophale) SiO2 
 PCOD9154802
Probable space group: P 2/M
;
_chemical_formula_sum "Si O2"
_cell_formula_units_Z 28
_cell_length_a 13.956864
_cell_length_b 17.887762
_cell_length_c 8.593504
_cell_angle_alpha 90.000000
_cell_angle_beta 42.873741
_cell_angle_gamma 90.000000
_cell_volume 1459.717828
_symmetry_space_group_name_H-M "P 2/M"
_symmetry_group_IT_number 10
_symmetry_cell_setting 'monoclinic'
loop_
_space_group_symop_operation_xyz
x,y,z
-x,y,-z
-x,-y,-z
x,-y,z
loop_
_atom_site_type_symbol
_atom_site_label
_atom_site_fract_x
_atom_site_fract_y
_atom_site_fract_z
Si Si1 0.557048 0.914043 0.111374
Si Si2 0.347699 0.729876 0.236375
Si Si3 0.924241 0.585271 0.846478
Si Si4 0.880848 0.746903 0.012929
Si Si5 0.213463 0.582769 0.332478
Si Si6 0.851415 0.831369 0.729529
Si Si7 0.390245 0.789911 0.506432
O O1 0.460913 0.861089 0.336266
O O2 0.548741 0.000000 0.172897
O O3 0.500000 0.912491 0.000000
O O4 0.719532 0.885681 0.924338
O O5 0.326916 0.646553 0.205464
O O6 0.221604 0.778785 0.314635
O O7 0.350674 0.733873 0.416776
O O8 0.500000 0.757681 0.000000
O O9 0.909401 0.500000 0.928464
O O10 0.851147 0.584508 0.763830
O O11 0.088337 0.598345 0.605741
O O12 0.866676 0.656415 0.010486
O O13 0.751490 0.796702 0.228792
O O14 0.897147 0.778456 0.818951
O O15 0.000000 0.758454 0.000000
O O16 0.267462 0.500000 0.298637
O O17 0.000000 0.867114 0.500000
O O18 0.500000 0.759102 0.500000
#
# Coordination Sequence:
#
# PCOD9154802 Si02
#       7
#     4   4   4   4   4   4   4
#     4  11  24  46  74  99 122 164 211 251 311 383
#     4  12  21  38  64  89 123 168 220 263 311 371
#     4   9  18  35  57  86 123 165 215 268 320 369
#     4  12  24  36  61  98 128 168 214 264 317 369
#     4   9  18  33  58  88 119 163 220 274 315 360
#     4  12  22  41  67  93 129 165 214 263 305 369
#     4  12  23  42  62  93 129 164 203 256 315 381
#
# _framework density 19.181789999999999
#
# number of rings (size 3 to 8) (size 9 to 14) (size 15 to 20)
#    0.000    1.000    5.714    3.429    0.000    1.143 
#    0.000    0.714    0.000    1.714    0.000    0.000 
#    0.000    0.000    0.000    0.000    0.000    0.000 
#
# Total GULP energy -156044.443134 kJ/mol
# GULP energy per Si atom -5573.015826 kJ/mol
# Density = 1.913813 g / cm^3
# Si number density = 19.181790 Si / 1000 Ang^3
#
#
#
# Elastic Constant Matrix: (Units=GPa)
#
#
# Indices 1 2 3 4 5 6 
#
# 1 114.5327 17.4798 19.9680 0.0000 -2.3629 0.0000
# 2 17.4798 67.0501 22.4248 0.0000 -24.3789 0.0000
# 3 19.9680 22.4248 75.1748 0.0000 -18.2310 0.0000
# 4 0.0000 0.0000 0.0000 21.3486 0.0000 8.8790
# 5 -2.3629 -24.3789 -18.2310 0.0000 31.4538 0.0000
# 6 0.0000 0.0000 0.0000 8.8790 0.0000 31.9731
#
#
#
# Elastic Compliance Matrix: (Units=1/GPa)
#
#
# Indices 1 2 3 4 5 6 
#
# 1 0.009500 -0.002675 -0.002391 0.000000 -0.002746 0.000000
# 2 -0.002675 0.021989 -0.002053 0.000000 0.015652 0.000000
# 3 -0.002391 -0.002053 0.016430 0.000000 0.007752 0.000000
# 4 0.000000 0.000000 0.000000 0.052958 0.000000 -0.014707
# 5 -0.002746 0.015652 0.007752 0.000000 0.048211 0.000000
# 6 0.000000 0.000000 0.000000 -0.014707 0.000000 0.035360
#
#
# Mechanical properties :
#
#
# Convention : Reuss Voigt Hill
#
# Bulk Modulus (GPa) = 29.69094 41.83366 35.76230
# Shear Modulus (GPa) = 23.81927 30.08075 26.95001
#
# Velocity S-wave (km/s) = 3.52769 3.96434 3.75237
# Velocity P-wave (km/s) = 5.66614 6.54301 6.12030
#
# Compressibility (1/GPa) = 0.03368031
#
# Stress axis : x y z
#
# Youngs Moduli (GPa) = 105.26708 45.47662 60.86467
#
# Poissons Ratio (x) = 0.12166 0.14554
# Poissons Ratio (y) = 0.28160 0.12495
# Poissons Ratio (z) = 0.25171 0.09336
#
# Static dielectric constant tensor:
#      x y z
#    x 1.631020 0.000000 0.020440 
#    y 0.000000 1.662180 0.000000 
#    z 0.020440 0.000000 1.768330 
# 
# From -- ./inp_files/30098.got.cif
#   From: 2010.05.17/outbox.cif.g08.bks.cpg/sg10_16_cif.got.tgz:30098.got - 2010.06.03 11:33:40.
