data_PCOD9154446
_publ_section_title
;
Structure prediction by ZEFSAII (Michael W. Deem and Ramdas Pophale) SiO2 
 PCOD9154446
Probable space group: P 2/M
;
_chemical_formula_sum "Si O2"
_cell_formula_units_Z 28
_cell_length_a 17.259363
_cell_length_b 8.246176
_cell_length_c 21.748102
_cell_angle_alpha 90.000000
_cell_angle_beta 25.003980
_cell_angle_gamma 90.000000
_cell_volume 1308.313048
_symmetry_space_group_name_H-M "P 2/M"
_symmetry_group_IT_number 10
_symmetry_cell_setting 'monoclinic'
loop_
_space_group_symop_operation_xyz
x,y,z
-x,y,-z
-x,-y,-z
x,-y,z
loop_
_atom_site_type_symbol
_atom_site_label
_atom_site_fract_x
_atom_site_fract_y
_atom_site_fract_z
Si Si1 0.315536 0.807242 0.453062
Si Si2 0.001364 0.304553 0.098159
Si Si3 0.831191 0.812539 0.695643
Si Si4 0.968341 0.192286 0.784401
Si Si5 0.700528 0.696402 0.216146
Si Si6 0.766692 0.308210 0.617892
Si Si7 0.344409 0.681614 0.069489
O O1 0.135164 0.748006 0.620220
O O2 0.499405 0.770323 0.358494
O O3 0.339081 0.725116 0.369056
O O4 0.296442 0.000000 0.457052
O O5 0.003375 0.500000 0.098165
O O6 0.001012 0.242749 0.167544
O O7 0.822646 0.255905 0.187251
O O8 0.179058 0.254686 0.930266
O O9 0.704143 0.761255 0.729098
O O10 0.807388 0.687493 0.767973
O O11 0.044184 0.788728 0.527236
O O12 0.801907 0.000000 0.733687
O O13 0.766270 0.246916 0.907531
O O14 0.972956 0.000000 0.776157
O O15 0.686294 0.500000 0.226089
O O16 0.796261 0.500000 0.604146
O O17 0.406518 0.500000 0.009833
O O18 0.500000 0.767281 0.000000
#
# Coordination Sequence:
#
# PCOD9154446 Si02
#       7
#     4   4   4   4   4   4   4
#     4  11  23  38  58  90 127 161 200 253 306 359
#     4   9  20  41  66  90 121 158 203 250 300 362
#     4  11  21  36  57  82 114 149 190 242 298 350
#     4  11  24  40  61  89 124 162 200 248 309 365
#     4   9  20  40  65  92 120 158 202 251 302 359
#     4  11  21  35  58  83 111 152 197 240 289 348
#     4  11  24  41  61  85 115 156 205 250 296 357
#
# _framework density 21.401603999999999
#
# number of rings (size 3 to 8) (size 9 to 14) (size 15 to 20)
#    0.000    1.571    1.429    5.571    0.000    5.714 
#    0.000    5.714    0.000    0.000    0.000    0.000 
#    0.000    0.000    0.000    0.000    0.000    0.000 
#
# Total GULP energy -156167.540383 kJ/mol
# GULP energy per Si atom -5577.412157 kJ/mol
# Density = 2.135289 g / cm^3
# Si number density = 21.401604 Si / 1000 Ang^3
#
#
#
# Elastic Constant Matrix: (Units=GPa)
#
#
# Indices 1 2 3 4 5 6 
#
# 1 146.7413 16.4685 35.9358 0.0000 -11.2569 0.0000
# 2 16.4685 68.4860 7.2802 0.0000 -4.6159 0.0000
# 3 35.9358 7.2802 44.0739 0.0000 -28.3303 0.0000
# 4 0.0000 0.0000 0.0000 31.5280 0.0000 -28.9819
# 5 -11.2569 -4.6159 -28.3303 0.0000 30.9687 0.0000
# 6 0.0000 0.0000 0.0000 -28.9819 0.0000 38.1277
#
#
#
# Elastic Compliance Matrix: (Units=1/GPa)
#
#
# Indices 1 2 3 4 5 6 
#
# 1 0.009540 -0.001485 -0.013221 0.000000 -0.008848 0.000000
# 2 -0.001485 0.015094 -0.000445 0.000000 0.001303 0.000000
# 3 -0.013221 -0.000445 0.073818 0.000000 0.062657 0.000000
# 4 0.000000 0.000000 0.000000 0.105285 0.000000 0.080030
# 5 -0.008848 0.001303 0.062657 0.000000 0.086587 0.000000
# 6 0.000000 0.000000 0.000000 0.080030 0.000000 0.087060
#
#
# Mechanical properties :
#
#
# Convention : Reuss Voigt Hill
#
# Bulk Modulus (GPa) = 14.67348 42.07447 28.37397
# Shear Modulus (GPa) = 11.61705 33.43266 22.52485
#
# Velocity S-wave (km/s) = 2.33236 3.95670 3.24772
# Velocity P-wave (km/s) = 3.75824 6.36994 5.22975
#
# Compressibility (1/GPa) = 0.06815017
#
# Stress axis : x y z
#
# Youngs Moduli (GPa) = 104.81844 66.25269 13.54692
#
# Poissons Ratio (x) = 0.09839 0.17910
# Poissons Ratio (y) = 0.15566 0.00603
# Poissons Ratio (z) = 1.38579 0.02947
#
# Static dielectric constant tensor:
#      x y z
#    x 1.843620 0.000000 0.049220 
#    y 0.000000 1.746990 0.000000 
#    z 0.049220 0.000000 1.915030 
# 
# From -- ./inp_files/84889.got.cif
#   From: 2010.05.17/outbox.cif.g08.bks.cpg/sg10_43_cif.got.tgz:84889.got - 2010.06.03 11:33:40.
