data_PCOD9154962
_publ_section_title
;
Structure prediction by ZEFSAII (Michael W. Deem and Ramdas Pophale) SiO2 
 PCOD9154962
Probable space group: P 2/M
;
_chemical_formula_sum "Si O2"
_cell_formula_units_Z 24
_cell_length_a 21.615043
_cell_length_b 7.366247
_cell_length_c 11.717200
_cell_angle_alpha 90.000000
_cell_angle_beta 131.960186
_cell_angle_gamma 90.000000
_cell_volume 1387.302665
_symmetry_space_group_name_H-M "P 2/M"
_symmetry_group_IT_number 10
_symmetry_cell_setting 'monoclinic'
loop_
_space_group_symop_operation_xyz
x,y,z
-x,y,-z
-x,-y,-z
x,-y,z
loop_
_atom_site_type_symbol
_atom_site_label
_atom_site_fract_x
_atom_site_fract_y
_atom_site_fract_z
Si Si1 0.045080 0.721121 0.883013
Si Si2 0.126954 0.720909 0.217025
Si Si3 0.610020 0.000000 0.021860
Si Si4 0.080421 0.721441 0.670755
Si Si5 0.255047 0.284872 0.776454
Si Si6 0.424240 0.000000 0.747680
Si Si7 0.288614 0.284666 0.550889
O O1 0.045153 0.500000 0.882457
O O2 0.072140 0.780870 0.791488
O O3 0.951205 0.776244 0.800604
O O4 0.104450 0.777337 0.060674
O O5 0.127499 0.500000 0.219263
O O6 0.214994 0.777653 0.376357
O O7 0.668702 0.826085 0.076093
O O8 0.588085 0.000000 0.130014
O O9 0.522668 0.000000 0.848647
O O10 0.079680 0.500000 0.669191
O O11 0.166935 0.774936 0.719281
O O12 0.000000 0.780098 0.500000
O O13 0.264717 0.500000 0.807278
O O14 0.257578 0.254489 0.642951
O O15 0.373375 0.826191 0.640591
O O16 0.301744 0.500000 0.553333
#
# Coordination Sequence:
#
# PCOD9154962 Si02
#       7
#     4   4   2   4   4   2   4
#     4   8  13  21  36  60  89 121 152 178 210 250
#     4   8  13  22  38  61  88 117 148 181 214 250
#     4   9  18  32  45  63  91 114 140 178 221 270
#     4   9  15  23  38  62  91 121 151 179 208 249
#     4   9  17  28  44  65  89 118 146 175 214 256
#     4   9  18  30  46  66  87 113 140 177 227 268
#     4   9  16  27  44  66  89 113 144 179 217 260
#
# _framework density 17.299758000000001
#
# number of rings (size 3 to 8) (size 9 to 14) (size 15 to 20)
#    0.000    3.333    0.000    2.000    0.000    4.667 
#    0.000    3.750    0.000    4.000    0.000    2.333 
#    0.000    6.667    0.000    0.000    0.000    0.000 
#
# Total GULP energy -133782.762174 kJ/mol
# GULP energy per Si atom -5574.281757 kJ/mol
# Density = 1.726038 g / cm^3
# Si number density = 17.299758 Si / 1000 Ang^3
#
#
#
# Elastic Constant Matrix: (Units=GPa)
#
#
# Indices 1 2 3 4 5 6 
#
# 1 85.3341 28.6165 70.0726 0.0000 18.5528 0.0000
# 2 28.6165 68.5135 44.4911 0.0000 10.0195 0.0000
# 3 70.0726 44.4911 160.3368 0.0000 34.0786 0.0000
# 4 0.0000 0.0000 0.0000 22.2728 0.0000 15.3232
# 5 18.5528 10.0195 34.0786 0.0000 28.5022 0.0000
# 6 0.0000 0.0000 0.0000 15.3232 0.0000 9.2790
#
#
#
# Elastic Compliance Matrix: (Units=1/GPa)
#
#
# Indices 1 2 3 4 5 6 
#
# 1 0.019007 -0.003072 -0.006776 0.000000 -0.003190 0.000000
# 2 -0.003072 0.018305 -0.003746 0.000000 0.000044 0.000000
# 3 -0.006776 -0.003746 0.012094 0.000000 -0.008732 0.000000
# 4 0.000000 0.000000 0.000000 -0.329822 0.000000 0.544666
# 5 -0.003190 0.000044 -0.008732 0.000000 0.047587 0.000000
# 6 0.000000 0.000000 0.000000 0.544666 0.000000 -0.791687
#
#
# Mechanical properties :
#
#
# Convention : Reuss Voigt Hill
#
# Bulk Modulus (GPa) = 45.01035 66.72717 55.86876
# Shear Modulus (GPa) = -5.05090 23.41108 9.18009
#
# Velocity S-wave (km/s) = -1.71055 3.68266 2.30608
# Velocity P-wave (km/s) = 4.70883 7.53243 6.28135
#
# Compressibility (1/GPa) = 0.02221711
#
# Stress axis : x y z
#
# Youngs Moduli (GPa) = 52.61336 54.62998 82.68750
#
# Poissons Ratio (x) = 0.16781 0.56030
# Poissons Ratio (y) = 0.16162 0.30976
# Poissons Ratio (z) = 0.35651 0.20465
#
# Static dielectric constant tensor:
#      x y z
#    x 1.557210 0.000000 -0.005720 
#    y 0.000000 1.651310 0.000000 
#    z -0.005720 0.000000 1.572600 
# 
# From -- ./inp_files/55075.got.cif
#   From: 2010.05.17/outbox.cif.g08.bks.cpg/sg10_28_cif.got.tgz:55075.got - 2010.06.03 11:33:40.
