data_PCOD9154000
_publ_section_title
;
Structure prediction by ZEFSAII (Michael W. Deem and Ramdas Pophale) SiO2 
 PCOD9154000
Probable space group: P 2/M
;
_chemical_formula_sum "Si O2"
_cell_formula_units_Z 20
_cell_length_a 6.636726
_cell_length_b 25.907877
_cell_length_c 5.061414
_cell_angle_alpha 90.000000
_cell_angle_beta 85.133858
_cell_angle_gamma 90.000000
_cell_volume 867.140313
_symmetry_space_group_name_H-M "P 2/M"
_symmetry_group_IT_number 10
_symmetry_cell_setting 'monoclinic'
loop_
_space_group_symop_operation_xyz
x,y,z
-x,y,-z
-x,-y,-z
x,-y,z
loop_
_atom_site_type_symbol
_atom_site_label
_atom_site_fract_x
_atom_site_fract_y
_atom_site_fract_z
Si Si1 0.209331 0.767635 0.890513
Si Si2 0.275026 0.834832 0.400349
Si Si3 0.647555 0.056527 0.734539
Si Si4 0.149883 0.613754 0.234072
Si Si5 0.500000 0.686226 0.000000
Si Si6 0.853602 0.500000 0.765016
O O1 0.166321 0.805299 0.651346
O O2 0.333514 0.653170 0.173795
O O3 0.374155 0.724099 0.821176
O O4 0.000000 0.741694 0.000000
O O5 0.500000 0.838335 0.500000
O O6 0.216174 0.893241 0.329279
O O7 0.276450 0.801683 0.134033
O O8 0.500000 0.052654 0.500000
O O9 0.746710 0.000000 0.759814
O O10 0.500000 0.066222 0.000000
O O11 0.248881 0.555994 0.233097
O O12 0.000000 0.622183 0.500000
O O13 0.000000 0.615382 0.000000
O O14 0.000000 0.500000 0.500000
O O15 0.000000 0.500000 0.000000
#
# Coordination Sequence:
#
# PCOD9154000 Si02
#       6
#     4   4   4   4   2   2
#     4  12  26  42  62  89 126 171 218 268 323 379
#     4  11  20  41  64  88 123 165 212 262 319 391
#     4   9  17  30  57  94 123 152 200 259 318 385
#     4  10  23  42  68  99 134 172 216 271 330 391
#     4  12  26  45  66  94 131 176 228 278 324 386
#     4   8  16  37  64  95 132 168 208 263 327 392
#
# _framework density 23.064318
#
# number of rings (size 3 to 8) (size 9 to 14) (size 15 to 20)
#    0.000    1.600    2.000    3.600    0.000    6.000 
#    0.000    0.000    0.000   10.800    0.000    0.000 
#    0.000    0.000    0.000    0.000    0.000    0.000 
#
# Total GULP energy -111707.669385 kJ/mol
# GULP energy per Si atom -5585.383469 kJ/mol
# Density = 2.301182 g / cm^3
# Si number density = 23.064318 Si / 1000 Ang^3
#
#
#
# Elastic Constant Matrix: (Units=GPa)
#
#
# Indices 1 2 3 4 5 6 
#
# 1 79.1780 60.7023 34.6390 0.0000 -16.0002 0.0000
# 2 60.7023 207.2202 58.5528 0.0000 -19.7184 0.0000
# 3 34.6390 58.5528 176.2503 0.0000 3.7504 0.0000
# 4 0.0000 0.0000 0.0000 23.6981 0.0000 -18.6364
# 5 -16.0002 -19.7184 3.7504 0.0000 34.4120 0.0000
# 6 0.0000 0.0000 0.0000 -18.6364 0.0000 -11.8817
#
#
#
# Elastic Compliance Matrix: (Units=1/GPa)
#
#
# Indices 1 2 3 4 5 6 
#
# 1 0.018009 -0.004011 -0.002341 0.000000 0.006330 0.000000
# 2 -0.004011 0.006609 -0.001451 0.000000 0.002080 0.000000
# 3 -0.002341 -0.001451 0.006672 0.000000 -0.002648 0.000000
# 4 0.000000 0.000000 0.000000 0.018893 0.000000 -0.029634
# 5 0.006330 0.002080 -0.002648 0.000000 0.033483 0.000000
# 6 0.000000 0.000000 0.000000 -0.029634 0.000000 -0.037683
#
#
# Mechanical properties :
#
#
# Convention : Reuss Voigt Hill
#
# Bulk Modulus (GPa) = 63.76945 85.60409 74.68677
# Shear Modulus (GPa) = 74.82861 29.82930 52.32896
#
# Velocity S-wave (km/s) = 5.70209 3.60016 4.76839
# Velocity P-wave (km/s) = 8.42973 7.38089 7.92269
#
# Compressibility (1/GPa) = 0.01568149
#
# Stress axis : x y z
#
# Youngs Moduli (GPa) = 55.52898 151.31001 149.87055
#
# Poissons Ratio (x) = 0.60698 0.35089
# Poissons Ratio (y) = 0.22275 0.21753
# Poissons Ratio (z) = 0.13001 0.21962
#
# Static dielectric constant tensor:
#      x y z
#    x 1.963540 0.000000 -0.017680 
#    y 0.000000 1.956040 0.000000 
#    z -0.017680 0.000000 1.821820 
# 
# From -- ./inp_files/5272.got.cif
#   From: 2010.05.17/outbox.cif.g08.bks.cpg/sg10_3_cif.got.tgz:5272.got - 2010.06.03 11:33:40.
