data_PCOD9154060
_publ_section_title
;
Structure prediction by ZEFSAII (Michael W. Deem and Ramdas Pophale) SiO2 
 PCOD9154060
Probable space group: P 2/M
;
_chemical_formula_sum "Si O2"
_cell_formula_units_Z 32
_cell_length_a 13.852499
_cell_length_b 18.231542
_cell_length_c 10.941279
_cell_angle_alpha 90.000000
_cell_angle_beta 31.156352
_cell_angle_gamma 90.000000
_cell_volume 1429.635305
_symmetry_space_group_name_H-M "P 2/M"
_symmetry_group_IT_number 10
_symmetry_cell_setting 'monoclinic'
loop_
_space_group_symop_operation_xyz
x,y,z
-x,y,-z
-x,-y,-z
x,-y,z
loop_
_atom_site_type_symbol
_atom_site_label
_atom_site_fract_x
_atom_site_fract_y
_atom_site_fract_z
Si Si1 0.947915 0.413693 0.921126
Si Si2 0.893354 0.840188 0.322103
Si Si3 0.408577 0.916556 0.466559
Si Si4 0.213126 0.082013 0.317976
Si Si5 0.777878 0.317332 0.767981
Si Si6 0.299706 0.171583 0.994725
Si Si7 0.410148 0.414432 0.838543
Si Si8 0.754159 0.318446 0.515419
O O1 0.991052 0.500000 0.869740
O O2 0.070527 0.372521 0.688019
O O3 0.000000 0.386632 0.000000
O O4 0.733185 0.404695 0.117767
O O5 0.806769 0.891342 0.310905
O O6 0.795614 0.870327 0.551531
O O7 0.825918 0.757004 0.380349
O O8 0.112977 0.843025 0.116174
O O9 0.500000 0.919378 0.500000
O O10 0.428460 0.000000 0.394339
O O11 0.524263 0.852012 0.274733
O O12 0.316563 0.119363 0.094492
O O13 0.000000 0.079170 0.500000
O O14 0.276096 0.000000 0.275017
O O15 0.725849 0.251673 0.917860
O O16 0.698456 0.307057 0.717438
O O17 0.000000 0.315284 0.500000
O O18 0.701151 0.389706 0.918082
O O19 0.464752 0.500000 0.786705
O O20 0.584592 0.360674 0.636124
#
# Coordination Sequence:
#
# PCOD9154060 Si02
#       8
#     4   4   4   4   4   4   4   4
#     4  10  23  45  69  97 137 183 234 285 329 386
#     4  11  22  41  66  96 131 170 217 273 336 398
#     4  11  27  47  64  93 134 177 227 274 325 401
#     4   9  17  32  60  96 124 154 204 261 322 391
#     4  12  21  42  69  98 138 175 216 278 349 404
#     4  11  21  42  69  97 129 172 216 274 338 398
#     4  11  25  41  65 100 137 181 228 274 337 403
#     4  12  23  42  68 101 137 179 223 280 337 407
#
# _framework density 22.383331999999999
#
# number of rings (size 3 to 8) (size 9 to 14) (size 15 to 20)
#    0.000    1.125    3.750    2.625    0.000    4.750 
#    6.750    4.375    0.000    0.000    0.000    0.000 
#    0.000    0.000    0.000    0.000    0.000    0.000 
#
# Total GULP energy -178853.407393 kJ/mol
# GULP energy per Si atom -5589.168981 kJ/mol
# Density = 2.233239 g / cm^3
# Si number density = 22.383332 Si / 1000 Ang^3
#
#
#
# Elastic Constant Matrix: (Units=GPa)
#
#
# Indices 1 2 3 4 5 6 
#
# 1 100.3025 30.5719 7.7034 0.0000 -19.3248 0.0000
# 2 30.5719 90.4812 19.0799 0.0000 -22.4734 0.0000
# 3 7.7034 19.0799 48.0427 0.0000 -22.7392 0.0000
# 4 0.0000 0.0000 0.0000 13.3685 0.0000 -20.9547
# 5 -19.3248 -22.4734 -22.7392 0.0000 27.7580 0.0000
# 6 0.0000 0.0000 0.0000 -20.9547 0.0000 35.6009
#
#
#
# Elastic Compliance Matrix: (Units=1/GPa)
#
#
# Indices 1 2 3 4 5 6 
#
# 1 0.012278 -0.002567 0.003451 0.000000 0.009297 0.000000
# 2 -0.002567 0.014374 -0.001037 0.000000 0.009001 0.000000
# 3 0.003451 -0.001037 0.034974 0.000000 0.030213 0.000000
# 4 0.000000 0.000000 0.000000 0.966634 0.000000 0.568962
# 5 0.009297 0.009001 0.030213 0.000000 0.074535 0.000000
# 6 0.000000 0.000000 0.000000 0.568962 0.000000 0.362981
#
#
# Mechanical properties :
#
#
# Convention : Reuss Voigt Hill
#
# Bulk Modulus (GPa) = 16.30798 39.28187 27.79493
# Shear Modulus (GPa) = 3.36355 27.44357 15.40356
#
# Velocity S-wave (km/s) = 1.22718 3.50533 2.62615
# Velocity P-wave (km/s) = 3.05115 5.82845 4.65190
#
# Compressibility (1/GPa) = 0.06131966
#
# Stress axis : x y z
#
# Youngs Moduli (GPa) = 81.44356 69.57202 28.59304
#
# Poissons Ratio (x) = 0.17861 -0.09867
# Poissons Ratio (y) = 0.20909 0.02964
# Poissons Ratio (z) = -0.28106 0.07212
#
# Static dielectric constant tensor:
#      x y z
#    x 1.882970 0.000000 -0.035780 
#    y 0.000000 1.815340 0.000000 
#    z -0.035780 0.000000 1.822920 
# 
# From -- ./inp_files/51937.got.cif
#   From: 2010.05.17/outbox.cif.g08.bks.cpg/sg10_26_cif.got.tgz:51937.got - 2010.06.03 11:33:40.
