data_PCOD9154440
_publ_section_title
;
Structure prediction by ZEFSAII (Michael W. Deem and Ramdas Pophale) SiO2 
 PCOD9154440
Probable space group: P 2/M
;
_chemical_formula_sum "Si O2"
_cell_formula_units_Z 14
_cell_length_a 9.356491
_cell_length_b 17.530592
_cell_length_c 7.896001
_cell_angle_alpha 90.000000
_cell_angle_beta 32.681329
_cell_angle_gamma 90.000000
_cell_volume 699.331758
_symmetry_space_group_name_H-M "P 2/M"
_symmetry_group_IT_number 10
_symmetry_cell_setting 'monoclinic'
loop_
_space_group_symop_operation_xyz
x,y,z
-x,y,-z
-x,-y,-z
x,-y,z
loop_
_atom_site_type_symbol
_atom_site_label
_atom_site_fract_x
_atom_site_fract_y
_atom_site_fract_z
Si Si1 0.748552 0.664760 0.626369
Si Si2 0.621591 0.172275 0.689963
Si Si3 0.119887 0.912467 0.068714
Si Si4 0.750372 0.500000 0.624443
O O1 0.705245 0.741048 0.561815
O O2 0.761131 0.582231 0.522457
O O3 0.000000 0.674997 0.500000
O O4 0.500000 0.660139 0.000000
O O5 0.885515 0.122020 0.416334
O O6 0.500000 0.172991 0.000000
O O7 0.386200 0.136721 0.814516
O O8 0.180681 0.000000 0.054220
O O9 0.000000 0.911067 0.000000
O O10 0.000000 0.500000 0.500000
O O11 0.500000 0.500000 0.000000
#
# Coordination Sequence:
#
# PCOD9154440 Si02
#       4
#     4   4   4   2
#     4   9  16  28  46  74 107 134 164 207 256 303
#     4  11  21  35  57  83 107 133 172 224 268 303
#     4  11  24  40  55  74 104 142 180 215 260 321
#     4   8  14  24  42  68 103 138 161 194 251 306
#
# _framework density 20.019107999999999
#
# number of rings (size 3 to 8) (size 9 to 14) (size 15 to 20)
#    0.000    2.000    0.000    6.000    0.000    5.714 
#    0.000    0.000    0.000    0.000    0.000    6.000 
#    0.000    0.000    0.000    0.000    0.000    0.000 
#
# Total GULP energy -78061.400565 kJ/mol
# GULP energy per Si atom -5575.814326 kJ/mol
# Density = 1.997354 g / cm^3
# Si number density = 20.019108 Si / 1000 Ang^3
#
#
#
# Elastic Constant Matrix: (Units=GPa)
#
#
# Indices 1 2 3 4 5 6 
#
# 1 34.8023 47.3038 22.3510 0.0000 -20.5777 0.0000
# 2 47.3038 229.1636 37.5008 0.0000 -27.0596 0.0000
# 3 22.3510 37.5008 103.3292 0.0000 -35.7766 0.0000
# 4 0.0000 0.0000 0.0000 7.3897 0.0000 -35.0356
# 5 -20.5777 -27.0596 -35.7766 0.0000 40.9825 0.0000
# 6 0.0000 0.0000 0.0000 -35.0356 0.0000 -7.9079
#
#
#
# Elastic Compliance Matrix: (Units=1/GPa)
#
#
# Indices 1 2 3 4 5 6 
#
# 1 0.052567 -0.008283 -0.001604 0.000000 0.019525 0.000000
# 2 -0.008283 0.006098 -0.000670 0.000000 -0.000717 0.000000
# 3 -0.001604 -0.000670 0.014097 0.000000 0.011058 0.000000
# 4 0.000000 0.000000 0.000000 0.006150 0.000000 -0.027245
# 5 0.019525 -0.000717 0.011058 0.000000 0.043384 0.000000
# 6 0.000000 0.000000 0.000000 -0.027245 0.000000 -0.005747
#
#
# Mechanical properties :
#
#
# Convention : Reuss Voigt Hill
#
# Bulk Modulus (GPa) = 19.36192 64.62291 41.99241
# Shear Modulus (GPa) = 32.28327 25.43550 28.85939
#
# Velocity S-wave (km/s) = 4.02010 3.56836 3.80095
# Velocity P-wave (km/s) = 5.58937 7.02341 6.34702
#
# Compressibility (1/GPa) = 0.05164777
#
# Stress axis : x y z
#
# Youngs Moduli (GPa) = 19.02345 163.97824 70.93848
#
# Poissons Ratio (x) = 1.35819 0.11381
# Poissons Ratio (y) = 0.15757 0.04752
# Poissons Ratio (z) = 0.03052 0.10985
#
# Static dielectric constant tensor:
#      x y z
#    x 1.688320 0.000000 0.013220 
#    y 0.000000 1.816020 0.000000 
#    z 0.013220 0.000000 1.679180 
# 
# From -- ./inp_files/3142.got.cif
#   From: 2010.05.17/outbox.cif.g08.bks.cpg/sg10_2_cif.got.tgz:3142.got - 2010.06.03 11:33:40.
