data_PCOD9154158
_publ_section_title
;
Structure prediction by ZEFSAII (Michael W. Deem and Ramdas Pophale) SiO2 
 PCOD9154158
Probable space group: P 2/M
;
_chemical_formula_sum "Si O2"
_cell_formula_units_Z 16
_cell_length_a 5.389319
_cell_length_b 22.565827
_cell_length_c 5.212851
_cell_angle_alpha 90.000000
_cell_angle_beta 88.460828
_cell_angle_gamma 90.000000
_cell_volume 633.729221
_symmetry_space_group_name_H-M "P 2/M"
_symmetry_group_IT_number 10
_symmetry_cell_setting 'monoclinic'
loop_
_space_group_symop_operation_xyz
x,y,z
-x,y,-z
-x,-y,-z
x,-y,z
loop_
_atom_site_type_symbol
_atom_site_label
_atom_site_fract_x
_atom_site_fract_y
_atom_site_fract_z
Si Si1 0.755048 0.634035 0.346921
Si Si2 0.746774 0.929958 0.337455
Si Si3 0.000000 0.154249 0.000000
Si Si4 0.747818 0.500000 0.157393
Si Si5 0.334560 0.241073 0.765652
O O1 0.500000 0.640086 0.500000
O O2 0.756356 0.564376 0.284612
O O3 0.738544 0.690593 0.162578
O O4 0.000000 0.645403 0.500000
O O5 0.500000 0.911486 0.500000
O O6 0.000000 0.920436 0.500000
O O7 0.727814 0.000000 0.286471
O O8 0.785835 0.893770 0.074199
O O9 0.915540 0.201757 0.221457
O O10 0.500000 0.500000 0.000000
O O11 0.000000 0.500000 0.000000
O O12 0.500000 0.237038 0.500000
O O13 0.500000 0.219920 0.000000
#
# Coordination Sequence:
#
# PCOD9154158 Si02
#       5
#     4   4   2   2   4
#     4  11  25  46  72 102 148 196 256 314 388 452
#     4  10  24  46  73 108 149 195 250 313 379 450
#     4  12  27  40  80  99 162 188 272 292 406 429
#     4  12  24  40  72 106 146 194 257 315 388 454
#     4  11  29  48  74 110 154 206 257 321 385 464
#
# _framework density 25.247375999999999
#
# number of rings (size 3 to 8) (size 9 to 14) (size 15 to 20)
#    0.000    1.000    0.000    4.125   15.750    0.000 
#    0.000    3.750    0.000    0.000    0.000    0.000 
#    0.000    0.000    0.000    0.000    0.000    0.000 
#
# Total GULP energy -89168.487661 kJ/mol
# GULP energy per Si atom -5573.030479 kJ/mol
# Density = 2.518991 g / cm^3
# Si number density = 25.247376 Si / 1000 Ang^3
#
#
#
# Elastic Constant Matrix: (Units=GPa)
#
#
# Indices 1 2 3 4 5 6 
#
# 1 186.8959 39.1971 69.7888 0.0000 -26.2718 0.0000
# 2 39.1971 198.7384 44.9799 0.0000 -26.5539 0.0000
# 3 69.7888 44.9799 116.0709 0.0000 -28.4884 0.0000
# 4 0.0000 0.0000 0.0000 45.2931 0.0000 -16.3277
# 5 -26.2718 -26.5539 -28.4884 0.0000 65.5779 0.0000
# 6 0.0000 0.0000 0.0000 -16.3277 0.0000 45.6455
#
#
#
# Elastic Compliance Matrix: (Units=1/GPa)
#
#
# Indices 1 2 3 4 5 6 
#
# 1 0.006994 -0.000384 -0.003814 0.000000 0.000990 0.000000
# 2 -0.000384 0.005664 -0.001611 0.000000 0.001440 0.000000
# 3 -0.003814 -0.001611 0.012310 0.000000 0.003168 0.000000
# 4 0.000000 0.000000 0.000000 0.025347 0.000000 0.009067
# 5 0.000990 0.001440 0.003168 0.000000 0.017605 0.000000
# 6 0.000000 0.000000 0.000000 0.009067 0.000000 0.025151
#
#
# Mechanical properties :
#
#
# Convention : Reuss Voigt Hill
#
# Bulk Modulus (GPa) = 74.89518 89.95964 82.42741
# Shear Modulus (GPa) = 45.81301 54.48591 50.14946
#
# Velocity S-wave (km/s) = 4.26439 4.65056 4.46165
# Velocity P-wave (km/s) = 7.34681 8.03402 7.69809
#
# Compressibility (1/GPa) = 0.01335199
#
# Stress axis : x y z
#
# Youngs Moduli (GPa) = 142.97346 176.53960 81.23433
#
# Poissons Ratio (x) = 0.06781 0.30980
# Poissons Ratio (y) = 0.05492 0.13084
# Poissons Ratio (z) = 0.54524 0.28435
#
# Static dielectric constant tensor:
#      x y z
#    x 2.148400 0.000000 0.184100 
#    y 0.000000 2.194720 0.000000 
#    z 0.184100 0.000000 2.154840 
# 
# From -- ./inp_files/1600.got.cif
#   From: 2010.05.17/outbox.cif.g08.bks.cpg/sg10_1_cif.got.tgz:1600.got - 2010.06.03 11:33:40.
