data_PCOD9154989
_publ_section_title
;
Structure prediction by ZEFSAII (Michael W. Deem and Ramdas Pophale) SiO2 
 PCOD9154989
Probable space group: P 2/M
;
_chemical_formula_sum "Si O2"
_cell_formula_units_Z 24
_cell_length_a 20.752019
_cell_length_b 7.651405
_cell_length_c 8.106950
_cell_angle_alpha 90.000000
_cell_angle_beta 45.007255
_cell_angle_gamma 90.000000
_cell_volume 910.330363
_symmetry_space_group_name_H-M "P 2/M"
_symmetry_group_IT_number 10
_symmetry_cell_setting 'monoclinic'
loop_
_space_group_symop_operation_xyz
x,y,z
-x,y,-z
-x,-y,-z
x,-y,z
loop_
_atom_site_type_symbol
_atom_site_label
_atom_site_fract_x
_atom_site_fract_y
_atom_site_fract_z
Si Si1 0.224002 0.208997 0.936864
Si Si2 0.284824 0.791765 0.339852
Si Si3 0.444260 0.289538 0.264378
Si Si4 0.601186 0.701252 0.193137
Si Si5 0.885260 0.212319 0.542196
Si Si6 0.058051 0.785963 0.050411
O O1 0.167502 0.272038 0.200234
O O2 0.160230 0.275047 0.903628
O O3 0.217936 0.000000 0.940338
O O4 0.329059 0.241295 0.791157
O O5 0.340145 0.753114 0.406786
O O6 0.180948 0.738519 0.491448
O O7 0.286604 0.000000 0.319438
O O8 0.341950 0.716726 0.081644
O O9 0.449386 0.500000 0.260121
O O10 0.503011 0.221882 0.314125
O O11 0.500000 0.228749 0.000000
O O12 0.586299 0.500000 0.256478
O O13 0.989175 0.261192 0.323995
O O14 0.886273 0.000000 0.548145
O O15 0.061928 0.000000 0.029867
O O16 0.000000 0.724307 0.000000
#
# Coordination Sequence:
#
# PCOD9154989 Si02
#       6
#     4   4   4   4   4   4
#     4   9  16  26  42  63  84 107 137 172 205 238
#     4   9  15  22  36  58  83 110 137 168 204 240
#     4   8  14  23  34  52  81 112 137 164 202 244
#     4   9  16  25  37  55  82 113 139 166 203 244
#     4   8  14  24  38  59  86 111 134 164 204 244
#     4   9  16  26  42  63  84 107 136 169 206 249
#
# _framework density 26.364056000000001
#
# number of rings (size 3 to 8) (size 9 to 14) (size 15 to 20)
#    0.000    3.333    0.000    3.500    0.000    5.667 
#    0.000    0.000    0.000    9.500    0.000    1.167 
#    0.000    9.333    0.000    0.000    0.000    0.000 
#
# Total GULP energy -133945.051259 kJ/mol
# GULP energy per Si atom -5581.043802 kJ/mol
# Density = 2.630405 g / cm^3
# Si number density = 26.364056 Si / 1000 Ang^3
#
#
#
# Elastic Constant Matrix: (Units=GPa)
#
#
# Indices 1 2 3 4 5 6 
#
# 1 296.1426 25.7020 81.0477 0.0000 -29.6755 0.0000
# 2 25.7020 46.3556 -3.4562 0.0000 1.5095 0.0000
# 3 81.0477 -3.4562 87.2943 0.0000 -28.8367 0.0000
# 4 0.0000 0.0000 0.0000 -13.7428 0.0000 -7.9755
# 5 -29.6755 1.5095 -28.8367 0.0000 59.4055 0.0000
# 6 0.0000 0.0000 0.0000 -7.9755 0.0000 34.0476
#
#
#
# Elastic Compliance Matrix: (Units=1/GPa)
#
#
# Indices 1 2 3 4 5 6 
#
# 1 0.004936 -0.003090 -0.004602 0.000000 0.000310 0.000000
# 2 -0.003090 0.023572 0.003685 0.000000 -0.000354 0.000000
# 3 -0.004602 0.003685 0.017965 0.000000 0.006328 0.000000
# 4 0.000000 0.000000 0.000000 -0.064057 0.000000 -0.015005
# 5 0.000310 -0.000354 0.006328 0.000000 0.020069 0.000000
# 6 0.000000 0.000000 0.000000 -0.015005 0.000000 0.025856
#
#
# Mechanical properties :
#
#
# Convention : Reuss Voigt Hill
#
# Bulk Modulus (GPa) = 26.00233 70.70885 48.35559
# Shear Modulus (GPa) = 101.68308 37.70866 69.69587
#
# Velocity S-wave (km/s) = 6.21712 3.78604 5.14717
# Velocity P-wave (km/s) = 7.83715 6.78163 7.32842
#
# Compressibility (1/GPa) = 0.03845809
#
# Stress axis : x y z
#
# Youngs Moduli (GPa) = 202.61328 42.42370 55.66482
#
# Poissons Ratio (x) = 0.13108 0.25619
# Poissons Ratio (y) = 0.62602 -0.20513
# Poissons Ratio (z) = 0.93248 -0.15634
#
# Static dielectric constant tensor:
#      x y z
#    x 2.149800 0.000000 0.055080 
#    y 0.000000 2.012240 0.000000 
#    z 0.055080 0.000000 2.158660 
# 
# From -- ./inp_files/33758.got.cif
#   From: 2010.05.17/outbox.cif.g08.bks.cpg/sg10_17_cif.got.tgz:33758.got - 2010.06.03 11:33:40.
