data_PCOD9154238
_publ_section_title
;
Structure prediction by ZEFSAII (Michael W. Deem and Ramdas Pophale) SiO2 
 PCOD9154238
Probable space group: P 2/M
;
_chemical_formula_sum "Si O2"
_cell_formula_units_Z 28
_cell_length_a 8.801819
_cell_length_b 18.953231
_cell_length_c 15.168362
_cell_angle_alpha 90.000000
_cell_angle_beta 33.486403
_cell_angle_gamma 90.000000
_cell_volume 1396.137265
_symmetry_space_group_name_H-M "P 2/M"
_symmetry_group_IT_number 10
_symmetry_cell_setting 'monoclinic'
loop_
_space_group_symop_operation_xyz
x,y,z
-x,y,-z
-x,-y,-z
x,-y,z
loop_
_atom_site_type_symbol
_atom_site_label
_atom_site_fract_x
_atom_site_fract_y
_atom_site_fract_z
Si Si1 0.831046 0.417090 0.330977
Si Si2 0.414166 0.773412 0.438285
Si Si3 0.924418 0.673898 0.636673
Si Si4 0.548121 0.771605 0.081923
Si Si5 0.343257 0.921720 0.169775
Si Si6 0.074890 0.308667 0.867575
Si Si7 0.687936 0.075969 0.496806
O O1 0.500000 0.404563 0.500000
O O2 0.871958 0.500000 0.297547
O O3 0.990681 0.389387 0.339929
O O4 0.937175 0.369602 0.199219
O O5 0.500000 0.772835 0.500000
O O6 0.403824 0.853451 0.410131
O O7 0.624524 0.725381 0.283445
O O8 0.117496 0.738736 0.573872
O O9 0.622793 0.706379 0.794607
O O10 0.000000 0.656618 0.500000
O O11 0.450132 0.848961 0.161429
O O12 0.500000 0.769588 0.000000
O O13 0.864874 0.754453 0.946348
O O14 0.012384 0.915747 0.317306
O O15 0.391888 0.000000 0.187156
O O16 0.500000 0.923423 0.000000
O O17 0.000000 0.335788 0.000000
O O18 0.500000 0.073827 0.500000
O O19 0.655708 0.000000 0.557681
#
# Coordination Sequence:
#
# PCOD9154238 Si02
#       7
#     4   4   4   4   4   4   4
#     4  11  24  46  70  93 123 161 201 242 303 375
#     4  11  19  38  63  87 124 167 211 254 299 360
#     4  12  22  39  65  94 124 158 205 251 297 359
#     4  11  21  36  61  92 124 165 203 255 309 357
#     4   9  18  31  51  85 124 162 207 257 311 360
#     4  12  24  41  65  94 125 161 205 250 303 364
#     4   9  18  30  52  86 120 162 213 259 302 356
#
# _framework density 20.055336
#
# number of rings (size 3 to 8) (size 9 to 14) (size 15 to 20)
#    0.000    1.286    5.714    0.857    6.000    0.571 
#    0.000    1.429    0.000    5.143    0.000    0.000 
#    0.000    0.000    0.000    0.000    0.000    0.000 
#
# Total GULP energy -156292.014645 kJ/mol
# GULP energy per Si atom -5581.857666 kJ/mol
# Density = 2.000969 g / cm^3
# Si number density = 20.055336 Si / 1000 Ang^3
#
#
#
# Elastic Constant Matrix: (Units=GPa)
#
#
# Indices 1 2 3 4 5 6 
#
# 1 61.7840 25.2689 17.9163 0.0000 17.1858 0.0000
# 2 25.2689 140.3691 27.2514 0.0000 7.6806 0.0000
# 3 17.9163 27.2514 54.8185 0.0000 17.9474 0.0000
# 4 0.0000 0.0000 0.0000 7.9166 0.0000 -5.3075
# 5 17.1858 7.6806 17.9474 0.0000 34.7145 0.0000
# 6 0.0000 0.0000 0.0000 -5.3075 0.0000 -7.9645
#
#
#
# Elastic Compliance Matrix: (Units=1/GPa)
#
#
# Indices 1 2 3 4 5 6 
#
# 1 0.020306 -0.002699 -0.002647 0.000000 -0.008087 0.000000
# 2 -0.002699 0.008247 -0.003681 0.000000 0.001414 0.000000
# 3 -0.002647 -0.003681 0.024366 0.000000 -0.010472 0.000000
# 4 0.000000 0.000000 0.000000 0.087310 0.000000 -0.058182
# 5 -0.008087 0.001414 -0.010472 0.000000 0.037911 0.000000
# 6 0.000000 0.000000 0.000000 -0.058182 0.000000 -0.086785
#
#
# Mechanical properties :
#
#
# Convention : Reuss Voigt Hill
#
# Bulk Modulus (GPa) = 28.68217 44.20499 36.44358
# Shear Modulus (GPa) = 41.31168 19.36899 30.34034
#
# Velocity S-wave (km/s) = 4.54352 3.11107 3.89373
# Velocity P-wave (km/s) = 6.46972 5.91560 6.19886
#
# Compressibility (1/GPa) = 0.03486487
#
# Stress axis : x y z
#
# Youngs Moduli (GPa) = 49.24541 121.25400 41.04157
#
# Poissons Ratio (x) = 0.32727 0.10865
# Poissons Ratio (y) = 0.13292 0.15107
# Poissons Ratio (z) = 0.13037 0.44631
#
# Static dielectric constant tensor:
#      x y z
#    x 1.725400 0.000000 0.018280 
#    y 0.000000 1.719810 0.000000 
#    z 0.018280 0.000000 1.693260 
# 
# From -- ./inp_files/30362.got.cif
#   From: 2010.05.17/outbox.cif.g08.bks.cpg/sg10_16_cif.got.tgz:30362.got - 2010.06.03 11:33:40.
