data_PCOD9154095
_publ_section_title
;
Structure prediction by ZEFSAII (Michael W. Deem and Ramdas Pophale) SiO2 
 PCOD9154095
Probable space group: P 2/M
;
_chemical_formula_sum "Si O2"
_cell_formula_units_Z 16
_cell_length_a 10.705835
_cell_length_b 9.086173
_cell_length_c 9.798405
_cell_angle_alpha 90.000000
_cell_angle_beta 138.784815
_cell_angle_gamma 90.000000
_cell_volume 628.013660
_symmetry_space_group_name_H-M "P 2/M"
_symmetry_group_IT_number 10
_symmetry_cell_setting 'monoclinic'
loop_
_space_group_symop_operation_xyz
x,y,z
-x,y,-z
-x,-y,-z
x,-y,z
loop_
_atom_site_type_symbol
_atom_site_label
_atom_site_fract_x
_atom_site_fract_y
_atom_site_fract_z
Si Si1 0.339117 0.755106 0.274771
Si Si2 0.693042 0.000000 0.959751
Si Si3 0.873178 0.500000 0.739450
Si Si4 0.251846 0.000000 0.666878
Si Si5 0.209883 0.500000 0.842793
Si Si6 0.000000 0.743486 0.500000
Si Si7 0.551281 0.500000 0.294396
O O1 0.500000 0.834495 0.500000
O O2 0.249938 0.860826 0.087181
O O3 0.197754 0.648335 0.243522
O O4 0.473532 0.641444 0.306816
O O5 0.463784 0.000000 0.786467
O O6 0.751897 0.000000 0.167994
O O7 0.774040 0.500000 0.506776
O O8 0.093978 0.500000 0.889927
O O9 0.137765 0.145849 0.530630
O O10 0.139044 0.357081 0.703655
O O11 0.428972 0.500000 0.059260
#
# Coordination Sequence:
#
# PCOD9154095 Si02
#       7
#     4   2   2   2   2   2   2
#     4   9  19  35  58  95 128 154 203 255 300 384
#     4  11  21  38  67  90 119 173 210 246 316 368
#     4   9  21  39  63  94 130 161 195 263 320 363
#     4  10  24  42  61  86 126 168 208 265 304 354
#     4  11  22  41  69  89 126 168 206 260 319 364
#     4  10  24  44  58  90 124 164 216 264 300 368
#     4   9  19  37  60  90 126 156 205 253 300 378
#
# _framework density 25.477150999999999
#
# number of rings (size 3 to 8) (size 9 to 14) (size 15 to 20)
#    0.000    2.250    0.000    3.375    7.000    2.000 
#    0.000    1.250    5.500    7.500    0.000    0.000 
#    0.000    0.000    0.000    0.000    0.000    0.000 
#
# Total GULP energy -89438.864458 kJ/mol
# GULP energy per Si atom -5589.929029 kJ/mol
# Density = 2.541916 g / cm^3
# Si number density = 25.477151 Si / 1000 Ang^3
#
#
#
# Elastic Constant Matrix: (Units=GPa)
#
#
# Indices 1 2 3 4 5 6 
#
# 1 110.0517 20.6917 20.3735 0.0000 -14.0562 0.0000
# 2 20.6917 138.9951 19.3873 0.0000 -21.0689 0.0000
# 3 20.3735 19.3873 148.4805 0.0000 -16.3856 0.0000
# 4 0.0000 0.0000 0.0000 32.9427 0.0000 -9.0486
# 5 -14.0562 -21.0689 -16.3856 0.0000 29.6465 0.0000
# 6 0.0000 0.0000 0.0000 -9.0486 0.0000 4.9078
#
#
#
# Elastic Compliance Matrix: (Units=1/GPa)
#
#
# Indices 1 2 3 4 5 6 
#
# 1 0.009858 -0.000798 -0.000847 0.000000 0.003639 0.000000
# 2 -0.000798 0.008156 -0.000381 0.000000 0.005207 0.000000
# 3 -0.000847 -0.000381 0.007270 0.000000 0.003346 0.000000
# 4 0.000000 0.000000 0.000000 0.061502 0.000000 0.113391
# 5 0.003639 0.005207 0.003346 0.000000 0.041006 0.000000
# 6 0.000000 0.000000 0.000000 0.113391 0.000000 0.412817
#
#
# Mechanical properties :
#
#
# Convention : Reuss Voigt Hill
#
# Bulk Modulus (GPa) = 47.09673 57.60361 52.35017
# Shear Modulus (GPa) = 9.06228 35.97106 22.51667
#
# Velocity S-wave (km/s) = 1.88805 3.76160 2.97610
# Velocity P-wave (km/s) = 4.82483 6.44400 5.69228
#
# Compressibility (1/GPa) = 0.02123290
#
# Stress axis : x y z
#
# Youngs Moduli (GPa) = 101.43822 122.61369 137.55037
#
# Poissons Ratio (x) = 0.09782 0.11650
# Poissons Ratio (y) = 0.08093 0.05238
# Poissons Ratio (z) = 0.08591 0.04669
#
# Static dielectric constant tensor:
#      x y z
#    x 1.989580 0.000000 -0.085500 
#    y 0.000000 1.930780 0.000000 
#    z -0.085500 0.000000 2.125960 
# 
# From -- ./inp_files/44869.got.cif
#   From: 2010.05.17/outbox.cif.g08.bks.cpg/sg10_23_cif.got.tgz:44869.got - 2010.06.03 11:33:40.
