data_PCOD9154766
_publ_section_title
;
Structure prediction by ZEFSAII (Michael W. Deem and Ramdas Pophale) SiO2 
 PCOD9154766
Probable space group: P 2/M
;
_chemical_formula_sum "Si O2"
_cell_formula_units_Z 22
_cell_length_a 7.744072
_cell_length_b 10.117802
_cell_length_c 18.851613
_cell_angle_alpha 90.000000
_cell_angle_beta 45.946808
_cell_angle_gamma 90.000000
_cell_volume 1061.569538
_symmetry_space_group_name_H-M "P 2/M"
_symmetry_group_IT_number 10
_symmetry_cell_setting 'monoclinic'
loop_
_space_group_symop_operation_xyz
x,y,z
-x,y,-z
-x,-y,-z
x,-y,z
loop_
_atom_site_type_symbol
_atom_site_label
_atom_site_fract_x
_atom_site_fract_y
_atom_site_fract_z
Si Si1 0.102264 0.848754 0.586085
Si Si2 0.505944 0.852449 0.083393
Si Si3 0.612200 0.850753 0.633737
Si Si4 0.775183 0.645569 0.202884
Si Si5 0.891808 0.346898 0.756318
Si Si6 0.000000 0.760755 0.000000
O O1 0.855404 0.848072 0.610771
O O2 0.065312 0.736449 0.654914
O O3 0.311283 0.821284 0.469158
O O4 0.133889 0.000000 0.604243
O O5 0.349771 0.739151 0.165724
O O6 0.408946 0.000000 0.127242
O O7 0.500000 0.834470 0.000000
O O8 0.778563 0.843233 0.032002
O O9 0.422739 0.752021 0.720312
O O10 0.516781 0.000000 0.663417
O O11 0.665126 0.500000 0.235585
O O12 0.981831 0.651157 0.203231
O O13 0.893280 0.674612 0.093963
O O14 0.853766 0.500000 0.745096
#
# Coordination Sequence:
#
# PCOD9154766 Si02
#       6
#     4   4   4   4   4   2
#     4   9  19  39  64  91 122 161 205 260 318 377
#     4  11  24  43  66  94 125 163 210 263 315 373
#     4   9  20  39  64  91 122 159 208 261 317 377
#     4  11  25  41  60  89 126 168 214 260 315 376
#     4  11  24  41  61  91 129 168 207 259 316 376
#     4  12  24  44  68  94 124 170 214 264 316 376
#
# _framework density 20.724029999999999
#
# number of rings (size 3 to 8) (size 9 to 14) (size 15 to 20)
#    0.000    1.636    1.818    3.273    0.000    9.818 
#    0.000    5.455    0.000    0.000    0.000    0.000 
#    0.000    0.000    0.000    0.000    0.000    0.000 
#
# Total GULP energy -123004.527472 kJ/mol
# GULP energy per Si atom -5591.114885 kJ/mol
# Density = 2.067686 g / cm^3
# Si number density = 20.724030 Si / 1000 Ang^3
#
#
#
# Elastic Constant Matrix: (Units=GPa)
#
#
# Indices 1 2 3 4 5 6 
#
# 1 66.7639 33.1933 31.3013 0.0000 12.6219 0.0000
# 2 33.1933 173.8968 107.7709 0.0000 7.4323 0.0000
# 3 31.3013 107.7709 136.8648 0.0000 5.2378 0.0000
# 4 0.0000 0.0000 0.0000 -28.0248 0.0000 -0.4617
# 5 12.6219 7.4323 5.2378 0.0000 32.7620 0.0000
# 6 0.0000 0.0000 0.0000 -0.4617 0.0000 38.9007
#
#
#
# Elastic Compliance Matrix: (Units=1/GPa)
#
#
# Indices 1 2 3 4 5 6 
#
# 1 0.018188 -0.001514 -0.002729 0.000000 -0.006227 0.000000
# 2 -0.001514 0.011400 -0.008606 0.000000 -0.000627 0.000000
# 3 -0.002729 -0.008606 0.014682 0.000000 0.000656 0.000000
# 4 0.000000 0.000000 0.000000 -0.035676 0.000000 -0.000423
# 5 -0.006227 -0.000627 0.000656 0.000000 0.032959 0.000000
# 6 0.000000 0.000000 0.000000 -0.000423 0.000000 0.025701
#
#
# Mechanical properties :
#
#
# Convention : Reuss Voigt Hill
#
# Bulk Modulus (GPa) = 53.84742 80.22850 67.03796
# Shear Modulus (GPa) = 50.43114 22.41157 36.42136
#
# Velocity S-wave (km/s) = 4.93837 3.29208 4.19674
# Velocity P-wave (km/s) = 7.65220 7.29707 7.47674
#
# Compressibility (1/GPa) = 0.01857099
#
# Stress axis : x y z
#
# Youngs Moduli (GPa) = 54.98230 87.71803 68.10874
#
# Poissons Ratio (x) = 0.13284 0.18586
# Poissons Ratio (y) = 0.08326 0.58618
# Poissons Ratio (z) = 0.15004 0.75494
#
# Static dielectric constant tensor:
#      x y z
#    x 1.767560 0.000000 0.008920 
#    y 0.000000 1.720920 0.000000 
#    z 0.008920 0.000000 1.713100 
# 
# From -- ./inp_files/81905.got.cif
#   From: 2010.05.17/outbox.cif.g08.bks.cpg/sg10_41_cif.got.tgz:81905.got - 2010.06.03 11:33:40.
