data_PCOD9154661
_publ_section_title
;
Structure prediction by ZEFSAII (Michael W. Deem and Ramdas Pophale) SiO2 
 PCOD9154661
Probable space group: P 2/M
;
_chemical_formula_sum "Si O2"
_cell_formula_units_Z 32
_cell_length_a 14.806441
_cell_length_b 17.597161
_cell_length_c 11.719081
_cell_angle_alpha 90.000000
_cell_angle_beta 30.818495
_cell_angle_gamma 90.000000
_cell_volume 1564.329542
_symmetry_space_group_name_H-M "P 2/M"
_symmetry_group_IT_number 10
_symmetry_cell_setting 'monoclinic'
loop_
_space_group_symop_operation_xyz
x,y,z
-x,y,-z
-x,-y,-z
x,-y,z
loop_
_atom_site_type_symbol
_atom_site_label
_atom_site_fract_x
_atom_site_fract_y
_atom_site_fract_z
Si Si1 0.262650 0.319938 0.024188
Si Si2 0.457327 0.204509 0.180111
Si Si3 0.464986 0.089999 0.710329
Si Si4 0.707138 0.583885 0.806206
Si Si5 0.852385 0.411675 0.260656
Si Si6 0.690035 0.300601 0.289175
Si Si7 0.120465 0.699940 0.553173
Si Si8 0.799953 0.861057 0.194967
O O1 0.263870 0.398400 0.092286
O O2 0.080360 0.276874 0.249016
O O3 0.426261 0.273148 0.895061
O O4 0.274052 0.327392 0.877012
O O5 0.513051 0.132048 0.193220
O O6 0.255848 0.230892 0.419933
O O7 0.500000 0.197154 0.000000
O O8 0.294294 0.121328 0.825040
O O9 0.649325 0.107377 0.443732
O O10 0.445271 0.000000 0.740749
O O11 0.771137 0.500000 0.706230
O O12 0.805682 0.648974 0.629958
O O13 0.500000 0.587873 0.000000
O O14 0.830326 0.500000 0.314444
O O15 0.689198 0.371230 0.375527
O O16 0.885748 0.358085 0.332630
O O17 0.000000 0.405991 0.000000
O O18 0.500000 0.263011 0.500000
O O19 0.811116 0.230642 0.194106
O O20 0.000000 0.890346 0.000000
#
# Coordination Sequence:
#
# PCOD9154661 Si02
#       8
#     4   4   4   4   4   4   4   4
#     4  12  23  41  65  94 124 169 225 273 325 384
#     4  12  25  45  67  97 130 168 222 276 322 385
#     4  11  25  44  68 104 137 168 210 257 323 403
#     4  11  24  42  64  93 127 168 223 289 342 379
#     4  11  24  40  56  88 131 170 217 269 329 394
#     4  12  23  40  65  93 130 171 219 267 321 389
#     4  12  23  42  69  90 124 174 223 274 324 390
#     4  11  22  41  72 103 136 170 211 265 319 389
#
# _framework density 20.456047999999999
#
# number of rings (size 3 to 8) (size 9 to 14) (size 15 to 20)
#    0.000    0.500    6.250    3.375    1.750    3.500 
#    0.000    0.000    0.000    0.000    0.000    3.500 
#    0.000    0.000    0.000    0.000    0.000    0.000 
#
# Total GULP energy -178762.636482 kJ/mol
# GULP energy per Si atom -5586.332390 kJ/mol
# Density = 2.040949 g / cm^3
# Si number density = 20.456048 Si / 1000 Ang^3
#
#
#
# Elastic Constant Matrix: (Units=GPa)
#
#
# Indices 1 2 3 4 5 6 
#
# 1 64.5214 21.8516 28.4405 0.0000 -6.6106 0.0000
# 2 21.8516 66.3177 -2.7871 0.0000 7.9207 0.0000
# 3 28.4405 -2.7871 69.3754 0.0000 -21.9389 0.0000
# 4 0.0000 0.0000 0.0000 10.4303 0.0000 -1.0004
# 5 -6.6106 7.9207 -21.9389 0.0000 46.9429 0.0000
# 6 0.0000 0.0000 0.0000 -1.0004 0.0000 14.7967
#
#
#
# Elastic Compliance Matrix: (Units=1/GPa)
#
#
# Indices 1 2 3 4 5 6 
#
# 1 0.022284 -0.007743 -0.009435 0.000000 0.000035 0.000000
# 2 -0.007743 0.018083 0.003040 0.000000 -0.002721 0.000000
# 3 -0.009435 0.003040 0.020913 0.000000 0.007932 0.000000
# 4 0.000000 0.000000 0.000000 0.096500 0.000000 0.006524
# 5 0.000035 -0.002721 0.007932 0.000000 0.025474 0.000000
# 6 0.000000 0.000000 0.000000 0.006524 0.000000 0.068024
#
#
# Mechanical properties :
#
#
# Convention : Reuss Voigt Hill
#
# Bulk Modulus (GPa) = 30.29972 32.80273 31.55123
# Shear Modulus (GPa) = 17.20850 24.61460 20.91155
#
# Velocity S-wave (km/s) = 2.90357 3.47261 3.20076
# Velocity P-wave (km/s) = 5.10737 5.67003 5.39604
#
# Compressibility (1/GPa) = 0.03300360
#
# Stress axis : x y z
#
# Youngs Moduli (GPa) = 44.87593 55.30054 47.81750
#
# Poissons Ratio (x) = 0.42820 0.45117
# Poissons Ratio (y) = 0.34748 -0.14539
# Poissons Ratio (z) = 0.42341 -0.16814
#
# Static dielectric constant tensor:
#      x y z
#    x 1.770600 0.000000 -0.019890 
#    y 0.000000 1.691010 0.000000 
#    z -0.019890 0.000000 1.771770 
# 
# From -- ./inp_files/51946.got.cif
#   From: 2010.05.17/outbox.cif.g08.bks.cpg/sg10_26_cif.got.tgz:51946.got - 2010.06.03 11:33:40.
