data_PCOD9154875
_publ_section_title
;
Structure prediction by ZEFSAII (Michael W. Deem and Ramdas Pophale) SiO2 
 PCOD9154875
Probable space group: P 2/M
;
_chemical_formula_sum "Si O2"
_cell_formula_units_Z 32
_cell_length_a 10.679033
_cell_length_b 7.310618
_cell_length_c 15.154857
_cell_angle_alpha 90.000000
_cell_angle_beta 85.544663
_cell_angle_gamma 90.000000
_cell_volume 1179.569463
_symmetry_space_group_name_H-M "P 2/M"
_symmetry_group_IT_number 10
_symmetry_cell_setting 'monoclinic'
loop_
_space_group_symop_operation_xyz
x,y,z
-x,y,-z
-x,-y,-z
x,-y,z
loop_
_atom_site_type_symbol
_atom_site_label
_atom_site_fract_x
_atom_site_fract_y
_atom_site_fract_z
Si Si1 0.262598 0.224105 0.880976
Si Si2 0.303502 0.792520 0.248049
Si Si3 0.529224 0.223252 0.899450
Si Si4 0.715248 0.283608 0.476242
Si Si5 0.091879 0.782144 0.390548
Si Si6 0.040582 0.222923 0.769376
Si Si7 0.504699 0.278649 0.370418
Si Si8 0.122373 0.786275 0.057619
O O1 0.403457 0.282154 0.856521
O O2 0.166384 0.284128 0.811061
O O3 0.258687 0.000000 0.883491
O O4 0.222156 0.287114 0.981348
O O5 0.341782 0.712041 0.152050
O O6 0.207417 0.710306 0.322992
O O7 0.438737 0.798018 0.288039
O O8 0.258313 0.000000 0.240507
O O9 0.537494 0.000000 0.898136
O O10 0.500000 0.276918 0.000000
O O11 0.714142 0.500000 0.469448
O O12 0.852332 0.246395 0.513186
O O13 0.645216 0.216137 0.390574
O O14 0.604308 0.229410 0.551359
O O15 0.979421 0.717932 0.331241
O O16 0.080502 0.000000 0.390180
O O17 0.928326 0.279232 0.843866
O O18 0.041597 0.000000 0.770348
O O19 0.504346 0.500000 0.365421
O O20 0.154073 0.000000 0.068657
O O21 0.000000 0.780695 0.000000
#
# Coordination Sequence:
#
# PCOD9154875 Si02
#       8
#     4   4   4   4   4   4   4   4
#     4   8  13  21  32  46  67 102 141 167 189 225
#     4   9  17  26  36  57  85 108 129 160 201 237
#     4   9  17  25  34  50  77 111 140 164 195 232
#     4   8  14  25  40  59  81 104 130 158 191 237
#     4   9  16  23  35  58  87 108 124 156 202 241
#     4   8  13  20  31  49  74 101 129 162 197 231
#     4   8  14  26  43  58  76 105 136 161 187 232
#     4   7  10  16  27  43  63  90 125 161 192 219
#
# _framework density 27.128543000000001
#
# number of rings (size 3 to 8) (size 9 to 14) (size 15 to 20)
#    0.000    3.750    0.000    2.250    1.750    0.500 
#    0.000    2.500    0.000    0.375    0.000    1.750 
#    0.000   11.500    0.000    0.000    0.000    0.000 
#
# Total GULP energy -178316.272975 kJ/mol
# GULP energy per Si atom -5572.383530 kJ/mol
# Density = 2.706680 g / cm^3
# Si number density = 27.128543 Si / 1000 Ang^3
#
#
#
# Elastic Constant Matrix: (Units=GPa)
#
#
# Indices 1 2 3 4 5 6 
#
# 1 60.8713 -8.8583 23.6947 0.0000 22.4545 0.0000
# 2 -8.8583 107.6411 -4.0222 0.0000 -0.2316 0.0000
# 3 23.6947 -4.0222 136.0917 0.0000 21.6378 0.0000
# 4 0.0000 0.0000 0.0000 3.2939 0.0000 13.7541
# 5 22.4545 -0.2316 21.6378 0.0000 61.6250 0.0000
# 6 0.0000 0.0000 0.0000 13.7541 0.0000 -4.4943
#
#
#
# Elastic Compliance Matrix: (Units=1/GPa)
#
#
# Indices 1 2 3 4 5 6 
#
# 1 0.019958 0.001539 -0.002409 0.000000 -0.006421 0.000000
# 2 0.001539 0.009419 0.000100 0.000000 -0.000560 0.000000
# 3 -0.002409 0.000100 0.008082 0.000000 -0.001960 0.000000
# 4 0.000000 0.000000 0.000000 0.022033 0.000000 0.067429
# 5 -0.006421 -0.000560 -0.001960 0.000000 0.019253 0.000000
# 6 0.000000 0.000000 0.000000 0.067429 0.000000 -0.016148
#
#
# Mechanical properties :
#
#
# Convention : Reuss Voigt Hill
#
# Bulk Modulus (GPa) = 27.84078 36.24804 32.04441
# Shear Modulus (GPa) = 65.69441 31.67093 48.68267
#
# Velocity S-wave (km/s) = 4.92631 3.42049 4.24077
# Velocity P-wave (km/s) = 6.53015 5.38426 5.98469
#
# Compressibility (1/GPa) = 0.03591854
#
# Stress axis : x y z
#
# Youngs Moduli (GPa) = 50.10506 106.16531 123.73391
#
# Poissons Ratio (x) = -0.16335 0.29802
# Poissons Ratio (y) = -0.07709 -0.01232
# Poissons Ratio (z) = 0.12068 -0.01057
#
# Static dielectric constant tensor:
#      x y z
#    x 2.167860 0.000000 0.049880 
#    y 0.000000 2.062350 0.000000 
#    z 0.049880 0.000000 2.243100 
# 
# From -- ./inp_files/64416.got.cif
#   From: 2010.05.17/outbox.cif.g08.bks.cpg/sg10_33_cif.got.tgz:64416.got - 2010.06.03 11:33:40.
