data_PCOD9154991
_publ_section_title
;
Structure prediction by ZEFSAII (Michael W. Deem and Ramdas Pophale) SiO2 
 PCOD9154991
Probable space group: P 2/M
;
_chemical_formula_sum "Si O2"
_cell_formula_units_Z 32
_cell_length_a 21.176005
_cell_length_b 7.462740
_cell_length_c 21.134952
_cell_angle_alpha 90.000000
_cell_angle_beta 150.813872
_cell_angle_gamma 90.000000
_cell_volume 1628.734600
_symmetry_space_group_name_H-M "P 2/M"
_symmetry_group_IT_number 10
_symmetry_cell_setting 'monoclinic'
loop_
_space_group_symop_operation_xyz
x,y,z
-x,y,-z
-x,-y,-z
x,-y,z
loop_
_atom_site_type_symbol
_atom_site_label
_atom_site_fract_x
_atom_site_fract_y
_atom_site_fract_z
Si Si1 0.180703 0.214953 0.111107
Si Si2 0.931490 0.719082 0.581336
Si Si3 0.580180 0.280926 0.928753
Si Si4 0.748972 0.712734 0.961355
Si Si5 0.708794 0.280751 0.290415
Si Si6 0.890327 0.215018 0.819534
Si Si7 0.216744 0.718419 0.785759
Si Si8 0.964683 0.712621 0.751120
O O1 0.270982 0.261123 0.130999
O O2 0.198593 0.276651 0.199384
O O3 0.177136 0.000000 0.109627
O O4 0.036457 0.277954 0.964433
O O5 0.929521 0.500000 0.578863
O O6 0.817168 0.777684 0.435164
O O7 0.918355 0.779428 0.642601
O O8 0.072512 0.774018 0.679231
O O9 0.577743 0.500000 0.926790
O O10 0.640325 0.220638 0.914505
O O11 0.434605 0.222291 0.815309
O O12 0.678601 0.225988 0.070390
O O13 0.755171 0.500000 0.976434
O O14 0.891615 0.785474 0.105689
O O15 0.708945 0.500000 0.290181
O O16 0.744764 0.224052 0.250875
O O17 0.871623 0.261770 0.730062
O O18 0.891644 0.000000 0.822767
O O19 0.216664 0.500000 0.785887
O O20 0.980171 0.500000 0.757534
#
# Coordination Sequence:
#
# PCOD9154991 Si02
#       8
#     4   4   4   4   4   4   4   4
#     4   8  14  24  37  55  80 105 129 162 200 235
#     4   9  15  23  33  50  76 105 134 165 200 236
#     4   9  15  23  33  50  76 105 134 165 200 236
#     4   9  15  23  36  54  79 108 132 159 198 241
#     4   9  16  22  32  50  74 105 138 166 197 239
#     4   8  14  24  37  55  80 105 129 162 200 235
#     4   9  14  22  34  48  72 105 136 166 201 239
#     4   9  15  23  36  54  79 108 132 159 198 241
#
# _framework density 19.647155000000001
#
# number of rings (size 3 to 8) (size 9 to 14) (size 15 to 20)
#    0.000    3.250    1.250    1.500    0.000    3.500 
#    0.000    2.500    0.000    0.000    0.000    1.750 
#    0.000   13.000    0.000    0.000    0.000    0.000 
#
# Total GULP energy -178283.423907 kJ/mol
# GULP energy per Si atom -5571.356997 kJ/mol
# Density = 1.960244 g / cm^3
# Si number density = 19.647155 Si / 1000 Ang^3
#
#
#
# Elastic Constant Matrix: (Units=GPa)
#
#
# Indices 1 2 3 4 5 6 
#
# 1 239.7721 3.8780 104.9595 0.0000 -34.0444 0.0000
# 2 3.8780 54.1889 2.8983 0.0000 -0.0709 0.0000
# 3 104.9595 2.8983 109.4175 0.0000 4.7633 0.0000
# 4 0.0000 0.0000 0.0000 -1.2974 0.0000 -12.8256
# 5 -34.0444 -0.0709 4.7633 0.0000 10.8646 0.0000
# 6 0.0000 0.0000 0.0000 -12.8256 0.0000 43.9745
#
#
#
# Elastic Compliance Matrix: (Units=1/GPa)
#
#
# Indices 1 2 3 4 5 6 
#
# 1 -1.219667 0.008650 1.362117 0.000000 -4.418971 0.000000
# 2 0.008650 0.018420 -0.010165 0.000000 0.031683 0.000000
# 3 1.362117 -0.010165 -1.511873 0.000000 4.930986 0.000000
# 4 0.000000 0.000000 0.000000 -0.198486 0.000000 -0.057890
# 5 -4.418971 0.031683 4.930986 0.000000-15.916516 0.000000
# 6 0.000000 0.000000 0.000000 -0.057890 0.000000 0.005856
#
#
# Mechanical properties :
#
#
# Convention : Reuss Voigt Hill
#
# Bulk Modulus (GPa) = 123.69848 69.65002 96.67425
# Shear Modulus (GPa) = -0.23212 30.15118 14.95953
#
# Velocity S-wave (km/s) = -0.34409 3.92169 2.76236
# Velocity P-wave (km/s) = 7.93340 7.48556 7.71273
#
# Compressibility (1/GPa) = 0.00808417
#
# Stress axis : x y z
#
# Youngs Moduli (GPa) = -0.81990 54.28871 -0.66143
#
# Poissons Ratio (x) = -0.46962 0.90095
# Poissons Ratio (y) = 0.00709 -0.00672
# Poissons Ratio (z) = 1.11679 0.55186
#
# Static dielectric constant tensor:
#      x y z
#    x 1.730250 0.000000 -0.025310 
#    y 0.000000 1.750470 0.000000 
#    z -0.025310 0.000000 1.639060 
# 
# From -- ./inp_files/36047.got.cif
#   From: 2010.05.17/outbox.cif.g08.bks.cpg/sg10_19_cif.got.tgz:36047.got - 2010.06.03 11:33:40.
