data_PCOD9154775
_publ_section_title
;
Structure prediction by ZEFSAII (Michael W. Deem and Ramdas Pophale) SiO2 
 PCOD9154775
Probable space group: P 2/M
;
_chemical_formula_sum "Si O2"
_cell_formula_units_Z 18
_cell_length_a 5.589651
_cell_length_b 19.929225
_cell_length_c 7.318260
_cell_angle_alpha 90.000000
_cell_angle_beta 107.874903
_cell_angle_gamma 90.000000
_cell_volume 775.882961
_symmetry_space_group_name_H-M "P 2/M"
_symmetry_group_IT_number 10
_symmetry_cell_setting 'monoclinic'
loop_
_space_group_symop_operation_xyz
x,y,z
-x,y,-z
-x,-y,-z
x,-y,z
loop_
_atom_site_type_symbol
_atom_site_label
_atom_site_fract_x
_atom_site_fract_y
_atom_site_fract_z
Si Si1 0.925259 0.077396 0.266399
Si Si2 0.000000 0.382494 0.000000
Si Si3 0.573015 0.147616 0.734078
Si Si4 0.773297 0.427933 0.299419
Si Si5 0.430392 0.699868 0.273495
O O1 0.647137 0.109350 0.208037
O O2 0.000000 0.078519 0.500000
O O3 0.147485 0.115540 0.208327
O O4 0.915741 0.000000 0.205785
O O5 0.863856 0.428619 0.113542
O O6 0.167312 0.333436 0.163353
O O7 0.500000 0.146194 0.500000
O O8 0.566995 0.224667 0.799465
O O9 0.643601 0.500000 0.311202
O O10 0.619071 0.359138 0.261238
O O11 0.000000 0.422567 0.500000
O O12 0.500000 0.707902 0.500000
#
# Coordination Sequence:
#
# PCOD9154775 Si02
#       5
#     4   2   4   4   4
#     4   9  16  29  51  86 128 172 223 277 338 408
#     4  12  25  44  70  98 131 182 230 288 345 418
#     4   9  19  31  55  87 129 176 220 282 343 403
#     4  11  25  45  71 100 136 179 228 288 351 415
#     4  11  24  42  66  96 137 178 232 286 348 417
#
# _framework density 23.199373000000001
#
# number of rings (size 3 to 8) (size 9 to 14) (size 15 to 20)
#    0.000    1.778    2.222    1.667    3.111    6.667 
#    0.000    0.000    0.000    0.000    0.000    4.667 
#    0.000    0.000    0.000    0.000    0.000    0.222 
#
# Total GULP energy -100452.930647 kJ/mol
# GULP energy per Si atom -5580.718369 kJ/mol
# Density = 2.314657 g / cm^3
# Si number density = 23.199373 Si / 1000 Ang^3
#
#
#
# Elastic Constant Matrix: (Units=GPa)
#
#
# Indices 1 2 3 4 5 6 
#
# 1 157.7670 119.3799 18.7732 0.0000 4.3089 0.0000
# 2 119.3799 251.5088 25.4138 0.0000 8.8636 0.0000
# 3 18.7732 25.4138 83.4396 0.0000 9.3259 0.0000
# 4 0.0000 0.0000 0.0000 -35.0246 0.0000 -19.9363
# 5 4.3089 8.8636 9.3259 0.0000 22.6902 0.0000
# 6 0.0000 0.0000 0.0000 -19.9363 0.0000 23.3862
#
#
#
# Elastic Compliance Matrix: (Units=1/GPa)
#
#
# Indices 1 2 3 4 5 6 
#
# 1 0.009947 -0.004645 -0.000854 0.000000 0.000277 0.000000
# 2 -0.004645 0.006300 -0.000731 0.000000 -0.001278 0.000000
# 3 -0.000854 -0.000731 0.012944 0.000000 -0.004872 0.000000
# 4 0.000000 0.000000 0.000000 -0.019223 0.000000 -0.016388
# 5 0.000277 -0.001278 -0.004872 0.000000 0.046521 0.000000
# 6 0.000000 0.000000 0.000000 -0.016388 0.000000 0.028790
#
#
# Mechanical properties :
#
#
# Convention : Reuss Voigt Hill
#
# Bulk Modulus (GPa) = 59.76885 91.09435 75.43160
# Shear Modulus (GPa) = 48.39514 24.15359 36.27437
#
# Velocity S-wave (km/s) = 4.57229 3.23016 3.95852
# Velocity P-wave (km/s) = 7.32758 7.29815 7.31288
#
# Compressibility (1/GPa) = 0.01673112
#
# Stress axis : x y z
#
# Youngs Moduli (GPa) = 100.52927 158.73854 77.25546
#
# Poissons Ratio (x) = 0.73734 0.06599
# Poissons Ratio (y) = 0.46696 0.05646
# Poissons Ratio (z) = 0.08588 0.11600
#
# Static dielectric constant tensor:
#      x y z
#    x 1.912850 0.000000 0.010900 
#    y 0.000000 1.962610 0.000000 
#    z 0.010900 0.000000 1.894510 
# 
# From -- ./inp_files/14849.got.cif
#   From: 2010.05.17/outbox.cif.g08.bks.cpg/sg10_8_cif.got.tgz:14849.got - 2010.06.03 11:33:40.
