data_PCOD9154595
_publ_section_title
;
Structure prediction by ZEFSAII (Michael W. Deem and Ramdas Pophale) SiO2 
 PCOD9154595
Probable space group: P 2/M
;
_chemical_formula_sum "Si O2"
_cell_formula_units_Z 26
_cell_length_a 8.817692
_cell_length_b 31.993623
_cell_length_c 5.093400
_cell_angle_alpha 90.000000
_cell_angle_beta 54.315933
_cell_angle_gamma 90.000000
_cell_volume 1167.114835
_symmetry_space_group_name_H-M "P 2/M"
_symmetry_group_IT_number 10
_symmetry_cell_setting 'monoclinic'
loop_
_space_group_symop_operation_xyz
x,y,z
-x,y,-z
-x,-y,-z
x,-y,z
loop_
_atom_site_type_symbol
_atom_site_label
_atom_site_fract_x
_atom_site_fract_y
_atom_site_fract_z
Si Si1 0.294160 0.546853 0.588404
Si Si2 0.226705 0.263808 0.743542
Si Si3 0.862234 0.000000 0.388931
Si Si4 0.136990 0.089510 0.610599
Si Si5 0.862900 0.819938 0.386805
Si Si6 0.772328 0.690179 0.754033
Si Si7 0.793713 0.402661 0.823882
O O1 0.500000 0.543550 0.500000
O O2 0.213548 0.500000 0.651785
O O3 0.301020 0.567677 0.296526
O O4 0.198294 0.576424 0.900222
O O5 0.263820 0.219394 0.566465
O O6 0.290275 0.299039 0.475418
O O7 0.289604 0.275084 0.972044
O O8 0.000000 0.265305 0.000000
O O9 0.000000 0.000000 0.500000
O O10 0.757799 0.044806 0.494110
O O11 0.000000 0.000000 0.000000
O O12 0.000000 0.089370 0.500000
O O13 0.235587 0.134728 0.492015
O O14 0.000000 0.089186 0.000000
O O15 0.000000 0.811914 0.500000
O O16 0.000000 0.824134 0.000000
O O17 0.715510 0.644272 0.906665
O O18 0.000000 0.691680 0.500000
O O19 0.000000 0.398595 0.500000
#
# Coordination Sequence:
#
# PCOD9154595 Si02
#       7
#     4   4   2   4   4   4   4
#     4  11  24  41  59  80 108 139 167 199 244 293
#     4   9  14  22  34  50  75 104 130 161 208 262
#     4   8  12  18  24  30  42  64  94 140 196 242
#     4   8  13  18  24  33  47  68 102 145 191 244
#     4   9  14  19  27  41  59  85 119 153 193 253
#     4   9  17  27  41  62  87 112 139 175 218 262
#     4  11  22  37  58  83 107 133 169 208 242 285
#
# _framework density 22.277153999999999
#
# number of rings (size 3 to 8) (size 9 to 14) (size 15 to 20)
#    0.000    2.615    0.000    4.615    0.000    5.538 
#    0.000    0.000    0.000    0.000    0.000    0.000 
#    0.000    0.000    0.000    0.000    0.000    0.000 
#
# Total GULP energy -144882.591025 kJ/mol
# GULP energy per Si atom -5572.407347 kJ/mol
# Density = 2.222645 g / cm^3
# Si number density = 22.277154 Si / 1000 Ang^3
#
#
#
# Elastic Constant Matrix: (Units=GPa)
#
#
# Indices 1 2 3 4 5 6 
#
# 1 42.1752 3.7760 29.8728 0.0000 11.2589 0.0000
# 2 3.7760 198.9740 34.0491 0.0000 15.7521 0.0000
# 3 29.8728 34.0491 75.6166 0.0000 38.3072 0.0000
# 4 0.0000 0.0000 0.0000 32.3992 0.0000 12.5481
# 5 11.2589 15.7521 38.3072 0.0000 40.5250 0.0000
# 6 0.0000 0.0000 0.0000 12.5481 0.0000 7.1325
#
#
#
# Elastic Compliance Matrix: (Units=1/GPa)
#
#
# Indices 1 2 3 4 5 6 
#
# 1 0.034337 0.001861 -0.017661 0.000000 0.006432 0.000000
# 2 0.001861 0.005549 -0.003607 0.000000 0.000735 0.000000
# 3 -0.017661 -0.003607 0.035749 0.000000 -0.027484 0.000000
# 4 0.000000 0.000000 0.000000 0.096866 0.000000 -0.170416
# 5 0.006432 0.000735 -0.027484 0.000000 0.048584 0.000000
# 6 0.000000 0.000000 0.000000 -0.170416 0.000000 0.440016
#
#
# Mechanical properties :
#
#
# Convention : Reuss Voigt Hill
#
# Bulk Modulus (GPa) = 27.15734 50.24018 38.69876
# Shear Modulus (GPa) = 7.02062 32.61587 19.81824
#
# Velocity S-wave (km/s) = 1.77717 3.83050 2.98589
# Velocity P-wave (km/s) = 4.05318 6.49345 5.41263
#
# Compressibility (1/GPa) = 0.03682245
#
# Stress axis : x y z
#
# Youngs Moduli (GPa) = 29.12350 180.19852 27.97270
#
# Poissons Ratio (x) = -0.33543 0.49403
# Poissons Ratio (y) = -0.05421 0.10088
# Poissons Ratio (z) = 0.51436 0.64989
#
# Static dielectric constant tensor:
#      x y z
#    x 1.793080 0.000000 -0.038530 
#    y 0.000000 1.949870 0.000000 
#    z -0.038530 0.000000 1.806460 
# 
# From -- ./inp_files/5436.got.cif
#   From: 2010.05.17/outbox.cif.g08.bks.cpg/sg10_3_cif.got.tgz:5436.got - 2010.06.03 11:33:40.
