data_PCOD9154651
_publ_section_title
;
Structure prediction by ZEFSAII (Michael W. Deem and Ramdas Pophale) SiO2 
 PCOD9154651
Probable space group: P 2/M
;
_chemical_formula_sum "Si O2"
_cell_formula_units_Z 20
_cell_length_a 11.220784
_cell_length_b 11.438029
_cell_length_c 13.841341
_cell_angle_alpha 90.000000
_cell_angle_beta 148.926398
_cell_angle_gamma 90.000000
_cell_volume 916.893812
_symmetry_space_group_name_H-M "P 2/M"
_symmetry_group_IT_number 10
_symmetry_cell_setting 'monoclinic'
loop_
_space_group_symop_operation_xyz
x,y,z
-x,y,-z
-x,-y,-z
x,-y,z
loop_
_atom_site_type_symbol
_atom_site_label
_atom_site_fract_x
_atom_site_fract_y
_atom_site_fract_z
Si Si1 0.688249 0.365135 0.217684
Si Si2 0.505321 0.862510 0.616206
Si Si3 0.307804 0.255922 0.072131
Si Si4 0.055181 0.264423 0.332389
Si Si5 0.787456 0.500000 0.924282
Si Si6 0.340544 0.500000 0.484096
O O1 0.725143 0.500000 0.275882
O O2 0.562805 0.281379 0.207410
O O3 0.914988 0.309257 0.328183
O O4 0.500000 0.371791 0.000000
O O5 0.500000 0.821858 0.500000
O O6 0.678060 0.800407 0.812006
O O7 0.253757 0.830999 0.482046
O O8 0.552840 0.000000 0.649073
O O9 0.203218 0.384758 0.007998
O O10 0.132334 0.205911 0.871191
O O11 0.190725 0.381972 0.389990
O O12 0.536999 0.500000 0.701958
O O13 0.000000 0.500000 0.000000
O O14 0.500000 0.500000 0.500000
#
# Coordination Sequence:
#
# PCOD9154651 Si02
#       6
#     4   4   4   4   2   2
#     4   9  18  36  62  99 139 172 205 250 322 403
#     4  11  27  48  65  88 125 172 231 283 325 380
#     4  11  23  41  66  98 134 173 214 262 329 393
#     4  11  22  40  67  97 133 170 213 267 319 390
#     4  12  24  35  60 100 138 172 204 257 324 398
#     4  12  22  37  58  98 139 169 210 260 323 389
#
# _framework density 21.812775999999999
#
# number of rings (size 3 to 8) (size 9 to 14) (size 15 to 20)
#    0.000    1.200    4.000    2.400    2.800    1.600 
#    0.000    6.000    0.000    3.600    0.000    0.000 
#    0.000    0.000    0.000    0.000    0.000    0.000 
#
# Total GULP energy -111688.709677 kJ/mol
# GULP energy per Si atom -5584.435484 kJ/mol
# Density = 2.176313 g / cm^3
# Si number density = 21.812776 Si / 1000 Ang^3
#
#
#
# Elastic Constant Matrix: (Units=GPa)
#
#
# Indices 1 2 3 4 5 6 
#
# 1 111.2415 9.1143 16.9035 0.0000 9.0859 0.0000
# 2 9.1143 44.5898 5.1960 0.0000 -9.5787 0.0000
# 3 16.9035 5.1960 109.2047 0.0000 -7.8277 0.0000
# 4 0.0000 0.0000 0.0000 -19.8825 0.0000 -1.0221
# 5 9.0859 -9.5787 -7.8277 0.0000 42.7319 0.0000
# 6 0.0000 0.0000 0.0000 -1.0221 0.0000 17.1929
#
#
#
# Elastic Compliance Matrix: (Units=1/GPa)
#
#
# Indices 1 2 3 4 5 6 
#
# 1 0.009664 -0.002410 -0.001588 0.000000 -0.002886 0.000000
# 2 -0.002410 0.024224 -0.000358 0.000000 0.005877 0.000000
# 3 -0.001588 -0.000358 0.009564 0.000000 0.002009 0.000000
# 4 0.000000 0.000000 0.000000 -0.050142 0.000000 -0.002981
# 5 -0.002886 0.005877 0.002009 0.000000 0.025701 0.000000
# 6 0.000000 0.000000 0.000000 -0.002981 0.000000 0.057986
#
#
# Mechanical properties :
#
#
# Convention : Reuss Voigt Hill
#
# Bulk Modulus (GPa) = 28.78657 36.38481 32.58569
# Shear Modulus (GPa) = 51.39334 23.59660 37.49497
#
# Velocity S-wave (km/s) = 4.85925 3.29261 4.15051
# Velocity P-wave (km/s) = 6.68646 5.58317 6.15957
#
# Compressibility (1/GPa) = 0.03473842
#
# Stress axis : x y z
#
# Youngs Moduli (GPa) = 103.47726 41.28219 104.55880
#
# Poissons Ratio (x) = 0.09950 0.16604
# Poissons Ratio (y) = 0.24941 0.03746
# Poissons Ratio (z) = 0.16433 0.01479
#
# Static dielectric constant tensor:
#      x y z
#    x 1.891820 0.000000 -0.068100 
#    y 0.000000 1.746710 0.000000 
#    z -0.068100 0.000000 1.889380 
# 
# From -- ./inp_files/64729.got.cif
#   From: 2010.05.17/outbox.cif.g08.bks.cpg/sg10_33_cif.got.tgz:64729.got - 2010.06.03 11:33:40.
