data_PCOD9154948
_publ_section_title
;
Structure prediction by ZEFSAII (Michael W. Deem and Ramdas Pophale) SiO2 
 PCOD9154948
Probable space group: P 2/M
;
_chemical_formula_sum "Si O2"
_cell_formula_units_Z 24
_cell_length_a 8.422018
_cell_length_b 22.156263
_cell_length_c 7.248999
_cell_angle_alpha 90.000000
_cell_angle_beta 57.590283
_cell_angle_gamma 90.000000
_cell_volume 1141.971116
_symmetry_space_group_name_H-M "P 2/M"
_symmetry_group_IT_number 10
_symmetry_cell_setting 'monoclinic'
loop_
_space_group_symop_operation_xyz
x,y,z
-x,y,-z
-x,-y,-z
x,-y,z
loop_
_atom_site_type_symbol
_atom_site_label
_atom_site_fract_x
_atom_site_fract_y
_atom_site_fract_z
Si Si1 0.517199 0.768331 0.214489
Si Si2 0.137050 0.000000 0.117745
Si Si3 0.518939 0.431505 0.763594
Si Si4 0.436883 0.094614 0.823882
Si Si5 0.734347 0.000000 0.533529
Si Si6 0.219798 0.325403 0.355816
Si Si7 0.782154 0.662830 0.080347
O O1 0.560506 0.836545 0.243389
O O2 0.323619 0.732673 0.374893
O O3 0.500000 0.770607 0.000000
O O4 0.675800 0.724371 0.200824
O O5 0.194658 0.000000 0.298339
O O6 0.910619 0.000000 0.283597
O O7 0.239857 0.942090 0.959833
O O8 0.542540 0.500000 0.685715
O O9 0.690871 0.386039 0.616019
O O10 0.500000 0.434397 0.000000
O O11 0.335799 0.397172 0.797836
O O12 0.595840 0.057364 0.614885
O O13 0.500000 0.094776 0.000000
O O14 0.251055 0.331996 0.118346
O O15 0.000000 0.320446 0.500000
O O16 0.000000 0.660641 0.000000
#
# Coordination Sequence:
#
# PCOD9154948 Si02
#       7
#     4   2   4   4   2   4   4
#     4   8  15  29  42  59  87 121 153 182 223 276
#     4   8  13  21  34  55  83 111 141 187 234 271
#     4   8  15  29  48  66  90 124 154 182 222 275
#     4   8  13  23  36  52  84 117 144 185 230 274
#     4   8  13  21  32  57  83 107 144 186 236 270
#     4   9  17  30  46  68  92 117 154 190 226 269
#     4   9  17  30  48  66  90 121 153 189 225 271
#
# _framework density 21.016293000000001
#
# number of rings (size 3 to 8) (size 9 to 14) (size 15 to 20)
#    0.000    3.667    0.000    3.000    0.000    0.667 
#   12.000    3.333    0.000    1.000    0.000    2.333 
#    0.000    1.333    0.000    0.833    0.000    1.000 
#
# Total GULP energy -133616.021584 kJ/mol
# GULP energy per Si atom -5567.334233 kJ/mol
# Density = 2.096846 g / cm^3
# Si number density = 21.016293 Si / 1000 Ang^3
#
#
#
# Elastic Constant Matrix: (Units=GPa)
#
#
# Indices 1 2 3 4 5 6 
#
# 1 127.6015 69.9295 49.9475 0.0000 -21.2258 0.0000
# 2 69.9295 228.9580 66.4989 0.0000 -50.2715 0.0000
# 3 49.9475 66.4989 82.3328 0.0000 -32.6549 0.0000
# 4 0.0000 0.0000 0.0000 -3.8233 0.0000 -4.7855
# 5 -21.2258 -50.2715 -32.6549 0.0000 60.5560 0.0000
# 6 0.0000 0.0000 0.0000 -4.7855 0.0000 5.7626
#
#
#
# Elastic Compliance Matrix: (Units=1/GPa)
#
#
# Indices 1 2 3 4 5 6 
#
# 1 0.010852 -0.001920 -0.005287 0.000000 -0.000641 0.000000
# 2 -0.001920 0.006465 -0.002793 0.000000 0.003188 0.000000
# 3 -0.005287 -0.002793 0.020295 0.000000 0.006772 0.000000
# 4 0.000000 0.000000 0.000000 -0.128250 0.000000 -0.106503
# 5 -0.000641 0.003188 0.006772 0.000000 0.022588 0.000000
# 6 0.000000 0.000000 0.000000 -0.106503 0.000000 0.085089
#
#
# Mechanical properties :
#
#
# Convention : Reuss Voigt Hill
#
# Bulk Modulus (GPa) = 56.77565 90.18269 73.47917
# Shear Modulus (GPa) = 116.52549 29.33348 72.92948
#
# Velocity S-wave (km/s) = 7.45424 3.74003 5.89718
# Velocity P-wave (km/s) = 10.05790 7.85203 9.02263
#
# Compressibility (1/GPa) = 0.01761319
#
# Stress axis : x y z
#
# Youngs Moduli (GPa) = 92.15053 154.67817 49.27324
#
# Poissons Ratio (x) = 0.29691 0.26051
# Poissons Ratio (y) = 0.17689 0.13760
# Poissons Ratio (z) = 0.48721 0.43197
#
# Static dielectric constant tensor:
#      x y z
#    x 1.744710 0.000000 0.013740 
#    y 0.000000 1.752160 0.000000 
#    z 0.013740 0.000000 2.380600 
# 
# From -- ./inp_files/20156.got.cif
#   From: 2010.05.17/outbox.cif.g08.bks.cpg/sg10_11_cif.got.tgz:20156.got - 2010.06.03 11:33:40.
