data_PCOD9154627
_publ_section_title
;
Structure prediction by ZEFSAII (Michael W. Deem and Ramdas Pophale) SiO2 
 PCOD9154627
Probable space group: P 2/M
;
_chemical_formula_sum "Si O2"
_cell_formula_units_Z 28
_cell_length_a 32.248923
_cell_length_b 8.387095
_cell_length_c 33.107110
_cell_angle_alpha 90.000000
_cell_angle_beta 9.156644
_cell_angle_gamma 90.000000
_cell_volume 1424.988947
_symmetry_space_group_name_H-M "P 2/M"
_symmetry_group_IT_number 10
_symmetry_cell_setting 'monoclinic'
loop_
_space_group_symop_operation_xyz
x,y,z
-x,y,-z
-x,-y,-z
x,-y,z
loop_
_atom_site_type_symbol
_atom_site_label
_atom_site_fract_x
_atom_site_fract_y
_atom_site_fract_z
Si Si1 0.978341 0.689909 0.354378
Si Si2 0.286609 0.194700 0.237885
Si Si3 0.301573 0.309285 0.891283
Si Si4 0.869247 0.694724 0.033807
Si Si5 0.556781 0.305070 0.491137
Si Si6 0.869585 0.811139 0.368752
Si Si7 0.548381 0.808259 0.831048
O O1 0.981888 0.500000 0.349370
O O2 0.927210 0.755495 0.358778
O O3 0.749975 0.745930 0.603889
O O4 0.256934 0.751352 0.102095
O O5 0.361443 0.245086 0.211063
O O6 0.000000 0.247055 0.500000
O O7 0.286104 0.000000 0.238438
O O8 0.500000 0.246323 0.000000
O O9 0.273388 0.500000 0.920036
O O10 0.216749 0.254429 0.928120
O O11 0.600493 0.266077 0.612334
O O12 0.108780 0.236822 0.109929
O O13 0.867931 0.500000 0.035000
O O14 0.664662 0.746427 0.264583
O O15 0.159650 0.745776 0.766203
O O16 0.500000 0.253530 0.500000
O O17 0.555731 0.500000 0.491881
O O18 0.837656 0.000000 0.399002
O O19 0.552126 0.000000 0.826588
#
# Coordination Sequence:
#
# PCOD9154627 Si02
#       7
#     4   4   4   4   4   4   4
#     4  12  25  42  62  87 121 158 195 238 297 358
#     4   9  17  31  55  87 118 150 193 242 286 332
#     4  11  22  39  61  86 118 155 194 237 294 355
#     4   9  17  28  45  71 105 145 184 225 277 338
#     4   9  15  24  40  67 106 147 182 221 275 333
#     4  12  25  42  62  87 117 150 195 245 293 346
#     4  11  22  39  64  92 121 156 201 248 290 338
#
# _framework density 19.649274999999999
#
# number of rings (size 3 to 8) (size 9 to 14) (size 15 to 20)
#    0.000    1.571    0.000    6.429    0.000    6.286 
#    0.000    0.000    0.000    8.571    0.000    0.000 
#    0.000   40.000    0.000    0.000    0.000    0.000 
#
# Total GULP energy -156573.731860 kJ/mol
# GULP energy per Si atom -5591.918995 kJ/mol
# Density = 1.960455 g / cm^3
# Si number density = 19.649275 Si / 1000 Ang^3
#
#
#
# Elastic Constant Matrix: (Units=GPa)
#
#
# Indices 1 2 3 4 5 6 
#
# 1 1667.3771 -845.6087 1089.1979 0.0000 155.7459 0.0000
# 2 -845.6087 485.5112 -603.2934 0.0000 -77.8965 0.0000
# 3 1089.1979 -603.2934 841.4402 0.0000 110.1019 0.0000
# 4 0.0000 0.0000 0.0000 27.1670 0.0000 0.8698
# 5 155.7459 -77.8965 110.1019 0.0000 61.2472 0.0000
# 6 0.0000 0.0000 0.0000 0.8698 0.0000 -4.9163
#
#
#
# Elastic Compliance Matrix: (Units=1/GPa)
#
#
# Indices 1 2 3 4 5 6 
#
# 1 0.005747 0.007054 -0.002149 0.000000 -0.001780 0.000000
# 2 0.007054 0.027546 0.010960 0.000000 -0.002606 0.000000
# 3 -0.002149 0.010960 0.012147 0.000000 -0.002431 0.000000
# 4 0.000000 0.000000 0.000000 0.036602 0.000000 0.006476
# 5 -0.001780 -0.002606 -0.002431 0.000000 0.021910 0.000000
# 6 0.000000 0.000000 0.000000 0.006476 0.000000 -0.202259
#
#
# Mechanical properties :
#
#
# Convention : Reuss Voigt Hill
#
# Bulk Modulus (GPa) = 12.95846 252.76889 132.86368
# Shear Modulus (GPa) = -47.93288 240.30177 96.18444
#
# Velocity S-wave (km/s) = -4.94441 11.07073 7.00406
# Velocity P-wave (km/s) = 5.09775 17.09778 11.54009
#
# Compressibility (1/GPa) = 0.07716964
#
# Stress axis : x y z
#
# Youngs Moduli (GPa) = 173.99482 36.30277 82.32458
#
# Poissons Ratio (x) = -0.25607 0.17694
# Poissons Ratio (y) = -1.22730 -0.90230
# Poissons Ratio (z) = 0.37398 -0.39789
#
# Static dielectric constant tensor:
#      x y z
#    x 1.659810 0.000000 0.006330 
#    y 0.000000 1.684530 0.000000 
#    z 0.006330 0.000000 1.615410 
# 
# From -- ./inp_files/95984.got.cif
#   From: 2010.05.17/outbox.cif.g08.bks.cpg/sg10_48_cif.got.tgz:95984.got - 2010.06.03 11:33:40.
