data_PCOD9154376
_publ_section_title
;
Structure prediction by ZEFSAII (Michael W. Deem and Ramdas Pophale) SiO2 
 PCOD9154376
Probable space group: P 2/M
;
_chemical_formula_sum "Si O2"
_cell_formula_units_Z 28
_cell_length_a 19.652408
_cell_length_b 8.674501
_cell_length_c 15.450149
_cell_angle_alpha 90.000000
_cell_angle_beta 142.788481
_cell_angle_gamma 90.000000
_cell_volume 1592.852122
_symmetry_space_group_name_H-M "P 2/M"
_symmetry_group_IT_number 10
_symmetry_cell_setting 'monoclinic'
loop_
_space_group_symop_operation_xyz
x,y,z
-x,y,-z
-x,-y,-z
x,-y,z
loop_
_atom_site_type_symbol
_atom_site_label
_atom_site_fract_x
_atom_site_fract_y
_atom_site_fract_z
Si Si1 0.669424 0.684373 0.827844
Si Si2 0.056770 0.323353 0.186496
Si Si3 0.771831 0.676868 0.475370
Si Si4 0.752469 0.183692 0.730066
Si Si5 0.124705 0.817230 0.876835
Si Si6 0.971804 0.312514 0.569534
Si Si7 0.591285 0.312204 0.417653
O O1 0.675856 0.500000 0.827417
O O2 0.713490 0.757701 0.783560
O O3 0.539621 0.727042 0.712098
O O4 0.753607 0.742788 0.986778
O O5 0.024440 0.500000 0.136456
O O6 0.144889 0.324418 0.356762
O O7 0.128044 0.253196 0.180189
O O8 0.951461 0.230321 0.117104
O O9 0.747693 0.500000 0.426352
O O10 0.656613 0.742873 0.397208
O O11 0.848774 0.744496 0.477324
O O12 0.658612 0.242206 0.566691
O O13 0.759494 0.000000 0.735214
O O14 0.061668 0.751721 0.728794
O O15 0.131948 0.000000 0.879875
O O16 0.972373 0.500000 0.577085
O O17 0.000000 0.270631 0.500000
O O18 0.601943 0.500000 0.433127
#
# Coordination Sequence:
#
# PCOD9154376 Si02
#       7
#     4   4   4   4   4   4   4
#     4  11  22  35  50  68  96 138 182 216 251 299
#     4   9  17  33  53  71  97 133 171 208 248 300
#     4   7  12  26  49  75  98 121 157 205 246 282
#     4  11  21  32  49  75 103 131 170 218 263 299
#     4  11  22  35  51  75 105 132 163 207 264 314
#     4   9  17  32  57  84 106 130 161 198 246 310
#     4   9  18  33  52  71  96 136 181 217 249 293
#
# _framework density 17.578531000000002
#
# number of rings (size 3 to 8) (size 9 to 14) (size 15 to 20)
#    0.000    2.429    0.000    5.571    0.000    3.714 
#    0.000    2.857    0.000    0.857    0.000    6.000 
#    0.000    0.000    0.000    0.000    0.000    0.000 
#
# Total GULP energy -156177.184236 kJ/mol
# GULP energy per Si atom -5577.756580 kJ/mol
# Density = 1.753852 g / cm^3
# Si number density = 17.578531 Si / 1000 Ang^3
#
#
#
# Elastic Constant Matrix: (Units=GPa)
#
#
# Indices 1 2 3 4 5 6 
#
# 1 127.5059 21.1271 48.4025 0.0000 -2.9760 0.0000
# 2 21.1271 46.7619 14.4316 0.0000 2.3200 0.0000
# 3 48.4025 14.4316 69.6578 0.0000 11.3499 0.0000
# 4 0.0000 0.0000 0.0000 2.8334 0.0000 2.4445
# 5 -2.9760 2.3200 11.3499 0.0000 19.4435 0.0000
# 6 0.0000 0.0000 0.0000 2.4445 0.0000 8.8455
#
#
#
# Elastic Compliance Matrix: (Units=1/GPa)
#
#
# Indices 1 2 3 4 5 6 
#
# 1 0.011854 -0.003000 -0.008807 0.000000 0.007313 0.000000
# 2 -0.003000 0.023605 -0.002511 0.000000 -0.001810 0.000000
# 3 -0.008807 -0.002511 0.023391 0.000000 -0.014703 0.000000
# 4 0.000000 0.000000 0.000000 0.463416 0.000000 -0.128066
# 5 0.007313 -0.001810 -0.014703 0.000000 0.061349 0.000000
# 6 0.000000 0.000000 0.000000 -0.128066 0.000000 0.148443
#
#
# Mechanical properties :
#
#
# Convention : Reuss Voigt Hill
#
# Bulk Modulus (GPa) = 33.09668 45.76088 39.42878
# Shear Modulus (GPa) = 6.48706 16.88878 11.68792
#
# Velocity S-wave (km/s) = 1.92311 3.10298 2.58136
# Velocity P-wave (km/s) = 4.87851 6.23913 5.60030
#
# Compressibility (1/GPa) = 0.03021451
#
# Stress axis : x y z
#
# Youngs Moduli (GPa) = 84.36178 42.36356 42.75144
#
# Poissons Ratio (x) = 0.12711 0.37650
# Poissons Ratio (y) = 0.25312 0.10733
# Poissons Ratio (z) = 0.74294 0.10636
#
# Static dielectric constant tensor:
#      x y z
#    x 1.624070 0.000000 0.016060 
#    y 0.000000 1.584970 0.000000 
#    z 0.016060 0.000000 1.595810 
# 
# From -- ./inp_files/54686.got.cif
#   From: 2010.05.17/outbox.cif.g08.bks.cpg/sg10_28_cif.got.tgz:54686.got - 2010.06.03 11:33:40.
