data_PCOD9154511
_publ_section_title
;
Structure prediction by ZEFSAII (Michael W. Deem and Ramdas Pophale) SiO2 
 PCOD9154511
Probable space group: P 2/M
;
_chemical_formula_sum "Si O2"
_cell_formula_units_Z 28
_cell_length_a 9.379797
_cell_length_b 14.871294
_cell_length_c 11.907140
_cell_angle_alpha 90.000000
_cell_angle_beta 57.156483
_cell_angle_gamma 90.000000
_cell_volume 1395.433153
_symmetry_space_group_name_H-M "P 2/M"
_symmetry_group_IT_number 10
_symmetry_cell_setting 'monoclinic'
loop_
_space_group_symop_operation_xyz
x,y,z
-x,y,-z
-x,-y,-z
x,-y,z
loop_
_atom_site_type_symbol
_atom_site_label
_atom_site_fract_x
_atom_site_fract_y
_atom_site_fract_z
Si Si1 0.500000 0.140507 0.000000
Si Si2 0.076266 0.334952 0.855146
Si Si3 0.577677 0.000000 0.151432
Si Si4 0.700086 0.599813 0.437537
Si Si5 0.677949 0.827386 0.246397
Si Si6 0.704753 0.757878 0.609200
Si Si7 0.169617 0.766930 0.197895
Si Si8 0.859689 0.892732 0.386691
O O1 0.517590 0.077690 0.884356
O O2 0.667715 0.198744 0.938617
O O3 0.206250 0.388677 0.721440
O O4 0.177353 0.244056 0.848249
O O5 0.928402 0.306169 0.832788
O O6 0.000000 0.377425 0.000000
O O7 0.674457 0.080234 0.179716
O O8 0.500000 0.608207 0.500000
O O9 0.734718 0.500000 0.468287
O O10 0.750152 0.678989 0.501908
O O11 0.495268 0.779559 0.313583
O O12 0.721683 0.856730 0.355414
O O13 0.764983 0.735210 0.708473
O O14 0.801232 0.848158 0.527997
O O15 0.037922 0.849177 0.273690
O O16 0.863561 0.000000 0.389098
#
# Coordination Sequence:
#
# PCOD9154511 Si02
#       8
#     2   4   2   4   4   4   4   4
#     4  11  24  40  54  88 125 184 233 266 324 378
#     4  11  24  44  66  97 129 170 216 271 329 389
#     4  11  22  36  58  85 127 176 231 276 301 385
#     4  11  23  44  76 106 129 166 213 267 332 402
#     4  11  21  39  61  90 125 173 223 269 321 378
#     4  12  22  42  64  93 133 167 216 270 329 395
#     4  11  25  40  62  88 132 172 220 269 323 382
#     4  11  24  36  58  91 126 168 217 273 323 374
#
# _framework density 20.065455
#
# number of rings (size 3 to 8) (size 9 to 14) (size 15 to 20)
#    0.000    0.857    6.429    1.714    3.000    2.000 
#    0.000    3.214    0.000    0.000    0.000    3.000 
#    0.000    0.000    0.000    0.000    0.000    0.000 
#
# Total GULP energy -155941.188243 kJ/mol
# GULP energy per Si atom -5569.328152 kJ/mol
# Density = 2.001978 g / cm^3
# Si number density = 20.065455 Si / 1000 Ang^3
#
#
#
# Elastic Constant Matrix: (Units=GPa)
#
#
# Indices 1 2 3 4 5 6 
#
# 1 102.3823 22.1517 38.4922 0.0000 -4.7607 0.0000
# 2 22.1517 78.1224 21.1857 0.0000 7.2272 0.0000
# 3 38.4922 21.1857 83.7093 0.0000 -9.9460 0.0000
# 4 0.0000 0.0000 0.0000 2.2058 0.0000 7.3939
# 5 -4.7607 7.2272 -9.9460 0.0000 35.1893 0.0000
# 6 0.0000 0.0000 0.0000 7.3939 0.0000 65.3144
#
#
#
# Elastic Compliance Matrix: (Units=1/GPa)
#
#
# Indices 1 2 3 4 5 6 
#
# 1 0.012127 -0.002160 -0.004948 0.000000 0.000686 0.000000
# 2 -0.002160 0.014677 -0.003222 0.000000 -0.004217 0.000000
# 3 -0.004948 -0.003222 0.015559 0.000000 0.004390 0.000000
# 4 0.000000 0.000000 0.000000 0.730593 0.000000 -0.082707
# 5 0.000686 -0.004217 0.004390 0.000000 0.030617 0.000000
# 6 0.000000 0.000000 0.000000 -0.082707 0.000000 0.024673
#
#
# Mechanical properties :
#
#
# Convention : Reuss Voigt Hill
#
# Bulk Modulus (GPa) = 46.08056 47.54145 46.81101
# Shear Modulus (GPa) = 5.84016 32.70086 19.27051
#
# Velocity S-wave (km/s) = 1.70789 4.04135 3.10237
# Velocity P-wave (km/s) = 5.18692 6.74694 6.01770
#
# Compressibility (1/GPa) = 0.02170113
#
# Stress axis : x y z
#
# Youngs Moduli (GPa) = 82.46124 68.13407 64.27337
#
# Poissons Ratio (x) = 0.14718 0.31803
# Poissons Ratio (y) = 0.17813 0.20711
# Poissons Ratio (z) = 0.40803 0.21955
#
# Static dielectric constant tensor:
#      x y z
#    x 1.718040 0.000000 0.010350 
#    y 0.000000 1.675070 0.000000 
#    z 0.010350 0.000000 1.763870 
# 
# From -- ./inp_files/42907.got.cif
#   From: 2010.05.17/outbox.cif.g08.bks.cpg/sg10_22_cif.got.tgz:42907.got - 2010.06.03 11:33:40.
