data_PCOD9154963
_publ_section_title
;
Structure prediction by ZEFSAII (Michael W. Deem and Ramdas Pophale) SiO2 
 PCOD9154963
Probable space group: P 2/M
;
_chemical_formula_sum "Si O2"
_cell_formula_units_Z 28
_cell_length_a 21.523878
_cell_length_b 7.449123
_cell_length_c 25.277015
_cell_angle_alpha 90.000000
_cell_angle_beta 158.785569
_cell_angle_gamma 90.000000
_cell_volume 1466.531143
_symmetry_space_group_name_H-M "P 2/M"
_symmetry_group_IT_number 10
_symmetry_cell_setting 'monoclinic'
loop_
_space_group_symop_operation_xyz
x,y,z
-x,y,-z
-x,-y,-z
x,-y,z
loop_
_atom_site_type_symbol
_atom_site_label
_atom_site_fract_x
_atom_site_fract_y
_atom_site_fract_z
Si Si1 0.805699 0.780853 0.992194
Si Si2 0.507416 0.219395 0.444969
Si Si3 0.820073 0.780605 0.882521
Si Si4 0.066874 0.205286 0.739654
Si Si5 0.565082 0.500000 0.137862
Si Si6 0.783423 0.500000 0.210644
Si Si7 0.134816 0.219147 0.321311
Si Si8 0.585213 0.794715 0.912434
O O1 0.799077 0.722742 0.926499
O O2 0.648779 0.726579 0.905682
O O3 0.804532 0.000000 0.992118
O O4 0.983621 0.724925 0.161207
O O5 0.500000 0.276538 0.500000
O O6 0.339378 0.276194 0.279793
O O7 0.681343 0.277259 0.553921
O O8 0.509181 0.000000 0.446565
O O9 0.821333 0.000000 0.883949
O O10 0.000000 0.723461 0.000000
O O11 0.109412 0.328743 0.723885
O O12 0.919485 0.273421 0.662583
O O13 0.031990 0.000000 0.696910
O O14 0.238668 0.205286 0.912889
O O15 0.723388 0.500000 0.223388
O O16 0.547167 0.671256 0.161640
O O17 0.393035 0.500000 0.964344
O O18 0.132712 0.000000 0.320298
O O19 0.526750 0.000000 0.861830
#
# Coordination Sequence:
#
# PCOD9154963 Si02
#       8
#     4   4   4   4   2   2   4   4
#     4   8  13  22  35  50  73 108 146 180 216 259
#     4   9  15  21  31  51  80 111 143 180 220 260
#     4   9  15  21  31  51  80 111 143 180 220 260
#     4   8  14  24  37  54  79 112 146 179 217 260
#     4   9  16  24  36  58  86 113 142 175 214 265
#     4   9  16  24  36  58  86 113 142 175 214 265
#     4   8  13  22  35  50  73 108 146 180 216 259
#     4   8  14  24  37  54  79 112 146 179 217 260
#
# _framework density 19.092672
#
# number of rings (size 3 to 8) (size 9 to 14) (size 15 to 20)
#    0.000    3.571    0.000    2.571    0.000    4.000 
#    0.000    2.857    0.000    0.000    0.000    2.000 
#    0.000    2.286    0.000   11.143    0.000   11.429 
#
# Total GULP energy -156086.454214 kJ/mol
# GULP energy per Si atom -5574.516222 kJ/mol
# Density = 1.904922 g / cm^3
# Si number density = 19.092672 Si / 1000 Ang^3
#
#
#
# Elastic Constant Matrix: (Units=GPa)
#
#
# Indices 1 2 3 4 5 6 
#
# 1 213.0896 56.0013 83.9102 0.0000 39.3276 0.0000
# 2 56.0013 75.6169 22.6928 0.0000 14.0193 0.0000
# 3 83.9102 22.6928 77.5452 0.0000 17.7205 0.0000
# 4 0.0000 0.0000 0.0000 6.3947 0.0000 24.7831
# 5 39.3276 14.0193 17.7205 0.0000 26.9629 0.0000
# 6 0.0000 0.0000 0.0000 24.7831 0.0000 65.2847
#
#
#
# Elastic Compliance Matrix: (Units=1/GPa)
#
#
# Indices 1 2 3 4 5 6 
#
# 1 0.010415 -0.003761 -0.008407 0.000000 -0.007710 0.000000
# 2 -0.003761 0.016609 -0.000084 0.000000 -0.003095 0.000000
# 3 -0.008407 -0.000084 0.022599 0.000000 -0.002547 0.000000
# 4 0.000000 0.000000 0.000000 -0.331853 0.000000 0.125977
# 5 -0.007710 -0.003095 -0.002547 0.000000 0.051617 0.000000
# 6 0.000000 0.000000 0.000000 0.125977 0.000000 -0.032505
#
#
# Mechanical properties :
#
#
# Convention : Reuss Voigt Hill
#
# Bulk Modulus (GPa) = 39.80923 76.82892 58.31907
# Shear Modulus (GPa) = -21.71627 33.30496 5.79435
#
# Velocity S-wave (km/s) = -3.37622 4.18111 1.74397
# Velocity P-wave (km/s) = 2.38691 7.97724 5.88785
#
# Compressibility (1/GPa) = 0.02511980
#
# Stress axis : x y z
#
# Youngs Moduli (GPa) = 96.01822 60.20958 44.24901
#
# Poissons Ratio (x) = 0.22642 0.37201
# Poissons Ratio (y) = 0.36109 0.00370
# Poissons Ratio (z) = 0.80724 0.00504
#
# Static dielectric constant tensor:
#      x y z
#    x 1.649240 0.000000 0.006450 
#    y 0.000000 1.738570 0.000000 
#    z 0.006450 0.000000 1.633910 
# 
# From -- ./inp_files/93558.got.cif
#   From: 2010.05.17/outbox.cif.g08.bks.cpg/sg10_47_cif.got.tgz:93558.got - 2010.06.03 11:33:40.
