data_PCOD9154807
_publ_section_title
;
Structure prediction by ZEFSAII (Michael W. Deem and Ramdas Pophale) SiO2 
 PCOD9154807
Probable space group: P 2/M
;
_chemical_formula_sum "Si O2"
_cell_formula_units_Z 24
_cell_length_a 11.705069
_cell_length_b 8.215712
_cell_length_c 10.714481
_cell_angle_alpha 90.000000
_cell_angle_beta 85.338102
_cell_angle_gamma 90.000000
_cell_volume 1026.954368
_symmetry_space_group_name_H-M "P 2/M"
_symmetry_group_IT_number 10
_symmetry_cell_setting 'monoclinic'
loop_
_space_group_symop_operation_xyz
x,y,z
-x,y,-z
-x,-y,-z
x,-y,z
loop_
_atom_site_type_symbol
_atom_site_label
_atom_site_fract_x
_atom_site_fract_y
_atom_site_fract_z
Si Si1 0.674276 0.178765 0.577403
Si Si2 0.325723 0.500000 0.121075
Si Si3 0.167699 0.198991 0.091519
Si Si4 0.905779 0.807577 0.177971
Si Si5 0.583855 0.500000 0.167922
Si Si6 0.424609 0.821237 0.694306
Si Si7 0.886034 0.312639 0.450419
O O1 0.620743 0.179704 0.442711
O O2 0.562825 0.195411 0.672666
O O3 0.780716 0.297832 0.555605
O O4 0.724601 0.000000 0.597524
O O5 0.370216 0.500000 0.974934
O O6 0.254840 0.330854 0.142524
O O7 0.445023 0.500000 0.184546
O O8 0.041300 0.232233 0.158798
O O9 0.191788 0.000000 0.100324
O O10 0.154219 0.246088 0.945497
O O11 0.859242 0.760019 0.317177
O O12 0.899528 0.000000 0.170355
O O13 0.621474 0.665250 0.231211
O O14 0.397644 0.000000 0.751782
O O15 0.910268 0.500000 0.422926
O O16 0.000000 0.235741 0.500000
#
# Coordination Sequence:
#
# PCOD9154807 Si02
#       7
#     4   2   4   4   2   4   4
#     4   9  20  39  62  89 118 155 204 248 294 352
#     4  11  26  41  58  89 121 156 199 248 310 360
#     4   9  21  41  65  91 117 155 206 253 297 353
#     4   9  20  39  62  89 118 155 204 248 294 352
#     4  11  26  41  58  89 121 156 199 248 310 360
#     4   9  21  41  65  91 117 155 206 253 297 353
#     4  11  25  37  53  91 133 164 195 240 302 366
#
# _framework density 23.370072
#
# number of rings (size 3 to 8) (size 9 to 14) (size 15 to 20)
#    0.000    2.333    0.000    2.500    7.000    5.333 
#    0.000    5.000    0.000    0.000    0.000    0.000 
#    0.000    0.000    0.000    0.000    0.000    0.000 
#
# Total GULP energy -134006.103268 kJ/mol
# GULP energy per Si atom -5583.587636 kJ/mol
# Density = 2.331688 g / cm^3
# Si number density = 23.370072 Si / 1000 Ang^3
#
#
#
# Elastic Constant Matrix: (Units=GPa)
#
#
# Indices 1 2 3 4 5 6 
#
# 1 108.3841 20.5702 1.4245 0.0000 2.2847 0.0000
# 2 20.5702 91.9376 17.9010 0.0000 2.0172 0.0000
# 3 1.4245 17.9010 48.6759 0.0000 0.6919 0.0000
# 4 0.0000 0.0000 0.0000 9.0151 0.0000 -32.0110
# 5 2.2847 2.0172 0.6919 0.0000 28.9857 0.0000
# 6 0.0000 0.0000 0.0000 -32.0110 0.0000 43.8566
#
#
#
# Elastic Compliance Matrix: (Units=1/GPa)
#
#
# Indices 1 2 3 4 5 6 
#
# 1 0.009660 -0.002256 0.000556 0.000000 -0.000618 0.000000
# 2 -0.002256 0.012257 -0.004434 0.000000 -0.000569 0.000000
# 3 0.000556 -0.004434 0.022162 0.000000 -0.000264 0.000000
# 4 0.000000 0.000000 0.000000 -0.069688 0.000000 -0.050865
# 5 -0.000618 -0.000569 -0.000264 0.000000 0.034594 0.000000
# 6 0.000000 0.000000 0.000000 -0.050865 0.000000 -0.014325
#
#
# Mechanical properties :
#
#
# Convention : Reuss Voigt Hill
#
# Bulk Modulus (GPa) = 31.43476 36.53210 33.98343
# Shear Modulus (GPa) = 285.17268 30.31162 157.74215
#
# Velocity S-wave (km/s) = 11.05846 3.60533 8.22460
# Velocity P-wave (km/s) = 13.28657 5.74432 10.23548
#
# Compressibility (1/GPa) = 0.03181191
#
# Stress axis : x y z
#
# Youngs Moduli (GPa) = 103.51605 81.58283 45.12215
#
# Poissons Ratio (x) = 0.18406 -0.02508
# Poissons Ratio (y) = 0.23354 0.20006
# Poissons Ratio (z) = -0.05753 0.36171
#
# Static dielectric constant tensor:
#      x y z
#    x 1.964960 0.000000 0.077540 
#    y 0.000000 1.855070 0.000000 
#    z 0.077540 0.000000 1.910400 
# 
# From -- ./inp_files/45220.got.cif
#   From: 2010.05.17/outbox.cif.g08.bks.cpg/sg10_23_cif.got.tgz:45220.got - 2010.06.03 11:33:40.
