data_PCOD9154833
_publ_section_title
;
Structure prediction by ZEFSAII (Michael W. Deem and Ramdas Pophale) SiO2 
 PCOD9154833
Probable space group: P 2/M
;
_chemical_formula_sum "Si O2"
_cell_formula_units_Z 17
_cell_length_a 5.257269
_cell_length_b 26.184648
_cell_length_c 5.279283
_cell_angle_alpha 90.000000
_cell_angle_beta 95.649729
_cell_angle_gamma 90.000000
_cell_volume 723.214429
_symmetry_space_group_name_H-M "P 2/M"
_symmetry_group_IT_number 10
_symmetry_cell_setting 'monoclinic'
loop_
_space_group_symop_operation_xyz
x,y,z
-x,y,-z
-x,-y,-z
x,-y,z
loop_
_atom_site_type_symbol
_atom_site_label
_atom_site_fract_x
_atom_site_fract_y
_atom_site_fract_z
Si Si1 0.500000 0.157087 0.500000
Si Si2 0.226881 0.316566 0.849298
Si Si3 0.500000 0.912041 0.000000
Si Si4 0.264718 0.424558 0.647695
Si Si5 0.000000 0.773009 0.500000
Si Si6 0.261161 0.000000 0.681796
Si Si7 0.500000 0.500000 0.000000
O O1 0.460550 0.123050 0.243080
O O2 0.246178 0.191774 0.479559
O O3 0.283307 0.363395 0.669029
O O4 0.098162 0.266116 0.723170
O O5 0.500000 0.303705 0.000000
O O6 0.000000 0.338560 0.000000
O O7 0.287267 0.951210 0.869635
O O8 0.500000 0.443711 0.500000
O O9 0.295879 0.454476 0.909539
O O10 0.000000 0.437868 0.500000
O O11 0.500000 0.000000 0.500000
O O12 0.000000 0.000000 0.500000
#
# Coordination Sequence:
#
# PCOD9154833 Si02
#       7
#     2   4   2   4   2   2   1
#     4  12  30  49  80 114 162 209 258 332 392 448
#     4  12  26  48  76 103 141 193 245 304 377 454
#     4  11  28  54  77 120 167 206 262 323 392 454
#     4  12  27  47  72 105 142 180 239 297 373 461
#     4  12  30  48  74 108 150 200 260 314 376 454
#     4  11  26  50  83 119 159 214 264 316 379 475
#     4  12  28  46  74 104 144 184 230 302 390 440
#
# _framework density 23.506166
#
# number of rings (size 3 to 8) (size 9 to 14) (size 15 to 20)
#    0.000    0.235    3.529    3.529    8.235    4.706 
#    0.000    0.000    0.000    0.000    0.000    0.000 
#    0.000    0.000    0.000    0.000    0.000    0.000 
#
# Total GULP energy -94804.539933 kJ/mol
# GULP energy per Si atom -5576.737643 kJ/mol
# Density = 2.345267 g / cm^3
# Si number density = 23.506166 Si / 1000 Ang^3
#
#
#
# Elastic Constant Matrix: (Units=GPa)
#
#
# Indices 1 2 3 4 5 6 
#
# 1 216.5897 65.7918 75.8352 0.0000 39.1958 0.0000
# 2 65.7918 174.6204 61.5052 0.0000 12.2424 0.0000
# 3 75.8352 61.5052 127.1860 0.0000 35.0853 0.0000
# 4 0.0000 0.0000 0.0000 -17.7085 0.0000 12.8457
# 5 39.1958 12.2424 35.0853 0.0000 63.8879 0.0000
# 6 0.0000 0.0000 0.0000 12.8457 0.0000 -26.9584
#
#
#
# Elastic Compliance Matrix: (Units=1/GPa)
#
#
# Indices 1 2 3 4 5 6 
#
# 1 0.006302 -0.001340 -0.002491 0.000000 -0.002241 0.000000
# 2 -0.001340 0.007207 -0.002984 0.000000 0.001080 0.000000
# 3 -0.002491 -0.002984 0.012035 0.000000 -0.004509 0.000000
# 4 0.000000 0.000000 0.000000 -0.086299 0.000000 -0.041122
# 5 -0.002241 0.001080 -0.004509 0.000000 0.019297 0.000000
# 6 0.000000 0.000000 0.000000 -0.041122 0.000000 -0.056689
#
#
# Mechanical properties :
#
#
# Convention : Reuss Voigt Hill
#
# Bulk Modulus (GPa) = 83.94083 102.74005 93.34044
# Shear Modulus (GPa) = -62.07633 24.86178 -18.60727
#
# Velocity S-wave (km/s) = -5.14450 3.25571 -2.81658
# Velocity P-wave (km/s) = 0.70700 7.61154 5.40534
#
# Compressibility (1/GPa) = 0.01191315
#
# Stress axis : x y z
#
# Youngs Moduli (GPa) = 158.68212 138.75657 83.09170
#
# Poissons Ratio (x) = 0.18589 0.20701
# Poissons Ratio (y) = 0.21259 0.24796
# Poissons Ratio (z) = 0.39534 0.41407
#
# Static dielectric constant tensor:
#      x y z
#    x 2.029330 0.000000 -0.138380 
#    y 0.000000 1.886880 0.000000 
#    z -0.138380 0.000000 2.050840 
# 
# From -- ./inp_files/1828.got.cif
#   From: 2010.05.17/outbox.cif.g08.bks.cpg/sg10_1_cif.got.tgz:1828.got - 2010.06.03 11:33:40.
