data_PCOD9154565
_publ_section_title
;
Structure prediction by ZEFSAII (Michael W. Deem and Ramdas Pophale) SiO2 
 PCOD9154565
Probable space group: P 2/M
;
_chemical_formula_sum "Si O2"
_cell_formula_units_Z 28
_cell_length_a 11.182333
_cell_length_b 13.945214
_cell_length_c 14.804568
_cell_angle_alpha 90.000000
_cell_angle_beta 42.240537
_cell_angle_gamma 90.000000
_cell_volume 1551.960377
_symmetry_space_group_name_H-M "P 2/M"
_symmetry_group_IT_number 10
_symmetry_cell_setting 'monoclinic'
loop_
_space_group_symop_operation_xyz
x,y,z
-x,y,-z
-x,-y,-z
x,-y,z
loop_
_atom_site_type_symbol
_atom_site_label
_atom_site_fract_x
_atom_site_fract_y
_atom_site_fract_z
Si Si1 0.813825 0.386078 0.054649
Si Si2 0.955643 0.307352 0.793565
Si Si3 0.441934 0.704170 0.294571
Si Si4 0.680559 0.388722 0.455812
Si Si5 0.207056 0.110299 0.135569
Si Si6 0.148518 0.385928 0.343259
Si Si7 0.438003 0.110097 0.184365
O O1 0.783211 0.500000 0.080299
O O2 0.838167 0.355057 0.937292
O O3 0.645097 0.329942 0.187604
O O4 0.000000 0.363379 0.000000
O O5 0.154963 0.346926 0.691896
O O6 0.932759 0.192805 0.809169
O O7 0.891537 0.340899 0.730996
O O8 0.346193 0.675457 0.440689
O O9 0.339721 0.644919 0.273920
O O10 0.427362 0.813467 0.270110
O O11 0.500000 0.387802 0.500000
O O12 0.718164 0.500000 0.460530
O O13 0.288045 0.125287 0.190920
O O14 0.144856 0.000000 0.164187
O O15 0.374703 0.121085 0.973675
O O16 0.138537 0.500000 0.341112
O O17 0.000000 0.355016 0.500000
O O18 0.424749 0.000000 0.222372
#
# Coordination Sequence:
#
# PCOD9154565 Si02
#       7
#     4   4   4   4   4   4   4
#     4  11  24  39  56  83 118 155 199 244 284 340
#     4  12  21  37  61  86 118 151 193 246 292 346
#     4  12  21  37  61  86 118 151 193 246 292 346
#     4  11  24  41  60  81 114 167 209 228 274 354
#     4   9  18  35  58  86 118 151 187 231 293 361
#     4  11  22  35  54  85 124 158 185 231 298 359
#     4   9  18  35  58  86 118 151 187 231 293 361
#
# _framework density 18.041698
#
# number of rings (size 3 to 8) (size 9 to 14) (size 15 to 20)
#    0.000    1.286    4.286    4.286    0.000    2.857 
#    0.000    2.143    0.000    7.714    0.000    0.000 
#    0.000    0.000    0.000    0.000    0.000    0.000 
#
# Total GULP energy -156390.044980 kJ/mol
# GULP energy per Si atom -5585.358749 kJ/mol
# Density = 1.800063 g / cm^3
# Si number density = 18.041698 Si / 1000 Ang^3
#
#
#
# Elastic Constant Matrix: (Units=GPa)
#
#
# Indices 1 2 3 4 5 6 
#
# 1 41.7099 13.9090 -9.0825 0.0000 -3.7413 0.0000
# 2 13.9090 107.8448 14.3368 0.0000 -1.1801 0.0000
# 3 -9.0825 14.3368 39.5153 0.0000 0.1502 0.0000
# 4 0.0000 0.0000 0.0000 15.5419 0.0000 -7.0096
# 5 -3.7413 -1.1801 0.1502 0.0000 30.2716 0.0000
# 6 0.0000 0.0000 0.0000 -7.0096 0.0000 10.3661
#
#
#
# Elastic Compliance Matrix: (Units=1/GPa)
#
#
# Indices 1 2 3 4 5 6 
#
# 1 0.027523 -0.004575 0.007974 0.000000 0.003184 0.000000
# 2 -0.004575 0.010508 -0.004863 0.000000 -0.000132 0.000000
# 3 0.007974 -0.004863 0.028901 0.000000 0.000652 0.000000
# 4 0.000000 0.000000 0.000000 0.092576 0.000000 0.062601
# 5 0.003184 -0.000132 0.000652 0.000000 0.033419 0.000000
# 6 0.000000 0.000000 0.000000 0.062601 0.000000 0.138800
#
#
# Mechanical properties :
#
#
# Convention : Reuss Voigt Hill
#
# Bulk Modulus (GPa) = 15.62435 25.26630 20.44533
# Shear Modulus (GPa) = 14.04534 22.56302 18.30418
#
# Velocity S-wave (km/s) = 2.79318 3.54022 3.18865
# Velocity P-wave (km/s) = 4.36822 5.54488 4.99135
#
# Compressibility (1/GPa) = 0.06400265
#
# Stress axis : x y z
#
# Youngs Moduli (GPa) = 36.33384 95.16821 34.60036
#
# Poissons Ratio (x) = 0.43538 -0.27589
# Poissons Ratio (y) = 0.16622 0.16828
# Poissons Ratio (z) = -0.28972 0.46284
#
# Static dielectric constant tensor:
#      x y z
#    x 1.625080 0.000000 -0.011920 
#    y 0.000000 1.600760 0.000000 
#    z -0.011920 0.000000 1.623540 
# 
# From -- ./inp_files/64917.got.cif
#   From: 2010.05.17/outbox.cif.g08.bks.cpg/sg10_33_cif.got.tgz:64917.got - 2010.06.03 11:33:40.
