data_PCOD9154998
_publ_section_title
;
Structure prediction by ZEFSAII (Michael W. Deem and Ramdas Pophale) SiO2 
 PCOD9154998
Probable space group: P 2/M
;
_chemical_formula_sum "Si O2"
_cell_formula_units_Z 28
_cell_length_a 20.039538
_cell_length_b 10.006626
_cell_length_c 18.543678
_cell_angle_alpha 90.000000
_cell_angle_beta 157.722159
_cell_angle_gamma 90.000000
_cell_volume 1409.688307
_symmetry_space_group_name_H-M "P 2/M"
_symmetry_group_IT_number 10
_symmetry_cell_setting 'monoclinic'
loop_
_space_group_symop_operation_xyz
x,y,z
-x,y,-z
-x,-y,-z
x,-y,z
loop_
_atom_site_type_symbol
_atom_site_label
_atom_site_fract_x
_atom_site_fract_y
_atom_site_fract_z
Si Si1 0.714785 0.153907 0.843698
Si Si2 0.284452 0.345615 0.284452
Si Si3 0.710566 0.149518 0.419419
Si Si4 0.788851 0.651509 0.209033
Si Si5 0.285215 0.153906 0.414126
Si Si6 0.788849 0.348492 0.368667
Si Si7 0.710567 0.850482 0.001715
O O1 0.772591 0.261170 0.842598
O O2 0.500000 0.154808 0.627612
O O3 0.772986 0.186545 0.983578
O O4 0.766696 0.000000 0.879343
O O5 0.500000 0.346883 0.500000
O O6 0.227593 0.500000 0.227592
O O7 0.227410 0.261171 0.297416
O O8 0.772984 0.186543 0.562393
O O9 0.747445 0.251667 0.392750
O O10 0.499999 0.141601 0.214548
O O11 0.776919 0.000000 0.469022
O O12 0.724170 0.500000 0.132044
O O13 0.726251 0.695648 0.226252
O O14 0.000001 0.645304 0.423729
O O15 0.747446 0.748332 0.102142
O O16 0.233304 0.000000 0.345948
O O17 0.724168 0.500000 0.316295
O O18 0.776922 0.000000 0.084819
#
# Coordination Sequence:
#
# PCOD9154998 Si02
#       7
#     4   4   4   4   4   4   4
#     4   8  14  25  39  56  84 120 150 178 219 268
#     4   9  15  21  33  57  86 115 150 187 218 254
#     4   9  18  31  47  70  97 122 152 191 232 274
#     4   9  19  35  51  67  90 121 156 191 228 275
#     4   8  14  25  39  56  84 120 150 178 219 268
#     4   9  19  35  51  67  90 121 156 191 228 275
#     4   9  18  31  47  70  97 122 152 191 232 274
#
# _framework density 19.862545999999998
#
# number of rings (size 3 to 8) (size 9 to 14) (size 15 to 20)
#    0.000    3.286    0.000    3.000    0.000    5.143 
#    0.000    7.143    0.000    0.000    0.000    1.000 
#    0.000    8.000    0.000    0.000    0.000    0.000 
#
# Total GULP energy -156078.760658 kJ/mol
# GULP energy per Si atom -5574.241452 kJ/mol
# Density = 1.981734 g / cm^3
# Si number density = 19.862546 Si / 1000 Ang^3
#
#
#
# Elastic Constant Matrix: (Units=GPa)
#
#
# Indices 1 2 3 4 5 6 
#
# 1 164.5623 123.0681 16.2556 0.0000 -44.8091 0.0000
# 2 123.0681 166.8908 46.6941 0.0000 -69.4481 0.0000
# 3 16.2556 46.6941 76.5566 0.0000 -35.2170 0.0000
# 4 0.0000 0.0000 0.0000 52.6841 0.0000 -57.4682
# 5 -44.8091 -69.4481 -35.2170 0.0000 58.2376 0.0000
# 6 0.0000 0.0000 0.0000 -57.4682 0.0000 115.8760
#
#
#
# Elastic Compliance Matrix: (Units=1/GPa)
#
#
# Indices 1 2 3 4 5 6 
#
# 1 0.014606 -0.012316 0.003912 0.000000 -0.001083 0.000000
# 2 -0.012316 0.022336 -0.004315 0.000000 0.014550 0.000000
# 3 0.003912 -0.004315 0.019230 0.000000 0.009494 0.000000
# 4 0.000000 0.000000 0.000000 0.041351 0.000000 0.020508
# 5 -0.001083 0.014550 0.009494 0.000000 0.039430 0.000000
# 6 0.000000 0.000000 0.000000 0.020508 0.000000 0.018801
#
#
# Mechanical properties :
#
#
# Convention : Reuss Voigt Hill
#
# Bulk Modulus (GPa) = 32.53571 86.67169 59.60370
# Shear Modulus (GPa) = 26.11845 60.15900 43.13873
#
# Velocity S-wave (km/s) = 3.63017 5.50939 4.66538
# Velocity P-wave (km/s) = 5.82982 9.17615 7.68728
#
# Compressibility (1/GPa) = 0.03073546
#
# Stress axis : x y z
#
# Youngs Moduli (GPa) = 68.46614 44.77144 52.00074
#
# Poissons Ratio (x) = 0.55139 -0.20345
# Poissons Ratio (y) = 0.84321 0.22438
# Poissons Ratio (z) = -0.26787 0.19319
#
# Static dielectric constant tensor:
#      x y z
#    x 1.712790 0.000000 0.023880 
#    y 0.000000 1.679730 0.000000 
#    z 0.023880 0.000000 1.739050 
# 
# From -- ./inp_files/79232.got.cif
#   From: 2010.05.17/outbox.cif.g08.bks.cpg/sg10_40_cif.got.tgz:79232.got - 2010.06.03 11:33:40.
