data_PCOD9154873
_publ_section_title
;
Structure prediction by ZEFSAII (Michael W. Deem and Ramdas Pophale) SiO2 
 PCOD9154873
Probable space group: P 2/M
;
_chemical_formula_sum "Si O2"
_cell_formula_units_Z 32
_cell_length_a 23.769139
_cell_length_b 7.417746
_cell_length_c 22.646099
_cell_angle_alpha 90.000000
_cell_angle_beta 163.035070
_cell_angle_gamma 90.000000
_cell_volume 1165.047733
_symmetry_space_group_name_H-M "P 2/M"
_symmetry_group_IT_number 10
_symmetry_cell_setting 'monoclinic'
loop_
_space_group_symop_operation_xyz
x,y,z
-x,y,-z
-x,-y,-z
x,-y,z
loop_
_atom_site_type_symbol
_atom_site_label
_atom_site_fract_x
_atom_site_fract_y
_atom_site_fract_z
Si Si1 0.729554 0.220383 0.779451
Si Si2 0.070104 0.287160 0.268479
Si Si3 0.044162 0.710987 0.366448
Si Si4 0.374692 0.207303 0.201149
Si Si5 0.179562 0.784280 0.254485
Si Si6 0.583701 0.217855 0.885053
Si Si7 0.067120 0.792415 0.627031
Si Si8 0.514462 0.781959 0.943015
O O1 0.612673 0.285153 0.719638
O O2 0.701155 0.278992 0.682968
O O3 0.712564 0.000000 0.763229
O O4 0.955092 0.266553 0.017700
O O5 0.035707 0.500000 0.240790
O O6 0.137442 0.216924 0.400023
O O7 0.210188 0.264300 0.353479
O O8 0.860349 0.203842 0.043793
O O9 0.077244 0.500000 0.405848
O O10 0.814043 0.743059 0.124034
O O11 0.079082 0.790722 0.466273
O O12 0.441008 0.000000 0.270405
O O13 0.454534 0.288729 0.220010
O O14 0.188784 0.000000 0.261359
O O15 0.461147 0.275632 0.820424
O O16 0.571229 0.000000 0.871371
O O17 0.267670 0.713398 0.845225
O O18 0.000000 0.705703 0.500000
O O19 0.114290 0.000000 0.661457
O O20 0.481638 0.000000 0.910263
O O21 0.500000 0.734566 0.000000
#
# Coordination Sequence:
#
# PCOD9154873 Si02
#       8
#     4   4   4   4   4   4   4   4
#     4   7  10  16  25  35  47  67  98 133 163 191
#     4   9  15  20  26  39  57  75  99 132 166 197
#     4   9  16  24  34  48  66  87 110 139 175 209
#     4   8  12  19  29  38  51  74 104 135 164 194
#     4   8  12  18  26  34  47  71 101 130 162 197
#     4   8  13  21  34  49  63  84 114 143 170 203
#     4   9  17  28  41  56  72  91 118 148 173 202
#     4   8  13  22  37  56  75  92 112 142 178 209
#
# _framework density 27.466688000000001
#
# number of rings (size 3 to 8) (size 9 to 14) (size 15 to 20)
#    0.000    3.750    0.000    3.000    0.000    1.750 
#    0.000    5.000    0.000    6.000    0.000    0.000 
#    0.000    0.000    0.000    0.000    0.000    1.250 
#
# Total GULP energy -178197.748163 kJ/mol
# GULP energy per Si atom -5568.679630 kJ/mol
# Density = 2.740417 g / cm^3
# Si number density = 27.466688 Si / 1000 Ang^3
#
#
#
# Elastic Constant Matrix: (Units=GPa)
#
#
# Indices 1 2 3 4 5 6 
#
# 1 355.5498 -8.8218 62.5610 0.0000 -39.0327 0.0000
# 2 -8.8218 105.6266 -1.1842 0.0000 -7.1437 0.0000
# 3 62.5610 -1.1842 49.6859 0.0000 9.9542 0.0000
# 4 0.0000 0.0000 0.0000 3.3935 0.0000 2.5927
# 5 -39.0327 -7.1437 9.9542 0.0000 59.6328 0.0000
# 6 0.0000 0.0000 0.0000 2.5927 0.0000 -12.6089
#
#
#
# Elastic Compliance Matrix: (Units=1/GPa)
#
#
# Indices 1 2 3 4 5 6 
#
# 1 0.004369 0.000563 -0.006284 0.000000 0.003976 0.000000
# 2 0.000563 0.009617 -0.000812 0.000000 0.001656 0.000000
# 3 -0.006284 -0.000812 0.029861 0.000000 -0.009195 0.000000
# 4 0.000000 0.000000 0.000000 0.254674 0.000000 0.052368
# 5 0.003976 0.001656 -0.009195 0.000000 0.021105 0.000000
# 6 0.000000 0.000000 0.000000 0.052368 0.000000 -0.068541
#
#
# Mechanical properties :
#
#
# Convention : Reuss Voigt Hill
#
# Bulk Modulus (GPa) = 32.48601 68.44137 50.46369
# Shear Modulus (GPa) = 18.22083 40.63730 29.42907
#
# Velocity S-wave (km/s) = 2.57841 3.85062 3.27685
# Velocity P-wave (km/s) = 4.55163 6.68892 5.72097
#
# Compressibility (1/GPa) = 0.03078249
#
# Stress axis : x y z
#
# Youngs Moduli (GPa) = 228.90166 103.97955 33.48798
#
# Poissons Ratio (x) = -0.05857 0.21043
# Poissons Ratio (y) = -0.12894 0.02719
# Poissons Ratio (z) = 1.43839 0.08442
#
# Static dielectric constant tensor:
#      x y z
#    x 2.285640 0.000000 -0.096200 
#    y 0.000000 1.920580 0.000000 
#    z -0.096200 0.000000 2.926630 
# 
# From -- ./inp_files/90514.got.cif
#   From: 2010.05.17/outbox.cif.g08.bks.cpg/sg10_46_cif.got.tgz:90514.got - 2010.06.03 11:33:40.
