data_PCOD9154146
_publ_section_title
;
Structure prediction by ZEFSAII (Michael W. Deem and Ramdas Pophale) SiO2 
 PCOD9154146
Probable space group: P 2/M
;
_chemical_formula_sum "Si O2"
_cell_formula_units_Z 19
_cell_length_a 5.129282
_cell_length_b 27.243819
_cell_length_c 5.242581
_cell_angle_alpha 90.000000
_cell_angle_beta 88.324268
_cell_angle_gamma 90.000000
_cell_volume 732.291411
_symmetry_space_group_name_H-M "P 2/M"
_symmetry_group_IT_number 10
_symmetry_cell_setting 'monoclinic'
loop_
_space_group_symop_operation_xyz
x,y,z
-x,y,-z
-x,-y,-z
x,-y,z
loop_
_atom_site_type_symbol
_atom_site_label
_atom_site_fract_x
_atom_site_fract_y
_atom_site_fract_z
Si Si1 0.229072 0.840504 0.166696
Si Si2 0.500000 0.230779 0.500000
Si Si3 0.318213 0.947254 0.255517
Si Si4 0.818489 0.420185 0.256464
Si Si5 0.175840 0.692077 0.747160
Si Si6 0.500000 0.500000 0.000000
O O1 0.282301 0.805655 0.401372
O O2 0.162773 0.896555 0.245566
O O3 0.500000 0.841789 0.000000
O O4 0.000000 0.820863 0.000000
O O5 0.603031 0.267256 0.280724
O O6 0.500000 0.944694 0.500000
O O7 0.175158 0.000000 0.262740
O O8 0.500000 0.947927 0.000000
O O9 0.723594 0.363919 0.264227
O O10 0.000000 0.429450 0.500000
O O11 0.588020 0.457363 0.205000
O O12 0.000000 0.426986 0.000000
O O13 0.000000 0.698241 0.500000
O O14 0.000000 0.697285 0.000000
#
# Coordination Sequence:
#
# PCOD9154146 Si02
#       6
#     4   2   4   4   4   1
#     4  11  27  47  73 110 156 199 261 326 396 470
#     4  12  28  46  77 109 150 202 264 324 396 462
#     4   9  18  40  71 105 146 196 249 313 389 470
#     4  10  24  46  68 107 147 189 246 305 371 457
#     4  10  26  48  75 105 150 200 256 316 383 463
#     4  12  24  42  80 104 148 190 240 306 388 440
#
# _framework density 25.945955999999999
#
# number of rings (size 3 to 8) (size 9 to 14) (size 15 to 20)
#    0.000    1.684    1.053    0.632    5.895    7.158 
#    0.000    0.000    0.000    6.316    0.000    0.000 
#    0.000    0.842    0.000    0.000    0.000    0.000 
#
# Total GULP energy -106321.854857 kJ/mol
# GULP energy per Si atom -5595.887098 kJ/mol
# Density = 2.588690 g / cm^3
# Si number density = 25.945956 Si / 1000 Ang^3
#
#
#
# Elastic Constant Matrix: (Units=GPa)
#
#
# Indices 1 2 3 4 5 6 
#
# 1 81.4096 45.6034 50.0129 0.0000 5.6680 0.0000
# 2 45.6034 218.5666 59.8699 0.0000 23.8915 0.0000
# 3 50.0129 59.8699 207.2616 0.0000 14.7904 0.0000
# 4 0.0000 0.0000 0.0000 24.4318 0.0000 -40.2491
# 5 5.6680 23.8915 14.7904 0.0000 59.4180 0.0000
# 6 0.0000 0.0000 0.0000 -40.2491 0.0000 -145.1331
#
#
#
# Elastic Compliance Matrix: (Units=1/GPa)
#
#
# Indices 1 2 3 4 5 6 
#
# 1 0.015503 -0.002425 -0.003059 0.000000 0.000258 0.000000
# 2 -0.002425 0.005516 -0.000882 0.000000 -0.001767 0.000000
# 3 -0.003059 -0.000882 0.005876 0.000000 -0.000816 0.000000
# 4 0.000000 0.000000 0.000000 0.028095 0.000000 -0.007791
# 5 0.000258 -0.001767 -0.000816 0.000000 0.017719 0.000000
# 6 0.000000 0.000000 0.000000 -0.007791 0.000000 -0.004729
#
#
# Mechanical properties :
#
#
# Convention : Reuss Voigt Hill
#
# Bulk Modulus (GPa) = 70.60508 90.91224 80.75866
# Shear Modulus (GPa) = 58.52580 11.19346 34.85963
#
# Velocity S-wave (km/s) = 4.75455 2.07931 3.66942
# Velocity P-wave (km/s) = 7.57710 6.39373 7.01043
#
# Compressibility (1/GPa) = 0.01416329
#
# Stress axis : x y z
#
# Youngs Moduli (GPa) = 64.50283 181.29035 170.18424
#
# Poissons Ratio (x) = 0.43962 0.52057
# Poissons Ratio (y) = 0.15642 0.15012
# Poissons Ratio (z) = 0.19731 0.15992
#
# Static dielectric constant tensor:
#      x y z
#    x 2.003470 0.000000 0.018820 
#    y 0.000000 2.019720 0.000000 
#    z 0.018820 0.000000 1.901680 
# 
# From -- ./inp_files/2194.got.cif
#   From: 2010.05.17/outbox.cif.g08.bks.cpg/sg10_2_cif.got.tgz:2194.got - 2010.06.03 11:33:40.
