data_PCOD9154289
_publ_section_title
;
Structure prediction by ZEFSAII (Michael W. Deem and Ramdas Pophale) SiO2 
 PCOD9154289
Probable space group: P 2/M
;
_chemical_formula_sum "Si O2"
_cell_formula_units_Z 32
_cell_length_a 12.621111
_cell_length_b 8.330074
_cell_length_c 19.408008
_cell_angle_alpha 90.000000
_cell_angle_beta 57.660485
_cell_angle_gamma 90.000000
_cell_volume 1723.967901
_symmetry_space_group_name_H-M "P 2/M"
_symmetry_group_IT_number 10
_symmetry_cell_setting 'monoclinic'
loop_
_space_group_symop_operation_xyz
x,y,z
-x,y,-z
-x,-y,-z
x,-y,z
loop_
_atom_site_type_symbol
_atom_site_label
_atom_site_fract_x
_atom_site_fract_y
_atom_site_fract_z
Si Si1 0.763262 0.695683 0.141019
Si Si2 0.436016 0.696012 0.592388
Si Si3 0.187796 0.317219 0.023340
Si Si4 0.892513 0.812500 0.799395
Si Si5 0.448946 0.178561 0.940892
Si Si6 0.840362 0.306273 0.266440
Si Si7 0.486499 0.694755 0.285305
Si Si8 0.321075 0.309253 0.223907
O O1 0.762658 0.500000 0.137616
O O2 0.830017 0.741034 0.189212
O O3 0.616452 0.745861 0.201339
O O4 0.831830 0.751210 0.047185
O O5 0.500000 0.752831 0.500000
O O6 0.439720 0.500000 0.590518
O O7 0.290172 0.740067 0.652144
O O8 0.504030 0.749749 0.639130
O O9 0.140819 0.500000 0.041566
O O10 0.144132 0.237137 0.109445
O O11 0.339094 0.307197 0.973254
O O12 0.807301 0.731802 0.770117
O O13 0.037590 0.767409 0.741948
O O14 0.871117 0.000000 0.800706
O O15 0.568928 0.221036 0.855048
O O16 0.398767 0.000000 0.941911
O O17 0.500000 0.176492 0.000000
O O18 0.849754 0.500000 0.264794
O O19 0.493814 0.500000 0.284226
O O20 0.359132 0.736118 0.289060
O O21 0.338185 0.500000 0.211909
#
# Coordination Sequence:
#
# PCOD9154289 Si02
#       8
#     4   4   4   4   4   4   4   4
#     4   8  15  29  50  74  97 126 169 220 255 289
#     4   8  14  28  57  92 115 126 146 197 261 308
#     4  11  20  32  51  71  94 133 183 221 259 301
#     4  12  25  37  46  66 103 140 179 220 260 297
#     4  11  21  31  44  68 102 134 171 223 269 296
#     4   9  18  35  56  76 102 134 170 203 248 312
#     4   8  14  26  47  79 109 128 158 206 255 301
#     4  11  20  32  52  72  96 136 182 216 251 300
#
# _framework density 18.561831999999999
#
# number of rings (size 3 to 8) (size 9 to 14) (size 15 to 20)
#    0.000    2.250    2.500    3.750    0.000    1.000 
#    0.000    3.750    0.000    1.125    0.000    5.250 
#    0.000    0.000    0.000    0.000    0.000    0.000 
#
# Total GULP energy -178317.197711 kJ/mol
# GULP energy per Si atom -5572.412428 kJ/mol
# Density = 1.851958 g / cm^3
# Si number density = 18.561832 Si / 1000 Ang^3
#
#
#
# Elastic Constant Matrix: (Units=GPa)
#
#
# Indices 1 2 3 4 5 6 
#
# 1 99.1639 -1.2720 54.7266 0.0000 11.5427 0.0000
# 2 -1.2720 19.6035 8.1587 0.0000 7.3296 0.0000
# 3 54.7266 8.1587 94.3651 0.0000 19.9554 0.0000
# 4 0.0000 0.0000 0.0000 -37.1805 0.0000 -5.9279
# 5 11.5427 7.3296 19.9554 0.0000 16.7161 0.0000
# 6 0.0000 0.0000 0.0000 -5.9279 0.0000 -16.8750
#
#
#
# Elastic Compliance Matrix: (Units=1/GPa)
#
#
# Indices 1 2 3 4 5 6 
#
# 1 0.015329 0.005604 -0.008851 0.000000 -0.002476 0.000000
# 2 0.005604 0.063081 -0.002724 0.000000 -0.028277 0.000000
# 3 -0.008851 -0.002724 0.019291 0.000000 -0.015723 0.000000
# 4 0.000000 0.000000 0.000000 -0.028492 0.000000 0.010009
# 5 -0.002476 -0.028277 -0.015723 0.000000 0.092700 0.000000
# 6 0.000000 0.000000 0.000000 0.010009 0.000000 -0.062775
#
#
# Mechanical properties :
#
#
# Convention : Reuss Voigt Hill
#
# Bulk Modulus (GPa) = 11.66060 37.37324 24.51692
# Shear Modulus (GPa) = 35.80040 2.63340 19.21690
#
# Velocity S-wave (km/s) = 4.39647 1.19239 3.22108
# Velocity P-wave (km/s) = 5.66283 4.69829 5.20296
#
# Compressibility (1/GPa) = 0.08575888
#
# Stress axis : x y z
#
# Youngs Moduli (GPa) = 65.23555 15.85253 51.83873
#
# Poissons Ratio (x) = -0.08884 0.45882
# Poissons Ratio (y) = -0.36559 0.14122
# Poissons Ratio (z) = 0.57740 0.04319
#
# Static dielectric constant tensor:
#      x y z
#    x 1.679890 0.000000 0.030620 
#    y 0.000000 1.651640 0.000000 
#    z 0.030620 0.000000 1.660960 
# 
# From -- ./inp_files/83366.got.cif
#   From: 2010.05.17/outbox.cif.g08.bks.cpg/sg10_42_cif.got.tgz:83366.got - 2010.06.03 11:33:40.
