data_PCOD9154624
_publ_section_title
;
Structure prediction by ZEFSAII (Michael W. Deem and Ramdas Pophale) SiO2 
 PCOD9154624
Probable space group: P 2/M
;
_chemical_formula_sum "Si O2"
_cell_formula_units_Z 32
_cell_length_a 22.077335
_cell_length_b 8.131052
_cell_length_c 28.036672
_cell_angle_alpha 90.000000
_cell_angle_beta 161.435073
_cell_angle_gamma 90.000000
_cell_volume 1602.375791
_symmetry_space_group_name_H-M "P 2/M"
_symmetry_group_IT_number 10
_symmetry_cell_setting 'monoclinic'
loop_
_space_group_symop_operation_xyz
x,y,z
-x,y,-z
-x,-y,-z
x,-y,z
loop_
_atom_site_type_symbol
_atom_site_label
_atom_site_fract_x
_atom_site_fract_y
_atom_site_fract_z
Si Si1 0.285287 0.197084 0.344191
Si Si2 0.988119 0.302198 0.194961
Si Si3 0.323325 0.808099 0.754061
Si Si4 0.731096 0.692966 0.086021
Si Si5 0.674812 0.697855 0.883446
Si Si6 0.149800 0.191910 0.723843
Si Si7 0.741579 0.693117 0.399366
Si Si8 0.023647 0.801372 0.963622
O O1 0.500000 0.261339 0.500000
O O2 0.181439 0.234776 0.316667
O O3 0.144059 0.259352 0.196959
O O4 0.293297 0.000000 0.345169
O O5 0.001155 0.500000 0.202380
O O6 0.918188 0.256585 0.195550
O O7 0.816658 0.247111 0.031705
O O8 0.223766 0.744976 0.727967
O O9 0.265942 0.715534 0.663322
O O10 0.272110 0.000000 0.709589
O O11 0.547962 0.789010 0.930529
O O12 0.697286 0.500000 0.050779
O O13 0.760206 0.720060 0.163574
O O14 0.668681 0.500000 0.881319
O O15 0.460504 0.756280 0.731607
O O16 0.777496 0.750176 0.911650
O O17 0.923669 0.214240 0.555444
O O18 0.202350 0.000000 0.765986
O O19 0.761196 0.500000 0.425456
O O20 0.015816 0.000000 0.958039
O O21 0.000000 0.742766 0.000000
#
# Coordination Sequence:
#
# PCOD9154624 Si02
#       8
#     4   4   4   4   4   4   4   4
#     4   9  18  33  53  78 108 141 179 221 267 322
#     4   9  18  35  57  81 109 141 184 231 271 323
#     4  11  23  39  61  85 114 149 190 237 285 342
#     4  11  22  39  61  85 114 150 193 237 283 339
#     4   9  18  35  57  81 109 141 184 231 271 323
#     4  11  25  41  55  83 120 151 186 237 293 340
#     4  11  22  39  61  85 114 150 193 237 283 339
#     4   9  18  33  53  78 108 141 179 221 267 322
#
# _framework density 19.970344999999998
#
# number of rings (size 3 to 8) (size 9 to 14) (size 15 to 20)
#    0.000    2.000    1.250    2.250    0.000    7.500 
#    2.250    0.000    0.000    0.000    0.000    0.000 
#    0.000    0.000    0.000    0.000    0.000    0.000 
#
# Total GULP energy -178689.589569 kJ/mol
# GULP energy per Si atom -5584.049674 kJ/mol
# Density = 1.992489 g / cm^3
# Si number density = 19.970345 Si / 1000 Ang^3
#
#
#
# Elastic Constant Matrix: (Units=GPa)
#
#
# Indices 1 2 3 4 5 6 
#
# 1 81.5647 0.8273 0.2222 0.0000 14.2092 0.0000
# 2 0.8273 11.5294 -3.0183 0.0000 2.1093 0.0000
# 3 0.2222 -3.0183 45.0262 0.0000 14.3446 0.0000
# 4 0.0000 0.0000 0.0000 51.1702 0.0000 -8.3181
# 5 14.2092 2.1093 14.3446 0.0000 30.7965 0.0000
# 6 0.0000 0.0000 0.0000 -8.3181 0.0000 33.4028
#
#
#
# Elastic Compliance Matrix: (Units=1/GPa)
#
#
# Indices 1 2 3 4 5 6 
#
# 1 0.013535 0.001004 0.002363 0.000000 -0.007414 0.000000
# 2 0.001004 0.091253 0.009689 0.000000 -0.011226 0.000000
# 3 0.002363 0.009689 0.027484 0.000000 -0.014555 0.000000
# 4 0.000000 0.000000 0.000000 0.020367 0.000000 0.005072
# 5 -0.007414 -0.011226 -0.014555 0.000000 0.043441 0.000000
# 6 0.000000 0.000000 0.000000 0.005072 0.000000 0.031201
#
#
# Mechanical properties :
#
#
# Convention : Reuss Voigt Hill
#
# Bulk Modulus (GPa) = 6.31384 14.90918 10.61151
# Shear Modulus (GPa) = 19.68772 32.41318 26.05045
#
# Velocity S-wave (km/s) = 3.14323 4.03310 3.61564
# Velocity P-wave (km/s) = 4.04248 5.40090 4.77029
#
# Compressibility (1/GPa) = 0.15838211
#
# Stress axis : x y z
#
# Youngs Moduli (GPa) = 73.88147 10.95853 36.38447
#
# Poissons Ratio (x) = -0.01100 -0.08596
# Poissons Ratio (y) = -0.07416 -0.35251
# Poissons Ratio (z) = -0.17455 -0.10617
#
# Static dielectric constant tensor:
#      x y z
#    x 1.708600 0.000000 0.016320 
#    y 0.000000 1.693820 0.000000 
#    z 0.016320 0.000000 1.690700 
# 
# From -- ./inp_files/93802.got.cif
#   From: 2010.05.17/outbox.cif.g08.bks.cpg/sg10_47_cif.got.tgz:93802.got - 2010.06.03 11:33:40.
