data_PCOD9154604
_publ_section_title
;
Structure prediction by ZEFSAII (Michael W. Deem and Ramdas Pophale) SiO2 
 PCOD9154604
Probable space group: P 2/M
;
_chemical_formula_sum "Si O2"
_cell_formula_units_Z 20
_cell_length_a 22.800167
_cell_length_b 7.855883
_cell_length_c 4.932987
_cell_angle_alpha 90.000000
_cell_angle_beta 107.530416
_cell_angle_gamma 90.000000
_cell_volume 842.538486
_symmetry_space_group_name_H-M "P 2/M"
_symmetry_group_IT_number 10
_symmetry_cell_setting 'monoclinic'
loop_
_space_group_symop_operation_xyz
x,y,z
-x,y,-z
-x,-y,-z
x,-y,z
loop_
_atom_site_type_symbol
_atom_site_label
_atom_site_fract_x
_atom_site_fract_y
_atom_site_fract_z
Si Si1 0.958261 0.197150 0.207728
Si Si2 0.365646 0.302316 0.663780
Si Si3 0.755934 0.302588 0.210868
Si Si4 0.439427 0.802362 0.266624
Si Si5 0.169862 0.198060 0.186106
O O1 0.892338 0.270773 0.034059
O O2 0.000000 0.277163 0.500000
O O3 0.945141 0.000000 0.276512
O O4 0.000000 0.193108 0.000000
O O5 0.354443 0.500000 0.581933
O O6 0.304930 0.232077 0.727242
O O7 0.386086 0.212688 0.417515
O O8 0.418910 0.287032 0.963323
O O9 0.744264 0.500000 0.127096
O O10 0.777643 0.212983 0.968448
O O11 0.808883 0.288107 0.511035
O O12 0.500000 0.732031 0.500000
O O13 0.450808 0.000000 0.216438
O O14 0.158961 0.000000 0.239720
#
# Coordination Sequence:
#
# PCOD9154604 Si02
#       5
#     4   4   4   4   4
#     4   9  17  31  53  82 114 145 184 239 291 334
#     4  11  24  41  62  87 116 157 202 237 281 347
#     4  11  24  41  59  84 122 159 190 237 299 347
#     4  11  24  41  62  90 122 153 188 239 299 345
#     4  11  22  37  62  91 114 149 202 245 284 345
#
# _framework density 23.737791000000001
#
# number of rings (size 3 to 8) (size 9 to 14) (size 15 to 20)
#    0.000    1.400    0.000    5.400    0.000   15.200 
#    0.000    0.000    0.000   12.000    0.000    0.000 
#    0.000    0.000    0.000    0.000    0.000    0.000 
#
# Total GULP energy -111951.720889 kJ/mol
# GULP energy per Si atom -5597.586044 kJ/mol
# Density = 2.368376 g / cm^3
# Si number density = 23.737791 Si / 1000 Ang^3
#
#
#
# Elastic Constant Matrix: (Units=GPa)
#
#
# Indices 1 2 3 4 5 6 
#
# 1 67.3141 -2.9954 -1.7905 0.0000 -3.2790 0.0000
# 2 -2.9954 39.2164 -1.7318 0.0000 -1.5334 0.0000
# 3 -1.7905 -1.7318 108.6109 0.0000 -3.3895 0.0000
# 4 0.0000 0.0000 0.0000 -29.8598 0.0000 -261.1249
# 5 -3.2790 -1.5334 -3.3895 0.0000 41.2133 0.0000
# 6 0.0000 0.0000 0.0000 -261.1249 0.0000 -756.7246
#
#
#
# Elastic Compliance Matrix: (Units=1/GPa)
#
#
# Indices 1 2 3 4 5 6 
#
# 1 0.014979 0.001207 0.000306 0.000000 0.001262 0.000000
# 2 0.001207 0.025655 0.000463 0.000000 0.001089 0.000000
# 3 0.000306 0.000463 0.009245 0.000000 0.000802 0.000000
# 4 0.000000 0.000000 0.000000 0.016598 0.000000 -0.005728
# 5 0.001262 0.001089 0.000802 0.000000 0.024471 0.000000
# 6 0.000000 0.000000 0.000000 -0.005728 0.000000 0.000655
#
#
# Mechanical properties :
#
#
# Convention : Reuss Voigt Hill
#
# Bulk Modulus (GPa) = 18.57723 22.45619 20.51671
# Shear Modulus (GPa) = 47.35090 -134.29692 -43.47301
#
# Velocity S-wave (km/s) = 4.47111 -7.52981 -4.28411
# Velocity P-wave (km/s) = 5.87345 8.13122 3.97613
#
# Compressibility (1/GPa) = 0.05382934
#
# Stress axis : x y z
#
# Youngs Moduli (GPa) = 66.75999 38.97916 108.17097
#
# Poissons Ratio (x) = -0.04705 -0.03305
# Poissons Ratio (y) = -0.08058 -0.05008
# Poissons Ratio (z) = -0.02040 -0.01805
#
# Static dielectric constant tensor:
#      x y z
#    x 1.912610 0.000000 0.066290 
#    y 0.000000 1.837390 0.000000 
#    z 0.066290 0.000000 1.875160 
# 
# From -- ./inp_files/12084.got.cif
#   From: 2010.05.17/outbox.cif.g08.bks.cpg/sg10_7_cif.got.tgz:12084.got - 2010.06.03 11:33:40.
