data_PCOD9154459
_publ_section_title
;
Structure prediction by ZEFSAII (Michael W. Deem and Ramdas Pophale) SiO2 
 PCOD9154459
Probable space group: P 2/M
;
_chemical_formula_sum "Si O2"
_cell_formula_units_Z 12
_cell_length_a 14.149565
_cell_length_b 10.805439
_cell_length_c 5.008013
_cell_angle_alpha 90.000000
_cell_angle_beta 47.993318
_cell_angle_gamma 90.000000
_cell_volume 568.956156
_symmetry_space_group_name_H-M "P 2/M"
_symmetry_group_IT_number 10
_symmetry_cell_setting 'monoclinic'
loop_
_space_group_symop_operation_xyz
x,y,z
-x,y,-z
-x,-y,-z
x,-y,z
loop_
_atom_site_type_symbol
_atom_site_label
_atom_site_fract_x
_atom_site_fract_y
_atom_site_fract_z
Si Si1 0.347244 0.355769 0.278425
Si Si2 0.610753 0.000000 0.582063
Si Si3 0.737351 0.212682 0.070501
Si Si4 0.879882 0.000000 0.039581
O O1 0.331314 0.500000 0.241257
O O2 0.280557 0.323003 0.683856
O O3 0.500000 0.332589 0.000000
O O4 0.283477 0.267611 0.179627
O O5 0.624778 0.118667 0.368559
O O6 0.749768 0.000000 0.465017
O O7 0.500000 0.000000 0.000000
O O8 0.858353 0.123777 0.902077
O O9 0.000000 0.000000 0.000000
#
# Coordination Sequence:
#
# PCOD9154459 Si02
#       4
#     4   2   4   2
#     4  11  21  36  56  87 125 163 197 243 302 362
#     4   8  18  34  60  89 120 150 193 257 307 354
#     4   9  21  35  59  86 121 153 202 246 299 359
#     4   8  20  40  65  88 119 163 201 249 309 365
#
# _framework density 21.091256999999999
#
# number of rings (size 3 to 8) (size 9 to 14) (size 15 to 20)
#    2.000    0.333    0.000    3.000    0.000    8.000 
#    0.000   21.667    0.000    6.000    0.000    0.000 
#    0.000    0.000    0.000    0.000    0.000    0.000 
#
# Total GULP energy -66885.270515 kJ/mol
# GULP energy per Si atom -5573.772543 kJ/mol
# Density = 2.104325 g / cm^3
# Si number density = 21.091257 Si / 1000 Ang^3
#
#
#
# Elastic Constant Matrix: (Units=GPa)
#
#
# Indices 1 2 3 4 5 6 
#
# 1 158.6890 42.0051 15.0028 0.0000 -6.6707 0.0000
# 2 42.0051 116.0960 -0.2525 0.0000 5.3950 0.0000
# 3 15.0028 -0.2525 50.8375 0.0000 2.6595 0.0000
# 4 0.0000 0.0000 0.0000 26.6189 0.0000 23.9843
# 5 -6.6707 5.3950 2.6595 0.0000 29.2085 0.0000
# 6 0.0000 0.0000 0.0000 23.9843 0.0000 30.2508
#
#
#
# Elastic Compliance Matrix: (Units=1/GPa)
#
#
# Indices 1 2 3 4 5 6 
#
# 1 0.007357 -0.002778 -0.002311 0.000000 0.002404 0.000000
# 2 -0.002778 0.009738 0.001000 0.000000 -0.002524 0.000000
# 3 -0.002311 0.001000 0.020492 0.000000 -0.002578 0.000000
# 4 0.000000 0.000000 0.000000 0.131527 0.000000 -0.104281
# 5 0.002404 -0.002524 -0.002578 0.000000 0.035487 0.000000
# 6 0.000000 0.000000 0.000000 -0.104281 0.000000 0.115736
#
#
# Mechanical properties :
#
#
# Convention : Reuss Voigt Hill
#
# Bulk Modulus (GPa) = 34.00218 48.79259 41.39739
# Shear Modulus (GPa) = 14.77906 35.14012 24.95959
#
# Velocity S-wave (km/s) = 2.64998 4.08622 3.44380
# Velocity P-wave (km/s) = 5.05170 6.74145 5.95679
#
# Compressibility (1/GPa) = 0.02940988
#
# Stress axis : x y z
#
# Youngs Moduli (GPa) = 135.93286 102.68713 48.79900
#
# Poissons Ratio (x) = 0.28531 0.11275
# Poissons Ratio (y) = 0.37768 -0.04882
# Poissons Ratio (z) = 0.31408 -0.10273
#
# Static dielectric constant tensor:
#      x y z
#    x 1.699130 0.000000 -0.668020 
#    y 0.000000 1.856560 0.000000 
#    z -0.668020 0.000000 -2.307810 
# 
# From -- ./inp_files/5898.got.cif
#   From: 2010.05.17/outbox.cif.g08.bks.cpg/sg10_3_cif.got.tgz:5898.got - 2010.06.03 11:33:40.
