data_PCOD9154972
_publ_section_title
;
Structure prediction by ZEFSAII (Michael W. Deem and Ramdas Pophale) SiO2 
 PCOD9154972
Probable space group: P 2/M
;
_chemical_formula_sum "Si O2"
_cell_formula_units_Z 20
_cell_length_a 5.285512
_cell_length_b 28.697390
_cell_length_c 5.280013
_cell_angle_alpha 90.000000
_cell_angle_beta 95.309775
_cell_angle_gamma 90.000000
_cell_volume 797.437867
_symmetry_space_group_name_H-M "P 2/M"
_symmetry_group_IT_number 10
_symmetry_cell_setting 'monoclinic'
loop_
_space_group_symop_operation_xyz
x,y,z
-x,y,-z
-x,-y,-z
x,-y,z
loop_
_atom_site_type_symbol
_atom_site_label
_atom_site_fract_x
_atom_site_fract_y
_atom_site_fract_z
Si Si1 0.172417 0.150804 0.768527
Si Si2 0.827170 0.750307 0.231708
Si Si3 0.731250 0.648947 0.328240
Si Si4 0.735008 0.450190 0.321951
Si Si5 0.731572 0.049439 0.327538
O O1 0.321430 0.200215 0.765563
O O2 0.297300 0.100097 0.798133
O O3 0.000000 0.149864 0.500000
O O4 0.000000 0.153414 0.000000
O O5 0.699833 0.699790 0.204882
O O6 0.000000 0.749657 0.500000
O O7 0.000000 0.752276 0.000000
O O8 0.500000 0.645493 0.500000
O O9 0.732409 0.599663 0.178720
O O10 0.000000 0.650162 0.500000
O O11 0.500000 0.450648 0.500000
O O12 0.729261 0.500000 0.179660
O O13 0.000000 0.450024 0.500000
O O14 0.500000 0.047061 0.500000
O O15 0.000000 0.050278 0.500000
O O16 0.734683 0.000000 0.178451
#
# Coordination Sequence:
#
# PCOD9154972 Si02
#       5
#     4   4   4   4   4
#     4   9  18  34  56  81 110 145 184 227 275 327
#     4   9  18  34  55  80 110 144 183 227 275 327
#     4   9  17  30  49  74 104 139 178 221 270 323
#     4   8  13  22  39  65  96 130 169 213 261 314
#     4   9  18  34  56  82 112 146 184 227 275 327
#
# _framework density 25.080323
#
# number of rings (size 3 to 8) (size 9 to 14) (size 15 to 20)
#    0.000    3.200    0.000    0.000    0.000    1.200 
#    0.000    8.000    0.000   33.000    0.000    0.000 
#    0.000   35.200    0.000    0.000    0.000    8.400 
#
# Total GULP energy -111453.246503 kJ/mol
# GULP energy per Si atom -5572.662325 kJ/mol
# Density = 2.502324 g / cm^3
# Si number density = 25.080323 Si / 1000 Ang^3
#
#
#
# Elastic Constant Matrix: (Units=GPa)
#
#
# Indices 1 2 3 4 5 6 
#
# 1 154.1086 4.7265 38.1222 0.0000 19.1014 0.0000
# 2 4.7265 411.3910 12.9742 0.0000 -5.6815 0.0000
# 3 38.1222 12.9742 98.6812 0.0000 15.4164 0.0000
# 4 0.0000 0.0000 0.0000 -24.9353 0.0000 -65.9039
# 5 19.1014 -5.6815 15.4164 0.0000 53.4282 0.0000
# 6 0.0000 0.0000 0.0000 -65.9039 0.0000 2.0928
#
#
#
# Elastic Compliance Matrix: (Units=1/GPa)
#
#
# Indices 1 2 3 4 5 6 
#
# 1 0.007354 -0.000031 -0.002540 0.000000 -0.001899 0.000000
# 2 -0.000031 0.002448 -0.000369 0.000000 0.000378 0.000000
# 3 -0.002540 -0.000369 0.011548 0.000000 -0.002463 0.000000
# 4 0.000000 0.000000 0.000000 -0.000476 0.000000 -0.014993
# 5 -0.001899 0.000378 -0.002463 0.000000 0.020147 0.000000
# 6 0.000000 0.000000 0.000000 -0.014993 0.000000 0.005673
#
#
# Mechanical properties :
#
#
# Convention : Reuss Voigt Hill
#
# Bulk Modulus (GPa) = 64.63943 86.20295 75.42119
# Shear Modulus (GPa) = 86.61058 46.67433 66.64245
#
# Velocity S-wave (km/s) = 5.88288 4.31860 5.16036
# Velocity P-wave (km/s) = 8.48370 7.70146 8.10203
#
# Compressibility (1/GPa) = 0.01547043
#
# Stress axis : x y z
#
# Youngs Moduli (GPa) = 135.98716 408.49936 86.59307
#
# Poissons Ratio (x) = 0.01250 0.21995
# Poissons Ratio (y) = 0.00416 0.03196
# Poissons Ratio (z) = 0.34542 0.15075
#
# Static dielectric constant tensor:
#      x y z
#    x 1.908180 0.000000 0.004960 
#    y 0.000000 2.210060 0.000000 
#    z 0.004960 0.000000 1.865580 
# 
# From -- ./inp_files/2246.got.cif
#   From: 2010.05.17/outbox.cif.g08.bks.cpg/sg10_2_cif.got.tgz:2246.got - 2010.06.03 11:33:40.
