data_PCOD9154374
_publ_section_title
;
Structure prediction by ZEFSAII (Michael W. Deem and Ramdas Pophale) SiO2 
 PCOD9154374
Probable space group: P 2/M
;
_chemical_formula_sum "Si O2"
_cell_formula_units_Z 32
_cell_length_a 14.410071
_cell_length_b 9.137111
_cell_length_c 21.460397
_cell_angle_alpha 90.000000
_cell_angle_beta 132.180717
_cell_angle_gamma 90.000000
_cell_volume 2093.866212
_symmetry_space_group_name_H-M "P 2/M"
_symmetry_group_IT_number 10
_symmetry_cell_setting 'monoclinic'
loop_
_space_group_symop_operation_xyz
x,y,z
-x,y,-z
-x,-y,-z
x,-y,z
loop_
_atom_site_type_symbol
_atom_site_label
_atom_site_fract_x
_atom_site_fract_y
_atom_site_fract_z
Si Si1 0.944841 0.675365 0.156753
Si Si2 0.220233 0.324855 0.328955
Si Si3 0.631337 0.324635 0.843248
Si Si4 0.888887 0.172715 0.000001
Si Si5 0.707205 0.826339 0.100397
Si Si6 0.387198 0.831223 0.500000
Si Si7 0.437676 0.675145 0.328954
Si Si8 0.493589 0.826339 0.100397
O O1 0.938770 0.500000 0.146808
O O2 0.927744 0.751501 0.082063
O O3 0.831603 0.733149 0.148209
O O4 0.079555 0.714080 0.246409
O O5 0.227101 0.500000 0.340390
O O6 0.272138 0.247872 0.414191
O O7 0.315202 0.286794 0.315202
O O8 0.645156 0.500000 0.853193
O O9 0.586741 0.285919 0.753593
O O10 0.535185 0.266851 0.851791
O O11 0.763619 0.248498 0.917938
O O12 0.865509 0.000000 0.000001
O O13 0.000000 0.188107 0.000000
O O14 0.621519 0.790951 0.121519
O O15 0.735561 0.000000 0.114804
O O16 0.618506 0.801947 1.000000
O O17 0.500000 0.824651 0.500000
O O18 0.443758 0.752128 0.585810
O O19 0.359198 0.000000 0.500001
O O20 0.453676 0.500000 0.340388
O O21 0.494046 0.000000 0.114804
#
# Coordination Sequence:
#
# PCOD9154374 Si02
#       8
#     4   4   4   4   4   4   4   4
#     4  11  21  32  49  73  97 125 162 202 240 283
#     4   9  18  32  48  67  96 131 160 190 235 286
#     4  11  21  32  49  73  97 125 162 202 240 283
#     4  11  23  35  46  63  94 135 169 196 232 279
#     4   9  18  33  51  69  93 126 161 199 244 290
#     4   9  17  29  47  71  94 119 158 203 237 270
#     4   9  18  32  48  67  96 131 160 190 235 286
#     4   9  18  33  51  69  93 126 161 199 244 290
#
# _framework density 15.282735000000001
#
# number of rings (size 3 to 8) (size 9 to 14) (size 15 to 20)
#    0.000    2.250    1.250    3.000    0.000    6.000 
#    0.000    3.750    0.000    0.000    0.000    0.875 
#    0.000    7.000    0.000    0.000    0.000    0.000 
#
# Total GULP energy -178514.279626 kJ/mol
# GULP energy per Si atom -5578.571238 kJ/mol
# Density = 1.524795 g / cm^3
# Si number density = 15.282735 Si / 1000 Ang^3
#
#
#
# Elastic Constant Matrix: (Units=GPa)
#
#
# Indices 1 2 3 4 5 6 
#
# 1 88.5040 54.0116 69.1059 0.0000 0.1422 0.0000
# 2 54.0116 65.4491 74.1560 0.0000 -0.7285 0.0000
# 3 69.1059 74.1560 148.6611 0.0000 -2.3177 0.0000
# 4 0.0000 0.0000 0.0000 1.0206 0.0000 0.8720
# 5 0.1422 -0.7285 -2.3177 0.0000 7.8409 0.0000
# 6 0.0000 0.0000 0.0000 0.8720 0.0000 25.0944
#
#
#
# Elastic Compliance Matrix: (Units=1/GPa)
#
#
# Indices 1 2 3 4 5 6 
#
# 1 0.023335 -0.015981 -0.002919 0.000000 -0.002771 0.000000
# 2 -0.015981 0.046112 -0.015574 0.000000 -0.000029 0.000000
# 3 -0.002919 -0.015574 0.015904 0.000000 0.003307 0.000000
# 4 0.000000 0.000000 0.000000 1.009774 0.000000 -0.035087
# 5 -0.002771 -0.000029 0.003307 0.000000 0.128561 0.000000
# 6 0.000000 0.000000 0.000000 -0.035087 0.000000 0.041069
#
#
# Mechanical properties :
#
#
# Convention : Reuss Voigt Hill
#
# Bulk Modulus (GPa) = 60.95990 77.46237 69.21114
# Shear Modulus (GPa) = 3.73366 13.81392 8.77379
#
# Velocity S-wave (km/s) = 1.56472 3.00974 2.39863
# Velocity P-wave (km/s) = 6.57565 7.92933 7.28400
#
# Compressibility (1/GPa) = 0.01640423
#
# Stress axis : x y z
#
# Youngs Moduli (GPa) = 42.85354 21.68620 62.87792
#
# Poissons Ratio (x) = 0.34656 0.18355
# Poissons Ratio (y) = 0.68483 0.97925
# Poissons Ratio (z) = 0.12510 0.33774
#
# Static dielectric constant tensor:
#      x y z
#    x 1.501720 0.000000 0.000640 
#    y 0.000000 1.509460 0.000000 
#    z 0.000640 0.000000 1.484090 
# 
# From -- ./inp_files/29490.got.cif
#   From: 2010.05.17/outbox.cif.g08.bks.cpg/sg10_15_cif.got.tgz:29490.got - 2010.06.03 11:33:40.
