data_PCOD9154550
_publ_section_title
;
Structure prediction by ZEFSAII (Michael W. Deem and Ramdas Pophale) SiO2 
 PCOD9154550
Probable space group: P 2/M
;
_chemical_formula_sum "Si O2"
_cell_formula_units_Z 32
_cell_length_a 20.394087
_cell_length_b 8.832099
_cell_length_c 31.858606
_cell_angle_alpha 90.000000
_cell_angle_beta 19.529178
_cell_angle_gamma 90.000000
_cell_volume 1918.290025
_symmetry_space_group_name_H-M "P 2/M"
_symmetry_group_IT_number 10
_symmetry_cell_setting 'monoclinic'
loop_
_space_group_symop_operation_xyz
x,y,z
-x,y,-z
-x,-y,-z
x,-y,z
loop_
_atom_site_type_symbol
_atom_site_label
_atom_site_fract_x
_atom_site_fract_y
_atom_site_fract_z
Si Si1 0.104487 0.181514 0.052218
Si Si2 0.105913 0.682318 0.136878
Si Si3 0.725282 0.681653 0.873327
Si Si4 0.101414 0.818742 0.615176
Si Si5 0.289238 0.679903 0.585598
Si Si6 0.342866 0.823987 0.671679
Si Si7 0.524852 0.175316 0.655598
Si Si8 0.807386 0.680186 0.089552
O O1 0.190350 0.242190 0.044195
O O2 0.876971 0.234803 0.190818
O O3 0.108677 0.000000 0.048590
O O4 0.192701 0.245706 0.956256
O O5 0.106965 0.500000 0.131768
O O6 0.217581 0.719668 0.112874
O O7 0.878603 0.734255 0.280881
O O8 0.752516 0.500000 0.852316
O O9 0.876807 0.766263 0.751084
O O10 0.500000 0.718081 0.000000
O O11 0.192280 0.728829 0.599775
O O12 0.245701 0.784571 0.489130
O O13 0.115945 0.000000 0.613779
O O14 0.299155 0.500000 0.583117
O O15 0.509031 0.741606 0.449165
O O16 0.435368 0.815932 0.662555
O O17 0.335856 0.000000 0.663618
O O18 0.388647 0.275084 0.767233
O O19 0.510289 0.000000 0.677918
O O20 0.822112 0.500000 0.076444
O O21 0.000000 0.732685 0.000000
#
# Coordination Sequence:
#
# PCOD9154550 Si02
#       8
#     4   4   4   4   4   4   4   4
#     4  11  22  34  48  65  92 131 169 206 249 294
#     4   9  19  34  48  68  98 127 159 201 241 286
#     4   9  18  34  56  80 105 133 161 192 239 297
#     4   9  17  29  47  74 103 129 160 199 242 289
#     4   9  17  29  46  65  91 128 164 201 243 285
#     4   9  18  30  44  64  90 125 167 207 243 283
#     4   9  17  31  48  66  95 131 166 206 249 290
#     4  11  22  33  48  71  94 124 170 219 256 288
#
# _framework density 16.681522999999999
#
# number of rings (size 3 to 8) (size 9 to 14) (size 15 to 20)
#    0.000    2.500    1.250    3.000    0.000    7.250 
#    0.000    2.500    0.000    0.000    0.000    0.875 
#    0.000    7.000    0.000    0.000    0.000    0.000 
#
# Total GULP energy -178344.320801 kJ/mol
# GULP energy per Si atom -5573.260025 kJ/mol
# Density = 1.664355 g / cm^3
# Si number density = 16.681523 Si / 1000 Ang^3
#
#
#
# Elastic Constant Matrix: (Units=GPa)
#
#
# Indices 1 2 3 4 5 6 
#
# 1 52.9220 21.7256 44.7232 0.0000 6.2858 0.0000
# 2 21.7256 27.4374 30.7997 0.0000 10.4647 0.0000
# 3 44.7232 30.7997 107.3746 0.0000 8.4094 0.0000
# 4 0.0000 0.0000 0.0000 29.5135 0.0000 -0.3468
# 5 6.2858 10.4647 8.4094 0.0000 30.6952 0.0000
# 6 0.0000 0.0000 0.0000 -0.3468 0.0000 27.9068
#
#
#
# Elastic Compliance Matrix: (Units=1/GPa)
#
#
# Indices 1 2 3 4 5 6 
#
# 1 0.033338 -0.016525 -0.009251 0.000000 0.001341 0.000000
# 2 -0.016525 0.069004 -0.011582 0.000000 -0.016968 0.000000
# 3 -0.009251 -0.011582 0.016382 0.000000 0.001355 0.000000
# 4 0.000000 0.000000 0.000000 0.033888 0.000000 0.000421
# 5 0.001341 -0.016968 0.001355 0.000000 0.037717 0.000000
# 6 0.000000 0.000000 0.000000 0.000421 0.000000 0.035839
#
#
# Mechanical properties :
#
#
# Convention : Reuss Voigt Hill
#
# Bulk Modulus (GPa) = 22.72230 42.47013 32.59621
# Shear Modulus (GPa) = 15.84525 23.65547 19.75036
#
# Velocity S-wave (km/s) = 3.08534 3.76980 3.44461
# Velocity P-wave (km/s) = 5.13256 6.66807 5.95006
#
# Compressibility (1/GPa) = 0.04400963
#
# Stress axis : x y z
#
# Youngs Moduli (GPa) = 29.99595 14.49196 61.04165
#
# Poissons Ratio (x) = 0.23948 0.56468
# Poissons Ratio (y) = 0.49568 0.70695
# Poissons Ratio (z) = 0.27748 0.16784
#
# Static dielectric constant tensor:
#      x y z
#    x 1.577000 0.000000 -0.009890 
#    y 0.000000 1.561480 0.000000 
#    z -0.009890 0.000000 1.587980 
# 
# From -- ./inp_files/95666.got.cif
#   From: 2010.05.17/outbox.cif.g08.bks.cpg/sg10_48_cif.got.tgz:95666.got - 2010.06.03 11:33:40.
