data_PCOD9154385
_publ_section_title
;
Structure prediction by ZEFSAII (Michael W. Deem and Ramdas Pophale) SiO2 
 PCOD9154385
Probable space group: P 2/M
;
_chemical_formula_sum "Si O2"
_cell_formula_units_Z 32
_cell_length_a 20.981720
_cell_length_b 14.425973
_cell_length_c 24.631836
_cell_angle_alpha 90.000000
_cell_angle_beta 16.423638
_cell_angle_gamma 90.000000
_cell_volume 2107.977407
_symmetry_space_group_name_H-M "P 2/M"
_symmetry_group_IT_number 10
_symmetry_cell_setting 'monoclinic'
loop_
_space_group_symop_operation_xyz
x,y,z
-x,y,-z
-x,-y,-z
x,-y,z
loop_
_atom_site_type_symbol
_atom_site_label
_atom_site_fract_x
_atom_site_fract_y
_atom_site_fract_z
Si Si1 0.624411 0.895766 0.297085
Si Si2 0.489778 0.292363 0.651841
Si Si3 0.794093 0.612883 0.705909
Si Si4 0.032885 0.611720 0.733557
Si Si5 0.061591 0.895765 0.859911
Si Si6 0.717373 0.387585 0.891317
Si Si7 0.076672 0.292364 0.064939
Si Si8 0.283579 0.607993 0.716424
O O1 0.471808 0.812001 0.401441
O O2 0.724552 0.879053 0.275445
O O3 0.530924 0.000000 0.371434
O O4 0.844289 0.894015 0.077854
O O5 0.717224 0.347420 0.476846
O O6 0.352019 0.342692 0.716125
O O7 0.328124 0.289450 0.835942
O O8 0.798197 0.500000 0.701806
O O9 0.807768 0.641146 0.758038
O O10 0.000000 0.644911 0.500000
O O11 0.544554 0.641148 0.889647
O O12 0.042058 0.500000 0.728967
O O13 0.874495 0.640243 0.812759
O O14 0.940993 0.652578 0.864951
O O15 0.021214 0.812001 0.852042
O O16 0.078529 0.000000 0.823836
O O17 0.716084 0.500000 0.891960
O O18 0.920551 0.342688 0.147583
O O19 0.500000 0.613615 0.500000
O O20 0.232922 0.500000 0.767081
#
# Coordination Sequence:
#
# PCOD9154385 Si02
#       8
#     4   4   4   4   4   4   4   4
#     4   8  14  27  47  67  83 102 138 194 253 296
#     4  11  21  33  48  64  84 116 155 196 239 280
#     4   8  13  25  48  71  87 108 143 183 217 252
#     4  11  23  35  44  61  95 130 158 188 218 261
#     4   8  14  27  47  67  83 102 138 194 253 296
#     4   8  16  29  43  63  90 118 147 180 217 252
#     4  11  21  33  48  64  84 116 155 196 239 280
#     4  11  21  33  46  58  80 116 159 204 237 264
#
# _framework density 15.180427999999999
#
# number of rings (size 3 to 8) (size 9 to 14) (size 15 to 20)
#    0.000    2.500    2.500    2.625    0.000    3.500 
#    0.000    3.125    0.000    2.250    0.000    0.000 
#    0.000    0.000    0.000    9.000    0.000   54.500 
#
# Total GULP energy -178429.574528 kJ/mol
# GULP energy per Si atom -5575.924204 kJ/mol
# Density = 1.514588 g / cm^3
# Si number density = 15.180428 Si / 1000 Ang^3
#
#
#
# Elastic Constant Matrix: (Units=GPa)
#
#
# Indices 1 2 3 4 5 6 
#
# 1 123.8474 38.3460 44.0845 0.0000 7.3205 0.0000
# 2 38.3460 86.2982 28.8913 0.0000 -3.5117 0.0000
# 3 44.0845 28.8913 112.2722 0.0000 -11.4459 0.0000
# 4 0.0000 0.0000 0.0000 50.1192 0.0000 16.4015
# 5 7.3205 -3.5117 -11.4459 0.0000 42.4255 0.0000
# 6 0.0000 0.0000 0.0000 16.4015 0.0000 6.4577
#
#
#
# Elastic Compliance Matrix: (Units=1/GPa)
#
#
# Indices 1 2 3 4 5 6 
#
# 1 0.010661 -0.003673 -0.003558 0.000000 -0.003103 0.000000
# 2 -0.003673 0.013946 -0.002020 0.000000 0.001243 0.000000
# 3 -0.003558 -0.002020 0.011177 0.000000 0.003462 0.000000
# 4 0.000000 0.000000 0.000000 0.118173 0.000000 -0.300140
# 5 -0.003103 0.001243 0.003462 0.000000 0.025143 0.000000
# 6 0.000000 0.000000 0.000000 -0.300140 0.000000 0.917162
#
#
# Mechanical properties :
#
#
# Convention : Reuss Voigt Hill
#
# Bulk Modulus (GPa) = 57.85702 60.56237 59.20969
# Shear Modulus (GPa) = 4.46220 33.87354 19.16787
#
# Velocity S-wave (km/s) = 1.71634 4.72889 3.55726
# Velocity P-wave (km/s) = 6.49025 8.35453 7.48069
#
# Compressibility (1/GPa) = 0.01728399
#
# Stress axis : x y z
#
# Youngs Moduli (GPa) = 93.79677 71.70263 89.47259
#
# Poissons Ratio (x) = 0.26333 0.31830
# Poissons Ratio (y) = 0.34447 0.18074
# Poissons Ratio (z) = 0.33369 0.14485
#
# Static dielectric constant tensor:
#      x y z
#    x 1.482110 0.000000 0.023880 
#    y 0.000000 1.509220 0.000000 
#    z 0.023880 0.000000 1.545640 
# 
# From -- ./inp_files/79747.got.cif
#   From: 2010.05.17/outbox.cif.g08.bks.cpg/sg10_40_cif.got.tgz:79747.got - 2010.06.03 11:33:40.
