data_PCOD9154628
_publ_section_title
;
Structure prediction by ZEFSAII (Michael W. Deem and Ramdas Pophale) SiO2 
 PCOD9154628
Probable space group: P 2/M
;
_chemical_formula_sum "Si O2"
_cell_formula_units_Z 24
_cell_length_a 26.520276
_cell_length_b 8.102230
_cell_length_c 5.042881
_cell_angle_alpha 90.000000
_cell_angle_beta 90.125103
_cell_angle_gamma 90.000000
_cell_volume 1083.578281
_symmetry_space_group_name_H-M "P 2/M"
_symmetry_group_IT_number 10
_symmetry_cell_setting 'monoclinic'
loop_
_space_group_symop_operation_xyz
x,y,z
-x,y,-z
-x,-y,-z
x,-y,z
loop_
_atom_site_type_symbol
_atom_site_label
_atom_site_fract_x
_atom_site_fract_y
_atom_site_fract_z
Si Si1 0.053917 0.201540 0.608882
Si Si2 0.219847 0.192330 0.882864
Si Si3 0.113447 0.798676 0.110468
Si Si4 0.721823 0.308627 0.621247
Si Si5 0.389242 0.808192 0.375011
Si Si6 0.552493 0.692537 0.119930
O O1 0.069906 0.250487 0.903095
O O2 0.000000 0.258165 0.500000
O O3 0.052313 0.000000 0.609288
O O4 0.097335 0.253216 0.402998
O O5 0.167062 0.257796 0.999491
O O6 0.240600 0.280503 0.623226
O O7 0.212856 0.000000 0.811674
O O8 0.259415 0.209182 0.122547
O O9 0.115605 0.000000 0.115395
O O10 0.720692 0.500000 0.694302
O O11 0.666058 0.251201 0.540574
O O12 0.427650 0.779620 0.616892
O O13 0.387457 0.000000 0.305589
O O14 0.407321 0.711041 0.115654
O O15 0.545159 0.500000 0.186631
O O16 0.500000 0.758446 0.000000
#
# Coordination Sequence:
#
# PCOD9154628 Si02
#       6
#     4   4   4   4   4   4
#     4   9  15  24  40  67 106 147 182 221 280 348
#     4  11  22  39  61  86 118 155 198 245 298 356
#     4   9  17  28  45  71 105 145 184 229 285 342
#     4  12  25  42  62  87 120 156 198 246 300 357
#     4  12  25  42  65  93 124 159 202 249 298 351
#     4  11  24  43  66  93 127 165 202 243 295 351
#
# _framework density 22.148837
#
# number of rings (size 3 to 8) (size 9 to 14) (size 15 to 20)
#    0.000    1.333    0.000    7.000    0.000    8.000 
#    0.000    0.000    0.000    0.000    0.000    0.000 
#    0.000   46.667    0.000    0.000    0.000    0.000 
#
# Total GULP energy -134287.579131 kJ/mol
# GULP energy per Si atom -5595.315797 kJ/mol
# Density = 2.209843 g / cm^3
# Si number density = 22.148837 Si / 1000 Ang^3
#
#
#
# Elastic Constant Matrix: (Units=GPa)
#
#
# Indices 1 2 3 4 5 6 
#
# 1 51.9766 0.3406 -23.8877 0.0000 -0.3678 0.0000
# 2 0.3406 31.5708 -14.5073 0.0000 -0.3400 0.0000
# 3 -23.8877 -14.5073 65.6608 0.0000 -1.9284 0.0000
# 4 0.0000 0.0000 0.0000 -34.4575 0.0000 -86.7846
# 5 -0.3678 -0.3400 -1.9284 0.0000 28.5209 0.0000
# 6 0.0000 0.0000 0.0000 -86.7846 0.0000 -73.8571
#
#
#
# Elastic Compliance Matrix: (Units=1/GPa)
#
#
# Indices 1 2 3 4 5 6 
#
# 1 0.023598 0.004134 0.009528 0.000000 0.000998 0.000000
# 2 0.004134 0.036004 0.009492 0.000000 0.001124 0.000000
# 3 0.009528 0.009492 0.020842 0.000000 0.001645 0.000000
# 4 0.000000 0.000000 0.000000 0.014811 0.000000 -0.017403
# 5 0.000998 0.001124 0.001645 0.000000 0.035200 0.000000
# 6 0.000000 0.000000 0.000000 -0.017403 0.000000 0.006910
#
#
# Mechanical properties :
#
#
# Convention : Reuss Voigt Hill
#
# Bulk Modulus (GPa) = 7.88938 8.12215 8.00576
# Shear Modulus (GPa) = 37.50748 -3.47456 17.01646
#
# Velocity S-wave (km/s) = 4.11959 -1.25385 2.77479
# Velocity P-wave (km/s) = 5.11838 1.25652 3.72670
#
# Compressibility (1/GPa) = 0.12675271
#
# Stress axis : x y z
#
# Youngs Moduli (GPa) = 42.37587 27.77464 47.98096
#
# Poissons Ratio (x) = -0.11483 -0.45716
# Poissons Ratio (y) = -0.17520 -0.45543
# Poissons Ratio (z) = -0.40376 -0.26364
#
# Static dielectric constant tensor:
#      x y z
#    x 1.824120 0.000000 0.000210 
#    y 0.000000 1.763580 0.000000 
#    z 0.000210 0.000000 1.747950 
# 
# From -- ./inp_files/13011.got.cif
#   From: 2010.05.17/outbox.cif.g08.bks.cpg/sg10_7_cif.got.tgz:13011.got - 2010.06.03 11:33:40.
