data_PCOD9154632
_publ_section_title
;
Structure prediction by ZEFSAII (Michael W. Deem and Ramdas Pophale) SiO2 
 PCOD9154632
Probable space group: P 2/M
;
_chemical_formula_sum "Si O2"
_cell_formula_units_Z 32
_cell_length_a 27.953456
_cell_length_b 8.580949
_cell_length_c 21.828003
_cell_angle_alpha 90.000000
_cell_angle_beta 18.725053
_cell_angle_gamma 90.000000
_cell_volume 1680.840783
_symmetry_space_group_name_H-M "P 2/M"
_symmetry_group_IT_number 10
_symmetry_cell_setting 'monoclinic'
loop_
_space_group_symop_operation_xyz
x,y,z
-x,y,-z
-x,-y,-z
x,-y,z
loop_
_atom_site_type_symbol
_atom_site_label
_atom_site_fract_x
_atom_site_fract_y
_atom_site_fract_z
Si Si1 0.067053 0.810642 0.012940
Si Si2 0.424129 0.185308 0.156489
Si Si3 0.454732 0.314091 0.737267
Si Si4 0.070600 0.178069 0.347499
Si Si5 0.395311 0.315043 0.949153
Si Si6 0.232937 0.188547 0.688164
Si Si7 0.851168 0.812556 0.949673
Si Si8 0.096576 0.681259 0.559735
O O1 0.124115 0.760213 0.010017
O O2 0.898195 0.763160 0.200208
O O3 0.066348 0.000000 0.013849
O O4 0.173410 0.763832 0.827596
O O5 0.498305 0.269742 0.124214
O O6 0.250083 0.225408 0.368436
O O7 0.446593 0.000000 0.135377
O O8 0.500000 0.233903 0.000000
O O9 0.444158 0.500000 0.744297
O O10 0.458125 0.275741 0.805643
O O11 0.606645 0.255228 0.522515
O O12 0.306535 0.241946 0.886734
O O13 0.000000 0.188536 0.500000
O O14 0.990310 0.293173 0.398336
O O15 0.052049 0.000000 0.347439
O O16 0.242763 0.221418 0.142042
O O17 0.365223 0.500000 0.986855
O O18 0.241151 0.000000 0.677071
O O19 0.985764 0.745264 0.745983
O O20 0.856307 0.000000 0.941397
O O21 0.128396 0.500000 0.531700
#
# Coordination Sequence:
#
# PCOD9154632 Si02
#       8
#     4   4   4   4   4   4   4   4
#     4   8  18  37  63  94 121 151 202 253 298 354
#     4  11  25  44  65  90 120 156 204 257 306 364
#     4  11  24  40  57  88 127 162 202 248 301 362
#     4  11  23  40  64  91 119 156 204 253 300 356
#     4  11  24  41  61  88 124 162 202 250 304 363
#     4   9  18  38  65  91 121 158 199 249 301 356
#     4  11  22  39  63  90 120 161 208 253 301 356
#     4  12  25  41  61  90 126 162 200 248 308 368
#
# _framework density 19.038091999999999
#
# number of rings (size 3 to 8) (size 9 to 14) (size 15 to 20)
#    0.000    1.500    1.250    4.500    1.750    7.000 
#    0.000    5.625    0.000    0.000    0.000    0.000 
#    0.000    0.000    0.000    0.000    0.000    0.000 
#
# Total GULP energy -178831.821595 kJ/mol
# GULP energy per Si atom -5588.494425 kJ/mol
# Density = 1.899476 g / cm^3
# Si number density = 19.038092 Si / 1000 Ang^3
#
#
#
# Elastic Constant Matrix: (Units=GPa)
#
#
# Indices 1 2 3 4 5 6 
#
# 1 131.2014 20.2510 50.9687 0.0000 7.3866 0.0000
# 2 20.2510 43.3677 17.6933 0.0000 12.8902 0.0000
# 3 50.9687 17.6933 137.1687 0.0000 8.1783 0.0000
# 4 0.0000 0.0000 0.0000 -6.4921 0.0000 -18.5204
# 5 7.3866 12.8902 8.1783 0.0000 22.5085 0.0000
# 6 0.0000 0.0000 0.0000 -18.5204 0.0000 16.1357
#
#
#
# Elastic Compliance Matrix: (Units=1/GPa)
#
#
# Indices 1 2 3 4 5 6 
#
# 1 0.009285 -0.003032 -0.003047 0.000000 -0.000204 0.000000
# 2 -0.003032 0.029788 -0.001797 0.000000 -0.015411 0.000000
# 3 -0.003047 -0.001797 0.008722 0.000000 -0.001140 0.000000
# 4 0.000000 0.000000 0.000000 -0.036036 0.000000 -0.041362
# 5 -0.000204 -0.015411 -0.001140 0.000000 0.053735 0.000000
# 6 0.000000 0.000000 0.000000 -0.041362 0.000000 0.014499
#
#
# Mechanical properties :
#
#
# Convention : Reuss Voigt Hill
#
# Bulk Modulus (GPa) = 31.20732 54.39599 42.80165
# Shear Modulus (GPa) = 46.98119 21.28539 34.13329
#
# Velocity S-wave (km/s) = 4.97303 3.34734 4.23885
# Velocity P-wave (km/s) = 7.02868 6.60105 6.81822
#
# Compressibility (1/GPa) = 0.03204377
#
# Stress axis : x y z
#
# Youngs Moduli (GPa) = 107.70096 33.57026 114.65020
#
# Poissons Ratio (x) = 0.10179 0.34932
# Poissons Ratio (y) = 0.32657 0.20601
# Poissons Ratio (z) = 0.32815 0.06032
#
# Static dielectric constant tensor:
#      x y z
#    x 1.638280 0.000000 0.022510 
#    y 0.000000 1.642260 0.000000 
#    z 0.022510 0.000000 1.611640 
# 
# From -- ./inp_files/86797.got.cif
#   From: 2010.05.17/outbox.cif.g08.bks.cpg/sg10_44_cif.got.tgz:86797.got - 2010.06.03 11:33:40.
