data_PCOD9154473
_publ_section_title
;
Structure prediction by ZEFSAII (Michael W. Deem and Ramdas Pophale) SiO2 
 PCOD9154473
Probable space group: P 2/M
;
_chemical_formula_sum "Si O2"
_cell_formula_units_Z 32
_cell_length_a 11.815118
_cell_length_b 17.952752
_cell_length_c 14.988872
_cell_angle_alpha 90.000000
_cell_angle_beta 30.260464
_cell_angle_gamma 90.000000
_cell_volume 1602.174267
_symmetry_space_group_name_H-M "P 2/M"
_symmetry_group_IT_number 10
_symmetry_cell_setting 'monoclinic'
loop_
_space_group_symop_operation_xyz
x,y,z
-x,y,-z
-x,-y,-z
x,-y,z
loop_
_atom_site_type_symbol
_atom_site_label
_atom_site_fract_x
_atom_site_fract_y
_atom_site_fract_z
Si Si1 0.637907 0.915008 0.654002
Si Si2 0.268446 0.146232 0.605969
Si Si3 0.432098 0.414703 0.442858
Si Si4 0.750412 0.767019 0.650307
Si Si5 0.141773 0.855004 0.990750
Si Si6 0.864160 0.709534 0.384759
Si Si7 0.218399 0.676275 0.913446
Si Si8 0.360370 0.319672 0.012754
O O1 0.714738 0.890790 0.502389
O O2 0.740913 0.855820 0.652304
O O3 0.371032 0.900047 0.839577
O O4 0.692600 0.000000 0.634341
O O5 0.500000 0.129115 0.500000
O O6 0.239956 0.236133 0.618765
O O7 0.033654 0.126025 0.811956
O O8 0.500000 0.412511 0.500000
O O9 0.438112 0.500000 0.408440
O O10 0.191106 0.375895 0.596107
O O11 0.594042 0.362423 0.275094
O O12 0.733591 0.736845 0.561239
O O13 0.551892 0.736247 0.845927
O O14 0.000000 0.740138 0.500000
O O15 0.206450 0.766532 0.937401
O O16 0.000000 0.873465 0.000000
O O17 0.133085 0.718205 0.205797
O O18 0.264674 0.645821 0.983648
O O19 0.000000 0.660457 0.000000
O O20 0.500000 0.358799 0.000000
#
# Coordination Sequence:
#
# PCOD9154473 Si02
#       8
#     4   4   4   4   4   4   4   4
#     4  11  24  39  57  85 124 167 209 257 329 402
#     4  11  21  36  60  87 119 159 217 273 317 376
#     4  11  24  40  62  98 143 182 215 260 325 397
#     4  11  22  41  65  92 120 163 212 275 330 380
#     4  11  21  37  59  90 119 162 215 272 324 376
#     4  11  21  37  66  90 124 164 216 272 318 380
#     4  11  22  40  67  98 131 173 221 273 325 381
#     4  12  22  38  68 103 124 159 218 281 330 377
#
# _framework density 19.972860000000001
#
# number of rings (size 3 to 8) (size 9 to 14) (size 15 to 20)
#    0.000    0.875    6.250    1.875    3.500    1.500 
#    0.000    0.625    0.000    4.500    0.000    0.000 
#    0.000    0.000    0.000    0.000    0.000    0.000 
#
# Total GULP energy -178181.159375 kJ/mol
# GULP energy per Si atom -5568.161230 kJ/mol
# Density = 1.992740 g / cm^3
# Si number density = 19.972860 Si / 1000 Ang^3
#
#
#
# Elastic Constant Matrix: (Units=GPa)
#
#
# Indices 1 2 3 4 5 6 
#
# 1 74.4839 2.6463 14.7443 0.0000 -3.5446 0.0000
# 2 2.6463 55.0737 41.9585 0.0000 -1.5859 0.0000
# 3 14.7443 41.9585 154.3167 0.0000 -0.3139 0.0000
# 4 0.0000 0.0000 0.0000 9.4552 0.0000 2.6447
# 5 -3.5446 -1.5859 -0.3139 0.0000 30.0847 0.0000
# 6 0.0000 0.0000 0.0000 2.6447 0.0000 11.0008
#
#
#
# Elastic Compliance Matrix: (Units=1/GPa)
#
#
# Indices 1 2 3 4 5 6 
#
# 1 0.013772 0.000486 -0.001445 0.000000 0.001633 0.000000
# 2 0.000486 0.022958 -0.006286 0.000000 0.001202 0.000000
# 3 -0.001445 -0.006286 0.008327 0.000000 -0.000415 0.000000
# 4 0.000000 0.000000 0.000000 0.113387 0.000000 -0.027260
# 5 0.001633 0.001202 -0.000415 0.000000 0.033491 0.000000
# 6 0.000000 0.000000 0.000000 -0.027260 0.000000 0.097456
#
#
# Mechanical properties :
#
#
# Convention : Reuss Voigt Hill
#
# Bulk Modulus (GPa) = 32.71530 44.73030 38.72280
# Shear Modulus (GPa) = 15.92005 25.07649 20.49827
#
# Velocity S-wave (km/s) = 2.82633 3.54719 3.20708
# Velocity P-wave (km/s) = 5.20253 6.26266 5.75705
#
# Compressibility (1/GPa) = 0.03056674
#
# Stress axis : x y z
#
# Youngs Moduli (GPa) = 72.61027 43.55783 120.09726
#
# Poissons Ratio (x) = -0.02116 0.17350
# Poissons Ratio (y) = -0.03528 0.75496
# Poissons Ratio (z) = 0.10490 0.27381
#
# Static dielectric constant tensor:
#      x y z
#    x 1.781420 0.000000 0.014610 
#    y 0.000000 1.691390 0.000000 
#    z 0.014610 0.000000 1.746780 
# 
# From -- ./inp_files/65396.got.cif
#   From: 2010.05.17/outbox.cif.g08.bks.cpg/sg10_33_cif.got.tgz:65396.got - 2010.06.03 11:33:40.
