data_PCOD9154236
_publ_section_title
;
Structure prediction by ZEFSAII (Michael W. Deem and Ramdas Pophale) SiO2 
 PCOD9154236
Probable space group: P 2/M
;
_chemical_formula_sum "Si O2"
_cell_formula_units_Z 24
_cell_length_a 16.487952
_cell_length_b 13.904352
_cell_length_c 10.436481
_cell_angle_alpha 90.000000
_cell_angle_beta 143.500490
_cell_angle_gamma 90.000000
_cell_volume 1423.161324
_symmetry_space_group_name_H-M "P 2/M"
_symmetry_group_IT_number 10
_symmetry_cell_setting 'monoclinic'
loop_
_space_group_symop_operation_xyz
x,y,z
-x,y,-z
-x,-y,-z
x,-y,z
loop_
_atom_site_type_symbol
_atom_site_label
_atom_site_fract_x
_atom_site_fract_y
_atom_site_fract_z
Si Si1 0.727580 0.610680 0.818404
Si Si2 0.411523 0.885396 0.265904
Si Si3 0.566761 0.798935 0.221975
Si Si4 0.156120 0.884068 0.336536
Si Si5 0.139102 0.807047 0.024497
Si Si6 0.525832 0.610412 0.318979
O O1 0.775059 0.500000 0.887849
O O2 0.636432 0.619267 0.573902
O O3 0.620795 0.628638 0.799157
O O4 0.842363 0.692082 0.957910
O O5 0.500000 0.848248 0.500000
O O6 0.481251 0.851177 0.224993
O O7 0.413116 0.000000 0.273175
O O8 0.258286 0.849273 0.087970
O O9 0.718708 0.841137 0.425133
O O10 0.560383 0.687276 0.255011
O O11 0.500000 0.814358 0.000000
O O12 0.010276 0.845214 0.198664
O O13 0.158578 0.000000 0.338041
O O14 0.168964 0.845661 0.206473
O O15 0.527116 0.500000 0.276434
#
# Coordination Sequence:
#
# PCOD9154236 Si02
#       6
#     4   4   4   4   4   4
#     4   9  16  30  59  90 112 138 182 241 289 324
#     4  11  20  34  59  84 107 146 200 237 271 336
#     4  12  24  38  57  85 118 152 187 240 289 331
#     4  11  23  37  54  83 120 153 184 235 293 330
#     4  11  19  35  59  85 114 146 188 236 281 339
#     4   9  17  33  56  85 114 144 186 234 282 333
#
# _framework density 16.863866000000002
#
# number of rings (size 3 to 8) (size 9 to 14) (size 15 to 20)
#    0.000    1.500    5.000    3.500    0.000    1.667 
#    0.000    3.333    0.000    2.000    0.000    2.333 
#    0.000    0.000    0.000    0.000    0.000    0.000 
#
# Total GULP energy -133974.005209 kJ/mol
# GULP energy per Si atom -5582.250217 kJ/mol
# Density = 1.682548 g / cm^3
# Si number density = 16.863866 Si / 1000 Ang^3
#
#
#
# Elastic Constant Matrix: (Units=GPa)
#
#
# Indices 1 2 3 4 5 6 
#
# 1 77.9418 48.0154 62.6357 0.0000 12.7164 0.0000
# 2 48.0154 147.6305 56.7320 0.0000 13.9209 0.0000
# 3 62.6357 56.7320 114.5095 0.0000 10.8717 0.0000
# 4 0.0000 0.0000 0.0000 11.1946 0.0000 16.5251
# 5 12.7164 13.9209 10.8717 0.0000 25.3395 0.0000
# 6 0.0000 0.0000 0.0000 16.5251 0.0000 15.5175
#
#
#
# Elastic Compliance Matrix: (Units=1/GPa)
#
#
# Indices 1 2 3 4 5 6 
#
# 1 0.025022 -0.003137 -0.011576 0.000000 -0.005868 0.000000
# 2 -0.003137 0.008975 -0.002515 0.000000 -0.002278 0.000000
# 3 -0.011576 -0.002515 0.016292 0.000000 0.000201 0.000000
# 4 0.000000 0.000000 0.000000 -0.156161 0.000000 0.166301
# 5 -0.005868 -0.002278 0.000201 0.000000 0.043574 0.000000
# 6 0.000000 0.000000 0.000000 0.166301 0.000000 -0.112657
#
#
# Mechanical properties :
#
#
# Convention : Reuss Voigt Hill
#
# Bulk Modulus (GPa) = 63.15266 74.98311 69.06788
# Shear Modulus (GPa) = -36.97619 21.92354 -7.52632
#
# Velocity S-wave (km/s) = -4.68763 3.60951 -2.11487
# Velocity P-wave (km/s) = 2.86902 7.86967 5.92296
#
# Compressibility (1/GPa) = 0.01583465
#
# Stress axis : x y z
#
# Youngs Moduli (GPa) = 39.96426 111.42210 61.38135
#
# Poissons Ratio (x) = 0.34948 0.71055
# Poissons Ratio (y) = 0.12535 0.15435
# Poissons Ratio (z) = 0.46263 0.28018
#
# Static dielectric constant tensor:
#      x y z
#    x 1.560910 0.000000 0.014590 
#    y 0.000000 1.603860 0.000000 
#    z 0.014590 0.000000 1.548590 
# 
# From -- ./inp_files/29654.got.cif
#   From: 2010.05.17/outbox.cif.g08.bks.cpg/sg10_15_cif.got.tgz:29654.got - 2010.06.03 11:33:40.
