data_PCOD9154607
_publ_section_title
;
Structure prediction by ZEFSAII (Michael W. Deem and Ramdas Pophale) SiO2 
 PCOD9154607
Probable space group: P 2/M
;
_chemical_formula_sum "Si O2"
_cell_formula_units_Z 26
_cell_length_a 11.084605
_cell_length_b 22.073933
_cell_length_c 5.491216
_cell_angle_alpha 90.000000
_cell_angle_beta 114.666254
_cell_angle_gamma 90.000000
_cell_volume 1220.997765
_symmetry_space_group_name_H-M "P 2/M"
_symmetry_group_IT_number 10
_symmetry_cell_setting 'monoclinic'
loop_
_space_group_symop_operation_xyz
x,y,z
-x,y,-z
-x,-y,-z
x,-y,z
loop_
_atom_site_type_symbol
_atom_site_label
_atom_site_fract_x
_atom_site_fract_y
_atom_site_fract_z
Si Si1 0.657116 0.749506 0.184771
Si Si2 0.587186 0.000000 0.323834
Si Si3 0.847452 0.500000 0.328410
Si Si4 0.587338 0.131806 0.326421
Si Si5 0.927393 0.744512 0.189819
Si Si6 0.627460 0.362441 0.478534
Si Si7 0.127354 0.389730 0.972514
Si Si8 0.405323 0.500000 0.689138
O O1 0.673097 0.807175 0.377216
O O2 0.769966 0.759281 0.075936
O O3 0.676705 0.682555 0.310075
O O4 0.500000 0.749132 0.000000
O O5 0.500000 0.000000 0.500000
O O6 0.657362 0.934270 0.388356
O O7 0.500000 0.000000 0.000000
O O8 0.754349 0.500000 0.479976
O O9 0.000000 0.500000 0.500000
O O10 0.813075 0.439399 0.156533
O O11 0.500000 0.136114 0.500000
O O12 0.500000 0.130415 0.000000
O O13 0.000000 0.765232 0.500000
O O14 0.931658 0.671047 0.192996
O O15 0.000000 0.763608 0.000000
O O16 0.500000 0.331668 0.500000
O O17 0.753572 0.369798 0.756089
O O18 0.575804 0.429437 0.368528
O O19 0.000000 0.418683 0.000000
O O20 0.500000 0.500000 0.000000
#
# Coordination Sequence:
#
# PCOD9154607 Si02
#       8
#     4   2   2   4   4   4   4   2
#     4  11  22  38  61  90 118 153 202 256 300 353
#     4   8  14  28  48  78 120 160 190 234 299 358
#     4  12  22  36  56  78 102 138 193 253 301 358
#     4   9  18  31  53  85 122 157 196 245 300 352
#     4  11  24  42  61  85 120 160 196 240 303 368
#     4  12  23  38  58  82 114 153 197 248 303 362
#     4  11  22  38  57  79 106 143 190 246 303 360
#     4  12  24  38  52  74 112 156 193 235 297 366
#
# _framework density 21.294060999999999
#
# number of rings (size 3 to 8) (size 9 to 14) (size 15 to 20)
#    0.000    1.231    0.000    7.846    0.000    3.692 
#    0.000    0.000    0.000    0.000    0.000    1.077 
#    0.000    0.000    0.000    2.000    0.000    0.923 
#
# Total GULP energy -144780.486286 kJ/mol
# GULP energy per Si atom -5568.480242 kJ/mol
# Density = 2.124560 g / cm^3
# Si number density = 21.294061 Si / 1000 Ang^3
#
#
#
# Elastic Constant Matrix: (Units=GPa)
#
#
# Indices 1 2 3 4 5 6 
#
# 1 135.4344 15.3325 47.1475 0.0000 -6.6558 0.0000
# 2 15.3325 125.2003 9.1701 0.0000 -15.8061 0.0000
# 3 47.1475 9.1701 100.8969 0.0000 4.0925 0.0000
# 4 0.0000 0.0000 0.0000 8.3980 0.0000 -19.1889
# 5 -6.6558 -15.8061 4.0925 0.0000 34.9166 0.0000
# 6 0.0000 0.0000 0.0000 -19.1889 0.0000 11.5826
#
#
#
# Elastic Compliance Matrix: (Units=1/GPa)
#
#
# Indices 1 2 3 4 5 6 
#
# 1 0.009020 -0.000545 -0.004245 0.000000 0.001970 0.000000
# 2 -0.000545 0.008592 -0.000683 0.000000 0.003866 0.000000
# 3 -0.004245 -0.000683 0.012060 0.000000 -0.002532 0.000000
# 4 0.000000 0.000000 0.000000 -0.042750 0.000000 -0.070823
# 5 0.001970 0.003866 -0.002532 0.000000 0.031062 0.000000
# 6 0.000000 0.000000 0.000000 -0.070823 0.000000 -0.030996
#
#
# Mechanical properties :
#
#
# Convention : Reuss Voigt Hill
#
# Bulk Modulus (GPa) = 53.40428 56.09241 54.74835
# Shear Modulus (GPa) = 1197.13187 30.30488 613.71837
#
# Velocity S-wave (km/s) = 23.73628 3.77657 16.99520
# Velocity P-wave (km/s) = 27.86303 6.73911 20.27023
#
# Compressibility (1/GPa) = 0.01872509
#
# Stress axis : x y z
#
# Youngs Moduli (GPa) = 110.86407 116.38753 82.92109
#
# Poissons Ratio (x) = 0.06343 0.35203
# Poissons Ratio (y) = 0.06042 0.05664
# Poissons Ratio (z) = 0.47065 0.07950
#
# Static dielectric constant tensor:
#      x y z
#    x 1.728130 0.000000 0.079700 
#    y 0.000000 1.723780 0.000000 
#    z 0.079700 0.000000 1.745360 
# 
# From -- ./inp_files/7819.got.cif
#   From: 2010.05.17/outbox.cif.g08.bks.cpg/sg10_4_cif.got.tgz:7819.got - 2010.06.03 11:33:40.
