data_PCOD9154965
_publ_section_title
;
Structure prediction by ZEFSAII (Michael W. Deem and Ramdas Pophale) SiO2 
 PCOD9154965
Probable space group: P 2/M
;
_chemical_formula_sum "Si O2"
_cell_formula_units_Z 32
_cell_length_a 9.495754
_cell_length_b 7.439639
_cell_length_c 23.877700
_cell_angle_alpha 90.000000
_cell_angle_beta 113.432024
_cell_angle_gamma 90.000000
_cell_volume 1547.730242
_symmetry_space_group_name_H-M "P 2/M"
_symmetry_group_IT_number 10
_symmetry_cell_setting 'monoclinic'
loop_
_space_group_symop_operation_xyz
x,y,z
-x,y,-z
-x,-y,-z
x,-y,z
loop_
_atom_site_type_symbol
_atom_site_label
_atom_site_fract_x
_atom_site_fract_y
_atom_site_fract_z
Si Si1 0.088293 0.715630 0.251018
Si Si2 0.838324 0.220532 0.499996
Si Si3 0.046525 0.280823 0.882153
Si Si4 0.717803 0.280823 0.882160
Si Si5 0.413736 0.715630 0.251010
Si Si6 0.775930 0.212811 0.615439
Si Si7 0.545061 0.212812 0.384553
Si Si8 0.337896 0.280021 0.999996
O O1 0.088179 0.500000 0.249066
O O2 0.252955 0.779120 0.252954
O O3 0.092567 0.763813 0.316763
O O4 0.966432 0.776147 0.185049
O O5 0.816097 0.281571 0.560450
O O6 0.695206 0.281570 0.439539
O O7 0.000000 0.277668 0.500000
O O8 0.838799 0.000000 0.499996
O O9 0.048653 0.500000 0.882952
O O10 0.888353 0.228548 0.888345
O O11 0.195497 0.220681 0.939202
O O12 0.717275 0.500000 0.882960
O O13 0.596350 0.223853 0.814961
O O14 0.682936 0.220682 0.939213
O O15 0.409945 0.500000 0.249057
O O16 0.540958 0.763811 0.316752
O O17 0.614403 0.286762 0.614411
O O18 0.754262 0.000000 0.605840
O O19 0.542591 0.000000 0.394151
O O20 0.335813 0.500000 0.999996
O O21 0.500000 0.224389 0.000000
#
# Coordination Sequence:
#
# PCOD9154965 Si02
#       8
#     4   4   4   4   4   4   4   4
#     4   8  14  25  41  61  84 108 133 162 199 243
#     4   9  17  29  44  61  82 108 136 165 198 238
#     4   8  13  22  36  52  72 101 133 160 189 231
#     4   8  13  22  36  52  72 101 133 160 189 231
#     4   8  14  25  41  61  84 108 133 162 199 243
#     4   9  16  27  45  66  83 101 131 170 204 233
#     4   9  16  27  45  66  83 101 131 170 204 233
#     4   9  15  21  31  51  78 103 128 162 200 231
#
# _framework density 20.675436999999999
#
# number of rings (size 3 to 8) (size 9 to 14) (size 15 to 20)
#    0.000    3.500    0.000    2.250    0.000    3.000 
#    0.000    1.875    0.000    6.000    0.000    0.875 
#    0.000    7.000    0.000    0.000    0.000    0.000 
#
# Total GULP energy -178285.093248 kJ/mol
# GULP energy per Si atom -5571.409164 kJ/mol
# Density = 2.062838 g / cm^3
# Si number density = 20.675437 Si / 1000 Ang^3
#
#
#
# Elastic Constant Matrix: (Units=GPa)
#
#
# Indices 1 2 3 4 5 6 
#
# 1 93.2807 4.3698 109.0994 0.0000 -0.1644 0.0000
# 2 4.3698 60.8481 3.9751 0.0000 0.0168 0.0000
# 3 109.0994 3.9751 270.8688 0.0000 -6.6273 0.0000
# 4 0.0000 0.0000 0.0000 19.2826 0.0000 -0.8704
# 5 -0.1644 0.0168 -6.6273 0.0000 -5.2484 0.0000
# 6 0.0000 0.0000 0.0000 -0.8704 0.0000 -3.3136
#
#
#
# Elastic Compliance Matrix: (Units=1/GPa)
#
#
# Indices 1 2 3 4 5 6 
#
# 1 0.019854 -0.000921 -0.007759 0.000000 0.009173 0.000000
# 2 -0.000921 0.016492 0.000127 0.000000 -0.000079 0.000000
# 3 -0.007759 0.000127 0.006617 0.000000 -0.008112 0.000000
# 4 0.000000 0.000000 0.000000 0.051253 0.000000 -0.013463
# 5 0.009173 -0.000079 -0.008112 0.000000 -0.180579 0.000000
# 6 0.000000 0.000000 0.000000 -0.013463 0.000000 -0.298251
#
#
# Mechanical properties :
#
#
# Convention : Reuss Voigt Hill
#
# Bulk Modulus (GPa) = 38.67457 73.32072 55.99764
# Shear Modulus (GPa) = -13.93189 22.64766 4.35789
#
# Velocity S-wave (km/s) = -2.59865 3.31326 1.45339
# Velocity P-wave (km/s) = 3.12124 7.08354 5.47352
#
# Compressibility (1/GPa) = 0.02585678
#
# Stress axis : x y z
#
# Youngs Moduli (GPa) = 50.36682 60.63448 151.13515
#
# Poissons Ratio (x) = 0.05587 1.17264
# Poissons Ratio (y) = 0.04641 -0.01922
# Poissons Ratio (z) = 0.39079 -0.00771
#
# Static dielectric constant tensor:
#      x y z
#    x 1.685400 0.000000 -0.003200 
#    y 0.000000 1.801130 0.000000 
#    z -0.003200 0.000000 1.768640 
# 
# From -- ./inp_files/82498.got.cif
#   From: 2010.05.17/outbox.cif.g08.bks.cpg/sg10_42_cif.got.tgz:82498.got - 2010.06.03 11:33:40.
