data_PCOD9154707
_publ_section_title
;
Structure prediction by ZEFSAII (Michael W. Deem and Ramdas Pophale) SiO2 
 PCOD9154707
Probable space group: P 2/M
;
_chemical_formula_sum "Si O2"
_cell_formula_units_Z 26
_cell_length_a 15.884960
_cell_length_b 7.617893
_cell_length_c 8.222420
_cell_angle_alpha 90.000000
_cell_angle_beta 83.468073
_cell_angle_gamma 90.000000
_cell_volume 988.535546
_symmetry_space_group_name_H-M "P 2/M"
_symmetry_group_IT_number 10
_symmetry_cell_setting 'monoclinic'
loop_
_space_group_symop_operation_xyz
x,y,z
-x,y,-z
-x,-y,-z
x,-y,z
loop_
_atom_site_type_symbol
_atom_site_label
_atom_site_fract_x
_atom_site_fract_y
_atom_site_fract_z
Si Si1 0.110381 0.799003 0.505209
Si Si2 0.401183 0.209853 0.158818
Si Si3 0.135284 0.500000 0.285369
Si Si4 0.921823 0.287302 0.137029
Si Si5 0.300960 0.793725 0.502227
Si Si6 0.233033 0.207894 0.047802
Si Si7 0.551417 0.293287 0.330360
O O1 0.080542 0.654688 0.387106
O O2 0.206350 0.724358 0.520539
O O3 0.110741 0.000000 0.445129
O O4 0.069356 0.798220 0.690529
O O5 0.353408 0.275904 0.335205
O O6 0.333521 0.257306 0.033130
O O7 0.498361 0.259826 0.178277
O O8 0.405460 0.000000 0.156270
O O9 0.189251 0.344308 0.179504
O O10 0.922344 0.500000 0.146678
O O11 0.829528 0.228578 0.090943
O O12 0.000000 0.240806 0.000000
O O13 0.353911 0.770358 0.655142
O O14 0.293149 0.000000 0.477276
O O15 0.229921 0.000000 0.094907
O O16 0.500000 0.217189 0.500000
O O17 0.555022 0.500000 0.348908
#
# Coordination Sequence:
#
# PCOD9154707 Si02
#       7
#     4   4   2   4   4   4   4
#     4  11  23  40  66  95 126 170 211 255 317 375
#     4   9  17  30  49  78 117 156 203 253 303 361
#     4  12  22  38  67  97 134 158 200 276 312 373
#     4  11  25  47  71  95 125 166 212 255 308 381
#     4   9  17  30  49  78 117 156 203 253 303 361
#     4  11  23  40  66  95 126 170 211 255 317 375
#     4   9  17  23  41  74 113 158 199 245 304 359
#
# _framework density 26.301531000000001
#
# number of rings (size 3 to 8) (size 9 to 14) (size 15 to 20)
#    0.000    1.846    3.077    1.385    2.154    3.077 
#    0.000    1.538    0.000    2.769    0.000    6.462 
#    0.000    0.000    0.000    0.000    0.000    0.000 
#
# Total GULP energy -144762.553800 kJ/mol
# GULP energy per Si atom -5567.790531 kJ/mol
# Density = 2.624167 g / cm^3
# Si number density = 26.301531 Si / 1000 Ang^3
#
#
#
# Elastic Constant Matrix: (Units=GPa)
#
#
# Indices 1 2 3 4 5 6 
#
# 1 173.6263 7.6958 22.9192 0.0000 32.2233 0.0000
# 2 7.6958 142.6465 9.1423 0.0000 -2.7900 0.0000
# 3 22.9192 9.1423 41.8306 0.0000 9.9714 0.0000
# 4 0.0000 0.0000 0.0000 19.0566 0.0000 3.8959
# 5 32.2233 -2.7900 9.9714 0.0000 41.5242 0.0000
# 6 0.0000 0.0000 0.0000 3.8959 0.0000 24.7596
#
#
#
# Elastic Compliance Matrix: (Units=1/GPa)
#
#
# Indices 1 2 3 4 5 6 
#
# 1 0.007017 -0.000305 -0.002625 0.000000 -0.004835 0.000000
# 2 -0.000305 0.007155 -0.001663 0.000000 0.001117 0.000000
# 3 -0.002625 -0.001663 0.026782 0.000000 -0.004506 0.000000
# 4 0.000000 0.000000 0.000000 0.054219 0.000000 -0.008531
# 5 -0.004835 0.001117 -0.004506 0.000000 0.028992 0.000000
# 6 0.000000 0.000000 0.000000 -0.008531 0.000000 0.041731
#
#
# Mechanical properties :
#
#
# Convention : Reuss Voigt Hill
#
# Bulk Modulus (GPa) = 31.47859 48.62422 40.05141
# Shear Modulus (GPa) = 26.92929 38.29115 32.61022
#
# Velocity S-wave (km/s) = 3.20326 3.81970 3.52498
# Velocity P-wave (km/s) = 5.06710 6.16286 5.64165
#
# Compressibility (1/GPa) = 0.03176762
#
# Stress axis : x y z
#
# Youngs Moduli (GPa) = 142.51213 139.75838 37.33870
#
# Poissons Ratio (x) = 0.04261 0.09803
# Poissons Ratio (y) = 0.04345 0.06209
# Poissons Ratio (z) = 0.37415 0.23241
#
# Static dielectric constant tensor:
#      x y z
#    x 2.188830 0.000000 0.011840 
#    y 0.000000 1.949820 0.000000 
#    z 0.011840 0.000000 2.186190 
# 
# From -- ./inp_files/31620.got.cif
#   From: 2010.05.17/outbox.cif.g08.bks.cpg/sg10_16_cif.got.tgz:31620.got - 2010.06.03 11:33:40.
