data_PCOD9154574
_publ_section_title
;
Structure prediction by ZEFSAII (Michael W. Deem and Ramdas Pophale) SiO2 
 PCOD9154574
Probable space group: P 2/M
;
_chemical_formula_sum "Si O2"
_cell_formula_units_Z 32
_cell_length_a 15.156104
_cell_length_b 13.109177
_cell_length_c 7.914880
_cell_angle_alpha 90.000000
_cell_angle_beta 58.518587
_cell_angle_gamma 90.000000
_cell_volume 1341.094649
_symmetry_space_group_name_H-M "P 2/M"
_symmetry_group_IT_number 10
_symmetry_cell_setting 'monoclinic'
loop_
_space_group_symop_operation_xyz
x,y,z
-x,y,-z
-x,-y,-z
x,-y,z
loop_
_atom_site_type_symbol
_atom_site_label
_atom_site_fract_x
_atom_site_fract_y
_atom_site_fract_z
Si Si1 0.390113 0.829136 0.657324
Si Si2 0.887566 0.664761 0.168189
Si Si3 0.336382 0.609390 0.716137
Si Si4 0.837599 0.889193 0.117503
Si Si5 0.112435 0.335239 0.443319
Si Si6 0.837599 0.889193 0.707300
Si Si7 0.336382 0.390610 0.111096
Si Si8 0.390113 0.170864 0.062449
O O1 0.500000 0.874907 0.500000
O O2 0.382484 0.713097 0.594382
O O3 0.284182 0.883573 0.713133
O O4 0.386017 0.824273 0.863983
O O5 0.788077 0.623305 0.168951
O O6 0.886055 0.787670 0.146012
O O7 0.870737 0.639239 0.379264
O O8 0.000000 0.627458 0.000000
O O9 0.365050 0.500000 0.610812
O O10 0.364974 0.607399 0.885024
O O11 0.878227 0.000000 0.129537
O O12 0.845490 0.881610 0.904511
O O13 0.113945 0.212330 0.418120
O O14 0.211922 0.376695 0.245104
O O15 0.000000 0.372542 0.500000
O O16 0.715818 0.883573 0.781498
O O17 0.878227 0.000000 0.614011
O O18 0.365050 0.500000 0.159084
O O19 0.382484 0.286904 0.140648
O O20 0.500000 0.125094 0.000000
#
# Coordination Sequence:
#
# PCOD9154574 Si02
#       8
#     4   4   4   4   4   4   4   4
#     4   9  18  32  51  77 107 139 173 211 258 308
#     4  11  22  36  55  79 107 137 171 213 260 312
#     4   9  19  37  57  76 103 139 177 217 260 306
#     4   9  19  37  57  76 103 139 177 217 260 306
#     4  11  22  36  55  79 107 137 171 213 260 312
#     4   9  19  37  57  76 103 139 177 217 260 306
#     4   9  19  37  57  76 103 139 177 217 260 306
#     4   9  18  32  51  77 107 139 173 211 258 308
#
# _framework density 23.861104999999998
#
# number of rings (size 3 to 8) (size 9 to 14) (size 15 to 20)
#    0.000    2.500    0.000    3.750    0.000    7.000 
#    0.000    0.000    0.000    0.000    0.000    0.000 
#    0.000    0.000    0.000    0.000    0.000    0.000 
#
# Total GULP energy -178782.343745 kJ/mol
# GULP energy per Si atom -5586.948242 kJ/mol
# Density = 2.380680 g / cm^3
# Si number density = 23.861105 Si / 1000 Ang^3
#
#
#
# Elastic Constant Matrix: (Units=GPa)
#
#
# Indices 1 2 3 4 5 6 
#
# 1 70.5164 -4.2276 4.6555 0.0000 -26.2189 0.0000
# 2 -4.2276 116.5292 -0.3964 0.0000 4.3439 0.0000
# 3 4.6555 -0.3964 38.9986 0.0000 -9.5170 0.0000
# 4 0.0000 0.0000 0.0000 -12.7677 0.0000 30.8729
# 5 -26.2189 4.3439 -9.5170 0.0000 40.3043 0.0000
# 6 0.0000 0.0000 0.0000 30.8729 0.0000 -40.0002
#
#
#
# Elastic Compliance Matrix: (Units=1/GPa)
#
#
# Indices 1 2 3 4 5 6 
#
# 1 0.018734 0.000222 0.000779 0.000000 0.012347 0.000000
# 2 0.000222 0.008620 -0.000138 0.000000 -0.000817 0.000000
# 3 0.000779 -0.000138 0.027245 0.000000 0.006955 0.000000
# 4 0.000000 0.000000 0.000000 0.090411 0.000000 0.069781
# 5 0.012347 -0.000817 0.006955 0.000000 0.034573 0.000000
# 6 0.000000 0.000000 0.000000 0.069781 0.000000 0.028858
#
#
# Mechanical properties :
#
#
# Convention : Reuss Voigt Hill
#
# Bulk Modulus (GPa) = 17.75463 25.12302 21.43882
# Shear Modulus (GPa) = 22.17401 12.57480 17.37440
#
# Velocity S-wave (km/s) = 3.05174 2.29814 2.70135
# Velocity P-wave (km/s) = 4.45808 4.19448 4.32829
#
# Compressibility (1/GPa) = 0.05632334
#
# Stress axis : x y z
#
# Youngs Moduli (GPa) = 53.37996 116.01484 36.70421
#
# Poissons Ratio (x) = -0.02576 -0.02859
# Poissons Ratio (y) = -0.01185 0.00508
# Poissons Ratio (z) = -0.04158 0.01605
#
# Static dielectric constant tensor:
#      x y z
#    x 1.881120 0.000000 -0.018020 
#    y 0.000000 1.956770 0.000000 
#    z -0.018020 0.000000 1.865220 
# 
# From -- ./inp_files/29507.got.cif
#   From: 2010.05.17/outbox.cif.g08.bks.cpg/sg10_15_cif.got.tgz:29507.got - 2010.06.03 11:33:40.
