data_PCOD9154943
_publ_section_title
;
Structure prediction by ZEFSAII (Michael W. Deem and Ramdas Pophale) SiO2 
 PCOD9154943
Probable space group: P 2/M
;
_chemical_formula_sum "Si O2"
_cell_formula_units_Z 28
_cell_length_a 26.012458
_cell_length_b 9.986580
_cell_length_c 7.318089
_cell_angle_alpha 90.000000
_cell_angle_beta 134.661502
_cell_angle_gamma 90.000000
_cell_volume 1352.170752
_symmetry_space_group_name_H-M "P 2/M"
_symmetry_group_IT_number 10
_symmetry_cell_setting 'monoclinic'
loop_
_space_group_symop_operation_xyz
x,y,z
-x,y,-z
-x,-y,-z
x,-y,z
loop_
_atom_site_type_symbol
_atom_site_label
_atom_site_fract_x
_atom_site_fract_y
_atom_site_fract_z
Si Si1 0.629219 0.846477 0.045481
Si Si2 0.500056 0.345482 0.276959
Si Si3 0.081229 0.652149 0.670976
Si Si4 0.793450 0.152935 0.011057
Si Si5 0.081257 0.347841 0.235050
Si Si6 0.793361 0.847037 0.456212
Si Si7 0.370697 0.153499 0.398993
O O1 0.711283 0.813500 0.306478
O O2 0.612643 0.000000 0.059784
O O3 0.570201 0.738858 0.956878
O O4 0.628243 0.847107 0.820697
O O5 0.500000 0.346640 0.500000
O O6 0.500066 0.500000 0.218388
O O7 0.570357 0.261163 0.394614
O O8 0.085049 0.500000 0.752070
O O9 0.144889 0.746562 0.899501
O O10 0.090218 0.644826 0.475446
O O11 0.000000 0.703755 0.500000
O O12 0.793740 0.154961 0.234469
O O13 0.808339 0.000000 0.993628
O O14 0.711399 0.186371 0.750409
O O15 0.085131 0.500000 0.173196
O O16 0.144937 0.253365 0.324878
O O17 0.000000 0.296345 0.000000
O O18 0.808154 0.000000 0.547872
O O19 0.387303 0.000000 0.496234
#
# Coordination Sequence:
#
# PCOD9154943 Si02
#       7
#     4   4   4   4   4   4   4
#     4   8  13  21  31  42  60  88 119 149 182 220
#     4   9  15  19  25  41  63  87 118 153 184 215
#     4   9  17  28  41  57  77 101 128 158 193 231
#     4   8  14  24  37  52  69  92 124 158 190 226
#     4   9  17  28  41  57  77 101 128 158 193 231
#     4   8  14  24  37  52  69  92 124 158 190 226
#     4   8  13  21  31  42  60  88 119 149 182 220
#
# _framework density 20.707446000000001
#
# number of rings (size 3 to 8) (size 9 to 14) (size 15 to 20)
#    0.000    3.571    0.000    2.143    0.000    3.429 
#    0.000    5.714    0.000    0.000    0.000    0.000 
#    0.000    0.000    0.000    1.286    0.000   27.429 
#
# Total GULP energy -156203.510968 kJ/mol
# GULP energy per Si atom -5578.696820 kJ/mol
# Density = 2.066032 g / cm^3
# Si number density = 20.707446 Si / 1000 Ang^3
#
#
#
# Elastic Constant Matrix: (Units=GPa)
#
#
# Indices 1 2 3 4 5 6 
#
# 1 69.8309 70.6887 73.5595 0.0000 22.1743 0.0000
# 2 70.6887 157.8137 94.0072 0.0000 75.7461 0.0000
# 3 73.5595 94.0072 90.5011 0.0000 43.4218 0.0000
# 4 0.0000 0.0000 0.0000 -610.5101 0.0000 -510.1818
# 5 22.1743 75.7461 43.4218 0.0000 71.1836 0.0000
# 6 0.0000 0.0000 0.0000 -510.1818 0.0000 -447.7098
#
#
#
# Elastic Compliance Matrix: (Units=1/GPa)
#
#
# Indices 1 2 3 4 5 6 
#
# 1 0.153847 -0.008388 -0.138016 0.000000 0.045190 0.000000
# 2 -0.008388 0.024544 -0.010462 0.000000 -0.017123 0.000000
# 3 -0.138016 -0.010462 0.152868 0.000000 -0.039123 0.000000
# 4 0.000000 0.000000 0.000000 -0.034318 0.000000 0.039107
# 5 0.045190 -0.017123 -0.039123 0.000000 0.042056 0.000000
# 6 0.000000 0.000000 0.000000 0.039107 0.000000 -0.046797
#
#
# Mechanical properties :
#
#
# Convention : Reuss Voigt Hill
#
# Bulk Modulus (GPa) = 57.05649 88.29519 72.67584
# Shear Modulus (GPa) = 8.17294 -192.08122 -91.95414
#
# Velocity S-wave (km/s) = 1.98883 -9.64162 -6.67104
# Velocity P-wave (km/s) = 5.73475 9.01199 4.91572
#
# Compressibility (1/GPa) = 0.01752649
#
# Stress axis : x y z
#
# Youngs Moduli (GPa) = 6.49996 40.74294 6.54159
#
# Poissons Ratio (x) = 0.34175 0.90285
# Poissons Ratio (y) = 0.05452 0.06844
# Poissons Ratio (z) = 0.89710 0.42625
#
# Static dielectric constant tensor:
#      x y z
#    x 1.995540 0.000000 -0.246520 
#    y 0.000000 1.702200 0.000000 
#    z -0.246520 0.000000 1.919820 
# 
# From -- ./inp_files/38016.got.cif
#   From: 2010.05.17/outbox.cif.g08.bks.cpg/sg10_20_cif.got.tgz:38016.got - 2010.06.03 11:33:40.
