data_PCOD9154120
_publ_section_title
;
Structure prediction by ZEFSAII (Michael W. Deem and Ramdas Pophale) SiO2 
 PCOD9154120
Probable space group: P 2/M
;
_chemical_formula_sum "Si O2"
_cell_formula_units_Z 15
_cell_length_a 9.555732
_cell_length_b 16.159820
_cell_length_c 8.330148
_cell_angle_alpha 90.000000
_cell_angle_beta 30.862492
_cell_angle_gamma 90.000000
_cell_volume 659.862032
_symmetry_space_group_name_H-M "P 2/M"
_symmetry_group_IT_number 10
_symmetry_cell_setting 'monoclinic'
loop_
_space_group_symop_operation_xyz
x,y,z
-x,y,-z
-x,-y,-z
x,-y,z
loop_
_atom_site_type_symbol
_atom_site_label
_atom_site_fract_x
_atom_site_fract_y
_atom_site_fract_z
Si Si1 0.114172 0.811016 0.707464
Si Si2 0.497839 0.500000 0.265745
Si Si3 0.726973 0.335486 0.667467
Si Si4 0.392006 0.904393 0.924087
Si Si5 0.000000 0.500000 0.000000
O O1 0.191772 0.720836 0.564034
O O2 0.378270 0.867970 0.420463
O O3 0.877456 0.850135 0.831482
O O4 0.000000 0.807748 0.000000
O O5 0.426655 0.417246 0.239055
O O6 0.807424 0.500000 0.022144
O O7 0.275677 0.500000 0.625108
O O8 0.000000 0.351442 0.500000
O O9 0.500000 0.289423 0.000000
O O10 0.330881 0.000000 0.944508
O O11 0.500000 0.902257 0.000000
#
# Coordination Sequence:
#
# PCOD9154120 Si02
#       5
#     4   2   4   4   1
#     4  12  26  43  68 104 144 183 231 292 357 415
#     4  11  24  45  74 103 141 186 237 288 358 416
#     4  12  25  45  73 102 142 185 241 296 349 423
#     4  11  24  45  72 100 137 187 237 287 350 422
#     4  10  24  44  68 104 140 178 216 308 340 428
#
# _framework density 22.732025
#
# number of rings (size 3 to 8) (size 9 to 14) (size 15 to 20)
#    0.000    0.533    0.000    8.800    1.867    5.333 
#    4.800    0.000    0.000    0.000    0.000    0.000 
#    0.000    0.000    0.000    0.000    0.000    0.000 
#
# Total GULP energy -83789.096242 kJ/mol
# GULP energy per Si atom -5585.939749 kJ/mol
# Density = 2.268029 g / cm^3
# Si number density = 22.732025 Si / 1000 Ang^3
#
#
#
# Elastic Constant Matrix: (Units=GPa)
#
#
# Indices 1 2 3 4 5 6 
#
# 1 95.7274 43.5539 39.1949 0.0000 -14.4315 0.0000
# 2 43.5539 141.3241 24.6076 0.0000 -8.0389 0.0000
# 3 39.1949 24.6076 146.8048 0.0000 -14.7011 0.0000
# 4 0.0000 0.0000 0.0000 20.9189 0.0000 -3.8637
# 5 -14.4315 -8.0389 -14.7011 0.0000 67.5697 0.0000
# 6 0.0000 0.0000 0.0000 -3.8637 0.0000 94.0777
#
#
#
# Elastic Compliance Matrix: (Units=1/GPa)
#
#
# Indices 1 2 3 4 5 6 
#
# 1 0.013502 -0.003565 -0.002823 0.000000 0.001846 0.000000
# 2 -0.003565 0.008255 -0.000419 0.000000 0.000130 0.000000
# 3 -0.002823 -0.000419 0.007739 0.000000 0.001031 0.000000
# 4 0.000000 0.000000 0.000000 0.048169 0.000000 0.001978
# 5 0.001846 0.000130 0.001031 0.000000 0.015433 0.000000
# 6 0.000000 0.000000 0.000000 0.001978 0.000000 0.010711
#
#
# Mechanical properties :
#
#
# Convention : Reuss Voigt Hill
#
# Bulk Modulus (GPa) = 62.95909 66.50767 64.73338
# Shear Modulus (GPa) = 40.74456 54.94660 47.84558
#
# Velocity S-wave (km/s) = 4.23825 4.92178 4.59275
# Velocity P-wave (km/s) = 7.19074 7.84980 7.52748
#
# Compressibility (1/GPa) = 0.01588333
#
# Stress axis : x y z
#
# Youngs Moduli (GPa) = 74.06260 121.14104 129.21863
#
# Poissons Ratio (x) = 0.43183 0.36472
# Poissons Ratio (y) = 0.26401 0.05414
# Poissons Ratio (z) = 0.20904 0.05076
#
# Static dielectric constant tensor:
#      x y z
#    x 1.866470 0.000000 0.038170 
#    y 0.000000 1.820660 0.000000 
#    z 0.038170 0.000000 1.812130 
# 
# From -- ./inp_files/19177.got.cif
#   From: 2010.05.17/outbox.cif.g08.bks.cpg/sg10_10_cif.got.tgz:19177.got - 2010.06.03 11:33:40.
