data_PCOD9154229
_publ_section_title
;
Structure prediction by ZEFSAII (Michael W. Deem and Ramdas Pophale) SiO2 
 PCOD9154229
Probable space group: P 2/M
;
_chemical_formula_sum "Si O2"
_cell_formula_units_Z 24
_cell_length_a 9.059986
_cell_length_b 12.322989
_cell_length_c 20.612291
_cell_angle_alpha 90.000000
_cell_angle_beta 38.109159
_cell_angle_gamma 90.000000
_cell_volume 1420.263064
_symmetry_space_group_name_H-M "P 2/M"
_symmetry_group_IT_number 10
_symmetry_cell_setting 'monoclinic'
loop_
_space_group_symop_operation_xyz
x,y,z
-x,y,-z
-x,-y,-z
x,-y,z
loop_
_atom_site_type_symbol
_atom_site_label
_atom_site_fract_x
_atom_site_fract_y
_atom_site_fract_z
Si Si1 0.002362 0.500000 0.597287
Si Si2 0.062095 0.675846 0.906977
Si Si3 0.460724 0.500000 0.803241
Si Si4 0.272094 0.730312 0.705252
Si Si5 0.789411 0.875978 0.392054
Si Si6 0.660648 0.500000 0.010180
Si Si7 0.829973 0.736131 0.501556
Si Si8 0.273108 0.500000 0.630176
O O1 0.719740 0.500000 0.681548
O O2 0.120531 0.609134 0.529101
O O3 0.052610 0.500000 0.656821
O O4 0.294052 0.600278 0.840394
O O5 0.140552 0.745759 0.818751
O O6 0.841728 0.602022 0.956853
O O7 0.000000 0.721475 0.000000
O O8 0.490567 0.500000 0.870836
O O9 0.163908 0.811516 0.689869
O O10 0.553949 0.752286 0.614617
O O11 0.263932 0.607661 0.677803
O O12 0.500000 0.876811 0.500000
O O13 0.883949 0.804366 0.418528
O O14 0.872151 0.000000 0.363811
O O15 0.500000 0.500000 0.000000
O O16 0.000000 0.772472 0.500000
O O17 0.500000 0.500000 0.500000
#
# Coordination Sequence:
#
# PCOD9154229 Si02
#       8
#     2   4   2   4   4   2   4   2
#     4  12  20  29  46  75 110 130 164 194 237 301
#     4   9  19  35  47  65  99 134 168 209 251 287
#     4   9  19  31  43  65 104 139 158 196 244 292
#     4  11  19  33  53  70  99 137 168 199 249 296
#     4   9  19  35  51  70  97 130 169 205 239 293
#     4   9  18  28  44  67  92 131 174 200 231 288
#     4  11  21  31  48  77 107 134 162 197 241 300
#     4  12  18  30  46  74 104 135 164 199 239 295
#
# _framework density 16.898278000000001
#
# number of rings (size 3 to 8) (size 9 to 14) (size 15 to 20)
#    0.000    1.833    3.333    3.750    2.333    0.333 
#    0.000    0.000    0.000    0.500    0.000    0.000 
#    0.000   19.333    0.000    0.000    0.000    5.833 
#
# Total GULP energy -133783.866999 kJ/mol
# GULP energy per Si atom -5574.327792 kJ/mol
# Density = 1.685982 g / cm^3
# Si number density = 16.898278 Si / 1000 Ang^3
#
#
#
# Elastic Constant Matrix: (Units=GPa)
#
#
# Indices 1 2 3 4 5 6 
#
# 1 139.0710 34.2062 41.7701 0.0000 22.5642 0.0000
# 2 34.2062 81.7916 29.5803 0.0000 20.2451 0.0000
# 3 41.7701 29.5803 89.4179 0.0000 24.1221 0.0000
# 4 0.0000 0.0000 0.0000 1.9913 0.0000 -0.3019
# 5 22.5642 20.2451 24.1221 0.0000 37.9736 0.0000
# 6 0.0000 0.0000 0.0000 -0.3019 0.0000 -10.4045
#
#
#
# Elastic Compliance Matrix: (Units=1/GPa)
#
#
# Indices 1 2 3 4 5 6 
#
# 1 0.008952 -0.002129 -0.002835 0.000000 -0.002384 0.000000
# 2 -0.002129 0.015382 -0.002683 0.000000 -0.005231 0.000000
# 3 -0.002835 -0.002683 0.015151 0.000000 -0.006510 0.000000
# 4 0.000000 0.000000 0.000000 0.499988 0.000000 -0.014508
# 5 -0.002384 -0.005231 -0.006510 0.000000 0.034675 0.000000
# 6 0.000000 0.000000 0.000000 -0.014508 0.000000 -0.095691
#
#
# Mechanical properties :
#
#
# Convention : Reuss Voigt Hill
#
# Bulk Modulus (GPa) = 41.33418 57.93264 49.63341
# Shear Modulus (GPa) = 9.96385 19.56034 14.76209
#
# Velocity S-wave (km/s) = 2.43088 3.40595 2.95885
# Velocity P-wave (km/s) = 5.69145 7.05867 6.41161
#
# Compressibility (1/GPa) = 0.02419305
#
# Stress axis : x y z
#
# Youngs Moduli (GPa) = 111.70269 65.01298 66.00136
#
# Poissons Ratio (x) = 0.13840 0.18709
# Poissons Ratio (y) = 0.23779 0.17706
# Poissons Ratio (z) = 0.31663 0.17441
#
# Static dielectric constant tensor:
#      x y z
#    x 1.588510 0.000000 0.013480 
#    y 0.000000 1.561000 0.000000 
#    z 0.013480 0.000000 1.595780 
# 
# From -- ./inp_files/42053.got.cif
#   From: 2010.05.17/outbox.cif.g08.bks.cpg/sg10_22_cif.got.tgz:42053.got - 2010.06.03 11:33:40.
