data_PCOD9154073
_publ_section_title
;
Structure prediction by ZEFSAII (Michael W. Deem and Ramdas Pophale) SiO2 
 PCOD9154073
Probable space group: P 2/M
;
_chemical_formula_sum "Si O2"
_cell_formula_units_Z 28
_cell_length_a 4.552551
_cell_length_b 15.569037
_cell_length_c 15.719625
_cell_angle_alpha 90.000000
_cell_angle_beta 67.574557
_cell_angle_gamma 90.000000
_cell_volume 1029.930105
_symmetry_space_group_name_H-M "P 2/M"
_symmetry_group_IT_number 10
_symmetry_cell_setting 'monoclinic'
loop_
_space_group_symop_operation_xyz
x,y,z
-x,y,-z
-x,-y,-z
x,-y,z
loop_
_atom_site_type_symbol
_atom_site_label
_atom_site_fract_x
_atom_site_fract_y
_atom_site_fract_z
Si Si1 0.521304 0.187830 0.846493
Si Si2 0.144496 0.905366 0.083330
Si Si3 0.291262 0.596546 0.401147
Si Si4 0.188079 0.099228 0.594624
Si Si5 0.400384 0.215463 0.352092
Si Si6 0.895024 0.329139 0.911506
Si Si7 0.534744 0.593681 0.804524
O O1 0.740383 0.104529 0.833114
O O2 0.616168 0.225979 0.746739
O O3 0.156512 0.158604 0.899670
O O4 0.239187 0.341119 0.831882
O O5 0.321543 0.750924 0.097630
O O6 0.017509 0.000000 0.082580
O O7 0.500000 0.899640 0.000000
O O8 0.442424 0.500000 0.399046
O O9 0.000000 0.598242 0.500000
O O10 0.447784 0.691967 0.392785
O O11 0.235922 0.597507 0.303985
O O12 0.500000 0.099170 0.500000
O O13 0.321114 0.147843 0.662368
O O14 0.918205 0.163505 0.592101
O O15 0.083860 0.000000 0.613459
O O16 0.694449 0.399128 0.879940
O O17 0.000000 0.334079 0.000000
O O18 0.382514 0.500000 0.816644
#
# Coordination Sequence:
#
# PCOD9154073 Si02
#       7
#     4   4   4   4   4   4   4
#     4  12  26  46  74 111 157 204 268 330 402 493
#     4  11  26  49  78 112 155 206 265 336 414 501
#     4  10  23  47  80 119 166 219 276 346 424 501
#     4  11  25  45  71 109 155 206 267 333 406 490
#     4  12  25  45  76 111 158 212 271 337 406 491
#     4  12  27  49  77 111 158 212 266 334 414 488
#     4  11  25  47  77 116 160 206 272 344 411 498
#
# _framework density 27.186309999999999
#
# number of rings (size 3 to 8) (size 9 to 14) (size 15 to 20)
#    0.000    0.714    1.429    5.143    2.000    9.714 
#    0.000    1.429    0.000   10.714    0.000    0.000 
#    0.000    3.429    0.000    0.000    0.000    0.000 
#
# Total GULP energy -155893.042770 kJ/mol
# GULP energy per Si atom -5567.608670 kJ/mol
# Density = 2.712443 g / cm^3
# Si number density = 27.186310 Si / 1000 Ang^3
#
#
#
# Elastic Constant Matrix: (Units=GPa)
#
#
# Indices 1 2 3 4 5 6 
#
# 1 146.6505 51.8264 55.3949 0.0000 -15.7117 0.0000
# 2 51.8264 193.4171 61.5278 0.0000 -27.3472 0.0000
# 3 55.3949 61.5278 137.2213 0.0000 -17.2342 0.0000
# 4 0.0000 0.0000 0.0000 1708.4309 0.0000 1564.0427
# 5 -15.7117 -27.3472 -17.2342 0.0000 40.5513 0.0000
# 6 0.0000 0.0000 0.0000 1564.0427 0.0000 1473.9439
#
#
#
# Elastic Compliance Matrix: (Units=1/GPa)
#
#
# Indices 1 2 3 4 5 6 
#
# 1 0.008401 -0.001214 -0.002684 0.000000 0.001295 0.000000
# 2 -0.001214 0.006594 -0.002078 0.000000 0.003093 0.000000
# 3 -0.002684 -0.002078 0.009504 0.000000 0.001598 0.000000
# 4 0.000000 0.000000 0.000000 0.020499 0.000000 -0.021752
# 5 0.001295 0.003093 0.001598 0.000000 0.027927 0.000000
# 6 0.000000 0.000000 0.000000 -0.021752 0.000000 0.023761
#
#
# Mechanical properties :
#
#
# Convention : Reuss Voigt Hill
#
# Bulk Modulus (GPa) = 79.70931 90.53190 85.12060
# Shear Modulus (GPa) = 44.31865 665.15455 354.73660
#
# Velocity S-wave (km/s) = 4.04193 15.65875 11.43533
# Velocity P-wave (km/s) = 7.15306 18.98161 14.34342
#
# Compressibility (1/GPa) = 0.01254559
#
# Stress axis : x y z
#
# Youngs Moduli (GPa) = 119.03830 151.65651 105.22430
#
# Poissons Ratio (x) = 0.18410 0.28245
# Poissons Ratio (y) = 0.14450 0.21866
# Poissons Ratio (z) = 0.31953 0.31515
#
# Static dielectric constant tensor:
#      x y z
#    x 2.258470 0.000000 0.208780 
#    y 0.000000 2.336620 0.000000 
#    z 0.208780 0.000000 2.482390 
# 
# From -- ./inp_files/73416.got.cif
#   From: 2010.05.17/outbox.cif.g08.bks.cpg/sg10_37_cif.got.tgz:73416.got - 2010.06.03 11:33:40.
