data_PCOD9154054
_publ_section_title
;
Structure prediction by ZEFSAII (Michael W. Deem and Ramdas Pophale) SiO2 
 PCOD9154054
Probable space group: P 2/M
;
_chemical_formula_sum "Si O2"
_cell_formula_units_Z 24
_cell_length_a 7.823554
_cell_length_b 14.163323
_cell_length_c 13.336343
_cell_angle_alpha 90.000000
_cell_angle_beta 135.077085
_cell_angle_gamma 90.000000
_cell_volume 1043.532362
_symmetry_space_group_name_H-M "P 2/M"
_symmetry_group_IT_number 10
_symmetry_cell_setting 'monoclinic'
loop_
_space_group_symop_operation_xyz
x,y,z
-x,y,-z
-x,-y,-z
x,-y,z
loop_
_atom_site_type_symbol
_atom_site_label
_atom_site_fract_x
_atom_site_fract_y
_atom_site_fract_z
Si Si1 0.751837 0.104648 0.666766
Si Si2 0.101200 0.397958 0.929766
Si Si3 0.476458 0.248083 0.882001
Si Si4 0.363686 0.691121 0.336643
Si Si5 0.252169 0.389781 0.662890
Si Si6 0.149694 0.109887 0.656907
O O1 0.500000 0.100285 0.500000
O O2 0.724876 0.200941 0.717794
O O3 0.973232 0.117881 0.680064
O O4 0.780794 0.000000 0.726389
O O5 0.207955 0.500000 0.945527
O O6 0.873638 0.373322 0.765790
O O7 0.287913 0.312887 0.017892
O O8 0.000000 0.406054 0.000000
O O9 0.269430 0.326236 0.769937
O O10 0.397400 0.165248 0.775555
O O11 0.500000 0.201259 0.000000
O O12 0.500000 0.686964 0.500000
O O13 0.543765 0.653329 0.325949
O O14 0.300195 0.500000 0.702265
O O15 0.000000 0.382104 0.500000
O O16 0.000000 0.148208 0.500000
O O17 0.197325 0.000000 0.658006
#
# Coordination Sequence:
#
# PCOD9154054 Si02
#       6
#     4   4   4   4   4   4
#     4   9  20  38  64 101 137 169 216 275 337 403
#     4  11  24  44  65  90 131 182 229 279 338 404
#     4  12  26  42  67  98 137 183 226 276 347 410
#     4  11  24  42  71 100 130 180 229 289 348 408
#     4  11  26  45  66  97 136 179 235 298 347 408
#     4  10  23  44  73 105 139 181 229 281 341 409
#
# _framework density 22.998808
#
# number of rings (size 3 to 8) (size 9 to 14) (size 15 to 20)
#    0.000    1.333    1.667    2.500   11.667    3.000 
#    0.000    0.833    0.000    1.500    0.000    0.000 
#    0.000    0.000    0.000    0.000    0.000    0.000 
#
# Total GULP energy -134058.064226 kJ/mol
# GULP energy per Si atom -5585.752676 kJ/mol
# Density = 2.294646 g / cm^3
# Si number density = 22.998808 Si / 1000 Ang^3
#
#
#
# Elastic Constant Matrix: (Units=GPa)
#
#
# Indices 1 2 3 4 5 6 
#
# 1 44.7709 9.6615 20.0900 0.0000 8.9895 0.0000
# 2 9.6615 126.8522 44.1094 0.0000 5.8041 0.0000
# 3 20.0900 44.1094 141.2983 0.0000 3.4993 0.0000
# 4 0.0000 0.0000 0.0000-3415.1852 0.0000 2446.8360
# 5 8.9895 5.8041 3.4993 0.0000 29.4468 0.0000
# 6 0.0000 0.0000 0.0000 2446.8360 0.0000-1688.9721
#
#
#
# Elastic Compliance Matrix: (Units=1/GPa)
#
#
# Indices 1 2 3 4 5 6 
#
# 1 0.025367 -0.000458 -0.003284 0.000000 -0.007263 0.000000
# 2 -0.000458 0.008911 -0.002685 0.000000 -0.001298 0.000000
# 3 -0.003284 -0.002685 0.008369 0.000000 0.000537 0.000000
# 4 0.000000 0.000000 0.000000 0.007717 0.000000 0.011180
# 5 -0.007263 -0.001298 0.000537 0.000000 0.036369 0.000000
# 6 0.000000 0.000000 0.000000 0.011180 0.000000 0.015605
#
#
# Mechanical properties :
#
#
# Convention : Reuss Voigt Hill
#
# Bulk Modulus (GPa) = 33.56369 51.18259 42.37314
# Shear Modulus (GPa) = 39.96121 -999.00474 -479.52176
#
# Velocity S-wave (km/s) = 4.17290 -20.86421 -14.45514
# Velocity P-wave (km/s) = 6.15165 23.62452 16.12878
#
# Compressibility (1/GPa) = 0.02979411
#
# Stress axis : x y z
#
# Youngs Moduli (GPa) = 39.42168 112.22216 119.49057
#
# Poissons Ratio (x) = 0.05138 0.39239
# Poissons Ratio (y) = 0.01805 0.32077
# Poissons Ratio (z) = 0.12946 0.30126
#
# Static dielectric constant tensor:
#      x y z
#    x 1.945010 0.000000 -0.032070 
#    y 0.000000 1.899810 0.000000 
#    z -0.032070 0.000000 1.850150 
# 
# From -- ./inp_files/61965.got.cif
#   From: 2010.05.17/outbox.cif.g08.bks.cpg/sg10_31_cif.got.tgz:61965.got - 2010.06.03 11:33:40.
