data_PCOD9154084
_publ_section_title
;
Structure prediction by ZEFSAII (Michael W. Deem and Ramdas Pophale) SiO2 
 PCOD9154084
Probable space group: P 2/M
;
_chemical_formula_sum "Si O2"
_cell_formula_units_Z 16
_cell_length_a 11.995927
_cell_length_b 7.855164
_cell_length_c 20.040176
_cell_angle_alpha 90.000000
_cell_angle_beta 22.439136
_cell_angle_gamma 90.000000
_cell_volume 720.800054
_symmetry_space_group_name_H-M "P 2/M"
_symmetry_group_IT_number 10
_symmetry_cell_setting 'monoclinic'
loop_
_space_group_symop_operation_xyz
x,y,z
-x,y,-z
-x,-y,-z
x,-y,z
loop_
_atom_site_type_symbol
_atom_site_label
_atom_site_fract_x
_atom_site_fract_y
_atom_site_fract_z
Si Si1 0.732048 0.500000 0.809107
Si Si2 0.349475 0.500000 0.297434
Si Si3 0.725380 0.794910 0.318866
Si Si4 0.656435 0.199418 0.207622
Si Si5 0.848099 0.186179 0.809822
O O1 0.593659 0.500000 0.813424
O O2 0.920148 0.330773 0.717005
O O3 0.500000 0.500000 0.000000
O O4 0.485836 0.330931 0.255328
O O5 0.000000 0.500000 0.500000
O O6 0.500000 0.736938 0.500000
O O7 0.652040 0.733683 0.286282
O O8 0.038877 0.760654 0.179541
O O9 0.710213 0.000000 0.321505
O O10 0.557091 0.000000 0.257560
O O11 0.000000 0.198613 0.000000
O O12 0.977386 0.000000 0.722992
O O13 0.500000 0.168150 0.000000
#
# Coordination Sequence:
#
# PCOD9154084 Si02
#       5
#     2   2   4   4   4
#     4  10  24  40  61  91 122 165 219 259 308 385
#     4  12  29  46  63  99 140 172 219 274 333 397
#     4   9  19  37  64  96 125 161 212 264 321 383
#     4  10  24  46  71  96 131 178 221 268 330 393
#     4   9  19  36  62  91 123 158 206 265 315 371
#
# _framework density 22.197555999999999
#
# number of rings (size 3 to 8) (size 9 to 14) (size 15 to 20)
#    0.000    2.250    0.000    0.375   10.500    2.500 
#    0.000    1.250    0.000    0.000    0.000    0.000 
#    0.000    0.000    0.000    0.000    0.000    0.000 
#
# Total GULP energy -89260.736996 kJ/mol
# GULP energy per Si atom -5578.796062 kJ/mol
# Density = 2.214703 g / cm^3
# Si number density = 22.197556 Si / 1000 Ang^3
#
#
#
# Elastic Constant Matrix: (Units=GPa)
#
#
# Indices 1 2 3 4 5 6 
#
# 1 223.1587 88.6125 44.0391 0.0000 -1.2609 0.0000
# 2 88.6125 157.7389 11.9385 0.0000 -17.5734 0.0000
# 3 44.0391 11.9385 79.2258 0.0000 -11.3451 0.0000
# 4 0.0000 0.0000 0.0000 15.3628 0.0000 -19.4292
# 5 -1.2609 -17.5734 -11.3451 0.0000 38.8419 0.0000
# 6 0.0000 0.0000 0.0000 -19.4292 0.0000 51.7147
#
#
#
# Elastic Compliance Matrix: (Units=1/GPa)
#
#
# Indices 1 2 3 4 5 6 
#
# 1 0.006642 -0.003746 -0.003485 0.000000 -0.002497 0.000000
# 2 -0.003746 0.008816 0.001365 0.000000 0.004266 0.000000
# 3 -0.003485 0.001365 0.015056 0.000000 0.004902 0.000000
# 4 0.000000 0.000000 0.000000 0.124020 0.000000 0.046594
# 5 -0.002497 0.004266 0.004902 0.000000 0.029026 0.000000
# 6 0.000000 0.000000 0.000000 0.046594 0.000000 0.036842
#
#
# Mechanical properties :
#
#
# Convention : Reuss Voigt Hill
#
# Bulk Modulus (GPa) = 53.24621 83.25598 68.25109
# Shear Modulus (GPa) = 20.97360 42.21944 31.59652
#
# Velocity S-wave (km/s) = 3.07719 4.36591 3.77692
# Velocity P-wave (km/s) = 6.05516 7.93745 7.05932
#
# Compressibility (1/GPa) = 0.01878068
#
# Stress axis : x y z
#
# Youngs Moduli (GPa) = 150.55260 113.43294 66.41944
#
# Poissons Ratio (x) = 0.42489 0.23149
# Poissons Ratio (y) = 0.56394 -0.09063
# Poissons Ratio (z) = 0.52472 -0.15478
#
# Static dielectric constant tensor:
#      x y z
#    x 1.910370 0.000000 0.250380 
#    y 0.000000 1.979940 0.000000 
#    z 0.250380 0.000000 2.449270 
# 
# From -- ./inp_files/74271.got.cif
#   From: 2010.05.17/outbox.cif.g08.bks.cpg/sg10_38_cif.got.tgz:74271.got - 2010.06.03 11:33:40.
