data_PCOD9154337
_publ_section_title
;
Structure prediction by ZEFSAII (Michael W. Deem and Ramdas Pophale) SiO2 
 PCOD9154337
Probable space group: P 2/M
;
_chemical_formula_sum "Si O2"
_cell_formula_units_Z 24
_cell_length_a 28.738570
_cell_length_b 11.946476
_cell_length_c 23.351852
_cell_angle_alpha 90.000000
_cell_angle_beta 168.549321
_cell_angle_gamma 90.000000
_cell_volume 1591.622365
_symmetry_space_group_name_H-M "P 2/M"
_symmetry_group_IT_number 10
_symmetry_cell_setting 'monoclinic'
loop_
_space_group_symop_operation_xyz
x,y,z
-x,y,-z
-x,-y,-z
x,-y,z
loop_
_atom_site_type_symbol
_atom_site_label
_atom_site_fract_x
_atom_site_fract_y
_atom_site_fract_z
Si Si1 0.641482 0.000000 0.229974
Si Si2 0.784172 0.000000 0.195661
Si Si3 0.630588 0.500000 0.513303
Si Si4 0.838546 0.500000 0.891316
Si Si5 0.114747 0.133481 0.199516
Si Si6 0.107054 0.119908 0.784099
Si Si7 0.399414 0.262367 0.217044
Si Si8 0.260362 0.743240 0.178724
O O1 0.826374 0.103994 0.452008
O O2 0.500000 0.000000 0.000000
O O3 0.457775 0.000000 0.060719
O O4 0.818650 0.896243 0.192742
O O5 0.000000 0.000000 0.500000
O O6 0.887192 0.500000 0.794078
O O7 0.488653 0.389744 0.324781
O O8 0.689774 0.500000 0.652728
O O9 0.782972 0.613128 0.858182
O O10 0.369785 0.186602 0.510723
O O11 0.122564 0.000000 0.212351
O O12 0.000000 0.166344 0.000000
O O13 0.950005 0.185062 0.049269
O O14 0.197061 0.000000 0.919259
O O15 0.219232 0.223634 0.951047
O O16 0.289383 0.241179 0.146528
O O17 0.500000 0.776870 0.500000
#
# Coordination Sequence:
#
# PCOD9154337 Si02
#       8
#     2   2   2   2   4   4   4   4
#     4   9  15  34  61  89 110 134 177 205 244 328
#     4   9  15  34  63  85 112 142 173 207 248 322
#     4  11  21  34  65  65 108 140 193 253 288 319
#     4  11  20  39  54  83  81 143 217 256 278 304
#     4  11  23  36  51  70 102 148 192 231 275 342
#     4   8  21  32  53  85 116 139 166 218 268 327
#     4  12  22  39  51  80 109 143 182 243 285 323
#     4  12  22  35  57  73  99 140 203 246 284 313
#
# _framework density 15.078953
#
# number of rings (size 3 to 8) (size 9 to 14) (size 15 to 20)
#    1.000    0.333    6.667    1.250    0.000    3.000 
#    0.000    0.000    0.000    0.000    0.000    1.167 
#    0.000    0.000    0.000    0.000    0.000    0.000 
#
# Total GULP energy -133714.385203 kJ/mol
# GULP energy per Si atom -5571.432717 kJ/mol
# Density = 1.504463 g / cm^3
# Si number density = 15.078953 Si / 1000 Ang^3
#
#
#
# Elastic Constant Matrix: (Units=GPa)
#
#
# Indices 1 2 3 4 5 6 
#
# 1 124.0601 36.4523 66.6947 0.0000 16.0777 0.0000
# 2 36.4523 57.9939 44.6499 0.0000 -2.0330 0.0000
# 3 66.6947 44.6499 108.1767 0.0000 8.0451 0.0000
# 4 0.0000 0.0000 0.0000 84.4794 0.0000 112.8592
# 5 16.0777 -2.0330 8.0451 0.0000 34.6191 0.0000
# 6 0.0000 0.0000 0.0000 112.8592 0.0000 218.1586
#
#
#
# Elastic Compliance Matrix: (Units=1/GPa)
#
#
# Indices 1 2 3 4 5 6 
#
# 1 0.013095 -0.003610 -0.006223 0.000000 -0.004847 0.000000
# 2 -0.003610 0.026820 -0.009246 0.000000 0.005400 0.000000
# 3 -0.006223 -0.009246 0.017017 0.000000 -0.001607 0.000000
# 4 0.000000 0.000000 0.000000 0.038322 0.000000 -0.019825
# 5 -0.004847 0.005400 -0.001607 0.000000 0.031828 0.000000
# 6 0.000000 0.000000 0.000000 -0.019825 0.000000 0.014840
#
#
# Mechanical properties :
#
#
# Convention : Reuss Voigt Hill
#
# Bulk Modulus (GPa) = 53.26503 65.09161 59.17832
# Shear Modulus (GPa) = 26.83305 76.94701 51.89003
#
# Velocity S-wave (km/s) = 4.22299 7.15124 5.87256
# Velocity P-wave (km/s) = 7.69279 10.55689 9.23653
#
# Compressibility (1/GPa) = 0.01877404
#
# Stress axis : x y z
#
# Youngs Moduli (GPa) = 76.36528 37.28570 58.76551
#
# Poissons Ratio (x) = 0.13459 0.36571
# Poissons Ratio (y) = 0.27565 0.54335
# Poissons Ratio (z) = 0.47523 0.34475
#
# Static dielectric constant tensor:
#      x y z
#    x 1.500690 0.000000 0.019590 
#    y 0.000000 1.495410 0.000000 
#    z 0.019590 0.000000 1.494000 
# 
# From -- ./inp_files/91430.got.cif
#   From: 2010.05.17/outbox.cif.g08.bks.cpg/sg10_46_cif.got.tgz:91430.got - 2010.06.03 11:33:40.
