data_PCOD9154678
_publ_section_title
;
Structure prediction by ZEFSAII (Michael W. Deem and Ramdas Pophale) SiO2 
 PCOD9154678
Probable space group: P 2/M
;
_chemical_formula_sum "Si O2"
_cell_formula_units_Z 28
_cell_length_a 17.195786
_cell_length_b 14.229106
_cell_length_c 17.252554
_cell_angle_alpha 90.000000
_cell_angle_beta 25.293339
_cell_angle_gamma 90.000000
_cell_volume 1803.590395
_symmetry_space_group_name_H-M "P 2/M"
_symmetry_group_IT_number 10
_symmetry_cell_setting 'monoclinic'
loop_
_space_group_symop_operation_xyz
x,y,z
-x,y,-z
-x,-y,-z
x,-y,z
loop_
_atom_site_type_symbol
_atom_site_label
_atom_site_fract_x
_atom_site_fract_y
_atom_site_fract_z
Si Si1 0.566587 0.886127 0.062187
Si Si2 0.796003 0.886463 0.703953
Si Si3 0.012355 0.112064 0.899525
Si Si4 0.767471 0.392846 0.292194
Si Si5 0.200453 0.392535 0.920711
Si Si6 0.336805 0.795865 0.862208
Si Si7 0.609500 0.201147 0.479732
O O1 0.364952 0.861908 0.211449
O O2 0.610192 0.831053 0.101018
O O3 0.573078 0.000000 0.067973
O O4 0.714147 0.861988 0.862217
O O5 0.000000 0.851790 0.500000
O O6 0.804614 0.000000 0.695307
O O7 0.201159 0.146876 0.694476
O O8 0.003989 0.000000 0.907691
O O9 0.845954 0.153081 0.001559
O O10 0.000000 0.146587 0.000000
O O11 0.708605 0.500000 0.360968
O O12 0.755794 0.376576 0.209932
O O13 0.655850 0.312024 0.434540
O O14 0.980442 0.384421 0.122620
O O15 0.249200 0.500000 0.895558
O O16 0.295080 0.314667 0.888026
O O17 0.492365 0.821724 0.660186
O O18 0.500000 0.177528 0.500000
#
# Coordination Sequence:
#
# PCOD9154678 Si02
#       7
#     4   4   4   4   4   4   4
#     4   9  19  33  51  80 107 131 162 203 253 304
#     4   8  15  33  59  79 100 126 158 202 256 314
#     4  11  23  37  48  61  93 142 187 220 249 284
#     4   9  17  32  52  72  93 128 181 231 273 308
#     4   9  17  31  53  72  96 134 174 221 272 310
#     4  12  22  34  52  75 108 135 173 219 261 303
#     4  12  22  33  50  70  95 136 186 223 254 305
#
# _framework density 15.52459
#
# number of rings (size 3 to 8) (size 9 to 14) (size 15 to 20)
#    0.000    2.000    4.286    2.143    0.000    3.429 
#    0.000    1.429    0.000    0.000    0.000    2.000 
#    0.000    1.143    0.000    0.000    0.000    0.000 
#
# Total GULP energy -156229.776489 kJ/mol
# GULP energy per Si atom -5579.634875 kJ/mol
# Density = 1.548925 g / cm^3
# Si number density = 15.524590 Si / 1000 Ang^3
#
#
#
# Elastic Constant Matrix: (Units=GPa)
#
#
# Indices 1 2 3 4 5 6 
#
# 1 126.2592 46.1867 66.7899 0.0000 9.3478 0.0000
# 2 46.1867 61.4883 31.6090 0.0000 1.6176 0.0000
# 3 66.7899 31.6090 120.7894 0.0000 -9.4070 0.0000
# 4 0.0000 0.0000 0.0000 -112.5730 0.0000 -9.2722
# 5 9.3478 1.6176 -9.4070 0.0000 15.8173 0.0000
# 6 0.0000 0.0000 0.0000 -9.2722 0.0000 22.8140
#
#
#
# Elastic Compliance Matrix: (Units=1/GPa)
#
#
# Indices 1 2 3 4 5 6 
#
# 1 0.015744 -0.007484 -0.007772 0.000000 -0.013161 0.000000
# 2 -0.007484 0.022747 -0.001731 0.000000 0.001067 0.000000
# 3 -0.007772 -0.001731 0.014052 0.000000 0.013127 0.000000
# 4 0.000000 0.000000 0.000000 -0.008595 0.000000 -0.003493
# 5 -0.013161 0.001067 0.013127 0.000000 0.078698 0.000000
# 6 0.000000 0.000000 0.000000 -0.003493 0.000000 0.042413
#
#
# Mechanical properties :
#
#
# Convention : Reuss Voigt Hill
#
# Bulk Modulus (GPa) = 53.85667 66.41201 60.13434
# Shear Modulus (GPa) = 24.36400 -3.85825 10.25287
#
# Velocity S-wave (km/s) = 3.96584 -1.57818 2.57267
# Velocity P-wave (km/s) = 7.46572 6.28893 6.90245
#
# Compressibility (1/GPa) = 0.01856780
#
# Stress axis : x y z
#
# Youngs Moduli (GPa) = 63.51763 43.96206 71.16662
#
# Poissons Ratio (x) = 0.32903 0.55309
# Poissons Ratio (y) = 0.47539 0.12319
# Poissons Ratio (z) = 0.49365 0.07610
#
# Static dielectric constant tensor:
#      x y z
#    x 1.488740 0.000000 -0.016170 
#    y 0.000000 1.524720 0.000000 
#    z -0.016170 0.000000 1.545450 
# 
# From -- ./inp_files/67563.got.cif
#   From: 2010.05.17/outbox.cif.g08.bks.cpg/sg10_34_cif.got.tgz:67563.got - 2010.06.03 11:33:40.
