data_PCOD9154993
_publ_section_title
;
Structure prediction by ZEFSAII (Michael W. Deem and Ramdas Pophale) SiO2 
 PCOD9154993
Probable space group: P 2/M
;
_chemical_formula_sum "Si O2"
_cell_formula_units_Z 32
_cell_length_a 15.837273
_cell_length_b 7.624655
_cell_length_c 16.954325
_cell_angle_alpha 90.000000
_cell_angle_beta 128.306014
_cell_angle_gamma 90.000000
_cell_volume 1606.538056
_symmetry_space_group_name_H-M "P 2/M"
_symmetry_group_IT_number 10
_symmetry_cell_setting 'monoclinic'
loop_
_space_group_symop_operation_xyz
x,y,z
-x,y,-z
-x,-y,-z
x,-y,z
loop_
_atom_site_type_symbol
_atom_site_label
_atom_site_fract_x
_atom_site_fract_y
_atom_site_fract_z
Si Si1 0.837035 0.785577 0.946702
Si Si2 0.769133 0.204678 0.641339
Si Si3 0.376898 0.293462 0.933884
Si Si4 0.373050 0.202515 0.099781
Si Si5 0.636631 0.790019 0.415376
Si Si6 0.382680 0.787985 0.766270
Si Si7 0.047961 0.214333 0.149123
Si Si8 0.569059 0.291562 0.616069
O O1 0.717768 0.719211 0.896447
O O2 0.886764 0.733593 0.891897
O O3 0.833063 0.000000 0.944958
O O4 0.925054 0.732209 0.063477
O O5 0.707737 0.282056 0.529414
O O6 0.882757 0.278299 0.736499
O O7 0.686202 0.214789 0.667430
O O8 0.785881 0.000000 0.633721
O O9 0.380864 0.500000 0.951310
O O10 0.331713 0.265630 0.820072
O O11 0.500000 0.223029 0.000000
O O12 0.328210 0.209308 0.983977
O O13 0.493115 0.278918 0.164967
O O14 0.387137 0.000000 0.131279
O O15 0.667516 0.729182 0.345790
O O16 0.509847 0.753962 0.358105
O O17 0.646627 0.000000 0.422656
O O18 0.384455 0.000000 0.767998
O O19 0.048562 0.000000 0.151293
O O20 0.500000 0.229725 0.500000
O O21 0.579969 0.500000 0.619226
#
# Coordination Sequence:
#
# PCOD9154993 Si02
#       8
#     4   4   4   4   4   4   4   4
#     4   8  14  24  39  63  86 107 139 176 207 242
#     4   9  16  26  42  59  80 110 140 173 210 241
#     4   9  17  29  43  60  84 109 134 164 204 250
#     4   9  16  26  43  62  82 108 138 168 203 244
#     4   9  17  27  39  60  84 108 139 171 203 244
#     4   9  17  27  41  61  86 110 135 166 201 245
#     4   8  14  24  40  61  86 110 138 176 211 238
#     4   9  17  27  37  52  78 110 142 173 201 236
#
# _framework density 19.918607000000002
#
# number of rings (size 3 to 8) (size 9 to 14) (size 15 to 20)
#    0.000    3.250    0.000    1.500    1.750    3.500 
#    0.000    0.000    0.000    0.750    0.000    2.625 
#    0.000    7.000    0.000    0.000    0.000    0.000 
#
# Total GULP energy -178198.064319 kJ/mol
# GULP energy per Si atom -5568.689510 kJ/mol
# Density = 1.987327 g / cm^3
# Si number density = 19.918607 Si / 1000 Ang^3
#
#
#
# Elastic Constant Matrix: (Units=GPa)
#
#
# Indices 1 2 3 4 5 6 
#
# 1 18.7066 -2.3434 -2.0963 0.0000 -2.7268 0.0000
# 2 -2.3434 44.8609 0.8465 0.0000 2.1230 0.0000
# 3 -2.0963 0.8465 86.0059 0.0000 -1.1077 0.0000
# 4 0.0000 0.0000 0.0000 -12.9238 0.0000 16.2625
# 5 -2.7268 2.1230 -1.1077 0.0000 27.6448 0.0000
# 6 0.0000 0.0000 0.0000 16.2625 0.0000 -34.0325
#
#
#
# Elastic Compliance Matrix: (Units=1/GPa)
#
#
# Indices 1 2 3 4 5 6 
#
# 1 0.054700 0.002583 0.001376 0.000000 0.005252 0.000000
# 2 0.002583 0.022499 -0.000178 0.000000 -0.001480 0.000000
# 3 0.001376 -0.000178 0.011670 0.000000 0.000617 0.000000
# 4 0.000000 0.000000 0.000000 -0.194074 0.000000 -0.092739
# 5 0.005252 -0.001480 0.000617 0.000000 0.036830 0.000000
# 6 0.000000 0.000000 0.000000 -0.092739 0.000000 -0.073699
#
#
# Mechanical properties :
#
#
# Convention : Reuss Voigt Hill
#
# Bulk Modulus (GPa) = 10.37003 15.82078 13.09540
# Shear Modulus (GPa) = -42.55652 6.34883 -18.10385
#
# Velocity S-wave (km/s) = -4.62727 1.78726 -3.01805
# Velocity P-wave (km/s) = 4.83025 3.49557 2.35714
#
# Compressibility (1/GPa) = 0.09643175
#
# Stress axis : x y z
#
# Youngs Moduli (GPa) = 18.28141 44.44554 85.68743
#
# Poissons Ratio (x) = -0.11480 -0.11786
# Poissons Ratio (y) = -0.04722 0.01521
# Poissons Ratio (z) = -0.02515 0.00789
#
# Static dielectric constant tensor:
#      x y z
#    x 1.701680 0.000000 -0.021650 
#    y 0.000000 1.725280 0.000000 
#    z -0.021650 0.000000 1.795040 
# 
# From -- ./inp_files/78533.got.cif
#   From: 2010.05.17/outbox.cif.g08.bks.cpg/sg10_40_cif.got.tgz:78533.got - 2010.06.03 11:33:40.
