data_PCOD9154611
_publ_section_title
;
Structure prediction by ZEFSAII (Michael W. Deem and Ramdas Pophale) SiO2 
 PCOD9154611
Probable space group: P 2/M
;
_chemical_formula_sum "Si O2"
_cell_formula_units_Z 24
_cell_length_a 9.235949
_cell_length_b 8.374396
_cell_length_c 20.878703
_cell_angle_alpha 90.000000
_cell_angle_beta 131.335237
_cell_angle_gamma 90.000000
_cell_volume 1212.540910
_symmetry_space_group_name_H-M "P 2/M"
_symmetry_group_IT_number 10
_symmetry_cell_setting 'monoclinic'
loop_
_space_group_symop_operation_xyz
x,y,z
-x,y,-z
-x,-y,-z
x,-y,z
loop_
_atom_site_type_symbol
_atom_site_label
_atom_site_fract_x
_atom_site_fract_y
_atom_site_fract_z
Si Si1 0.982241 0.688214 0.421232
Si Si2 0.291227 0.811284 0.412131
Si Si3 0.190768 0.694067 0.905322
Si Si4 0.519012 0.693469 0.900881
Si Si5 0.765849 0.689344 0.745543
Si Si6 0.570212 0.186131 0.264408
O O1 0.027962 0.500000 0.432440
O O2 0.764957 0.716408 0.334372
O O3 0.000000 0.742809 0.500000
O O4 0.130623 0.776943 0.418409
O O5 0.500000 0.761665 0.500000
O O6 0.242860 0.720790 0.332599
O O7 0.298628 0.000000 0.400291
O O8 0.188468 0.500000 0.904440
O O9 0.329429 0.739837 0.886681
O O10 0.972600 0.748278 0.832271
O O11 0.298301 0.741689 0.002100
O O12 0.520269 0.500000 0.895775
O O13 0.511913 0.767709 0.829062
O O14 0.751234 0.500000 0.753679
O O15 0.589320 0.773648 0.729209
O O16 0.618839 0.000000 0.280574
#
# Coordination Sequence:
#
# PCOD9154611 Si02
#       6
#     4   4   4   4   4   4
#     4  11  24  42  65  90 115 150 198 244 285 339
#     4  11  24  41  62  90 124 157 188 231 291 350
#     4   8  17  34  60  88 112 145 192 246 294 342
#     4   9  17  36  62  86 113 148 194 242 292 351
#     4  11  22  38  60  86 117 156 202 245 287 341
#     4  12  25  39  56  84 121 157 194 241 299 351
#
# _framework density 19.793147999999999
#
# number of rings (size 3 to 8) (size 9 to 14) (size 15 to 20)
#    0.000    1.667    0.000    6.000    0.000    7.333 
#    0.000    7.500    0.000    0.000    0.000    0.000 
#    0.000    0.000    0.000    0.000    0.000    0.000 
#
# Total GULP energy -134175.798132 kJ/mol
# GULP energy per Si atom -5590.658256 kJ/mol
# Density = 1.974810 g / cm^3
# Si number density = 19.793148 Si / 1000 Ang^3
#
#
#
# Elastic Constant Matrix: (Units=GPa)
#
#
# Indices 1 2 3 4 5 6 
#
# 1 90.6813 -12.3514 40.8025 0.0000 2.9513 0.0000
# 2 -12.3514 16.2988 -9.2562 0.0000 -3.3480 0.0000
# 3 40.8025 -9.2562 87.2967 0.0000 2.8810 0.0000
# 4 0.0000 0.0000 0.0000 288.0893 0.0000 -189.8566
# 5 2.9513 -3.3480 2.8810 0.0000 42.1568 0.0000
# 6 0.0000 0.0000 0.0000 -189.8566 0.0000 150.9362
#
#
#
# Elastic Compliance Matrix: (Units=1/GPa)
#
#
# Indices 1 2 3 4 5 6 
#
# 1 0.014836 0.007772 -0.006110 0.000000 -0.000004 0.000000
# 2 0.007772 0.070309 0.003664 0.000000 0.004789 0.000000
# 3 -0.006110 0.003664 0.014709 0.000000 -0.000286 0.000000
# 4 0.000000 0.000000 0.000000 0.020294 0.000000 0.025527
# 5 -0.000004 0.004789 -0.000286 0.000000 0.024121 0.000000
# 6 0.000000 0.000000 0.000000 0.025527 0.000000 0.038734
#
#
# Mechanical properties :
#
#
# Convention : Reuss Voigt Hill
#
# Bulk Modulus (GPa) = 9.04932 25.85185 17.45059
# Shear Modulus (GPa) = 23.90225 107.90857 65.90541
#
# Velocity S-wave (km/s) = 3.47883 7.39165 5.77662
# Velocity P-wave (km/s) = 4.55172 9.27028 7.30261
#
# Compressibility (1/GPa) = 0.11050554
#
# Stress axis : x y z
#
# Youngs Moduli (GPa) = 67.40577 14.22300 67.98576
#
# Poissons Ratio (x) = -0.11054 0.41539
# Poissons Ratio (y) = -0.52387 -0.24912
# Poissons Ratio (z) = 0.41185 -0.05212
#
# Static dielectric constant tensor:
#      x y z
#    x 1.652890 0.000000 0.007660 
#    y 0.000000 1.675260 0.000000 
#    z 0.007660 0.000000 1.680480 
# 
# From -- ./inp_files/82043.got.cif
#   From: 2010.05.17/outbox.cif.g08.bks.cpg/sg10_42_cif.got.tgz:82043.got - 2010.06.03 11:33:40.
