data_PCOD9154391
_publ_section_title
;
Structure prediction by ZEFSAII (Michael W. Deem and Ramdas Pophale) SiO2 
 PCOD9154391
Probable space group: P 2/M
;
_chemical_formula_sum "Si O2"
_cell_formula_units_Z 24
_cell_length_a 9.422957
_cell_length_b 18.757021
_cell_length_c 9.422955
_cell_angle_alpha 90.000000
_cell_angle_beta 123.542900
_cell_angle_gamma 90.000000
_cell_volume 1388.127558
_symmetry_space_group_name_H-M "P 2/M"
_symmetry_group_IT_number 10
_symmetry_cell_setting 'monoclinic'
loop_
_space_group_symop_operation_xyz
x,y,z
-x,y,-z
-x,-y,-z
x,-y,z
loop_
_atom_site_type_symbol
_atom_site_label
_atom_site_fract_x
_atom_site_fract_y
_atom_site_fract_z
Si Si1 0.352989 0.914432 0.530729
Si Si2 0.977090 0.918579 0.315476
Si Si3 0.530730 0.414432 0.352990
Si Si4 0.189908 0.327449 0.663129
Si Si5 0.663129 0.827449 0.189908
Si Si6 0.315476 0.581421 0.977090
O O1 0.500000 0.898190 0.500000
O O2 0.377517 0.873305 0.691675
O O3 0.164362 0.896688 0.366485
O O4 0.351906 0.000000 0.556903
O O5 0.819985 0.867381 0.198530
O O6 0.000000 0.918127 0.500000
O O7 0.940450 0.000000 0.252132
O O8 0.500000 0.398191 0.500000
O O9 0.556904 0.500000 0.351906
O O10 0.691675 0.373304 0.377517
O O11 0.366485 0.396688 0.164362
O O12 0.272261 0.250000 0.727738
O O13 0.198530 0.367380 0.819985
O O14 0.000000 0.322023 0.500000
O O15 0.500000 0.822024 0.000000
O O16 0.252130 0.500000 0.940449
O O17 0.500000 0.581872 0.000000
#
# Coordination Sequence:
#
# PCOD9154391 Si02
#       6
#     4   4   4   4   4   4
#     4   9  18  34  55  77 102 133 167 205 255 313
#     4   8  15  30  51  73  99 130 165 204 247 301
#     4   9  18  34  55  77 102 133 167 205 255 313
#     4  11  21  33  51  74 102 135 174 216 257 305
#     4  11  21  33  51  74 102 135 174 216 257 305
#     4   8  15  30  51  73  99 130 165 204 247 301
#
# _framework density 17.289477999999999
#
# number of rings (size 3 to 8) (size 9 to 14) (size 15 to 20)
#    0.000    2.667    0.000    6.000    0.000    3.333 
#    0.000    1.667    0.000    8.000    0.000    0.000 
#    0.000    0.000    0.000    0.000    0.000    0.000 
#
# Total GULP energy -133762.245306 kJ/mol
# GULP energy per Si atom -5573.426888 kJ/mol
# Density = 1.725013 g / cm^3
# Si number density = 17.289478 Si / 1000 Ang^3
#
#
#
# Elastic Constant Matrix: (Units=GPa)
#
#
# Indices 1 2 3 4 5 6 
#
# 1 103.4623 51.2102 65.4389 0.0000 12.9413 0.0000
# 2 51.2102 74.6213 68.6821 0.0000 10.4124 0.0000
# 3 65.4389 68.6821 148.3023 0.0000 13.7783 0.0000
# 4 0.0000 0.0000 0.0000 2.1189 0.0000 60.9296
# 5 12.9413 10.4124 13.7783 0.0000 30.3697 0.0000
# 6 0.0000 0.0000 0.0000 60.9296 0.0000 -100.1364
#
#
#
# Elastic Compliance Matrix: (Units=1/GPa)
#
#
# Indices 1 2 3 4 5 6 
#
# 1 0.015736 -0.007431 -0.003253 0.000000 -0.002682 0.000000
# 2 -0.007431 0.027175 -0.009119 0.000000 -0.002013 0.000000
# 3 -0.003253 -0.009119 0.012510 0.000000 -0.001163 0.000000
# 4 0.000000 0.000000 0.000000 0.025515 0.000000 0.015525
# 5 -0.002682 -0.002013 -0.001163 0.000000 0.035288 0.000000
# 6 0.000000 0.000000 0.000000 0.015525 0.000000 -0.000540
#
#
# Mechanical properties :
#
#
# Convention : Reuss Voigt Hill
#
# Bulk Modulus (GPa) = 63.23345 77.44982 70.34163
# Shear Modulus (GPa) = 31.14035 -4.12591 13.50722
#
# Velocity S-wave (km/s) = 4.24856 -1.54646 2.79810
# Velocity P-wave (km/s) = 7.79229 6.45790 7.15626
#
# Compressibility (1/GPa) = 0.01581442
#
# Stress axis : x y z
#
# Youngs Moduli (GPa) = 63.54667 36.79833 79.93675
#
# Poissons Ratio (x) = 0.27345 0.26005
# Poissons Ratio (y) = 0.47221 0.72898
# Poissons Ratio (z) = 0.20673 0.33558
#
# Static dielectric constant tensor:
#      x y z
#    x 1.594190 0.000000 -0.000800 
#    y 0.000000 1.591000 0.000000 
#    z -0.000800 0.000000 1.592840 
# 
# From -- ./inp_files/20276.got.cif
#   From: 2010.05.17/outbox.cif.g08.bks.cpg/sg10_11_cif.got.tgz:20276.got - 2010.06.03 11:33:40.
