data_PCOD9154803
_publ_section_title
;
Structure prediction by ZEFSAII (Michael W. Deem and Ramdas Pophale) SiO2 
 PCOD9154803
Probable space group: P 2/M
;
_chemical_formula_sum "Si O2"
_cell_formula_units_Z 19
_cell_length_a 4.975408
_cell_length_b 8.867394
_cell_length_c 22.526807
_cell_angle_alpha 90.000000
_cell_angle_beta 119.505921
_cell_angle_gamma 90.000000
_cell_volume 864.959404
_symmetry_space_group_name_H-M "P 2/M"
_symmetry_group_IT_number 10
_symmetry_cell_setting 'monoclinic'
loop_
_space_group_symop_operation_xyz
x,y,z
-x,y,-z
-x,-y,-z
x,-y,z
loop_
_atom_site_type_symbol
_atom_site_label
_atom_site_fract_x
_atom_site_fract_y
_atom_site_fract_z
Si Si1 0.854707 0.500000 0.047908
Si Si2 0.242567 0.768490 0.128088
Si Si3 0.000000 0.000000 0.000000
Si Si4 0.729223 0.819400 0.645914
Si Si5 0.958494 0.682862 0.208859
Si Si6 0.067156 0.321466 0.577141
O O1 0.982873 0.641216 0.095178
O O2 0.500000 0.500000 0.000000
O O3 0.000000 0.500000 0.000000
O O4 0.592482 0.713907 0.157998
O O5 0.170966 0.794812 0.190066
O O6 0.144719 0.873551 0.062364
O O7 0.390372 0.759836 0.625595
O O8 0.965887 0.739531 0.716882
O O9 0.811046 0.758025 0.589557
O O10 0.749243 0.000000 0.650914
O O11 0.019907 0.500000 0.212483
O O12 0.083081 0.500000 0.592881
O O13 0.000000 0.306591 0.500000
#
# Coordination Sequence:
#
# PCOD9154803 Si02
#       6
#     2   4   1   4   4   4
#     4  12  22  44  68  94 122 162 221 278 335 414
#     4  12  27  44  69  97 130 175 225 280 354 413
#     4  12  32  44  68  98 140 172 214 290 356 416
#     4  12  27  44  71 110 151 188 238 303 369 423
#     4  12  25  47  73  98 134 182 235 286 344 424
#     4  11  24  46  75 106 146 199 250 293 346 423
#
# _framework density 21.966348
#
# number of rings (size 3 to 8) (size 9 to 14) (size 15 to 20)
#    0.000    0.211    3.158    5.684    2.947    5.053 
#    0.000    0.000    0.000    0.000    0.000    0.000 
#    0.000    0.000    0.000    0.000    0.000    0.000 
#
# Total GULP energy -105786.346072 kJ/mol
# GULP energy per Si atom -5567.702425 kJ/mol
# Density = 2.191635 g / cm^3
# Si number density = 21.966348 Si / 1000 Ang^3
#
#
#
# Elastic Constant Matrix: (Units=GPa)
#
#
# Indices 1 2 3 4 5 6 
#
# 1 107.5503 6.4582 4.2641 0.0000 2.1151 0.0000
# 2 6.4582 143.0842 47.1693 0.0000 3.9283 0.0000
# 3 4.2641 47.1693 84.7951 0.0000 -0.9372 0.0000
# 4 0.0000 0.0000 0.0000 21.6306 0.0000 15.6779
# 5 2.1151 3.9283 -0.9372 0.0000 45.3343 0.0000
# 6 0.0000 0.0000 0.0000 15.6779 0.0000 -14.2299
#
#
#
# Elastic Compliance Matrix: (Units=1/GPa)
#
#
# Indices 1 2 3 4 5 6 
#
# 1 0.009337 -0.000311 -0.000301 0.000000 -0.000415 0.000000
# 2 -0.000311 0.008601 -0.004778 0.000000 -0.000830 0.000000
# 3 -0.000301 -0.004778 0.014474 0.000000 0.000727 0.000000
# 4 0.000000 0.000000 0.000000 0.025704 0.000000 0.028320
# 5 -0.000415 -0.000830 0.000727 0.000000 0.022165 0.000000
# 6 0.000000 0.000000 0.000000 0.028320 0.000000 -0.039073
#
#
# Mechanical properties :
#
#
# Convention : Reuss Voigt Hill
#
# Bulk Modulus (GPa) = 46.22809 50.13475 48.18142
# Shear Modulus (GPa) = 84.46165 29.04952 56.75559
#
# Velocity S-wave (km/s) = 6.20757 3.64050 5.08858
# Velocity P-wave (km/s) = 8.51289 6.36742 7.51709
#
# Compressibility (1/GPa) = 0.02163187
#
# Stress axis : x y z
#
# Youngs Moduli (GPa) = 107.10379 116.26833 69.08855
#
# Poissons Ratio (x) = 0.03613 0.02081
# Poissons Ratio (y) = 0.03328 0.33010
# Poissons Ratio (z) = 0.03227 0.55552
#
# Static dielectric constant tensor:
#      x y z
#    x 1.932570 0.000000 -0.196780 
#    y 0.000000 1.778190 0.000000 
#    z -0.196780 0.000000 1.994410 
# 
# From -- ./inp_files/87368.got.cif
#   From: 2010.05.17/outbox.cif.g08.bks.cpg/sg10_44_cif.got.tgz:87368.got - 2010.06.03 11:33:40.
