data_PCOD9154810
_publ_section_title
;
Structure prediction by ZEFSAII (Michael W. Deem and Ramdas Pophale) SiO2 
 PCOD9154810
Probable space group: P 2/M
;
_chemical_formula_sum "Si O2"
_cell_formula_units_Z 28
_cell_length_a 21.531306
_cell_length_b 7.602140
_cell_length_c 24.282029
_cell_angle_alpha 90.000000
_cell_angle_beta 161.258256
_cell_angle_gamma 90.000000
_cell_volume 1277.044439
_symmetry_space_group_name_H-M "P 2/M"
_symmetry_group_IT_number 10
_symmetry_cell_setting 'monoclinic'
loop_
_space_group_symop_operation_xyz
x,y,z
-x,y,-z
-x,-y,-z
x,-y,z
loop_
_atom_site_type_symbol
_atom_site_label
_atom_site_fract_x
_atom_site_fract_y
_atom_site_fract_z
Si Si1 0.849181 0.201652 0.416231
Si Si2 0.551320 0.210957 0.389090
Si Si3 0.893388 0.708817 0.964451
Si Si4 0.064610 0.789038 0.226837
Si Si5 0.550328 0.798348 0.983278
Si Si6 0.150524 0.201331 0.851509
Si Si7 0.253475 0.798669 0.552490
O O1 0.648273 0.191414 0.216092
O O2 0.802719 0.284306 0.436408
O O3 0.000000 0.283439 0.500000
O O4 0.922301 0.000000 0.488845
O O5 0.332794 0.243560 0.223212
O O6 0.722518 0.273414 0.574180
O O7 0.595252 0.279906 0.364032
O O8 0.573980 0.000000 0.404321
O O9 0.900360 0.500000 0.966755
O O10 0.000000 0.783440 0.000000
O O11 0.004022 0.756401 0.113605
O O12 0.901580 0.720097 0.132801
O O13 0.064976 0.000000 0.234623
O O14 0.621931 0.000000 0.055387
O O15 0.500000 0.716562 0.000000
O O16 0.703782 0.715694 0.070093
O O17 0.943842 0.192836 0.647949
O O18 0.222969 0.000000 0.921399
O O19 0.318258 0.000000 0.619828
#
# Coordination Sequence:
#
# PCOD9154810 Si02
#       7
#     4   4   4   4   4   4   4
#     4   9  15  20  29  50  85 131 171 202 246 306
#     4   9  19  36  59  85 111 143 183 228 277 327
#     4  11  25  41  57  81 113 147 181 223 277 335
#     4   9  19  36  59  85 111 143 183 228 277 327
#     4   9  15  20  29  50  85 131 171 202 246 306
#     4   8  14  25  41  63  92 127 167 212 260 310
#     4   8  14  25  41  63  92 127 167 212 260 310
#
# _framework density 21.925626000000001
#
# number of rings (size 3 to 8) (size 9 to 14) (size 15 to 20)
#    0.000    3.000    0.000    3.000    2.000    5.714 
#    0.000    2.857    0.000    0.000    0.000    0.000 
#    0.000    1.143    0.571    0.000    1.714    0.000 
#
# Total GULP energy -156038.970446 kJ/mol
# GULP energy per Si atom -5572.820373 kJ/mol
# Density = 2.187572 g / cm^3
# Si number density = 21.925626 Si / 1000 Ang^3
#
#
#
# Elastic Constant Matrix: (Units=GPa)
#
#
# Indices 1 2 3 4 5 6 
#
# 1 262.0934 12.0508 95.2387 0.0000 13.0002 0.0000
# 2 12.0508 50.3835 4.0476 0.0000 1.6021 0.0000
# 3 95.2387 4.0476 100.4790 0.0000 19.8205 0.0000
# 4 0.0000 0.0000 0.0000 -282.9223 0.0000 61.4359
# 5 13.0002 1.6021 19.8205 0.0000 49.9818 0.0000
# 6 0.0000 0.0000 0.0000 61.4359 0.0000 19.4681
#
#
#
# Elastic Compliance Matrix: (Units=1/GPa)
#
#
# Indices 1 2 3 4 5 6 
#
# 1 0.005892 -0.000976 -0.005695 0.000000 0.000757 0.000000
# 2 -0.000976 0.020079 0.000209 0.000000 -0.000473 0.000000
# 3 -0.005695 0.000209 0.016328 0.000000 -0.005000 0.000000
# 4 0.000000 0.000000 0.000000 -0.002097 0.000000 0.006619
# 5 0.000757 -0.000473 -0.005000 0.000000 0.021808 0.000000
# 6 0.000000 0.000000 0.000000 0.006619 0.000000 0.030480
#
#
# Mechanical properties :
#
#
# Convention : Reuss Voigt Hill
#
# Bulk Modulus (GPa) = 34.04030 70.62558 52.33294
# Shear Modulus (GPa) = 43.40070 -22.58655 10.40707
#
# Velocity S-wave (km/s) = 4.45393 -3.21307 2.18102
# Velocity P-wave (km/s) = 6.48144 4.30306 5.50115
#
# Compressibility (1/GPa) = 0.02937695
#
# Stress axis : x y z
#
# Youngs Moduli (GPa) = 169.71781 49.80233 61.24392
#
# Poissons Ratio (x) = 0.04860 0.34878
# Poissons Ratio (y) = 0.16562 -0.01282
# Poissons Ratio (z) = 0.96652 -0.01043
#
# Static dielectric constant tensor:
#      x y z
#    x 1.875060 0.000000 0.028770 
#    y 0.000000 1.861020 0.000000 
#    z 0.028770 0.000000 1.733700 
# 
# From -- ./inp_files/90403.got.cif
#   From: 2010.05.17/outbox.cif.g08.bks.cpg/sg10_46_cif.got.tgz:90403.got - 2010.06.03 11:33:40.
