data_PCOD9154990
_publ_section_title
;
Structure prediction by ZEFSAII (Michael W. Deem and Ramdas Pophale) SiO2 
 PCOD9154990
Probable space group: P 2/M
;
_chemical_formula_sum "Si O2"
_cell_formula_units_Z 28
_cell_length_a 11.140675
_cell_length_b 14.561175
_cell_length_c 11.999468
_cell_angle_alpha 90.000000
_cell_angle_beta 145.006602
_cell_angle_gamma 90.000000
_cell_volume 1116.322667
_symmetry_space_group_name_H-M "P 2/M"
_symmetry_group_IT_number 10
_symmetry_cell_setting 'monoclinic'
loop_
_space_group_symop_operation_xyz
x,y,z
-x,y,-z
-x,-y,-z
x,-y,z
loop_
_atom_site_type_symbol
_atom_site_label
_atom_site_fract_x
_atom_site_fract_y
_atom_site_fract_z
Si Si1 0.333662 0.392195 0.233152
Si Si2 0.975405 0.897004 0.280014
Si Si3 0.843084 0.287930 0.245830
Si Si4 0.399741 0.103194 0.170972
Si Si5 0.435616 0.716540 0.770454
Si Si6 0.254440 0.107015 0.288128
Si Si7 0.076293 0.392314 0.238882
O O1 0.383354 0.500000 0.282596
O O2 0.511129 0.340727 0.299018
O O3 0.261839 0.355795 0.299707
O O4 0.128860 0.386776 0.997401
O O5 0.126953 0.859190 0.296786
O O6 0.931005 0.814416 0.328236
O O7 0.036859 0.000000 0.364406
O O8 0.752050 0.906785 0.048346
O O9 0.751426 0.318991 0.294488
O O10 0.012661 0.344580 0.305018
O O11 0.641190 0.286350 0.008121
O O12 0.575571 0.176717 0.275424
O O13 0.252178 0.141720 0.159468
O O14 0.472466 0.000000 0.257665
O O15 0.500000 0.111890 0.500000
O O16 0.186572 0.000000 0.230328
O O17 0.114971 0.500000 0.287956
#
# Coordination Sequence:
#
# PCOD9154990 Si02
#       7
#     4   4   4   4   4   4   4
#     4   8  14  24  37  54  80 116 152 184 223 269
#     4   9  17  28  43  64  91 121 151 183 222 267
#     4   9  17  26  38  60  88 119 153 186 221 263
#     4   9  17  28  43  64  91 121 151 183 222 267
#     4   9  17  26  38  60  88 119 153 186 221 263
#     4   9  17  29  45  65  88 115 152 194 229 261
#     4   8  14  24  37  54  80 116 152 184 223 269
#
# _framework density 25.082353000000001
#
# number of rings (size 3 to 8) (size 9 to 14) (size 15 to 20)
#    0.000    3.286    0.000    1.286    2.000    2.857 
#    0.000    5.714    0.000    0.857    0.000    4.000 
#    0.000    2.286    0.000    2.571    0.000    2.857 
#
# Total GULP energy -156452.819393 kJ/mol
# GULP energy per Si atom -5587.600693 kJ/mol
# Density = 2.502526 g / cm^3
# Si number density = 25.082353 Si / 1000 Ang^3
#
#
#
# Elastic Constant Matrix: (Units=GPa)
#
#
# Indices 1 2 3 4 5 6 
#
# 1 238.9179 96.0221 32.4765 0.0000 6.0872 0.0000
# 2 96.0221 84.2630 8.3283 0.0000 1.1955 0.0000
# 3 32.4765 8.3283 85.0788 0.0000 -0.3321 0.0000
# 4 0.0000 0.0000 0.0000 -7.8536 0.0000 2.8268
# 5 6.0872 1.1955 -0.3321 0.0000 41.7245 0.0000
# 6 0.0000 0.0000 0.0000 2.8268 0.0000 16.0844
#
#
#
# Elastic Compliance Matrix: (Units=1/GPa)
#
#
# Indices 1 2 3 4 5 6 
#
# 1 0.008153 -0.009056 -0.002229 0.000000 -0.000948 0.000000
# 2 -0.009056 0.022049 0.001301 0.000000 0.000700 0.000000
# 3 -0.002229 0.001301 0.012479 0.000000 0.000387 0.000000
# 4 0.000000 0.000000 0.000000 -0.119755 0.000000 0.021047
# 5 -0.000948 0.000700 0.000387 0.000000 0.024088 0.000000
# 6 0.000000 0.000000 0.000000 0.021047 0.000000 0.058473
#
#
# Mechanical properties :
#
#
# Convention : Reuss Voigt Hill
#
# Bulk Modulus (GPa) = 44.02906 75.76816 59.89861
# Shear Modulus (GPa) = 151.39347 28.08657 89.74002
#
# Velocity S-wave (km/s) = 7.77751 3.34993 5.98797
# Velocity P-wave (km/s) = 9.91185 6.72578 8.46997
#
# Compressibility (1/GPa) = 0.02271227
#
# Stress axis : x y z
#
# Youngs Moduli (GPa) = 122.66131 45.35276 80.13555
#
# Poissons Ratio (x) = 0.41074 0.17864
# Poissons Ratio (y) = 1.11088 -0.10429
# Poissons Ratio (z) = 0.27343 -0.05902
#
# Static dielectric constant tensor:
#      x y z
#    x 1.976810 0.000000 0.007160 
#    y 0.000000 1.966060 0.000000 
#    z 0.007160 0.000000 2.043080 
# 
# From -- ./inp_files/64942.got.cif
#   From: 2010.05.17/outbox.cif.g08.bks.cpg/sg10_33_cif.got.tgz:64942.got - 2010.06.03 11:33:40.
