data_PCOD9154577
_publ_section_title
;
Structure prediction by ZEFSAII (Michael W. Deem and Ramdas Pophale) SiO2 
 PCOD9154577
Probable space group: P 2/M
;
_chemical_formula_sum "Si O2"
_cell_formula_units_Z 32
_cell_length_a 11.703952
_cell_length_b 8.311437
_cell_length_c 28.451767
_cell_angle_alpha 90.000000
_cell_angle_beta 35.777186
_cell_angle_gamma 90.000000
_cell_volume 1618.089227
_symmetry_space_group_name_H-M "P 2/M"
_symmetry_group_IT_number 10
_symmetry_cell_setting 'monoclinic'
loop_
_space_group_symop_operation_xyz
x,y,z
-x,y,-z
-x,-y,-z
x,-y,z
loop_
_atom_site_type_symbol
_atom_site_label
_atom_site_fract_x
_atom_site_fract_y
_atom_site_fract_z
Si Si1 0.061057 0.695886 0.754259
Si Si2 0.300387 0.805646 0.378360
Si Si3 0.831145 0.191605 0.091162
Si Si4 0.271443 0.308703 0.776414
Si Si5 0.390341 0.695689 0.082711
Si Si6 0.556758 0.694483 0.829911
Si Si7 0.901158 0.806515 0.461019
Si Si8 0.005659 0.306300 0.669000
O O1 0.073171 0.500000 0.749516
O O2 0.197939 0.755238 0.750491
O O3 0.092462 0.750168 0.690052
O O4 0.837893 0.737967 0.841375
O O5 0.503227 0.738153 0.292874
O O6 0.253726 0.754454 0.447671
O O7 0.114174 0.754623 0.409493
O O8 0.307909 0.000000 0.374588
O O9 0.850137 0.247731 0.138484
O O10 0.618657 0.243208 0.143142
O O11 0.840147 0.000000 0.087617
O O12 0.000000 0.255640 0.000000
O O13 0.254324 0.500000 0.781510
O O14 0.399660 0.500000 0.079025
O O15 0.474257 0.745423 0.105346
O O16 0.500000 0.756120 0.000000
O O17 0.555469 0.500000 0.828486
O O18 0.777167 0.747313 0.742607
O O19 0.880115 0.747096 0.415255
O O20 0.900262 0.000000 0.461283
O O21 0.001594 0.500000 0.671479
#
# Coordination Sequence:
#
# PCOD9154577 Si02
#       8
#     4   4   4   4   4   4   4   4
#     4   8  17  32  48  74 107 137 169 211 265 317
#     4   9  19  36  55  78 110 143 173 213 264 312
#     4  11  25  40  52  71 105 145 176 210 263 315
#     4  11  22  36  57  80 105 137 177 217 259 315
#     4   8  14  26  49  77 101 127 164 214 266 304
#     4   9  18  32  53  80 103 128 172 218 259 309
#     4   9  18  33  55  80 105 139 181 216 254 310
#     4   9  17  32  53  79 109 136 167 217 270 309
#
# _framework density 19.776412000000001
#
# number of rings (size 3 to 8) (size 9 to 14) (size 15 to 20)
#    0.000    2.750    0.000    3.750    1.750    4.500 
#    0.000    3.125    0.000    5.625    0.000    0.000 
#    0.000    0.000    0.000    0.000    0.000    0.000 
#
# Total GULP energy -178486.937920 kJ/mol
# GULP energy per Si atom -5577.716810 kJ/mol
# Density = 1.973140 g / cm^3
# Si number density = 19.776412 Si / 1000 Ang^3
#
#
#
# Elastic Constant Matrix: (Units=GPa)
#
#
# Indices 1 2 3 4 5 6 
#
# 1 78.2074 11.0116 34.2721 0.0000 19.7498 0.0000
# 2 11.0116 11.7358 8.2853 0.0000 4.0135 0.0000
# 3 34.2721 8.2853 76.6923 0.0000 32.7143 0.0000
# 4 0.0000 0.0000 0.0000 36.6250 0.0000 -0.3804
# 5 19.7498 4.0135 32.7143 0.0000 33.2854 0.0000
# 6 0.0000 0.0000 0.0000 -0.3804 0.0000 9.2422
#
#
#
# Elastic Compliance Matrix: (Units=1/GPa)
#
#
# Indices 1 2 3 4 5 6 
#
# 1 0.017616 -0.011683 -0.004739 0.000000 -0.004386 0.000000
# 2 -0.011683 0.100095 -0.005857 0.000000 0.000619 0.000000
# 3 -0.004739 -0.005857 0.024604 0.000000 -0.020664 0.000000
# 4 0.000000 0.000000 0.000000 0.027315 0.000000 0.001124
# 5 -0.004386 0.000619 -0.020664 0.000000 0.052880 0.000000
# 6 0.000000 0.000000 0.000000 0.001124 0.000000 0.108245
#
#
# Mechanical properties :
#
#
# Convention : Reuss Voigt Hill
#
# Bulk Modulus (GPa) = 10.22950 30.41928 20.32439
# Shear Modulus (GPa) = 12.25793 23.36828 17.81310
#
# Velocity S-wave (km/s) = 2.49233 3.44120 3.00446
# Velocity P-wave (km/s) = 3.66962 5.58607 4.72601
#
# Compressibility (1/GPa) = 0.09775646
#
# Stress axis : x y z
#
# Youngs Moduli (GPa) = 56.76706 9.99054 40.64360
#
# Poissons Ratio (x) = 0.11672 0.19262
# Poissons Ratio (y) = 0.66322 0.23804
# Poissons Ratio (z) = 0.26903 0.05851
#
# Static dielectric constant tensor:
#      x y z
#    x 1.722100 0.000000 0.027610 
#    y 0.000000 1.691180 0.000000 
#    z 0.027610 0.000000 1.684950 
# 
# From -- ./inp_files/94927.got.cif
#   From: 2010.05.17/outbox.cif.g08.bks.cpg/sg10_48_cif.got.tgz:94927.got - 2010.06.03 11:33:40.
