data_PCOD9154630
_publ_section_title
;
Structure prediction by ZEFSAII (Michael W. Deem and Ramdas Pophale) SiO2 
 PCOD9154630
Probable space group: P 2/M
;
_chemical_formula_sum "Si O2"
_cell_formula_units_Z 24
_cell_length_a 9.706234
_cell_length_b 19.694501
_cell_length_c 9.706233
_cell_angle_alpha 90.000000
_cell_angle_beta 46.132818
_cell_angle_gamma 90.000000
_cell_volume 1337.674628
_symmetry_space_group_name_H-M "P 2/M"
_symmetry_group_IT_number 10
_symmetry_cell_setting 'monoclinic'
loop_
_space_group_symop_operation_xyz
x,y,z
-x,y,-z
-x,-y,-z
x,-y,z
loop_
_atom_site_type_symbol
_atom_site_label
_atom_site_fract_x
_atom_site_fract_y
_atom_site_fract_z
Si Si1 0.954304 0.827833 0.870024
Si Si2 0.629976 0.827833 0.545695
Si Si3 0.589578 0.920931 0.089578
Si Si4 0.591143 0.422666 0.091143
Si Si5 0.884882 0.317258 0.794387
Si Si6 0.294387 0.317258 0.384883
O O1 0.878975 0.753156 0.880715
O O2 0.149926 0.839645 0.649926
O O3 0.792089 0.882661 0.951127
O O4 0.000000 0.829226 0.000000
O O5 0.500000 0.829226 0.500000
O O6 0.548873 0.882661 0.707912
O O7 0.619285 0.753156 0.621025
O O8 0.611281 0.000000 0.111281
O O9 0.500000 0.916229 0.000000
O O10 0.618375 0.500000 0.118375
O O11 0.443515 0.378650 0.283004
O O12 0.500000 0.425418 0.000000
O O13 0.783003 0.378650 0.943515
O O14 0.774135 0.307492 0.725865
O O15 0.104126 0.332252 0.604126
#
# Coordination Sequence:
#
# PCOD9154630 Si02
#       6
#     4   4   4   4   4   4
#     4  11  22  39  61  90 117 155 198 244 293 343
#     4  11  22  39  61  90 117 155 198 244 293 343
#     4  11  25  43  63  89 122 157 192 237 293 352
#     4   9  17  29  49  79 113 148 186 233 288 343
#     4   9  18  32  53  80 109 144 190 242 287 336
#     4   9  18  32  53  80 109 144 190 242 287 336
#
# _framework density 17.941583999999999
#
# number of rings (size 3 to 8) (size 9 to 14) (size 15 to 20)
#    0.000    2.000    1.667    2.000    0.000    5.333 
#    0.000    5.000    0.000    1.000    0.000    0.000 
#    0.000    0.000    0.000    0.000    0.000    0.000 
#
# Total GULP energy -134005.661463 kJ/mol
# GULP energy per Si atom -5583.569228 kJ/mol
# Density = 1.790075 g / cm^3
# Si number density = 17.941584 Si / 1000 Ang^3
#
#
#
# Elastic Constant Matrix: (Units=GPa)
#
#
# Indices 1 2 3 4 5 6 
#
# 1 57.6385 71.8331 44.2132 0.0000 -11.8783 0.0000
# 2 71.8331 200.9185 106.7802 0.0000 -20.8242 0.0000
# 3 44.2132 106.7802 105.4738 0.0000 -16.6258 0.0000
# 4 0.0000 0.0000 0.0000 -43.2079 0.0000 13.7485
# 5 -11.8783 -20.8242 -16.6258 0.0000 19.5087 0.0000
# 6 0.0000 0.0000 0.0000 13.7485 0.0000 -20.1351
#
#
#
# Elastic Compliance Matrix: (Units=1/GPa)
#
#
# Indices 1 2 3 4 5 6 
#
# 1 0.032928 -0.009287 -0.003238 0.000000 0.007376 0.000000
# 2 -0.009287 0.013504 -0.009701 0.000000 0.000493 0.000000
# 3 -0.003238 -0.009701 0.021621 0.000000 0.006099 0.000000
# 4 0.000000 0.000000 0.000000 -0.029568 0.000000 -0.020189
# 5 0.007376 0.000493 0.006099 0.000000 0.061474 0.000000
# 6 0.000000 0.000000 0.000000 -0.020189 0.000000 -0.063450
#
#
# Mechanical properties :
#
#
# Convention : Reuss Voigt Hill
#
# Bulk Modulus (GPa) = 42.37153 89.96488 66.16820
# Shear Modulus (GPa) = 56.28938 0.64676 28.46807
#
# Velocity S-wave (km/s) = 5.60730 0.60105 3.98767
# Velocity P-wave (km/s) = 8.09877 7.12276 7.62640
#
# Compressibility (1/GPa) = 0.02360075
#
# Stress axis : x y z
#
# Youngs Moduli (GPa) = 30.36971 74.05193 46.25220
#
# Poissons Ratio (x) = 0.68772 0.14977
# Poissons Ratio (y) = 0.28204 0.44868
# Poissons Ratio (z) = 0.09834 0.71835
#
# Static dielectric constant tensor:
#      x y z
#    x 1.596430 0.000000 -0.010440 
#    y 0.000000 1.581880 0.000000 
#    z -0.010440 0.000000 1.613960 
# 
# From -- ./inp_files/20131.got.cif
#   From: 2010.05.17/outbox.cif.g08.bks.cpg/sg10_11_cif.got.tgz:20131.got - 2010.06.03 11:33:40.
