data_PCOD9154698
_publ_section_title
;
Structure prediction by ZEFSAII (Michael W. Deem and Ramdas Pophale) SiO2 
 PCOD9154698
Probable space group: P 2/M
;
_chemical_formula_sum "Si O2"
_cell_formula_units_Z 24
_cell_length_a 8.852442
_cell_length_b 14.152130
_cell_length_c 20.294012
_cell_angle_alpha 90.000000
_cell_angle_beta 149.812352
_cell_angle_gamma 90.000000
_cell_volume 1278.430469
_symmetry_space_group_name_H-M "P 2/M"
_symmetry_group_IT_number 10
_symmetry_cell_setting 'monoclinic'
loop_
_space_group_symop_operation_xyz
x,y,z
-x,y,-z
-x,-y,-z
x,-y,z
loop_
_atom_site_type_symbol
_atom_site_label
_atom_site_fract_x
_atom_site_fract_y
_atom_site_fract_z
Si Si1 0.357590 0.792721 0.133843
Si Si2 0.640639 0.110128 0.366668
Si Si3 0.672541 0.786374 0.633383
Si Si4 0.314351 0.887340 0.864476
Si Si5 0.550597 0.608881 0.907975
Si Si6 0.999598 0.390817 0.196737
O O1 0.496077 0.828805 0.253915
O O2 0.498191 0.854629 0.127961
O O3 0.438454 0.684920 0.145508
O O4 0.000000 0.802864 0.000000
O O5 0.518996 0.149502 0.389545
O O6 0.000000 0.116818 0.500000
O O7 0.555976 0.000000 0.326598
O O8 0.500000 0.774584 0.500000
O O9 0.993551 0.836645 0.743703
O O10 0.745933 0.685377 0.693842
O O11 0.274409 0.000000 0.849417
O O12 0.500000 0.860105 0.000000
O O13 0.570451 0.500000 0.893583
O O14 0.251112 0.618576 0.839833
O O15 0.824346 0.627605 0.062188
O O16 0.099476 0.500000 0.234140
#
# Coordination Sequence:
#
# PCOD9154698 Si02
#       6
#     4   4   4   4   4   4
#     4  12  23  37  62  91 126 161 197 250 308 362
#     4  11  26  45  61  84 124 167 204 248 310 370
#     4  12  24  40  66  92 118 160 211 259 304 361
#     4  11  23  39  61  89 120 157 209 260 300 355
#     4   9  18  35  63  93 122 158 201 249 301 361
#     4   9  18  36  63  94 124 155 198 253 306 356
#
# _framework density 18.773019999999999
#
# number of rings (size 3 to 8) (size 9 to 14) (size 15 to 20)
#    0.000    1.333    1.667    6.000    0.000    6.000 
#    0.000    0.833    0.000    1.000    0.000    0.000 
#    0.000    0.000    0.000    0.000    0.000    0.000 
#
# Total GULP energy -134222.517890 kJ/mol
# GULP energy per Si atom -5592.604912 kJ/mol
# Density = 1.873029 g / cm^3
# Si number density = 18.773020 Si / 1000 Ang^3
#
#
#
# Elastic Constant Matrix: (Units=GPa)
#
#
# Indices 1 2 3 4 5 6 
#
# 1 57.1822 30.8904 4.8997 0.0000 0.2494 0.0000
# 2 30.8904 133.4983 58.5504 0.0000 -6.4924 0.0000
# 3 4.8997 58.5504 65.5376 0.0000 -5.9973 0.0000
# 4 0.0000 0.0000 0.0000 4.6392 0.0000 9.7715
# 5 0.2494 -6.4924 -5.9973 0.0000 29.4231 0.0000
# 6 0.0000 0.0000 0.0000 9.7715 0.0000 -0.6197
#
#
#
# Elastic Compliance Matrix: (Units=1/GPa)
#
#
# Indices 1 2 3 4 5 6 
#
# 1 0.020782 -0.006797 0.004448 0.000000 -0.000769 0.000000
# 2 -0.006797 0.014547 -0.012420 0.000000 0.000736 0.000000
# 3 0.004448 -0.012420 0.026258 0.000000 0.002574 0.000000
# 4 0.000000 0.000000 0.000000 0.006301 0.000000 0.099347
# 5 -0.000769 0.000736 0.002574 0.000000 0.034680 0.000000
# 6 0.000000 0.000000 0.000000 0.099347 0.000000 -0.047167
#
#
# Mechanical properties :
#
#
# Convention : Reuss Voigt Hill
#
# Bulk Modulus (GPa) = 31.20307 49.43322 40.31815
# Shear Modulus (GPa) = 52.28967 17.48036 34.88502
#
# Velocity S-wave (km/s) = 5.28338 3.05477 4.31542
# Velocity P-wave (km/s) = 7.34003 6.23149 6.80836
#
# Compressibility (1/GPa) = 0.03204812
#
# Stress axis : x y z
#
# Youngs Moduli (GPa) = 48.11833 68.74397 38.08432
#
# Poissons Ratio (x) = 0.46727 -0.16942
# Poissons Ratio (y) = 0.32707 0.47302
# Poissons Ratio (z) = -0.21405 0.85382
#
# Static dielectric constant tensor:
#      x y z
#    x 1.633360 0.000000 0.005070 
#    y 0.000000 1.658370 0.000000 
#    z 0.005070 0.000000 1.611220 
# 
# From -- ./inp_files/61963.got.cif
#   From: 2010.05.17/outbox.cif.g08.bks.cpg/sg10_31_cif.got.tgz:61963.got - 2010.06.03 11:33:40.
