data_PCOD9154929
_publ_section_title
;
Structure prediction by ZEFSAII (Michael W. Deem and Ramdas Pophale) SiO2 
 PCOD9154929
Probable space group: P 2/M
;
_chemical_formula_sum "Si O2"
_cell_formula_units_Z 32
_cell_length_a 24.019429
_cell_length_b 7.428864
_cell_length_c 6.933796
_cell_angle_alpha 90.000000
_cell_angle_beta 95.042451
_cell_angle_gamma 90.000000
_cell_volume 1232.457923
_symmetry_space_group_name_H-M "P 2/M"
_symmetry_group_IT_number 10
_symmetry_cell_setting 'monoclinic'
loop_
_space_group_symop_operation_xyz
x,y,z
-x,y,-z
-x,-y,-z
x,-y,z
loop_
_atom_site_type_symbol
_atom_site_label
_atom_site_fract_x
_atom_site_fract_y
_atom_site_fract_z
Si Si1 0.336984 0.721156 0.617762
Si Si2 0.867025 0.207642 0.807133
Si Si3 0.105217 0.285970 0.739778
Si Si4 0.557989 0.279794 0.607519
Si Si5 0.368600 0.289327 0.048331
Si Si6 0.781398 0.291264 0.358672
Si Si7 0.247766 0.783436 0.097886
Si Si8 0.984445 0.215926 0.777674
O O1 0.333967 0.500000 0.615762
O O2 0.388840 0.773009 0.503584
O O3 0.273928 0.788239 0.558889
O O4 0.353640 0.786144 0.836589
O O5 0.804104 0.284032 0.787104
O O6 0.922005 0.290066 0.723276
O O7 0.862272 0.000000 0.750670
O O8 0.883223 0.210487 0.041543
O O9 0.111631 0.500000 0.755513
O O10 0.155535 0.215971 0.619230
O O11 0.040464 0.250199 0.673032
O O12 0.500000 0.217594 0.500000
O O13 0.555936 0.500000 0.608900
O O14 0.577246 0.218443 0.825062
O O15 0.379013 0.500000 0.020676
O O16 0.311235 0.275757 0.154948
O O17 0.784839 0.500000 0.411619
O O18 0.765874 0.281388 0.124556
O O19 0.246482 0.000000 0.096380
O O20 0.978768 0.000000 0.780970
O O21 0.000000 0.278704 0.000000
#
# Coordination Sequence:
#
# PCOD9154929 Si02
#       8
#     4   4   4   4   4   4   4   4
#     4   8  14  26  43  63  90 120 146 178 220 257
#     4   8  14  22  30  43  67 101 138 174 213 256
#     4   9  14  18  27  45  69  99 136 174 213 256
#     4   9  17  28  45  71  96 117 146 180 212 254
#     4   9  17  29  45  66  92 118 144 179 221 259
#     4   8  14  24  37  55  81 111 142 180 224 262
#     4   9  15  24  40  59  79 108 147 184 218 260
#     4   8  13  20  27  38  64 101 136 171 213 257
#
# _framework density 25.964376999999999
#
# number of rings (size 3 to 8) (size 9 to 14) (size 15 to 20)
#    0.000    3.500    0.000    2.250    0.000    3.750 
#    0.000    2.500    0.000    3.375    0.000    3.500 
#    0.000    1.000    0.000   12.625    0.000   21.250 
#
# Total GULP energy -178715.082588 kJ/mol
# GULP energy per Si atom -5584.846331 kJ/mol
# Density = 2.590528 g / cm^3
# Si number density = 25.964377 Si / 1000 Ang^3
#
#
#
# Elastic Constant Matrix: (Units=GPa)
#
#
# Indices 1 2 3 4 5 6 
#
# 1 170.0083 -7.0375 49.5066 0.0000 32.6326 0.0000
# 2 -7.0375 108.2536 9.5506 0.0000 2.8577 0.0000
# 3 49.5066 9.5506 69.1170 0.0000 14.7096 0.0000
# 4 0.0000 0.0000 0.0000 10.1838 0.0000 -10.1945
# 5 32.6326 2.8577 14.7096 0.0000 50.2586 0.0000
# 6 0.0000 0.0000 0.0000 -10.1945 0.0000 14.2291
#
#
#
# Elastic Compliance Matrix: (Units=1/GPa)
#
#
# Indices 1 2 3 4 5 6 
#
# 1 0.008178 0.001091 -0.005188 0.000000 -0.003853 0.000000
# 2 0.001091 0.009498 -0.001950 0.000000 -0.000678 0.000000
# 3 -0.005188 -0.001950 0.018890 0.000000 -0.002049 0.000000
# 4 0.000000 0.000000 0.000000 0.347232 0.000000 0.248775
# 5 -0.003853 -0.000678 -0.002049 0.000000 0.023037 0.000000
# 6 0.000000 0.000000 0.000000 0.248775 0.000000 0.248514
#
#
# Mechanical properties :
#
#
# Convention : Reuss Voigt Hill
#
# Bulk Modulus (GPa) = 40.86249 50.15760 45.51004
# Shear Modulus (GPa) = 7.40083 34.62490 21.01286
#
# Velocity S-wave (km/s) = 1.69014 3.65575 2.84790
# Velocity P-wave (km/s) = 4.42502 6.09747 5.32729
#
# Compressibility (1/GPa) = 0.02447232
#
# Stress axis : x y z
#
# Youngs Moduli (GPa) = 122.28461 105.28083 52.93845
#
# Poissons Ratio (x) = -0.11487 0.27465
# Poissons Ratio (y) = -0.13342 0.10322
# Poissons Ratio (z) = 0.63443 0.20527
#
# Static dielectric constant tensor:
#      x y z
#    x 2.060110 0.000000 -0.010650 
#    y 0.000000 1.961060 0.000000 
#    z -0.010650 0.000000 2.115460 
# 
# From -- ./inp_files/35693.got.cif
#   From: 2010.05.17/outbox.cif.g08.bks.cpg/sg10_18_cif.got.tgz:35693.got - 2010.06.03 11:33:40.
