data_PCOD9154004
_publ_section_title
;
Structure prediction by ZEFSAII (Michael W. Deem and Ramdas Pophale) SiO2 
 PCOD9154004
Probable space group: P 2/M
;
_chemical_formula_sum "Si O2"
_cell_formula_units_Z 16
_cell_length_a 11.135947
_cell_length_b 11.193855
_cell_length_c 6.526075
_cell_angle_alpha 90.000000
_cell_angle_beta 121.252362
_cell_angle_gamma 90.000000
_cell_volume 695.455547
_symmetry_space_group_name_H-M "P 2/M"
_symmetry_group_IT_number 10
_symmetry_cell_setting 'monoclinic'
loop_
_space_group_symop_operation_xyz
x,y,z
-x,y,-z
-x,-y,-z
x,-y,z
loop_
_atom_site_type_symbol
_atom_site_label
_atom_site_fract_x
_atom_site_fract_y
_atom_site_fract_z
Si Si1 0.128674 0.861443 0.274055
Si Si2 0.959726 0.500000 0.735641
Si Si3 0.000000 0.287268 0.500000
Si Si4 0.500000 0.699352 0.000000
Si Si5 0.625937 0.861657 0.774820
Si Si6 0.614608 0.500000 0.405958
O O1 0.103292 0.798198 0.466954
O O2 0.251158 0.804191 0.249988
O O3 0.163418 0.000000 0.346207
O O4 0.000000 0.859371 0.000000
O O5 0.035054 0.384149 0.704307
O O6 0.787198 0.500000 0.576547
O O7 0.000000 0.500000 0.000000
O O8 0.403589 0.785792 0.050826
O O9 0.577413 0.614700 0.232472
O O10 0.500000 0.864640 0.500000
O O11 0.659524 0.000000 0.859983
O O12 0.500000 0.500000 0.500000
#
# Coordination Sequence:
#
# PCOD9154004 Si02
#       6
#     4   2   2   2   4   2
#     4  10  23  42  69 104 139 175 224 285 347 416
#     4  11  28  50  70 102 138 184 238 294 351 410
#     4  11  25  44  70  98 137 183 224 280 344 415
#     4  11  25  44  74 104 137 185 232 284 354 415
#     4  10  23  43  69 106 144 179 224 284 347 415
#     4  11  28  48  72 103 139 180 240 298 346 410
#
# _framework density 23.006504
#
# number of rings (size 3 to 8) (size 9 to 14) (size 15 to 20)
#    0.000    1.500    0.000    2.250   10.500    4.000 
#    0.000    7.500    0.000    0.000    0.000    0.000 
#    0.000    0.000    0.000    0.000    0.000    0.000 
#
# Total GULP energy -89296.879821 kJ/mol
# GULP energy per Si atom -5581.054989 kJ/mol
# Density = 2.295414 g / cm^3
# Si number density = 23.006504 Si / 1000 Ang^3
#
#
#
# Elastic Constant Matrix: (Units=GPa)
#
#
# Indices 1 2 3 4 5 6 
#
# 1 183.8190 60.5940 67.5918 0.0000 -54.4285 0.0000
# 2 60.5940 125.2533 46.5556 0.0000 -45.4467 0.0000
# 3 67.5918 46.5556 106.5014 0.0000 -36.4187 0.0000
# 4 0.0000 0.0000 0.0000 66.0188 0.0000 -80.2302
# 5 -54.4285 -45.4467 -36.4187 0.0000 57.9426 0.0000
# 6 0.0000 0.0000 0.0000 -80.2302 0.0000 87.3390
#
#
#
# Elastic Compliance Matrix: (Units=1/GPa)
#
#
# Indices 1 2 3 4 5 6 
#
# 1 0.008473 -0.001059 -0.003155 0.000000 0.005145 0.000000
# 2 -0.001059 0.011796 -0.002115 0.000000 0.006927 0.000000
# 3 -0.003155 -0.002115 0.013675 0.000000 0.003972 0.000000
# 4 0.000000 0.000000 0.000000 -0.130188 0.000000 -0.119591
# 5 0.005145 0.006927 0.003972 0.000000 0.030022 0.000000
# 6 0.000000 0.000000 0.000000 -0.119591 0.000000 -0.098408
#
#
# Mechanical properties :
#
#
# Convention : Reuss Voigt Hill
#
# Bulk Modulus (GPa) = 46.98190 85.00628 65.99409
# Shear Modulus (GPa) = -34.51241 58.31556 11.90157
#
# Velocity S-wave (km/s) = -3.87733 5.04008 2.27692
# Velocity P-wave (km/s) = 0.64847 8.42015 5.97158
#
# Compressibility (1/GPa) = 0.02128479
#
# Stress axis : x y z
#
# Youngs Moduli (GPa) = 118.02320 84.77352 73.12703
#
# Poissons Ratio (x) = 0.08981 0.23070
# Poissons Ratio (y) = 0.12504 0.15468
# Poissons Ratio (z) = 0.37234 0.17932
#
# Static dielectric constant tensor:
#      x y z
#    x 1.758560 0.000000 0.017650 
#    y 0.000000 1.896520 0.000000 
#    z 0.017650 0.000000 1.656930 
# 
# From -- ./inp_files/6398.got.cif
#   From: 2010.05.17/outbox.cif.g08.bks.cpg/sg10_4_cif.got.tgz:6398.got - 2010.06.03 11:33:40.
