data_PCOD9154872
_publ_section_title
;
Structure prediction by ZEFSAII (Michael W. Deem and Ramdas Pophale) SiO2 
 PCOD9154872
Probable space group: P 2/M
;
_chemical_formula_sum "Si O2"
_cell_formula_units_Z 24
_cell_length_a 6.731737
_cell_length_b 8.499506
_cell_length_c 15.331681
_cell_angle_alpha 90.000000
_cell_angle_beta 90.702901
_cell_angle_gamma 90.000000
_cell_volume 877.158180
_symmetry_space_group_name_H-M "P 2/M"
_symmetry_group_IT_number 10
_symmetry_cell_setting 'monoclinic'
loop_
_space_group_symop_operation_xyz
x,y,z
-x,y,-z
-x,-y,-z
x,-y,z
loop_
_atom_site_type_symbol
_atom_site_label
_atom_site_fract_x
_atom_site_fract_y
_atom_site_fract_z
Si Si1 0.704893 0.500000 0.326622
Si Si2 0.895796 0.173745 0.904730
Si Si3 0.581371 0.830503 0.104050
Si Si4 0.334309 0.831794 0.690729
Si Si5 0.242754 0.500000 0.383342
Si Si6 0.860083 0.500000 0.817393
Si Si7 0.315604 0.172027 0.431451
Si Si8 0.398929 0.500000 0.875760
O O1 0.774173 0.677378 0.346602
O O2 0.481915 0.500000 0.366405
O O3 0.696096 0.500000 0.221099
O O4 0.656221 0.170988 0.905198
O O5 0.945142 0.333691 0.852490
O O6 0.948241 0.000000 0.866033
O O7 0.000000 0.181379 0.000000
O O8 0.645604 0.828970 0.205338
O O9 0.648806 0.658741 0.073077
O O10 0.648743 0.000000 0.069451
O O11 0.563711 0.827674 0.659608
O O12 0.248914 0.000000 0.662321
O O13 0.144106 0.500000 0.287417
O O14 0.202359 0.337045 0.432976
O O15 0.632345 0.500000 0.851453
O O16 0.500000 0.177606 0.500000
O O17 0.218177 0.000000 0.440326
#
# Coordination Sequence:
#
# PCOD9154872 Si02
#       8
#     2   4   4   4   2   2   4   2
#     4   7  10  15  21  27  31  35  43  51  55  57
#     4   9  15  20  25  32  39  43  46  53  62  67
#     4   8  12  17  23  28  33  40  47  51  54  61
#     4   8  12  17  23  28  33  40  47  51  54  61
#     4   9  15  21  27  31  35  43  51  55  57  63
#     4   9  15  21  27  31  35  43  51  55  57  63
#     4   9  15  20  25  32  39  43  46  53  62  67
#     4   7  10  15  21  27  31  35  43  51  55  57
#
# _framework density 27.361087000000001
#
# number of rings (size 3 to 8) (size 9 to 14) (size 15 to 20)
#    0.000    3.667    0.000    3.500    0.000    2.000 
#    0.000    0.000    0.000    0.000    0.000    0.000 
#    0.000    0.000    0.000    0.000    0.000    0.000 
#
# Total GULP energy -134049.787201 kJ/mol
# GULP energy per Si atom -5585.407800 kJ/mol
# Density = 2.729881 g / cm^3
# Si number density = 27.361087 Si / 1000 Ang^3
#
#
#
# Elastic Constant Matrix: (Units=GPa)
#
#
# Indices 1 2 3 4 5 6 
#
# 1 111.0885 27.4841 7.8077 0.0000 22.5290 0.0000
# 2 27.4841 396.6229 56.6616 0.0000 8.4197 0.0000
# 3 7.8077 56.6616 82.5409 0.0000 2.8969 0.0000
# 4 0.0000 0.0000 0.0000 24.4125 0.0000 3.2411
# 5 22.5290 8.4197 2.8969 0.0000 31.7488 0.0000
# 6 0.0000 0.0000 0.0000 3.2411 0.0000 -6.6425
#
#
#
# Elastic Compliance Matrix: (Units=1/GPa)
#
#
# Indices 1 2 3 4 5 6 
#
# 1 0.010658 -0.000526 -0.000388 0.000000 -0.007388 0.000000
# 2 -0.000526 0.002832 -0.001887 0.000000 -0.000205 0.000000
# 3 -0.000388 -0.001887 0.013463 0.000000 -0.000453 0.000000
# 4 0.000000 0.000000 0.000000 0.038470 0.000000 0.018771
# 5 -0.007388 -0.000205 -0.000453 0.000000 0.036835 0.000000
# 6 0.000000 0.000000 0.000000 0.018771 0.000000 -0.141388
#
#
# Mechanical properties :
#
#
# Convention : Reuss Voigt Hill
#
# Bulk Modulus (GPa) = 46.83664 86.01766 66.42715
# Shear Modulus (GPa) = -189.31326 43.12369 -73.09478
#
# Velocity S-wave (km/s) = -8.32712 3.97431 -5.17425
# Velocity P-wave (km/s) = 8.67752 7.25027 3.37142
#
# Compressibility (1/GPa) = 0.02135081
#
# Stress axis : x y z
#
# Youngs Moduli (GPa) = 93.83043 353.14795 74.27749
#
# Poissons Ratio (x) = 0.18587 0.02878
# Poissons Ratio (y) = 0.04939 0.14015
# Poissons Ratio (z) = 0.03636 0.66634
#
# Static dielectric constant tensor:
#      x y z
#    x 2.132340 0.000000 -0.018460 
#    y 0.000000 2.194700 0.000000 
#    z -0.018460 0.000000 2.078580 
# 
# From -- ./inp_files/75784.got.cif
#   From: 2010.05.17/outbox.cif.g08.bks.cpg/sg10_38_cif.got.tgz:75784.got - 2010.06.03 11:33:40.
