data_PCOD9154013
_publ_section_title
;
Structure prediction by ZEFSAII (Michael W. Deem and Ramdas Pophale) SiO2 
 PCOD9154013
Probable space group: P 2/M
;
_chemical_formula_sum "Si O2"
_cell_formula_units_Z 32
_cell_length_a 7.898638
_cell_length_b 14.051495
_cell_length_c 12.629313
_cell_angle_alpha 90.000000
_cell_angle_beta 75.114634
_cell_angle_gamma 90.000000
_cell_volume 1354.659481
_symmetry_space_group_name_H-M "P 2/M"
_symmetry_group_IT_number 10
_symmetry_cell_setting 'monoclinic'
loop_
_space_group_symop_operation_xyz
x,y,z
-x,y,-z
-x,-y,-z
x,-y,z
loop_
_atom_site_type_symbol
_atom_site_label
_atom_site_fract_x
_atom_site_fract_y
_atom_site_fract_z
Si Si1 0.323434 0.114248 0.687605
Si Si2 0.280246 0.888468 0.148741
Si Si3 0.325850 0.609892 0.133217
Si Si4 0.836781 0.759514 0.462448
Si Si5 0.353292 0.243387 0.303469
Si Si6 0.807906 0.384558 0.064419
Si Si7 0.709406 0.111490 0.080385
Si Si8 0.916046 0.390606 0.269923
O O1 0.753816 0.157259 0.406080
O O2 0.504531 0.169157 0.676474
O O3 0.223435 0.139421 0.814562
O O4 0.342869 0.000000 0.681300
O O5 0.221636 0.822152 0.254069
O O6 0.495395 0.881679 0.114408
O O7 0.236542 0.000000 0.169656
O O8 0.223537 0.850455 0.042515
O O9 0.386775 0.500000 0.131590
O O10 0.410464 0.678237 0.207656
O O11 0.118823 0.610130 0.199348
O O12 0.322838 0.640868 0.009836
O O13 0.721948 0.715032 0.576235
O O14 0.888502 0.677611 0.372454
O O15 0.000000 0.799747 0.500000
O O16 0.813398 0.500000 0.060456
O O17 0.795174 0.360207 0.189727
O O18 0.000000 0.349733 0.000000
O O19 0.747358 0.000000 0.065741
O O20 0.874302 0.500000 0.302965
#
# Coordination Sequence:
#
# PCOD9154013 Si02
#       8
#     4   4   4   4   4   4   4   4
#     4  10  23  43  64  82 112 153 192 242 298 347
#     4   8  14  27  52  82 110 135 176 231 278 333
#     4   9  17  32  57  88 121 151 184 235 290 342
#     4  12  25  39  56  85 115 150 206 249 275 339
#     4  11  21  35  57  86 116 154 197 232 279 348
#     4   7  12  26  52  85 114 147 190 227 277 348
#     4   7  12  28  54  82 103 132 178 225 278 343
#     4   9  18  36  60  83 116 158 192 234 290 339
#
# _framework density 23.622173
#
# number of rings (size 3 to 8) (size 9 to 14) (size 15 to 20)
#    0.000    2.875    1.250    3.750    0.000    3.500 
#    0.000    0.625    0.000    1.500    0.000   12.250 
#    0.000    0.000    0.000    0.000    0.000    0.000 
#
# Total GULP energy -178562.136272 kJ/mol
# GULP energy per Si atom -5580.066759 kJ/mol
# Density = 2.356841 g / cm^3
# Si number density = 23.622173 Si / 1000 Ang^3
#
#
#
# Elastic Constant Matrix: (Units=GPa)
#
#
# Indices 1 2 3 4 5 6 
#
# 1 64.8122 24.6300 42.6345 0.0000 27.4406 0.0000
# 2 24.6300 133.1627 41.3097 0.0000 22.4707 0.0000
# 3 42.6345 41.3097 184.2760 0.0000 40.6836 0.0000
# 4 0.0000 0.0000 0.0000 41.1328 0.0000 7.5776
# 5 27.4406 22.4707 40.6836 0.0000 36.1725 0.0000
# 6 0.0000 0.0000 0.0000 7.5776 0.0000 22.0745
#
#
#
# Elastic Compliance Matrix: (Units=1/GPa)
#
#
# Indices 1 2 3 4 5 6 
#
# 1 0.023438 -0.001242 -0.001848 0.000000 -0.014930 0.000000
# 2 -0.001242 0.008588 -0.000889 0.000000 -0.003393 0.000000
# 3 -0.001848 -0.000889 0.007479 0.000000 -0.006458 0.000000
# 4 0.000000 0.000000 0.000000 0.025953 0.000000 -0.008909
# 5 -0.014930 -0.003393 -0.006458 0.000000 0.048342 0.000000
# 6 0.000000 0.000000 0.000000 -0.008909 0.000000 0.048359
#
#
# Mechanical properties :
#
#
# Convention : Reuss Voigt Hill
#
# Bulk Modulus (GPa) = 31.69907 66.59991 49.14949
# Shear Modulus (GPa) = 27.68044 38.12107 32.90075
#
# Velocity S-wave (km/s) = 3.42687 4.02155 3.73606
# Velocity P-wave (km/s) = 5.39502 7.05825 6.28192
#
# Compressibility (1/GPa) = 0.03154667
#
# Stress axis : x y z
#
# Youngs Moduli (GPa) = 42.66550 116.44699 133.70471
#
# Poissons Ratio (x) = 0.14469 0.24709
# Poissons Ratio (y) = 0.05301 0.11881
# Poissons Ratio (z) = 0.07885 0.10348
#
# Static dielectric constant tensor:
#      x y z
#    x 2.027070 0.000000 -0.050080 
#    y 0.000000 1.876240 0.000000 
#    z -0.050080 0.000000 1.949110 
# 
# From -- ./inp_files/51273.got.cif
#   From: 2010.05.17/outbox.cif.g08.bks.cpg/sg10_26_cif.got.tgz:51273.got - 2010.06.03 11:33:40.
