data_PCOD9154676
_publ_section_title
;
Structure prediction by ZEFSAII (Michael W. Deem and Ramdas Pophale) SiO2 
 PCOD9154676
Probable space group: P 2/M
;
_chemical_formula_sum "Si O2"
_cell_formula_units_Z 32
_cell_length_a 18.287023
_cell_length_b 8.673252
_cell_length_c 12.693980
_cell_angle_alpha 90.000000
_cell_angle_beta 103.411913
_cell_angle_gamma 90.000000
_cell_volume 1958.457072
_symmetry_space_group_name_H-M "P 2/M"
_symmetry_group_IT_number 10
_symmetry_cell_setting 'monoclinic'
loop_
_space_group_symop_operation_xyz
x,y,z
-x,y,-z
-x,-y,-z
x,-y,z
loop_
_atom_site_type_symbol
_atom_site_label
_atom_site_fract_x
_atom_site_fract_y
_atom_site_fract_z
Si Si1 0.336228 0.186687 0.571335
Si Si2 0.334487 0.812996 0.321593
Si Si3 0.081094 0.184621 0.976702
Si Si4 0.499281 0.819860 0.371936
Si Si5 0.819249 0.683546 0.808675
Si Si6 0.928126 0.315369 0.260342
Si Si7 0.818012 0.315723 0.411630
Si Si8 0.090031 0.815873 0.360385
O O1 0.325834 0.223800 0.443396
O O2 0.419368 0.243738 0.633221
O O3 0.267178 0.256778 0.611315
O O4 0.335105 0.000000 0.578240
O O5 0.417522 0.757041 0.313812
O O6 0.265758 0.740621 0.236176
O O7 0.332176 0.000000 0.312954
O O8 0.083277 0.242919 0.858148
O O9 0.088120 0.000000 0.982170
O O10 0.144695 0.259966 0.070438
O O11 0.000000 0.225539 0.000000
O O12 0.500000 0.816869 0.500000
O O13 0.499091 0.000000 0.341095
O O14 0.823231 0.500000 0.801974
O O15 0.868168 0.757289 0.730630
O O16 0.933080 0.500000 0.252600
O O17 0.861135 0.276834 0.318365
O O18 0.006462 0.252874 0.332972
O O19 0.819690 0.500000 0.425628
O O20 0.863047 0.239874 0.523379
O O21 0.086672 0.000000 0.356987
#
# Coordination Sequence:
#
# PCOD9154676 Si02
#       8
#     4   4   4   4   4   4   4   4
#     4   9  16  28  49  74 103 140 176 208 249 302
#     4   9  16  29  49  74 105 137 173 213 251 301
#     4  11  23  39  59  79  99 129 174 220 260 306
#     4   7  12  24  44  71 101 135 171 207 249 297
#     4  12  23  34  53  78 107 139 171 211 263 312
#     4  11  24  40  56  75 102 137 174 215 263 310
#     4  11  23  36  51  76 109 141 173 211 258 309
#     4  12  23  36  54  76 102 137 179 217 255 301
#
# _framework density 16.339393999999999
#
# number of rings (size 3 to 8) (size 9 to 14) (size 15 to 20)
#    0.000    1.750    2.500    5.250    0.000    4.000 
#    0.000    0.625    0.000    2.250    0.000    0.875 
#    0.000    7.000    0.000    0.000    0.000    0.000 
#
# Total GULP energy -178587.713839 kJ/mol
# GULP energy per Si atom -5580.866057 kJ/mol
# Density = 1.630221 g / cm^3
# Si number density = 16.339394 Si / 1000 Ang^3
#
#
#
# Elastic Constant Matrix: (Units=GPa)
#
#
# Indices 1 2 3 4 5 6 
#
# 1 152.1553 23.6301 38.0011 0.0000 5.7962 0.0000
# 2 23.6301 28.1693 13.0586 0.0000 2.3042 0.0000
# 3 38.0011 13.0586 39.4734 0.0000 -9.9227 0.0000
# 4 0.0000 0.0000 0.0000 -3.2573 0.0000 -34.4385
# 5 5.7962 2.3042 -9.9227 0.0000 16.5798 0.0000
# 6 0.0000 0.0000 0.0000 -34.4385 0.0000 -1.7066
#
#
#
# Elastic Compliance Matrix: (Units=1/GPa)
#
#
# Indices 1 2 3 4 5 6 
#
# 1 0.010235 -0.002352 -0.011644 0.000000 -0.010220 0.000000
# 2 -0.002352 0.046766 -0.017226 0.000000 -0.015987 0.000000
# 3 -0.011644 -0.017226 0.051636 0.000000 0.037368 0.000000
# 4 0.000000 0.000000 0.000000 0.001446 0.000000 -0.029174
# 5 -0.010220 -0.015987 0.037368 0.000000 0.088473 0.000000
# 6 0.000000 0.000000 0.000000 -0.029174 0.000000 0.002759
#
#
# Mechanical properties :
#
#
# Convention : Reuss Voigt Hill
#
# Bulk Modulus (GPa) = 21.64846 41.01972 31.33409
# Shear Modulus (GPa) = 17.91114 11.99705 14.95410
#
# Velocity S-wave (km/s) = 3.31447 2.71263 3.02854
# Velocity P-wave (km/s) = 5.28447 5.91358 5.60786
#
# Compressibility (1/GPa) = 0.04619267
#
# Stress axis : x y z
#
# Youngs Moduli (GPa) = 97.70390 21.38328 19.36641
#
# Poissons Ratio (x) = 0.05029 0.22551
# Poissons Ratio (y) = 0.22976 0.33360
# Poissons Ratio (z) = 1.13771 0.36834
#
# Static dielectric constant tensor:
#      x y z
#    x 1.573990 0.000000 0.000960 
#    y 0.000000 1.545950 0.000000 
#    z 0.000960 0.000000 1.511290 
# 
# From -- ./inp_files/52754.got.cif
#   From: 2010.05.17/outbox.cif.g08.bks.cpg/sg10_27_cif.got.tgz:52754.got - 2010.06.03 11:33:40.
