data_PCOD9154024
_publ_section_title
;
Structure prediction by ZEFSAII (Michael W. Deem and Ramdas Pophale) SiO2 
 PCOD9154024
Probable space group: P 2/M
;
_chemical_formula_sum "Si O2"
_cell_formula_units_Z 28
_cell_length_a 14.653992
_cell_length_b 8.873823
_cell_length_c 12.775709
_cell_angle_alpha 90.000000
_cell_angle_beta 121.747679
_cell_angle_gamma 90.000000
_cell_volume 1412.737462
_symmetry_space_group_name_H-M "P 2/M"
_symmetry_group_IT_number 10
_symmetry_cell_setting 'monoclinic'
loop_
_space_group_symop_operation_xyz
x,y,z
-x,y,-z
-x,-y,-z
x,-y,z
loop_
_atom_site_type_symbol
_atom_site_label
_atom_site_fract_x
_atom_site_fract_y
_atom_site_fract_z
Si Si1 0.613308 0.680484 0.016556
Si Si2 0.627230 0.821703 0.585305
Si Si3 0.007092 0.319986 0.691009
Si Si4 0.761758 0.679367 0.478739
Si Si5 0.784132 0.179153 0.274058
Si Si6 0.919475 0.824342 0.049074
Si Si7 0.303282 0.679366 0.154155
O O1 0.629923 0.500000 0.038661
O O2 0.708787 0.764190 0.134316
O O3 0.500000 0.720200 0.000000
O O4 0.617917 0.713403 0.895706
O O5 0.500000 0.796343 0.500000
O O6 0.688915 0.738521 0.529094
O O7 0.666153 0.761161 0.720688
O O8 0.648521 0.000000 0.590753
O O9 0.021666 0.500000 0.703754
O O10 0.098252 0.250284 0.671968
O O11 0.886352 0.288730 0.581339
O O12 0.027081 0.249082 0.816992
O O13 0.749049 0.500000 0.459208
O O14 0.736915 0.760129 0.354480
O O15 0.791032 0.000000 0.278478
O O16 0.812685 0.735036 0.954178
O O17 0.894171 0.000000 0.055181
O O18 0.000000 0.817792 0.000000
O O19 0.302328 0.500000 0.170671
#
# Coordination Sequence:
#
# PCOD9154024 Si02
#       7
#     4   4   4   4   4   4   4
#     4  10  23  43  67  97 130 169 216 265 318 380
#     4  11  26  46  67  95 132 170 214 268 325 383
#     4  11  23  41  64  94 129 169 216 264 318 382
#     4  11  25  44  68  95 129 172 220 268 318 381
#     4  12  25  41  66  99 134 171 212 263 326 386
#     4  11  23  38  61  93 130 170 209 261 323 380
#     4  11  23  41  67  96 128 169 215 264 317 378
#
# _framework density 19.819676000000001
#
# number of rings (size 3 to 8) (size 9 to 14) (size 15 to 20)
#    0.000    1.000    1.429    4.714    2.000    9.429 
#    0.000    0.000    0.000    0.000    0.000    0.000 
#    0.000    0.000    0.000    0.000    0.000    0.000 
#
# Total GULP energy -156721.215060 kJ/mol
# GULP energy per Si atom -5597.186252 kJ/mol
# Density = 1.977457 g / cm^3
# Si number density = 19.819676 Si / 1000 Ang^3
#
#
#
# Elastic Constant Matrix: (Units=GPa)
#
#
# Indices 1 2 3 4 5 6 
#
# 1 91.0379 34.0790 6.4395 0.0000 -21.3366 0.0000
# 2 34.0790 49.1321 22.7713 0.0000 -2.8220 0.0000
# 3 6.4395 22.7713 76.1815 0.0000 -25.4939 0.0000
# 4 0.0000 0.0000 0.0000 38.6989 0.0000 -9.1467
# 5 -21.3366 -2.8220 -25.4939 0.0000 31.2396 0.0000
# 6 0.0000 0.0000 0.0000 -9.1467 0.0000 34.2349
#
#
#
# Elastic Compliance Matrix: (Units=1/GPa)
#
#
# Indices 1 2 3 4 5 6 
#
# 1 0.023498 -0.020595 0.012268 0.000000 0.024201 0.000000
# 2 -0.020595 0.042256 -0.019700 0.000000 -0.026325 0.000000
# 3 0.012268 -0.019700 0.027771 0.000000 0.029263 0.000000
# 4 0.000000 0.000000 0.000000 0.027582 0.000000 0.007369
# 5 0.024201 -0.026325 0.029263 0.000000 0.070042 0.000000
# 6 0.000000 0.000000 0.000000 0.007369 0.000000 0.031179
#
#
# Mechanical properties :
#
#
# Convention : Reuss Voigt Hill
#
# Bulk Modulus (GPa) = 26.68597 38.10345 32.39471
# Shear Modulus (GPa) = 17.18976 31.03879 24.11428
#
# Velocity S-wave (km/s) = 2.94820 3.96164 3.49188
# Velocity P-wave (km/s) = 5.00828 6.33979 5.71296
#
# Compressibility (1/GPa) = 0.03747288
#
# Stress axis : x y z
#
# Youngs Moduli (GPa) = 42.55694 23.66509 36.00933
#
# Poissons Ratio (x) = 0.48737 -0.44177
# Poissons Ratio (y) = 0.87645 0.70937
# Poissons Ratio (z) = -0.52210 0.46619
#
# Static dielectric constant tensor:
#      x y z
#    x 1.687250 0.000000 -0.011750 
#    y 0.000000 1.661080 0.000000 
#    z -0.011750 0.000000 1.667960 
# 
# From -- ./inp_files/50067.got.cif
#   From: 2010.05.17/outbox.cif.g08.bks.cpg/sg10_26_cif.got.tgz:50067.got - 2010.06.03 11:33:40.
