data_PCOD9154369
_publ_section_title
;
Structure prediction by ZEFSAII (Michael W. Deem and Ramdas Pophale) SiO2 
 PCOD9154369
Probable space group: P 2/M
;
_chemical_formula_sum "Si O2"
_cell_formula_units_Z 32
_cell_length_a 21.904222
_cell_length_b 14.302391
_cell_length_c 10.073339
_cell_angle_alpha 90.000000
_cell_angle_beta 35.831715
_cell_angle_gamma 90.000000
_cell_volume 1847.427885
_symmetry_space_group_name_H-M "P 2/M"
_symmetry_group_IT_number 10
_symmetry_cell_setting 'monoclinic'
loop_
_space_group_symop_operation_xyz
x,y,z
-x,y,-z
-x,-y,-z
x,-y,z
loop_
_atom_site_type_symbol
_atom_site_label
_atom_site_fract_x
_atom_site_fract_y
_atom_site_fract_z
Si Si1 0.845993 0.704049 0.009031
Si Si2 0.170766 0.388270 0.674976
Si Si3 0.912610 0.295912 0.432808
Si Si4 0.890372 0.895392 0.365023
Si Si5 0.244145 0.611494 0.087897
Si Si6 0.857980 0.894945 0.117923
Si Si7 0.479818 0.386715 0.683780
Si Si8 0.406847 0.386312 0.259552
O O1 0.775889 0.659992 0.018198
O O2 0.965561 0.704833 0.746292
O O3 0.844601 0.644082 0.146957
O O4 0.816303 0.809280 0.105158
O O5 0.158528 0.500000 0.686663
O O6 0.097175 0.338085 0.698568
O O7 0.289798 0.360982 0.427608
O O8 0.869125 0.190296 0.499486
O O9 0.842744 0.355465 0.655310
O O10 0.842288 0.879426 0.303291
O O11 0.861962 0.000000 0.459798
O O12 0.016130 0.893805 0.123138
O O13 0.238017 0.500000 0.081085
O O14 0.360658 0.633916 0.933078
O O15 0.822050 0.000000 0.147534
O O16 0.500000 0.352118 0.500000
O O17 0.488381 0.500000 0.665174
O O18 0.562635 0.354370 0.646485
O O19 0.408140 0.500000 0.256082
O O20 0.500000 0.354904 0.000000
#
# Coordination Sequence:
#
# PCOD9154369 Si02
#       8
#     4   4   4   4   4   4   4   4
#     4  11  21  33  47  69 100 135 171 198 224 278
#     4  11  21  31  47  71  97 127 167 205 233 280
#     4  11  21  33  47  69 102 137 166 193 232 285
#     4   8  14  28  50  71  91 120 159 206 254 282
#     4  11  23  35  47  67 101 141 170 194 232 285
#     4   8  14  28  50  71  91 119 159 209 254 279
#     4   9  17  32  51  66  84 118 164 209 249 280
#     4   9  17  30  47  66  88 114 151 208 262 284
#
# _framework density 17.321379
#
# number of rings (size 3 to 8) (size 9 to 14) (size 15 to 20)
#    0.000    2.250    1.250    3.750    0.000    7.000 
#    0.000    0.625    0.000    3.000    0.000    0.000 
#    0.000   20.000    0.000    0.000    0.000    0.000 
#
# Total GULP energy -178448.823097 kJ/mol
# GULP energy per Si atom -5576.525722 kJ/mol
# Density = 1.728195 g / cm^3
# Si number density = 17.321379 Si / 1000 Ang^3
#
#
#
# Elastic Constant Matrix: (Units=GPa)
#
#
# Indices 1 2 3 4 5 6 
#
# 1 43.5123 11.6330 -12.1275 0.0000 -0.2235 0.0000
# 2 11.6330 80.6695 -4.8358 0.0000 -2.3026 0.0000
# 3 -12.1275 -4.8358 30.1552 0.0000 -2.5816 0.0000
# 4 0.0000 0.0000 0.0000 -0.1437 0.0000 11.3648
# 5 -0.2235 -2.3026 -2.5816 0.0000 20.6067 0.0000
# 6 0.0000 0.0000 0.0000 11.3648 0.0000 17.8772
#
#
#
# Elastic Compliance Matrix: (Units=1/GPa)
#
#
# Indices 1 2 3 4 5 6 
#
# 1 0.026726 -0.003199 0.010340 0.000000 0.001228 0.000000
# 2 -0.003199 0.012956 0.000922 0.000000 0.001529 0.000000
# 3 0.010340 0.000922 0.037893 0.000000 0.004962 0.000000
# 4 0.000000 0.000000 0.000000 -0.135712 0.000000 0.086274
# 5 0.001228 0.001529 0.004962 0.000000 0.049334 0.000000
# 6 0.000000 0.000000 0.000000 0.086274 0.000000 0.001091
#
#
# Mechanical properties :
#
#
# Convention : Reuss Voigt Hill
#
# Bulk Modulus (GPa) = 10.67216 15.96404 13.31810
# Shear Modulus (GPa) = 676.14552 18.31252 347.22902
#
# Velocity S-wave (km/s) = 19.77879 3.25502 14.17384
# Velocity P-wave (km/s) = 22.97336 4.83356 16.60028
#
# Compressibility (1/GPa) = 0.09370173
#
# Stress axis : x y z
#
# Youngs Moduli (GPa) = 37.41733 77.18141 26.39007
#
# Poissons Ratio (x) = 0.24691 -0.27288
# Poissons Ratio (y) = 0.11970 -0.02433
# Poissons Ratio (z) = -0.38691 -0.07117
#
# Static dielectric constant tensor:
#      x y z
#    x 1.581870 0.000000 0.009620 
#    y 0.000000 1.593350 0.000000 
#    z 0.009620 0.000000 1.604780 
# 
# From -- ./inp_files/35134.got.cif
#   From: 2010.05.17/outbox.cif.g08.bks.cpg/sg10_18_cif.got.tgz:35134.got - 2010.06.03 11:33:40.
