data_PCOD9154916
_publ_section_title
;
Structure prediction by ZEFSAII (Michael W. Deem and Ramdas Pophale) SiO2 
 PCOD9154916
Probable space group: P 2/M
;
_chemical_formula_sum "Si O2"
_cell_formula_units_Z 32
_cell_length_a 22.266309
_cell_length_b 7.293582
_cell_length_c 12.397660
_cell_angle_alpha 90.000000
_cell_angle_beta 35.734156
_cell_angle_gamma 90.000000
_cell_volume 1175.873016
_symmetry_space_group_name_H-M "P 2/M"
_symmetry_group_IT_number 10
_symmetry_cell_setting 'monoclinic'
loop_
_space_group_symop_operation_xyz
x,y,z
-x,y,-z
-x,-y,-z
x,-y,z
loop_
_atom_site_type_symbol
_atom_site_label
_atom_site_fract_x
_atom_site_fract_y
_atom_site_fract_z
Si Si1 0.996458 0.722446 0.628223
Si Si2 0.302090 0.279512 0.937498
Si Si3 0.074619 0.722740 0.047424
Si Si4 0.219730 0.278431 0.274120
Si Si5 0.494480 0.292604 0.236372
Si Si6 0.399070 0.213229 0.583166
Si Si7 0.656564 0.724732 0.711658
Si Si8 0.152124 0.722255 0.714160
O O1 0.982999 0.500000 0.642539
O O2 0.114357 0.764973 0.488048
O O3 0.000000 0.786996 0.500000
O O4 0.923191 0.785830 0.831575
O O5 0.298047 0.500000 0.940401
O O6 0.408667 0.215258 0.839769
O O7 0.308772 0.229676 0.802407
O O8 0.222179 0.218690 0.145871
O O9 0.082448 0.500000 0.039490
O O10 0.959581 0.768012 0.172421
O O11 0.150330 0.784558 0.841778
O O12 0.222058 0.500000 0.266997
O O13 0.314946 0.218630 0.208758
O O14 0.526630 0.500000 0.162904
O O15 0.403177 0.300368 0.459425
O O16 0.445630 0.211972 0.200179
O O17 0.500000 0.287877 0.500000
O O18 0.414804 0.000000 0.540216
O O19 0.652487 0.500000 0.717519
O O20 0.752688 0.782271 0.496720
O O21 0.155414 0.500000 0.709347
#
# Coordination Sequence:
#
# PCOD9154916 Si02
#       8
#     4   4   4   4   4   4   4   4
#     4   9  15  23  33  48  76 115 153 183 216 262
#     4   9  17  29  45  66  93 121 150 183 220 262
#     4   8  12  19  31  45  66 103 147 180 212 256
#     4   9  16  26  39  56  84 123 156 182 218 267
#     4   9  17  28  44  68  93 118 149 186 222 260
#     4   9  17  31  50  66  84 116 153 187 226 268
#     4   9  15  24  38  57  85 118 151 183 218 263
#     4   8  12  19  32  48  69 104 146 180 210 255
#
# _framework density 27.213822
#
# number of rings (size 3 to 8) (size 9 to 14) (size 15 to 20)
#    0.000    3.250    1.250    1.125    0.000    2.000 
#    2.250    2.500    0.000    0.750    0.000    3.500 
#    0.000    0.500    0.000    4.875    0.000    4.250 
#
# Total GULP energy -178756.700454 kJ/mol
# GULP energy per Si atom -5586.146889 kJ/mol
# Density = 2.715188 g / cm^3
# Si number density = 27.213822 Si / 1000 Ang^3
#
#
#
# Elastic Constant Matrix: (Units=GPa)
#
#
# Indices 1 2 3 4 5 6 
#
# 1 121.8598 -7.8443 19.9174 0.0000 35.0286 0.0000
# 2 -7.8443 114.7498 -5.4232 0.0000 1.2848 0.0000
# 3 19.9174 -5.4232 144.3623 0.0000 28.6755 0.0000
# 4 0.0000 0.0000 0.0000 562.3049 0.0000 149.7597
# 5 35.0286 1.2848 28.6755 0.0000 50.6794 0.0000
# 6 0.0000 0.0000 0.0000 149.7597 0.0000 9.5971
#
#
#
# Elastic Compliance Matrix: (Units=1/GPa)
#
#
# Indices 1 2 3 4 5 6 
#
# 1 0.010311 0.000786 0.000030 0.000000 -0.007164 0.000000
# 2 0.000786 0.008800 0.000422 0.000000 -0.001005 0.000000
# 3 0.000030 0.000422 0.007824 0.000000 -0.004459 0.000000
# 4 0.000000 0.000000 0.000000 -0.000563 0.000000 0.008793
# 5 -0.007164 -0.001005 -0.004459 0.000000 0.027232 0.000000
# 6 0.000000 0.000000 0.000000 0.008793 0.000000 -0.033016
#
#
# Mechanical properties :
#
#
# Convention : Reuss Voigt Hill
#
# Bulk Modulus (GPa) = 34.00049 43.80795 38.90422
# Shear Modulus (GPa) = 179.11563 149.47108 164.29335
#
# Velocity S-wave (km/s) = 8.12162 7.41916 7.77833
# Velocity P-wave (km/s) = 10.02341 9.46174 9.74662
#
# Compressibility (1/GPa) = 0.02941134
#
# Stress axis : x y z
#
# Youngs Moduli (GPa) = 96.98282 113.64198 127.80597
#
# Poissons Ratio (x) = -0.08938 -0.00382
# Poissons Ratio (y) = -0.07628 -0.05390
# Poissons Ratio (z) = -0.00290 -0.04793
#
# Static dielectric constant tensor:
#      x y z
#    x 2.153380 0.000000 -0.049680 
#    y 0.000000 2.124890 0.000000 
#    z -0.049680 0.000000 2.155520 
# 
# From -- ./inp_files/55665.got.cif
#   From: 2010.05.17/outbox.cif.g08.bks.cpg/sg10_28_cif.got.tgz:55665.got - 2010.06.03 11:33:40.
