data_PCOD9154738
_publ_section_title
;
Structure prediction by ZEFSAII (Michael W. Deem and Ramdas Pophale) SiO2 
 PCOD9154738
Probable space group: P 2/M
;
_chemical_formula_sum "Si O2"
_cell_formula_units_Z 13
_cell_length_a 5.348405
_cell_length_b 18.098105
_cell_length_c 5.344830
_cell_angle_alpha 90.000000
_cell_angle_beta 86.870715
_cell_angle_gamma 90.000000
_cell_volume 516.586706
_symmetry_space_group_name_H-M "P 2/M"
_symmetry_group_IT_number 10
_symmetry_cell_setting 'monoclinic'
loop_
_space_group_symop_operation_xyz
x,y,z
-x,y,-z
-x,-y,-z
x,-y,z
loop_
_atom_site_type_symbol
_atom_site_label
_atom_site_fract_x
_atom_site_fract_y
_atom_site_fract_z
Si Si1 0.669604 0.420676 0.239581
Si Si2 0.234723 0.739456 0.659129
Si Si3 0.256083 0.895120 0.859373
Si Si4 0.500000 0.000000 0.500000
O O1 0.500000 0.421072 0.500000
O O2 0.809025 0.500000 0.233720
O O3 0.813782 0.343327 0.238693
O O4 0.500000 0.418948 0.000000
O O5 0.500000 0.737700 0.500000
O O6 0.258529 0.806480 0.848875
O O7 0.000000 0.759145 0.500000
O O8 0.299481 0.934632 0.594203
O O9 0.500000 0.920608 0.000000
O O10 0.000000 0.917970 0.000000
#
# Coordination Sequence:
#
# PCOD9154738 Si02
#       4
#     4   4   4   1
#     4   9  19  38  67 103 145 193 247 305 368 437
#     4  11  23  44  71 101 144 190 240 303 366 438
#     4  12  27  47  75 107 142 191 245 300 375 449
#     4  12  28  50  76 104 152 180 242 314 370 454
#
# _framework density 25.165185000000001
#
# number of rings (size 3 to 8) (size 9 to 14) (size 15 to 20)
#    0.000    1.231    1.538    3.692    0.000    4.308 
#    0.000    0.000    0.000   17.538    0.000    0.000 
#    0.000    0.000    0.000    0.000    0.000    0.000 
#
# Total GULP energy -72496.236798 kJ/mol
# GULP energy per Si atom -5576.633600 kJ/mol
# Density = 2.510791 g / cm^3
# Si number density = 25.165185 Si / 1000 Ang^3
#
#
#
# Elastic Constant Matrix: (Units=GPa)
#
#
# Indices 1 2 3 4 5 6 
#
# 1 169.7956 21.7274 51.8164 0.0000 -20.9678 0.0000
# 2 21.7274 229.1741 9.6430 0.0000 -13.6751 0.0000
# 3 51.8164 9.6430 101.7306 0.0000 -24.2373 0.0000
# 4 0.0000 0.0000 0.0000 102.8722 0.0000 41.3641
# 5 -20.9678 -13.6751 -24.2373 0.0000 67.0750 0.0000
# 6 0.0000 0.0000 0.0000 41.3641 0.0000 -7.9981
#
#
#
# Elastic Compliance Matrix: (Units=1/GPa)
#
#
# Indices 1 2 3 4 5 6 
#
# 1 0.007084 -0.000477 -0.003347 0.000000 0.000908 0.000000
# 2 -0.000477 0.004454 0.000002 0.000000 0.000760 0.000000
# 3 -0.003347 0.000002 0.012348 0.000000 0.003416 0.000000
# 4 0.000000 0.000000 0.000000 0.003157 0.000000 0.016325
# 5 0.000908 0.000760 0.003416 0.000000 0.016582 0.000000
# 6 0.000000 0.000000 0.000000 0.016325 0.000000 -0.040600
#
#
# Mechanical properties :
#
#
# Convention : Reuss Voigt Hill
#
# Bulk Modulus (GPa) = 61.56638 74.11932 67.84285
# Shear Modulus (GPa) = 310.91311 60.22405 185.56858
#
# Velocity S-wave (km/s) = 11.12731 4.89729 8.59653
# Velocity P-wave (km/s) = 13.76980 7.84187 11.20497
#
# Compressibility (1/GPa) = 0.01624263
#
# Stress axis : x y z
#
# Youngs Moduli (GPa) = 141.16642 224.52016 80.98314
#
# Poissons Ratio (x) = 0.10701 0.27102
# Poissons Ratio (y) = 0.06728 -0.00013
# Poissons Ratio (z) = 0.47243 -0.00035
#
# Static dielectric constant tensor:
#      x y z
#    x 1.943110 0.000000 0.102280 
#    y 0.000000 2.014160 0.000000 
#    z 0.102280 0.000000 2.127270 
# 
# From -- ./inp_files/717.got.cif
#   From: 2010.05.17/outbox.cif.g08.bks.cpg/sg10_1_cif.got.tgz:717.got - 2010.06.03 11:33:40.
