data_PCOD9154460
_publ_section_title
;
Structure prediction by ZEFSAII (Michael W. Deem and Ramdas Pophale) SiO2 
 PCOD9154460
Probable space group: P 2/M
;
_chemical_formula_sum "Si O2"
_cell_formula_units_Z 20
_cell_length_a 7.500461
_cell_length_b 22.908482
_cell_length_c 8.679106
_cell_angle_alpha 90.000000
_cell_angle_beta 145.006103
_cell_angle_gamma 90.000000
_cell_volume 855.233078
_symmetry_space_group_name_H-M "P 2/M"
_symmetry_group_IT_number 10
_symmetry_cell_setting 'monoclinic'
loop_
_space_group_symop_operation_xyz
x,y,z
-x,y,-z
-x,-y,-z
x,-y,z
loop_
_atom_site_type_symbol
_atom_site_label
_atom_site_fract_x
_atom_site_fract_y
_atom_site_fract_z
Si Si1 0.710162 0.866317 0.991802
Si Si2 0.863607 0.751342 0.237163
Si Si3 0.319982 0.432323 0.631190
Si Si4 0.208023 0.934564 0.489507
Si Si5 0.950149 0.633159 0.140951
O O1 0.471382 0.885514 0.692642
O O2 0.500000 0.866854 0.000000
O O3 0.874002 0.803548 0.119733
O O4 0.967960 0.915934 0.189412
O O5 0.000000 0.769867 0.500000
O O6 0.500000 0.738860 0.000000
O O7 0.005075 0.690839 0.281320
O O8 0.411667 0.500000 0.703449
O O9 0.602973 0.393995 0.896865
O O10 0.000000 0.424254 0.500000
O O11 0.200221 0.413434 0.378149
O O12 0.000000 0.934171 0.500000
O O13 0.331211 0.000000 0.559704
O O14 0.000000 0.649251 0.000000
#
# Coordination Sequence:
#
# PCOD9154460 Si02
#       5
#     4   4   4   4   4
#     4   9  16  26  41  65  94 133 179 218 266 328
#     4  11  21  36  57  77 107 149 192 233 275 335
#     4  11  24  43  66  90 118 154 193 230 277 343
#     4   9  15  23  37  61  97 134 167 213 276 335
#     4  12  25  40  61  90 121 151 190 240 291 336
#
# _framework density 23.385435999999999
#
# number of rings (size 3 to 8) (size 9 to 14) (size 15 to 20)
#    0.000    1.600    0.000    8.400    0.000    6.400 
#    0.000    0.000    0.000    0.000    0.000    0.000 
#    0.000    4.800    0.000    0.000    0.000   17.200 
#
# Total GULP energy -111779.232450 kJ/mol
# GULP energy per Si atom -5588.961623 kJ/mol
# Density = 2.333221 g / cm^3
# Si number density = 23.385436 Si / 1000 Ang^3
#
#
#
# Elastic Constant Matrix: (Units=GPa)
#
#
# Indices 1 2 3 4 5 6 
#
# 1 32.4067 10.5372 8.7939 0.0000 0.4305 0.0000
# 2 10.5372 142.4724 30.6222 0.0000 10.8920 0.0000
# 3 8.7939 30.6222 117.1252 0.0000 13.9061 0.0000
# 4 0.0000 0.0000 0.0000 54.0618 0.0000 -0.0487
# 5 0.4305 10.8920 13.9061 0.0000 19.3725 0.0000
# 6 0.0000 0.0000 0.0000 -0.0487 0.0000 -17.4112
#
#
#
# Elastic Compliance Matrix: (Units=1/GPa)
#
#
# Indices 1 2 3 4 5 6 
#
# 1 0.032075 -0.002071 -0.002099 0.000000 0.001958 0.000000
# 2 -0.002071 0.007739 -0.001483 0.000000 -0.003240 0.000000
# 3 -0.002099 -0.001483 0.009815 0.000000 -0.006165 0.000000
# 4 0.000000 0.000000 0.000000 0.018497 0.000000 -0.000052
# 5 0.001958 -0.003240 -0.006165 0.000000 0.057823 0.000000
# 6 0.000000 0.000000 0.000000 -0.000052 0.000000 -0.057434
#
#
# Mechanical properties :
#
#
# Convention : Reuss Voigt Hill
#
# Bulk Modulus (GPa) = 26.09446 43.54563 34.82005
# Shear Modulus (GPa) = 53.99842 27.34136 40.66989
#
# Velocity S-wave (km/s) = 4.81048 3.42301 4.17479
# Velocity P-wave (km/s) = 6.48359 5.85525 6.17741
#
# Compressibility (1/GPa) = 0.03832231
#
# Stress axis : x y z
#
# Youngs Moduli (GPa) = 31.17717 129.22346 101.88274
#
# Poissons Ratio (x) = 0.26759 0.21389
# Poissons Ratio (y) = 0.06456 0.15110
# Poissons Ratio (z) = 0.06545 0.19164
#
# Static dielectric constant tensor:
#      x y z
#    x 2.008810 0.000000 -0.040390 
#    y 0.000000 1.877660 0.000000 
#    z -0.040390 0.000000 1.813210 
# 
# From -- ./inp_files/20656.got.cif
#   From: 2010.05.17/outbox.cif.g08.bks.cpg/sg10_11_cif.got.tgz:20656.got - 2010.06.03 11:33:40.
