data_PCOD9154377
_publ_section_title
;
Structure prediction by ZEFSAII (Michael W. Deem and Ramdas Pophale) SiO2 
 PCOD9154377
Probable space group: P 2/M
;
_chemical_formula_sum "Si O2"
_cell_formula_units_Z 24
_cell_length_a 17.847227
_cell_length_b 8.659833
_cell_length_c 11.537723
_cell_angle_alpha 90.000000
_cell_angle_beta 129.245124
_cell_angle_gamma 90.000000
_cell_volume 1380.993982
_symmetry_space_group_name_H-M "P 2/M"
_symmetry_group_IT_number 10
_symmetry_cell_setting 'monoclinic'
loop_
_space_group_symop_operation_xyz
x,y,z
-x,y,-z
-x,-y,-z
x,-y,z
loop_
_atom_site_type_symbol
_atom_site_label
_atom_site_fract_x
_atom_site_fract_y
_atom_site_fract_z
Si Si1 0.593903 0.182968 0.231314
Si Si2 0.887548 0.313077 0.884645
Si Si3 0.608501 0.671304 0.641326
Si Si4 0.610947 0.683318 0.990568
Si Si5 0.254839 0.822959 0.062947
Si Si6 0.744770 0.325010 0.552142
O O1 0.611759 0.235581 0.116652
O O2 0.686835 0.232104 0.398102
O O3 0.579700 0.000000 0.223757
O O4 0.492063 0.264463 0.167314
O O5 0.878301 0.500000 0.877395
O O6 0.829842 0.249852 0.940311
O O7 0.838174 0.261964 0.714165
O O8 0.000000 0.271680 0.000000
O O9 0.500000 0.696507 0.500000
O O10 0.618121 0.500000 0.708259
O O11 0.652732 0.803757 0.762451
O O12 0.669469 0.664397 0.584151
O O13 0.608673 0.500000 0.002899
O O14 0.705370 0.734316 0.010650
O O15 0.233509 0.000000 0.015532
O O16 0.765178 0.500000 0.529915
#
# Coordination Sequence:
#
# PCOD9154377 Si02
#       6
#     4   4   4   4   4   4
#     4  11  21  33  50  76 108 138 172 211 252 296
#     4   9  19  37  59  79 100 131 171 212 255 307
#     4   9  17  29  46  68  97 133 169 203 241 294
#     4  11  21  35  53  72 101 142 181 210 244 294
#     4  11  21  32  49  75 104 131 164 209 259 304
#     4   9  17  30  49  74 102 133 169 205 247 301
#
# _framework density 17.378788
#
# number of rings (size 3 to 8) (size 9 to 14) (size 15 to 20)
#    0.000    2.000    0.000    7.500    0.000    4.667 
#    0.000    0.000    0.000    1.000    0.000    7.000 
#    0.000    0.000    0.000    0.000    0.000    0.000 
#
# Total GULP energy -133734.219253 kJ/mol
# GULP energy per Si atom -5572.259136 kJ/mol
# Density = 1.733923 g / cm^3
# Si number density = 17.378788 Si / 1000 Ang^3
#
#
#
# Elastic Constant Matrix: (Units=GPa)
#
#
# Indices 1 2 3 4 5 6 
#
# 1 75.9708 12.9704 33.5861 0.0000 12.9477 0.0000
# 2 12.9704 68.4271 15.7760 0.0000 4.2450 0.0000
# 3 33.5861 15.7760 88.7819 0.0000 18.4646 0.0000
# 4 0.0000 0.0000 0.0000 9.6013 0.0000 -12.9326
# 5 12.9477 4.2450 18.4646 0.0000 26.9335 0.0000
# 6 0.0000 0.0000 0.0000 -12.9326 0.0000 35.9116
#
#
#
# Elastic Compliance Matrix: (Units=1/GPa)
#
#
# Indices 1 2 3 4 5 6 
#
# 1 0.016385 -0.001687 -0.005034 0.000000 -0.004160 0.000000
# 2 -0.001687 0.015421 -0.002059 0.000000 -0.000208 0.000000
# 3 -0.005034 -0.002059 0.015118 0.000000 -0.007620 0.000000
# 4 0.000000 0.000000 0.000000 0.202266 0.000000 0.072841
# 5 -0.004160 -0.000208 -0.007620 0.000000 0.044385 0.000000
# 6 0.000000 0.000000 0.000000 0.072841 0.000000 0.054078
#
#
# Mechanical properties :
#
#
# Convention : Reuss Voigt Hill
#
# Bulk Modulus (GPa) = 34.05279 39.76053 36.90666
# Shear Modulus (GPa) = 13.33323 25.87910 19.60617
#
# Velocity S-wave (km/s) = 2.77287 3.86310 3.36246
# Velocity P-wave (km/s) = 5.46706 6.54419 6.02973
#
# Compressibility (1/GPa) = 0.02936617
#
# Stress axis : x y z
#
# Youngs Moduli (GPa) = 61.03031 64.84470 66.14451
#
# Poissons Ratio (x) = 0.10941 0.33294
# Poissons Ratio (y) = 0.10297 0.13617
# Poissons Ratio (z) = 0.30720 0.13350
#
# Static dielectric constant tensor:
#      x y z
#    x 1.604240 0.000000 0.017940 
#    y 0.000000 1.629440 0.000000 
#    z 0.017940 0.000000 1.679730 
# 
# From -- ./inp_files/52865.got.cif
#   From: 2010.05.17/outbox.cif.g08.bks.cpg/sg10_27_cif.got.tgz:52865.got - 2010.06.03 11:33:40.
