data_PCOD9154920
_publ_section_title
;
Structure prediction by ZEFSAII (Michael W. Deem and Ramdas Pophale) SiO2 
 PCOD9154920
Probable space group: P 2/M
;
_chemical_formula_sum "Si O2"
_cell_formula_units_Z 16
_cell_length_a 6.334770
_cell_length_b 19.920935
_cell_length_c 8.973939
_cell_angle_alpha 90.000000
_cell_angle_beta 145.535579
_cell_angle_gamma 90.000000
_cell_volume 640.853936
_symmetry_space_group_name_H-M "P 2/M"
_symmetry_group_IT_number 10
_symmetry_cell_setting 'monoclinic'
loop_
_space_group_symop_operation_xyz
x,y,z
-x,y,-z
-x,-y,-z
x,-y,z
loop_
_atom_site_type_symbol
_atom_site_label
_atom_site_fract_x
_atom_site_fract_y
_atom_site_fract_z
Si Si1 0.353066 0.575476 0.092358
Si Si2 0.857486 0.647791 0.595647
Si Si3 0.941070 0.217918 0.787008
Si Si4 0.057212 0.928091 0.211078
O O1 0.500672 0.500000 0.192620
O O2 0.642950 0.631944 0.317806
O O3 0.000000 0.579070 0.000000
O O4 0.138333 0.590067 0.813726
O O5 0.500000 0.645805 0.500000
O O6 0.046826 0.719027 0.745645
O O7 0.500000 0.212020 0.500000
O O8 0.097048 0.144760 0.831955
O O9 0.000000 0.229933 0.000000
O O10 0.500000 0.928141 0.500000
O O11 0.914144 0.000000 0.188198
O O12 0.000000 0.928790 0.000000
#
# Coordination Sequence:
#
# PCOD9154920 Si02
#       4
#     4   4   4   4
#     4   9  15  20  24  28  33  39  45  51  56  60
#     4   9  14  19  24  29  34  39  45  50  55  60
#     4   9  14  19  25  30  35  40  44  49  54  59
#     4   8  13  19  25  31  36  40  44  48  53  59
#
# _framework density 24.96669
#
# number of rings (size 3 to 8) (size 9 to 14) (size 15 to 20)
#    0.000    3.250    0.000    4.500    0.000    3.000 
#    0.000    0.000    0.000    0.000    0.000    0.000 
#    0.000    0.000    0.000    0.000    0.000    0.000 
#
# Total GULP energy -89239.562985 kJ/mol
# GULP energy per Si atom -5577.472687 kJ/mol
# Density = 2.490986 g / cm^3
# Si number density = 24.966690 Si / 1000 Ang^3
#
#
#
# Elastic Constant Matrix: (Units=GPa)
#
#
# Indices 1 2 3 4 5 6 
#
# 1 49.8394 9.1632 46.3256 0.0000 -17.4810 0.0000
# 2 9.1632 227.7842 70.0977 0.0000 -8.5462 0.0000
# 3 46.3256 70.0977 166.9840 0.0000 -26.4055 0.0000
# 4 0.0000 0.0000 0.0000 25.5969 0.0000 -22.2471
# 5 -17.4810 -8.5462 -26.4055 0.0000 54.4448 0.0000
# 6 0.0000 0.0000 0.0000 -22.2471 0.0000 37.1450
#
#
#
# Elastic Compliance Matrix: (Units=1/GPa)
#
#
# Indices 1 2 3 4 5 6 
#
# 1 0.029024 0.001431 -0.007737 0.000000 0.005791 0.000000
# 2 0.001431 0.005115 -0.002539 0.000000 0.000031 0.000000
# 3 -0.007737 -0.002539 0.009471 0.000000 0.001711 0.000000
# 4 0.000000 0.000000 0.000000 0.081482 0.000000 0.048802
# 5 0.005791 0.000031 0.001711 0.000000 0.021061 0.000000
# 6 0.000000 0.000000 0.000000 0.048802 0.000000 0.056150
#
#
# Mechanical properties :
#
#
# Convention : Reuss Voigt Hill
#
# Bulk Modulus (GPa) = 38.58071 77.30897 57.94484
# Shear Modulus (GPa) = 21.86889 44.70541 33.28715
#
# Velocity S-wave (km/s) = 2.96281 4.23614 3.65535
# Velocity P-wave (km/s) = 5.21447 7.41341 6.40895
#
# Compressibility (1/GPa) = 0.02591969
#
# Stress axis : x y z
#
# Youngs Moduli (GPa) = 34.45427 195.49724 105.57993
#
# Poissons Ratio (x) = -0.27968 0.81685
# Poissons Ratio (y) = -0.04929 0.26810
# Poissons Ratio (z) = 0.26656 0.49643
#
# Static dielectric constant tensor:
#      x y z
#    x 2.259890 0.000000 0.047250 
#    y 0.000000 2.063820 0.000000 
#    z 0.047250 0.000000 1.867980 
# 
# From -- ./inp_files/65437.got.cif
#   From: 2010.05.17/outbox.cif.g08.bks.cpg/sg10_33_cif.got.tgz:65437.got - 2010.06.03 11:33:40.
