data_PCOD9154026
_publ_section_title
;
Structure prediction by ZEFSAII (Michael W. Deem and Ramdas Pophale) SiO2 
 PCOD9154026
Probable space group: P 2/M
;
_chemical_formula_sum "Si O2"
_cell_formula_units_Z 28
_cell_length_a 14.268780
_cell_length_b 9.138375
_cell_length_c 11.670787
_cell_angle_alpha 90.000000
_cell_angle_beta 58.551633
_cell_angle_gamma 90.000000
_cell_volume 1298.258986
_symmetry_space_group_name_H-M "P 2/M"
_symmetry_group_IT_number 10
_symmetry_cell_setting 'monoclinic'
loop_
_space_group_symop_operation_xyz
x,y,z
-x,y,-z
-x,-y,-z
x,-y,z
loop_
_atom_site_type_symbol
_atom_site_label
_atom_site_fract_x
_atom_site_fract_y
_atom_site_fract_z
Si Si1 0.638097 0.656831 0.282853
Si Si2 0.863325 0.000000 0.219425
Si Si3 0.541976 0.163203 0.726416
Si Si4 0.256627 0.754299 0.559751
Si Si5 0.878571 0.669212 0.567179
Si Si6 0.215584 0.328592 0.023167
Si Si7 0.664518 0.329271 0.833363
Si Si8 0.874429 0.000000 0.946722
O O1 0.583949 0.500000 0.294843
O O2 0.553553 0.776520 0.293505
O O3 0.674317 0.665163 0.390865
O O4 0.744161 0.666604 0.133157
O O5 0.812548 0.135982 0.318587
O O6 0.994193 0.000000 0.142334
O O7 0.833550 0.000000 0.104640
O O8 0.653160 0.171264 0.579727
O O9 0.569857 0.250376 0.824205
O O10 0.514452 0.000000 0.777033
O O11 0.171825 0.676421 0.527936
O O12 0.890367 0.500000 0.594833
O O13 0.782547 0.729234 0.710246
O O14 0.000000 0.737373 0.500000
O O15 0.169397 0.500000 0.075434
O O16 0.320976 0.320323 0.040144
O O17 0.158687 0.166767 0.076006
O O18 0.656287 0.500000 0.807149
#
# Coordination Sequence:
#
# PCOD9154026 Si02
#       8
#     4   2   4   4   4   4   4   2
#     4  11  24  41  65  93 125 169 219 268 328 391
#     4  11  24  42  62  95 130 176 213 270 332 385
#     4  11  24  38  62  93 126 171 212 263 328 391
#     4  11  22  41  62  90 132 163 213 264 323 390
#     4   9  19  36  61  90 122 164 208 263 327 382
#     4  10  23  43  68  97 131 173 221 274 326 385
#     4   9  20  40  60  86 129 168 215 270 318 383
#     4  11  24  44  68  94 137 176 219 274 325 390
#
# _framework density 21.567343999999999
#
# number of rings (size 3 to 8) (size 9 to 14) (size 15 to 20)
#    0.000    1.714    2.143    1.286    5.000    3.429 
#    0.000    5.357    0.000    0.000    0.000    0.000 
#    0.000    0.000    0.000    0.000    0.000    0.000 
#
# Total GULP energy -155959.529059 kJ/mol
# GULP energy per Si atom -5569.983181 kJ/mol
# Density = 2.151826 g / cm^3
# Si number density = 21.567344 Si / 1000 Ang^3
#
#
#
# Elastic Constant Matrix: (Units=GPa)
#
#
# Indices 1 2 3 4 5 6 
#
# 1 91.4526 39.2923 -4.6184 0.0000 11.3496 0.0000
# 2 39.2923 121.9703 6.5743 0.0000 -0.8049 0.0000
# 3 -4.6184 6.5743 26.1120 0.0000 17.4351 0.0000
# 4 0.0000 0.0000 0.0000 -7.6744 0.0000 -5.2294
# 5 11.3496 -0.8049 17.4351 0.0000 36.5795 0.0000
# 6 0.0000 0.0000 0.0000 -5.2294 0.0000 29.3379
#
#
#
# Elastic Compliance Matrix: (Units=1/GPa)
#
#
# Indices 1 2 3 4 5 6 
#
# 1 0.015051 -0.005486 0.010623 0.000000 -0.009854 0.000000
# 2 -0.005486 0.010387 -0.007150 0.000000 0.005339 0.000000
# 3 0.010623 -0.007150 0.064953 0.000000 -0.034412 0.000000
# 4 0.000000 0.000000 0.000000 -0.116191 0.000000 -0.020711
# 5 -0.009854 0.005339 -0.034412 0.000000 0.046915 0.000000
# 6 0.000000 0.000000 0.000000 -0.020711 0.000000 0.030394
#
#
# Mechanical properties :
#
#
# Convention : Reuss Voigt Hill
#
# Bulk Modulus (GPa) = 11.57897 35.78126 23.68011
# Shear Modulus (GPa) = 59.29570 24.86773 42.08171
#
# Velocity S-wave (km/s) = 5.24909 3.39931 4.42201
# Velocity P-wave (km/s) = 6.48981 5.65982 6.08898
#
# Compressibility (1/GPa) = 0.08636349
#
# Stress axis : x y z
#
# Youngs Moduli (GPa) = 66.44001 96.27656 15.39579
#
# Poissons Ratio (x) = 0.52820 -0.16355
# Poissons Ratio (y) = 0.36451 0.11008
# Poissons Ratio (z) = -0.70579 0.68840
#
# Static dielectric constant tensor:
#      x y z
#    x 1.767810 0.000000 -0.018240 
#    y 0.000000 1.755890 0.000000 
#    z -0.018240 0.000000 1.803620 
# 
# From -- ./inp_files/49694.got.cif
#   From: 2010.05.17/outbox.cif.g08.bks.cpg/sg10_25_cif.got.tgz:49694.got - 2010.06.03 11:33:40.
