data_PCOD9154682
_publ_section_title
;
Structure prediction by ZEFSAII (Michael W. Deem and Ramdas Pophale) SiO2 
 PCOD9154682
Probable space group: P 2/M
;
_chemical_formula_sum "Si O2"
_cell_formula_units_Z 24
_cell_length_a 14.734863
_cell_length_b 13.679885
_cell_length_c 12.829538
_cell_angle_alpha 90.000000
_cell_angle_beta 29.473486
_cell_angle_gamma 90.000000
_cell_volume 1272.398007
_symmetry_space_group_name_H-M "P 2/M"
_symmetry_group_IT_number 10
_symmetry_cell_setting 'monoclinic'
loop_
_space_group_symop_operation_xyz
x,y,z
-x,y,-z
-x,-y,-z
x,-y,z
loop_
_atom_site_type_symbol
_atom_site_label
_atom_site_fract_x
_atom_site_fract_y
_atom_site_fract_z
Si Si1 0.291085 0.618772 0.708945
Si Si2 0.282909 0.115869 0.423667
Si Si3 0.999951 0.382800 0.823407
Si Si4 0.999981 0.256825 0.614020
Si Si5 0.282878 0.884140 0.010601
Si Si6 0.999908 0.116810 0.115272
O O1 0.500000 0.656516 0.500000
O O2 0.297708 0.500000 0.702337
O O3 0.175315 0.643714 0.720900
O O4 0.175427 0.643741 0.928420
O O5 0.176174 0.185352 0.450691
O O6 0.179711 0.138343 0.635979
O O7 0.252869 0.000000 0.431619
O O8 0.500019 0.133272 0.210667
O O9 0.999931 0.500000 0.809671
O O10 0.999989 0.330103 0.712145
O O11 0.000000 0.303605 0.500000
O O12 0.823758 0.185375 0.803069
O O13 0.179543 0.861721 0.004823
O O14 0.252883 0.000000 0.062734
O O15 0.999811 0.000000 0.105285
O O16 0.000000 0.159752 0.000000
#
# Coordination Sequence:
#
# PCOD9154682 Si02
#       6
#     4   4   4   4   4   4
#     4   8  15  33  62  87 107 136 174 222 274 322
#     4   9  19  36  55  75 103 142 187 231 275 321
#     4   9  19  36  58  85 114 142 177 218 267 330
#     4  11  23  37  54  78 112 147 184 233 276 319
#     4   9  19  36  55  75 103 142 187 231 275 321
#     4   8  14  27  49  75 104 136 171 214 266 326
#
# _framework density 18.862023000000001
#
# number of rings (size 3 to 8) (size 9 to 14) (size 15 to 20)
#    0.000    3.000    0.000    2.500    0.000    4.333 
#   12.000    5.000    0.000    0.000    0.000    7.000 
#    0.000    0.000    0.000    0.000    0.000    0.000 
#
# Total GULP energy -133820.753980 kJ/mol
# GULP energy per Si atom -5575.864749 kJ/mol
# Density = 1.881909 g / cm^3
# Si number density = 18.862023 Si / 1000 Ang^3
#
#
#
# Elastic Constant Matrix: (Units=GPa)
#
#
# Indices 1 2 3 4 5 6 
#
# 1 112.5346 41.5692 107.3489 0.0000 20.4307 0.0000
# 2 41.5692 89.5131 37.5855 0.0000 5.0252 0.0000
# 3 107.3489 37.5855 110.7088 0.0000 -17.7531 0.0000
# 4 0.0000 0.0000 0.0000 11.9755 0.0000 7.3555
# 5 20.4307 5.0252 -17.7531 0.0000 41.5104 0.0000
# 6 0.0000 0.0000 0.0000 7.3555 0.0000 17.9154
#
#
#
# Elastic Compliance Matrix: (Units=1/GPa)
#
#
# Indices 1 2 3 4 5 6 
#
# 1 -0.034914 -0.002674 0.040337 0.000000 0.034759 0.000000
# 2 -0.002674 0.013383 -0.002147 0.000000 -0.001222 0.000000
# 3 0.040337 -0.002147 -0.034885 0.000000 -0.034513 0.000000
# 4 0.000000 0.000000 0.000000 0.111663 0.000000 -0.045845
# 5 0.034759 -0.001222 -0.034513 0.000000 -0.007630 0.000000
# 6 0.000000 0.000000 0.000000 -0.045845 0.000000 0.074640
#
#
# Mechanical properties :
#
#
# Convention : Reuss Voigt Hill
#
# Bulk Modulus (GPa) = 68.42173 76.19597 72.30885
# Shear Modulus (GPa) = 89.13233 22.69712 55.91473
#
# Velocity S-wave (km/s) = 6.88168 3.47266 5.45054
# Velocity P-wave (km/s) = 9.97482 7.52086 8.83347
#
# Compressibility (1/GPa) = 0.01461524
#
# Stress axis : x y z
#
# Youngs Moduli (GPa) = -28.64141 74.71973 -28.66523
#
# Poissons Ratio (x) = 0.19982 1.15626
# Poissons Ratio (y) = -0.07659 -0.06153
# Poissons Ratio (z) = 1.15530 0.16039
#
# Static dielectric constant tensor:
#      x y z
#    x 1.653460 0.000000 0.008100 
#    y 0.000000 1.688600 0.000000 
#    z 0.008100 0.000000 1.646990 
# 
# From -- ./inp_files/51529.got.cif
#   From: 2010.05.17/outbox.cif.g08.bks.cpg/sg10_26_cif.got.tgz:51529.got - 2010.06.03 11:33:40.
