data_PCOD9154398
_publ_section_title
;
Structure prediction by ZEFSAII (Michael W. Deem and Ramdas Pophale) SiO2 
 PCOD9154398
Probable space group: P 2/M
;
_chemical_formula_sum "Si O2"
_cell_formula_units_Z 28
_cell_length_a 20.233186
_cell_length_b 7.849319
_cell_length_c 11.713271
_cell_angle_alpha 90.000000
_cell_angle_beta 51.521565
_cell_angle_gamma 90.000000
_cell_volume 1456.293082
_symmetry_space_group_name_H-M "P 2/M"
_symmetry_group_IT_number 10
_symmetry_cell_setting 'monoclinic'
loop_
_space_group_symop_operation_xyz
x,y,z
-x,y,-z
-x,-y,-z
x,-y,z
loop_
_atom_site_type_symbol
_atom_site_label
_atom_site_fract_x
_atom_site_fract_y
_atom_site_fract_z
Si Si1 0.031695 0.697575 0.344226
Si Si2 0.095329 0.301581 0.885941
Si Si3 0.301018 0.791053 0.297435
Si Si4 0.518896 0.198127 0.843255
Si Si5 0.662878 0.209258 0.001646
Si Si6 0.180294 0.198054 0.026264
Si Si7 0.867141 0.198267 0.396306
O O1 0.055092 0.500000 0.335574
O O2 0.111339 0.787152 0.201351
O O3 0.000000 0.767130 0.500000
O O4 0.952369 0.710358 0.344531
O O5 0.087965 0.500000 0.863863
O O6 0.141156 0.214280 0.730574
O O7 0.142885 0.284968 0.954464
O O8 0.000000 0.230907 0.000000
O O9 0.386887 0.729460 0.267307
O O10 0.306497 0.741873 0.158551
O O11 0.215280 0.735251 0.449763
O O12 0.302932 0.000000 0.298229
O O13 0.523766 0.000000 0.802531
O O14 0.500000 0.199050 0.000000
O O15 0.433645 0.270234 0.879433
O O16 0.731136 0.265727 0.020702
O O17 0.661490 0.000000 0.003921
O O18 0.191003 0.000000 0.986092
O O19 0.877700 0.000000 0.415401
#
# Coordination Sequence:
#
# PCOD9154398 Si02
#       7
#     4   4   4   4   4   4   4
#     4  11  23  36  49  70 103 139 167 193 240 303
#     4  11  23  39  55  68  92 131 175 212 250 304
#     4   8  14  25  44  74 107 133 157 192 243 297
#     4   7  10  20  40  67 103 138 158 181 232 299
#     4   8  14  25  44  74 107 133 157 192 243 297
#     4  11  21  33  53  77 100 126 166 215 254 288
#     4  11  21  33  53  77 100 126 166 215 254 288
#
# _framework density 19.226899
#
# number of rings (size 3 to 8) (size 9 to 14) (size 15 to 20)
#    0.000    2.429    1.429    4.286    0.000    2.857 
#    0.000    0.000    0.000    0.857    0.000   10.000 
#    0.000   16.000    0.000    0.000    0.000    0.000 
#
# Total GULP energy -156166.587492 kJ/mol
# GULP energy per Si atom -5577.378125 kJ/mol
# Density = 1.918314 g / cm^3
# Si number density = 19.226899 Si / 1000 Ang^3
#
#
#
# Elastic Constant Matrix: (Units=GPa)
#
#
# Indices 1 2 3 4 5 6 
#
# 1 132.0624 -2.3745 13.5530 0.0000 -9.4272 0.0000
# 2 -2.3745 26.0691 -0.3955 0.0000 -2.2193 0.0000
# 3 13.5530 -0.3955 12.5972 0.0000 3.7363 0.0000
# 4 0.0000 0.0000 0.0000 109.9926 0.0000 -65.9896
# 5 -9.4272 -2.2193 3.7363 0.0000 30.7077 0.0000
# 6 0.0000 0.0000 0.0000 -65.9896 0.0000 53.1602
#
#
#
# Elastic Compliance Matrix: (Units=1/GPa)
#
#
# Indices 1 2 3 4 5 6 
#
# 1 0.009005 0.001009 -0.010891 0.000000 0.004163 0.000000
# 2 0.001009 0.038712 -0.000822 0.000000 0.003208 0.000000
# 3 -0.010891 -0.000822 0.095532 0.000000 -0.015027 0.000000
# 4 0.000000 0.000000 0.000000 0.035616 0.000000 0.044211
# 5 0.004163 0.003208 -0.015027 0.000000 0.035903 0.000000
# 6 0.000000 0.000000 0.000000 0.044211 0.000000 0.073692
#
#
# Mechanical properties :
#
#
# Convention : Reuss Voigt Hill
#
# Bulk Modulus (GPa) = 8.20741 21.36607 14.78674
# Shear Modulus (GPa) = 14.26610 49.43517 31.85063
#
# Velocity S-wave (km/s) = 2.72690 5.07615 4.07451
# Velocity P-wave (km/s) = 3.76731 6.74486 5.46286
#
# Compressibility (1/GPa) = 0.12184109
#
# Stress axis : x y z
#
# Youngs Moduli (GPa) = 111.04669 25.83171 10.46773
#
# Poissons Ratio (x) = -0.02607 0.11401
# Poissons Ratio (y) = -0.11209 0.00860
# Poissons Ratio (z) = 1.20946 0.02123
#
# Static dielectric constant tensor:
#      x y z
#    x 1.694370 0.000000 -0.020910 
#    y 0.000000 1.688390 0.000000 
#    z -0.020910 0.000000 1.649680 
# 
# From -- ./inp_files/54640.got.cif
#   From: 2010.05.17/outbox.cif.g08.bks.cpg/sg10_28_cif.got.tgz:54640.got - 2010.06.03 11:33:40.
