data_PCOD9154148
_publ_section_title
;
Structure prediction by ZEFSAII (Michael W. Deem and Ramdas Pophale) SiO2 
 PCOD9154148
Probable space group: P 2/M
;
_chemical_formula_sum "Si O2"
_cell_formula_units_Z 32
_cell_length_a 24.285567
_cell_length_b 9.140071
_cell_length_c 14.835628
_cell_angle_alpha 90.000000
_cell_angle_beta 152.637831
_cell_angle_gamma 90.000000
_cell_volume 1513.549089
_symmetry_space_group_name_H-M "P 2/M"
_symmetry_group_IT_number 10
_symmetry_cell_setting 'monoclinic'
loop_
_space_group_symop_operation_xyz
x,y,z
-x,y,-z
-x,-y,-z
x,-y,z
loop_
_atom_site_type_symbol
_atom_site_label
_atom_site_fract_x
_atom_site_fract_y
_atom_site_fract_z
Si Si1 0.855723 0.168366 0.189848
Si Si2 0.519068 0.826688 0.306368
Si Si3 0.720092 0.672182 0.702834
Si Si4 0.972230 0.169854 0.066266
Si Si5 0.816378 0.329196 0.519666
Si Si6 0.143525 0.167952 0.600438
Si Si7 0.345513 0.330949 0.191194
Si Si8 0.458461 0.327542 0.840127
O O1 0.823780 0.196297 0.248152
O O2 0.998537 0.176627 0.387095
O O3 0.820572 0.000000 0.117286
O O4 0.788669 0.284657 0.031364
O O5 0.646758 0.759436 0.521282
O O6 0.427873 0.770929 0.249899
O O7 0.485904 0.762515 0.160707
O O8 0.523512 0.000000 0.310365
O O9 0.726988 0.500000 0.690945
O O10 0.648150 0.687392 0.692392
O O11 0.851315 0.739304 0.905947
O O12 0.082640 0.236192 0.282579
O O13 0.954468 0.000000 0.066107
O O14 0.000000 0.176643 0.000000
O O15 0.848423 0.500000 0.570265
O O16 0.807839 0.276235 0.403853
O O17 0.685233 0.310469 0.371403
O O18 0.177304 0.000000 0.628185
O O19 0.371112 0.500000 0.206985
O O20 0.487005 0.500000 0.871283
O O21 0.500000 0.281459 0.000000
#
# Coordination Sequence:
#
# PCOD9154148 Si02
#       8
#     4   4   4   4   4   4   4   4
#     4   9  19  36  57  86 121 162 206 252 311 370
#     4  12  26  43  66  95 126 166 214 265 320 382
#     4  11  24  43  67  96 130 169 213 263 318 379
#     4  11  24  41  64  94 128 167 208 258 319 379
#     4  11  23  38  61  92 123 160 207 254 309 374
#     4   9  19  36  58  84 122 162 201 254 311 369
#     4  11  24  40  62  91 126 167 212 262 317 377
#     4  10  24  46  68  92 127 169 213 265 321 377
#
# _framework density 21.142361000000001
#
# number of rings (size 3 to 8) (size 9 to 14) (size 15 to 20)
#    0.000    1.500    0.000    5.250    1.750   10.750 
#    0.000    1.250    0.000    0.000    0.000    0.000 
#    0.000    0.000    0.000    0.000    0.000    0.000 
#
# Total GULP energy -179068.227135 kJ/mol
# GULP energy per Si atom -5595.882098 kJ/mol
# Density = 2.109424 g / cm^3
# Si number density = 21.142361 Si / 1000 Ang^3
#
#
#
# Elastic Constant Matrix: (Units=GPa)
#
#
# Indices 1 2 3 4 5 6 
#
# 1 81.6770 64.0202 10.7240 0.0000 -8.2167 0.0000
# 2 64.0202 119.2381 32.5229 0.0000 -11.5690 0.0000
# 3 10.7240 32.5229 58.9591 0.0000 -12.4979 0.0000
# 4 0.0000 0.0000 0.0000 31.8843 0.0000 -2.1011
# 5 -8.2167 -11.5690 -12.4979 0.0000 27.5650 0.0000
# 6 0.0000 0.0000 0.0000 -2.1011 0.0000 26.9917
#
#
#
# Elastic Compliance Matrix: (Units=1/GPa)
#
#
# Indices 1 2 3 4 5 6 
#
# 1 0.021755 -0.012346 0.003462 0.000000 0.002873 0.000000
# 2 -0.012346 0.016965 -0.007062 0.000000 0.000238 0.000000
# 3 0.003462 -0.007062 0.021924 0.000000 0.008009 0.000000
# 4 0.000000 0.000000 0.000000 0.031525 0.000000 0.002454
# 5 0.002873 0.000238 0.008009 0.000000 0.040865 0.000000
# 6 0.000000 0.000000 0.000000 0.002454 0.000000 0.037239
#
#
# Mechanical properties :
#
#
# Convention : Reuss Voigt Hill
#
# Bulk Modulus (GPa) = 34.77963 52.71207 43.74585
# Shear Modulus (GPa) = 23.61287 27.46200 25.53743
#
# Velocity S-wave (km/s) = 3.34556 3.60795 3.47923
# Velocity P-wave (km/s) = 5.60443 6.50711 6.07256
#
# Compressibility (1/GPa) = 0.02875246
#
# Stress axis : x y z
#
# Youngs Moduli (GPa) = 45.96674 58.94636 45.61154
#
# Poissons Ratio (x) = 0.72775 -0.15792
# Poissons Ratio (y) = 0.56751 0.32210
# Poissons Ratio (z) = -0.15915 0.41627
#
# Static dielectric constant tensor:
#      x y z
#    x 1.766220 0.000000 0.003720 
#    y 0.000000 1.707040 0.000000 
#    z 0.003720 0.000000 1.782740 
# 
# From -- ./inp_files/71663.got.cif
#   From: 2010.05.17/outbox.cif.g08.bks.cpg/sg10_36_cif.got.tgz:71663.got - 2010.06.03 11:33:40.
