data_PCOD9154172
_publ_section_title
;
Structure prediction by ZEFSAII (Michael W. Deem and Ramdas Pophale) SiO2 
 PCOD9154172
Probable space group: P 2/M
;
_chemical_formula_sum "Si O2"
_cell_formula_units_Z 22
_cell_length_a 5.348640
_cell_length_b 14.228927
_cell_length_c 13.252702
_cell_angle_alpha 90.000000
_cell_angle_beta 95.272515
_cell_angle_gamma 90.000000
_cell_volume 1004.334791
_symmetry_space_group_name_H-M "P 2/M"
_symmetry_group_IT_number 10
_symmetry_cell_setting 'monoclinic'
loop_
_space_group_symop_operation_xyz
x,y,z
-x,y,-z
-x,-y,-z
x,-y,z
loop_
_atom_site_type_symbol
_atom_site_label
_atom_site_fract_x
_atom_site_fract_y
_atom_site_fract_z
Si Si1 0.528441 0.631875 0.386282
Si Si2 0.326280 0.000000 0.186028
Si Si3 0.098770 0.329345 0.230482
Si Si4 0.267266 0.196023 0.066162
Si Si5 0.152926 0.500000 0.740147
Si Si6 0.144776 0.205792 0.607559
Si Si7 0.855189 0.000000 0.320458
O O1 0.500000 0.603668 0.500000
O O2 0.285204 0.612062 0.310931
O O3 0.755693 0.580306 0.340083
O O4 0.586431 0.743057 0.385880
O O5 0.296868 0.094409 0.119694
O O6 0.604970 0.000000 0.243034
O O7 0.107602 0.000000 0.262500
O O8 0.252793 0.277264 0.149669
O O9 0.918395 0.412486 0.186271
O O10 0.981247 0.246952 0.295467
O O11 0.500000 0.210055 0.000000
O O12 0.000000 0.197231 0.000000
O O13 0.000000 0.235854 0.500000
O O14 0.153924 0.094718 0.615148
#
# Coordination Sequence:
#
# PCOD9154172 Si02
#       7
#     4   2   4   4   2   4   2
#     4  11  22  40  69  99 137 185 231 282 343 411
#     4  12  24  47  73 106 137 181 232 298 343 405
#     4  11  24  45  66  99 139 178 233 287 353 408
#     4  12  27  47  76 103 138 182 237 293 353 411
#     4  10  25  39  71  98 141 172 233 289 352 406
#     4  11  23  41  63  99 143 189 227 275 336 420
#     4  12  25  41  72 104 147 187 228 273 351 414
#
# _framework density 21.905047
#
# number of rings (size 3 to 8) (size 9 to 14) (size 15 to 20)
#    0.000    0.727    3.636    3.818    5.091    0.727 
#    0.000    2.273    0.000    0.000    0.000    0.000 
#    0.000    0.000    0.000    0.000    0.000    0.000 
#
# Total GULP energy -122479.461124 kJ/mol
# GULP energy per Si atom -5567.248233 kJ/mol
# Density = 2.185519 g / cm^3
# Si number density = 21.905047 Si / 1000 Ang^3
#
#
#
# Elastic Constant Matrix: (Units=GPa)
#
#
# Indices 1 2 3 4 5 6 
#
# 1 68.2556 1.5596 16.4051 0.0000 -14.0735 0.0000
# 2 1.5596 149.4459 3.9110 0.0000 -23.9195 0.0000
# 3 16.4051 3.9110 33.7633 0.0000 -8.2616 0.0000
# 4 0.0000 0.0000 0.0000 -2.4385 0.0000 -30.7778
# 5 -14.0735 -23.9195 -8.2616 0.0000 40.0617 0.0000
# 6 0.0000 0.0000 0.0000 -30.7778 0.0000 -27.5288
#
#
#
# Elastic Compliance Matrix: (Units=1/GPa)
#
#
# Indices 1 2 3 4 5 6 
#
# 1 0.017446 0.000828 -0.007321 0.000000 0.005113 0.000000
# 2 0.000828 0.007439 -0.000112 0.000000 0.004710 0.000000
# 3 -0.007321 -0.000112 0.034272 0.000000 0.004429 0.000000
# 4 0.000000 0.000000 0.000000 0.031278 0.000000 -0.034969
# 5 0.005113 0.004710 0.004429 0.000000 0.030483 0.000000
# 6 0.000000 0.000000 0.000000 -0.034969 0.000000 0.002771
#
#
# Mechanical properties :
#
#
# Convention : Reuss Voigt Hill
#
# Bulk Modulus (GPa) = 21.76419 32.80180 27.28300
# Shear Modulus (GPa) = 32.84842 17.32483 25.08663
#
# Velocity S-wave (km/s) = 3.87664 2.81536 3.38782
# Velocity P-wave (km/s) = 5.47678 5.05721 5.27117
#
# Compressibility (1/GPa) = 0.04594703
#
# Stress axis : x y z
#
# Youngs Moduli (GPa) = 57.32023 134.41817 29.17836
#
# Poissons Ratio (x) = -0.11129 0.21363
# Poissons Ratio (y) = -0.04746 0.00326
# Poissons Ratio (z) = 0.41967 0.01500
#
# Static dielectric constant tensor:
#      x y z
#    x 1.912410 0.000000 0.028130 
#    y 0.000000 1.803080 0.000000 
#    z 0.028130 0.000000 1.787470 
# 
# From -- ./inp_files/39087.got.cif
#   From: 2010.05.17/outbox.cif.g08.bks.cpg/sg10_20_cif.got.tgz:39087.got - 2010.06.03 11:33:40.
