data_PCOD9154132
_publ_section_title
;
Structure prediction by ZEFSAII (Michael W. Deem and Ramdas Pophale) SiO2 
 PCOD9154132
Probable space group: P 2/M
;
_chemical_formula_sum "Si O2"
_cell_formula_units_Z 27
_cell_length_a 8.427207
_cell_length_b 15.699714
_cell_length_c 15.423140
_cell_angle_alpha 90.000000
_cell_angle_beta 39.123293
_cell_angle_gamma 90.000000
_cell_volume 1287.572047
_symmetry_space_group_name_H-M "P 2/M"
_symmetry_group_IT_number 10
_symmetry_cell_setting 'monoclinic'
loop_
_space_group_symop_operation_xyz
x,y,z
-x,y,-z
-x,-y,-z
x,-y,z
loop_
_atom_site_type_symbol
_atom_site_label
_atom_site_fract_x
_atom_site_fract_y
_atom_site_fract_z
Si Si1 0.000000 0.000000 0.000000
Si Si2 0.659928 0.265629 0.258029
Si Si3 0.943730 0.836648 0.617156
Si Si4 0.547447 0.088188 0.581647
Si Si5 0.500000 0.734539 0.000000
Si Si6 0.766620 0.404089 0.532568
Si Si7 0.356756 0.839891 0.897979
Si Si8 0.995706 0.313767 0.275524
O O1 0.187145 0.923154 0.959833
O O2 0.570228 0.174529 0.334283
O O3 0.437611 0.334391 0.353134
O O4 0.723778 0.235492 0.134247
O O5 0.861756 0.302155 0.240135
O O6 0.651965 0.859843 0.750277
O O7 0.000000 0.794233 0.500000
O O8 0.154315 0.908964 0.529682
O O9 0.436983 0.000000 0.667328
O O10 0.500000 0.086658 0.500000
O O11 0.982399 0.226302 0.336633
O O12 0.636879 0.797248 0.010098
O O13 0.292448 0.676982 0.134807
O O14 0.662673 0.500000 0.577780
O O15 0.865268 0.381141 0.394184
O O16 0.000000 0.401446 0.500000
#
# Coordination Sequence:
#
# PCOD9154132 Si02
#       8
#     1   4   4   4   2   4   4   4
#     4  12  28  46  58  92 126 182 234 276 312 374
#     4  12  22  40  67  95 131 171 210 278 342 393
#     4  11  20  36  60  88 118 161 209 265 331 384
#     4  11  22  35  55  93 129 163 207 258 337 404
#     4  10  24  45  63  88 120 186 234 262 322 388
#     4  11  23  40  68 106 137 166 210 270 344 407
#     4  11  25  42  64  85 126 174 225 277 319 384
#     4  11  21  39  64  90 129 170 218 263 322 392
#
# _framework density 20.9697
#
# number of rings (size 3 to 8) (size 9 to 14) (size 15 to 20)
#    0.000    0.889    4.444    3.556    2.074    1.778 
#    0.000    0.370    0.000    0.889    0.000    4.667 
#    0.000    0.000    0.000    0.000    0.000    0.000 
#
# Total GULP energy -150536.251731 kJ/mol
# GULP energy per Si atom -5575.416731 kJ/mol
# Density = 2.092197 g / cm^3
# Si number density = 20.969700 Si / 1000 Ang^3
#
#
#
# Elastic Constant Matrix: (Units=GPa)
#
#
# Indices 1 2 3 4 5 6 
#
# 1 123.7122 23.9002 16.1740 0.0000 13.7514 0.0000
# 2 23.9002 125.2709 21.2762 0.0000 -0.8260 0.0000
# 3 16.1740 21.2762 56.7776 0.0000 3.8290 0.0000
# 4 0.0000 0.0000 0.0000 17.1608 0.0000 14.2815
# 5 13.7514 -0.8260 3.8290 0.0000 41.5813 0.0000
# 6 0.0000 0.0000 0.0000 14.2815 0.0000 32.0275
#
#
#
# Elastic Compliance Matrix: (Units=1/GPa)
#
#
# Indices 1 2 3 4 5 6 
#
# 1 0.008905 -0.001408 -0.001820 0.000000 -0.002805 0.000000
# 2 -0.001408 0.008757 -0.002942 0.000000 0.000911 0.000000
# 3 -0.001820 -0.002942 0.019317 0.000000 -0.001235 0.000000
# 4 0.000000 0.000000 0.000000 0.092657 0.000000 -0.041317
# 5 -0.002805 0.000911 -0.001235 0.000000 0.025109 0.000000
# 6 0.000000 0.000000 0.000000 -0.041317 0.000000 0.049647
#
#
# Mechanical properties :
#
#
# Convention : Reuss Voigt Hill
#
# Bulk Modulus (GPa) = 40.58619 47.60687 44.09653
# Shear Modulus (GPa) = 22.22767 34.44793 28.33780
#
# Velocity S-wave (km/s) = 3.25928 4.05748 3.68009
# Velocity P-wave (km/s) = 5.79315 6.68602 6.25553
#
# Compressibility (1/GPa) = 0.02463892
#
# Stress axis : x y z
#
# Youngs Moduli (GPa) = 112.29478 114.19387 51.76887
#
# Poissons Ratio (x) = 0.16083 0.09421
# Poissons Ratio (y) = 0.15816 0.15229
# Poissons Ratio (z) = 0.20435 0.33593
#
# Static dielectric constant tensor:
#      x y z
#    x 1.803270 0.000000 0.004680 
#    y 0.000000 1.748860 0.000000 
#    z 0.004680 0.000000 1.822260 
# 
# From -- ./inp_files/62044.got.cif
#   From: 2010.05.17/outbox.cif.g08.bks.cpg/sg10_32_cif.got.tgz:62044.got - 2010.06.03 11:33:40.
