data_PCOD9154658
_publ_section_title
;
Structure prediction by ZEFSAII (Michael W. Deem and Ramdas Pophale) SiO2 
 PCOD9154658
Probable space group: P 2/M
;
_chemical_formula_sum "Si O2"
_cell_formula_units_Z 21
_cell_length_a 14.153322
_cell_length_b 10.726242
_cell_length_c 11.855361
_cell_angle_alpha 90.000000
_cell_angle_beta 33.621763
_cell_angle_gamma 90.000000
_cell_volume 996.555448
_symmetry_space_group_name_H-M "P 2/M"
_symmetry_group_IT_number 10
_symmetry_cell_setting 'monoclinic'
loop_
_space_group_symop_operation_xyz
x,y,z
-x,y,-z
-x,-y,-z
x,-y,z
loop_
_atom_site_type_symbol
_atom_site_label
_atom_site_fract_x
_atom_site_fract_y
_atom_site_fract_z
Si Si1 0.202330 0.000000 0.173239
Si Si2 0.214564 0.759111 0.555339
Si Si3 0.000000 0.500000 0.000000
Si Si4 0.214631 0.000000 0.415647
Si Si5 0.280994 0.500000 0.102212
Si Si6 0.192873 0.751750 0.054785
Si Si7 0.312005 0.500000 0.334049
Si Si8 0.688300 0.305308 0.305446
O O1 0.252452 0.128061 0.064149
O O2 0.269345 0.000000 0.232728
O O3 0.993890 0.000000 0.379524
O O4 0.269116 0.873440 0.422486
O O5 0.261710 0.624619 0.453538
O O6 0.292645 0.777431 0.601565
O O7 0.009161 0.762105 0.767641
O O8 0.849418 0.395214 0.154724
O O9 0.216613 0.623793 0.101720
O O10 0.237202 0.500000 0.279857
O O11 0.484932 0.500000 0.884804
O O12 0.290979 0.750369 0.839245
O O13 0.500000 0.362679 0.500000
#
# Coordination Sequence:
#
# PCOD9154658 Si02
#       8
#     2   4   1   2   2   4   2   4
#     4   9  20  39  67  98 132 179 229 277 334 400
#     4  11  22  41  66  97 133 173 228 279 333 404
#     4  12  22  44  64  96 130 180 222 266 336 396
#     4   9  20  39  67  98 132 179 229 277 334 400
#     4  11  24  40  59  90 130 171 219 276 338 399
#     4  11  22  41  66  97 133 173 228 279 333 404
#     4  11  24  40  59  90 130 171 219 276 338 399
#     4  12  25  42  66  99 138 176 224 280 338 404
#
# _framework density 21.072585
#
# number of rings (size 3 to 8) (size 9 to 14) (size 15 to 20)
#    0.000    1.143    1.905    4.286    0.000    3.810 
#    0.000    7.619    0.000    6.857    0.000    0.000 
#    0.000    0.000    0.000    0.000    0.000    0.000 
#
# Total GULP energy -117066.201542 kJ/mol
# GULP energy per Si atom -5574.581026 kJ/mol
# Density = 2.102462 g / cm^3
# Si number density = 21.072585 Si / 1000 Ang^3
#
#
#
# Elastic Constant Matrix: (Units=GPa)
#
#
# Indices 1 2 3 4 5 6 
#
# 1 60.2640 24.4681 14.6643 0.0000 24.5775 0.0000
# 2 24.4681 143.0903 18.3111 0.0000 32.4572 0.0000
# 3 14.6643 18.3111 96.2758 0.0000 0.8811 0.0000
# 4 0.0000 0.0000 0.0000 66.2325 0.0000 66.6056
# 5 24.5775 32.4572 0.8811 0.0000 60.7356 0.0000
# 6 0.0000 0.0000 0.0000 66.6056 0.0000 -2.1263
#
#
#
# Elastic Compliance Matrix: (Units=1/GPa)
#
#
# Indices 1 2 3 4 5 6 
#
# 1 0.021019 -0.001490 -0.002848 0.000000 -0.007668 0.000000
# 2 -0.001490 0.008273 -0.001312 0.000000 -0.003799 0.000000
# 3 -0.002848 -0.001312 0.011055 0.000000 0.001693 0.000000
# 4 0.000000 0.000000 0.000000 0.000465 0.000000 0.014552
# 5 -0.007668 -0.003799 0.001693 0.000000 0.021573 0.000000
# 6 0.000000 0.000000 0.000000 0.014552 0.000000 -0.014470
#
#
# Mechanical properties :
#
#
# Convention : Reuss Voigt Hill
#
# Bulk Modulus (GPa) = 34.42753 46.05747 40.24250
# Shear Modulus (GPa) = 72.57274 41.11413 56.84343
#
# Velocity S-wave (km/s) = 5.87488 4.42189 5.19939
# Velocity P-wave (km/s) = 7.89886 6.92638 7.42855
#
# Compressibility (1/GPa) = 0.02904652
#
# Stress axis : x y z
#
# Youngs Moduli (GPa) = 47.57608 120.87462 90.46018
#
# Poissons Ratio (x) = 0.18016 0.25762
# Poissons Ratio (y) = 0.07091 0.11866
# Poissons Ratio (z) = 0.13549 0.15855
#
# Static dielectric constant tensor:
#      x y z
#    x 2.126410 0.000000 0.085570 
#    y 0.000000 1.715150 0.000000 
#    z 0.085570 0.000000 1.757380 
# 
# From -- ./inp_files/51033.got.cif
#   From: 2010.05.17/outbox.cif.g08.bks.cpg/sg10_26_cif.got.tgz:51033.got - 2010.06.03 11:33:40.
