data_PCOD9154450
_publ_section_title
;
Structure prediction by ZEFSAII (Michael W. Deem and Ramdas Pophale) SiO2 
 PCOD9154450
Probable space group: P 2/M
;
_chemical_formula_sum "Si O2"
_cell_formula_units_Z 32
_cell_length_a 16.089700
_cell_length_b 16.361354
_cell_length_c 12.734552
_cell_angle_alpha 90.000000
_cell_angle_beta 26.075614
_cell_angle_gamma 90.000000
_cell_volume 1473.553729
_symmetry_space_group_name_H-M "P 2/M"
_symmetry_group_IT_number 10
_symmetry_cell_setting 'monoclinic'
loop_
_space_group_symop_operation_xyz
x,y,z
-x,y,-z
-x,-y,-z
x,-y,z
loop_
_atom_site_type_symbol
_atom_site_label
_atom_site_fract_x
_atom_site_fract_y
_atom_site_fract_z
Si Si1 0.389499 0.779530 0.413946
Si Si2 0.774093 0.089203 0.240445
Si Si3 0.085814 0.092726 0.290246
Si Si4 0.795353 0.811636 0.026740
Si Si5 0.475870 0.908458 0.151531
Si Si6 0.058229 0.597775 0.269156
Si Si7 0.963690 0.673769 0.157403
Si Si8 0.299575 0.599943 0.184579
O O1 0.314416 0.841503 0.587640
O O2 0.610293 0.767113 0.191481
O O3 0.378392 0.832506 0.319549
O O4 0.252890 0.701257 0.575631
O O5 0.735189 0.110082 0.163147
O O6 0.700409 0.000000 0.352957
O O7 0.000000 0.087992 0.000000
O O8 0.000000 0.116234 0.500000
O O9 0.019439 0.000000 0.342156
O O10 0.062487 0.158292 0.225153
O O11 0.311809 0.089380 0.044865
O O12 0.908717 0.755058 0.978337
O O13 0.393484 0.000000 0.262533
O O14 0.500000 0.896747 0.000000
O O15 0.062240 0.500000 0.268923
O O16 0.040029 0.623174 0.169741
O O17 0.868785 0.624401 0.545902
O O18 0.234065 0.626235 0.142253
O O19 0.000000 0.638670 0.000000
O O20 0.306734 0.500000 0.176294
O O21 0.500000 0.630097 0.000000
#
# Coordination Sequence:
#
# PCOD9154450 Si02
#       8
#     4   4   4   4   4   4   4   4
#     4  11  22  39  57  79 114 156 199 253 310 367
#     4  11  21  35  59  86 108 145 204 263 314 364
#     4   9  19  34  53  78 108 147 191 243 308 370
#     4  11  22  39  57  79 113 156 202 253 315 368
#     4   9  19  34  53  78 107 145 190 239 300 368
#     4   9  20  39  65  96 128 164 202 247 305 371
#     4  12  25  42  58  86 124 163 213 259 310 365
#     4   8  15  35  68 102 130 152 187 243 301 360
#
# _framework density 21.716208999999999
#
# number of rings (size 3 to 8) (size 9 to 14) (size 15 to 20)
#    0.000    2.000    2.500    1.875    1.750    3.250 
#    2.250    0.625    0.000    0.000    0.000    5.250 
#    0.000    0.000    0.000    0.000    0.000    0.000 
#
# Total GULP energy -178671.238028 kJ/mol
# GULP energy per Si atom -5583.476188 kJ/mol
# Density = 2.166678 g / cm^3
# Si number density = 21.716209 Si / 1000 Ang^3
#
#
#
# Elastic Constant Matrix: (Units=GPa)
#
#
# Indices 1 2 3 4 5 6 
#
# 1 148.4619 20.5285 54.8213 0.0000 0.6426 0.0000
# 2 20.5285 12.5532 14.0598 0.0000 3.3006 0.0000
# 3 54.8213 14.0598 72.5927 0.0000 -2.1901 0.0000
# 4 0.0000 0.0000 0.0000 -30.9428 0.0000 -33.8563
# 5 0.6426 3.3006 -2.1901 0.0000 50.2117 0.0000
# 6 0.0000 0.0000 0.0000 -33.8563 0.0000 -17.3234
#
#
#
# Elastic Compliance Matrix: (Units=1/GPa)
#
#
# Indices 1 2 3 4 5 6 
#
# 1 0.010307 -0.010508 -0.005739 0.000000 0.000308 0.000000
# 2 -0.010508 0.115388 -0.014657 0.000000 -0.008090 0.000000
# 3 -0.005739 -0.014657 0.021007 0.000000 0.001953 0.000000
# 4 0.000000 0.000000 0.000000 0.028389 0.000000 -0.055483
# 5 0.000308 -0.008090 0.001953 0.000000 0.020529 0.000000
# 6 0.000000 0.000000 0.000000 -0.055483 0.000000 0.050708
#
#
# Mechanical properties :
#
#
# Convention : Reuss Voigt Hill
#
# Bulk Modulus (GPa) = 11.77937 45.82522 28.80229
# Shear Modulus (GPa) = 14.86175 10.00230 12.43203
#
# Velocity S-wave (km/s) = 2.61887 2.14847 2.39524
# Velocity P-wave (km/s) = 3.81846 5.22515 4.57618
#
# Compressibility (1/GPa) = 0.08489420
#
# Stress axis : x y z
#
# Youngs Moduli (GPa) = 97.02576 8.66638 47.60280
#
# Poissons Ratio (x) = 0.09107 0.27319
# Poissons Ratio (y) = 1.01954 0.69772
# Poissons Ratio (z) = 0.55682 0.12702
#
# Static dielectric constant tensor:
#      x y z
#    x 1.841230 0.000000 -0.003200 
#    y 0.000000 1.808820 0.000000 
#    z -0.003200 0.000000 1.820860 
# 
# From -- ./inp_files/51970.got.cif
#   From: 2010.05.17/outbox.cif.g08.bks.cpg/sg10_26_cif.got.tgz:51970.got - 2010.06.03 11:33:40.
