data_PCOD9154065
_publ_section_title
;
Structure prediction by ZEFSAII (Michael W. Deem and Ramdas Pophale) SiO2 
 PCOD9154065
Probable space group: P 2/M
;
_chemical_formula_sum "Si O2"
_cell_formula_units_Z 28
_cell_length_a 11.780122
_cell_length_b 8.658400
_cell_length_c 15.134749
_cell_angle_alpha 90.000000
_cell_angle_beta 62.354182
_cell_angle_gamma 90.000000
_cell_volume 1367.459329
_symmetry_space_group_name_H-M "P 2/M"
_symmetry_group_IT_number 10
_symmetry_cell_setting 'monoclinic'
loop_
_space_group_symop_operation_xyz
x,y,z
-x,y,-z
-x,-y,-z
x,-y,z
loop_
_atom_site_type_symbol
_atom_site_label
_atom_site_fract_x
_atom_site_fract_y
_atom_site_fract_z
Si Si1 0.134452 0.680997 0.186978
Si Si2 0.494491 0.818555 0.283521
Si Si3 0.239981 0.675925 0.794400
Si Si4 0.121415 0.181179 0.674456
Si Si5 0.860262 0.827173 0.006626
Si Si6 0.566375 0.682114 0.882557
Si Si7 0.372485 0.314655 0.488923
O O1 0.109756 0.500000 0.179409
O O2 0.132516 0.772729 0.095716
O O3 0.279636 0.696033 0.168284
O O4 0.019253 0.746239 0.288622
O O5 0.614069 0.718735 0.274880
O O6 0.475782 0.777226 0.187824
O O7 0.382049 0.764590 0.389383
O O8 0.519304 0.000000 0.285028
O O9 0.211306 0.500000 0.781644
O O10 0.153864 0.787209 0.765978
O O11 0.217527 0.708346 0.905356
O O12 0.240461 0.261278 0.582157
O O13 0.120039 0.000000 0.656756
O O14 0.805081 0.000000 0.032931
O O15 0.000000 0.829379 0.000000
O O16 0.534418 0.500000 0.880893
O O17 0.500000 0.728175 0.000000
O O18 0.500000 0.268863 0.500000
O O19 0.373829 0.500000 0.480899
#
# Coordination Sequence:
#
# PCOD9154065 Si02
#       7
#     4   4   4   4   4   4   4
#     4  11  23  40  64  92 127 172 216 264 322 386
#     4  12  25  41  66  97 130 168 212 267 327 383
#     4  12  23  37  59  88 125 167 212 259 315 384
#     4  12  24  39  61  92 130 166 208 264 322 382
#     4  11  22  35  55  87 125 162 204 260 320 379
#     4  10  23  45  70  96 128 171 222 269 315 379
#     4  11  23  41  67  96 129 171 215 266 323 387
#
# _framework density 20.475928
#
# number of rings (size 3 to 8) (size 9 to 14) (size 15 to 20)
#    0.000    0.714    2.857    6.000    0.000    3.714 
#    0.000    0.714    0.000    4.286    0.000    0.000 
#    0.000    0.000    0.000    0.000    0.000    0.000 
#
# Total GULP energy -156532.608104 kJ/mol
# GULP energy per Si atom -5590.450289 kJ/mol
# Density = 2.042932 g / cm^3
# Si number density = 20.475928 Si / 1000 Ang^3
#
#
#
# Elastic Constant Matrix: (Units=GPa)
#
#
# Indices 1 2 3 4 5 6 
#
# 1 51.3455 15.7874 15.9702 0.0000 -15.7281 0.0000
# 2 15.7874 76.2492 10.1257 0.0000 -3.0133 0.0000
# 3 15.9702 10.1257 110.7036 0.0000 -17.2626 0.0000
# 4 0.0000 0.0000 0.0000 -25.5725 0.0000 26.5863
# 5 -15.7281 -3.0133 -17.2626 0.0000 33.0122 0.0000
# 6 0.0000 0.0000 0.0000 26.5863 0.0000 -22.1743
#
#
#
# Elastic Compliance Matrix: (Units=1/GPa)
#
#
# Indices 1 2 3 4 5 6 
#
# 1 0.024529 -0.004466 -0.001493 0.000000 0.010498 0.000000
# 2 -0.004466 0.014101 -0.000846 0.000000 -0.001283 0.000000
# 3 -0.001493 -0.000846 0.010020 0.000000 0.004451 0.000000
# 4 0.000000 0.000000 0.000000 0.158637 0.000000 0.190202
# 5 0.010498 -0.001283 0.004451 0.000000 0.037504 0.000000
# 6 0.000000 0.000000 0.000000 0.190202 0.000000 0.182949
#
#
# Mechanical properties :
#
#
# Convention : Reuss Voigt Hill
#
# Bulk Modulus (GPa) = 28.53749 35.78498 32.16123
# Shear Modulus (GPa) = 11.03680 10.14742 10.59211
#
# Velocity S-wave (km/s) = 2.32419 2.22857 2.27688
# Velocity P-wave (km/s) = 4.60107 4.91290 4.75954
#
# Compressibility (1/GPa) = 0.03504162
#
# Stress axis : x y z
#
# Youngs Moduli (GPa) = 40.76789 70.91654 99.80094
#
# Poissons Ratio (x) = 0.31668 0.14901
# Poissons Ratio (y) = 0.18205 0.08439
# Poissons Ratio (z) = 0.06087 0.05997
#
# Static dielectric constant tensor:
#      x y z
#    x 1.744900 0.000000 -0.038050 
#    y 0.000000 1.689230 0.000000 
#    z -0.038050 0.000000 1.790160 
# 
# From -- ./inp_files/63654.got.cif
#   From: 2010.05.17/outbox.cif.g08.bks.cpg/sg10_32_cif.got.tgz:63654.got - 2010.06.03 11:33:40.
