data_PCOD9154938
_publ_section_title
;
Structure prediction by ZEFSAII (Michael W. Deem and Ramdas Pophale) SiO2 
 PCOD9154938
Probable space group: P 2/M
;
_chemical_formula_sum "Si O2"
_cell_formula_units_Z 28
_cell_length_a 10.149650
_cell_length_b 7.486957
_cell_length_c 31.528407
_cell_angle_alpha 90.000000
_cell_angle_beta 36.420051
_cell_angle_gamma 90.000000
_cell_volume 1422.413509
_symmetry_space_group_name_H-M "P 2/M"
_symmetry_group_IT_number 10
_symmetry_cell_setting 'monoclinic'
loop_
_space_group_symop_operation_xyz
x,y,z
-x,y,-z
-x,-y,-z
x,-y,z
loop_
_atom_site_type_symbol
_atom_site_label
_atom_site_fract_x
_atom_site_fract_y
_atom_site_fract_z
Si Si1 0.156102 0.218204 0.277062
Si Si2 0.946347 0.782182 0.561079
Si Si3 0.541547 0.781786 0.722918
Si Si4 0.958048 0.788564 0.156726
Si Si5 0.751722 0.217824 0.438898
Si Si6 0.349460 0.712271 0.000236
Si Si7 0.740490 0.211730 0.843627
O O1 0.342107 0.272689 0.263139
O O2 0.202647 0.282513 0.217570
O O3 0.918165 0.271784 0.358043
O O4 0.158527 0.000000 0.275886
O O5 0.708549 0.728268 0.641927
O O6 0.000000 0.720106 0.500000
O O7 0.131275 0.728165 0.547504
O O8 0.946368 0.000000 0.560339
O O9 0.290758 0.717333 0.782312
O O10 0.538099 0.000000 0.724132
O O11 0.104261 0.715383 0.158341
O O12 0.938023 0.000000 0.169012
O O13 0.101215 0.766024 0.076688
O O14 0.500000 0.279874 0.500000
O O15 0.748067 0.000000 0.439622
O O16 0.354847 0.500000 0.000678
O O17 0.483744 0.764366 0.923615
O O18 0.500000 0.786752 0.000000
O O19 0.779924 0.000000 0.831941
#
# Coordination Sequence:
#
# PCOD9154938 Si02
#       7
#     4   4   4   4   4   4   4
#     4   8  14  24  36  52  77 107 135 163 198 238
#     4   8  13  20  30  46  71 103 134 161 191 229
#     4   8  14  24  36  52  77 107 135 163 198 238
#     4   9  16  26  42  62  80 101 134 171 199 229
#     4   8  13  20  30  46  71 103 134 161 191 229
#     4   9  17  29  44  61  82 106 130 161 204 246
#     4   9  16  26  42  62  80 101 134 171 199 229
#
# _framework density 19.684853
#
# number of rings (size 3 to 8) (size 9 to 14) (size 15 to 20)
#    0.000    3.571    0.000    2.143    0.000    2.857 
#    0.000    6.429    0.000    5.143    0.000    0.000 
#    0.000    1.143    0.000    2.571    0.000    5.143 
#
# Total GULP energy -155988.343039 kJ/mol
# GULP energy per Si atom -5571.012251 kJ/mol
# Density = 1.964005 g / cm^3
# Si number density = 19.684853 Si / 1000 Ang^3
#
#
#
# Elastic Constant Matrix: (Units=GPa)
#
#
# Indices 1 2 3 4 5 6 
#
# 1 99.8025 4.6560 128.1179 0.0000 -0.2707 0.0000
# 2 4.6560 54.4566 1.3332 0.0000 -0.8298 0.0000
# 3 128.1179 1.3332 220.7908 0.0000 -1.8088 0.0000
# 4 0.0000 0.0000 0.0000 -40.5510 0.0000 -0.4362
# 5 -0.2707 -0.8298 -1.8088 0.0000 24.6949 0.0000
# 6 0.0000 0.0000 0.0000 -0.4362 0.0000 -6.0164
#
#
#
# Elastic Compliance Matrix: (Units=1/GPa)
#
#
# Indices 1 2 3 4 5 6 
#
# 1 0.039754 -0.002855 -0.023062 0.000000 -0.001349 0.000000
# 2 -0.002855 0.018580 0.001550 0.000000 0.000707 0.000000
# 3 -0.023062 0.001550 0.017911 0.000000 0.001111 0.000000
# 4 0.000000 0.000000 0.000000 -0.024680 0.000000 0.001789
# 5 -0.001349 0.000707 0.001111 0.000000 0.040585 0.000000
# 6 0.000000 0.000000 0.000000 0.001789 0.000000 -0.166342
#
#
# Mechanical properties :
#
#
# Convention : Reuss Voigt Hill
#
# Bulk Modulus (GPa) = 36.34761 71.47379 53.91070
# Shear Modulus (GPa) = -306.99293 11.68834 -147.65229
#
# Velocity S-wave (km/s) = -12.50170 2.43939 -8.67012
# Velocity P-wave (km/s) = 13.77988 6.65748 8.53121
#
# Compressibility (1/GPa) = 0.02751213
#
# Stress axis : x y z
#
# Youngs Moduli (GPa) = 25.15452 53.82086 55.83148
#
# Poissons Ratio (x) = 0.15366 1.28758
# Poissons Ratio (y) = 0.07181 -0.08655
# Poissons Ratio (z) = 0.58011 -0.08343
#
# Static dielectric constant tensor:
#      x y z
#    x 1.675870 0.000000 0.000190 
#    y 0.000000 1.728200 0.000000 
#    z 0.000190 0.000000 1.692430 
# 
# From -- ./inp_files/67101.got.cif
#   From: 2010.05.17/outbox.cif.g08.bks.cpg/sg10_34_cif.got.tgz:67101.got - 2010.06.03 11:33:40.
