data_PCOD9154292
_publ_section_title
;
Structure prediction by ZEFSAII (Michael W. Deem and Ramdas Pophale) SiO2 
 PCOD9154292
Probable space group: P 2/M
;
_chemical_formula_sum "Si O2"
_cell_formula_units_Z 24
_cell_length_a 8.129556
_cell_length_b 14.856837
_cell_length_c 12.253904
_cell_angle_alpha 90.000000
_cell_angle_beta 48.438081
_cell_angle_gamma 90.000000
_cell_volume 1107.409167
_symmetry_space_group_name_H-M "P 2/M"
_symmetry_group_IT_number 10
_symmetry_cell_setting 'monoclinic'
loop_
_space_group_symop_operation_xyz
x,y,z
-x,y,-z
-x,-y,-z
x,-y,z
loop_
_atom_site_type_symbol
_atom_site_label
_atom_site_fract_x
_atom_site_fract_y
_atom_site_fract_z
Si Si1 0.383551 0.097426 0.168982
Si Si2 0.710239 0.394286 0.539761
Si Si3 0.288004 0.705699 0.776151
Si Si4 0.061081 0.604632 0.188919
Si Si5 0.778486 0.097426 0.168982
Si Si6 0.340307 0.294301 0.223848
O O1 0.574353 0.093283 0.175648
O O2 0.262207 0.191093 0.244973
O O3 0.265526 0.000000 0.222728
O O4 0.500000 0.105702 0.000000
O O5 0.673347 0.500000 0.576654
O O6 0.475463 0.346316 0.625999
O O7 0.883502 0.387650 0.366498
O O8 0.772540 0.346315 0.625998
O O9 0.062726 0.653665 0.855307
O O10 0.252154 0.808907 0.755027
O O11 0.405188 0.707369 0.844812
O O12 0.102427 0.500000 0.147572
O O13 0.273339 0.653665 0.144693
O O14 0.789021 0.000000 0.222726
O O15 0.000000 0.105703 0.000000
#
# Coordination Sequence:
#
# PCOD9154292 Si02
#       6
#     4   4   4   4   4   4
#     4   9  18  34  56  78 100 130 168 210 254 303
#     4   9  18  34  52  73 102 136 172 211 248 292
#     4   9  20  32  50  78 106 129 164 217 255 292
#     4  11  20  32  54  77 100 136 178 209 244 298
#     4   9  18  34  56  78 100 130 168 210 254 303
#     4   9  20  32  50  78 106 129 164 217 255 292
#
# _framework density 21.672208000000001
#
# number of rings (size 3 to 8) (size 9 to 14) (size 15 to 20)
#    1.000    1.667    0.000    2.000    2.333    2.667 
#    0.000    0.000    0.000   12.000    0.000    0.000 
#    0.000    0.000    0.000    0.000    0.000    0.000 
#
# Total GULP energy -133604.412825 kJ/mol
# GULP energy per Si atom -5566.850534 kJ/mol
# Density = 2.162288 g / cm^3
# Si number density = 21.672208 Si / 1000 Ang^3
#
#
#
# Elastic Constant Matrix: (Units=GPa)
#
#
# Indices 1 2 3 4 5 6 
#
# 1 108.3528 57.2285 3.7307 0.0000 -0.0004 0.0000
# 2 57.2285 233.9759 42.5825 0.0000 0.0001 0.0000
# 3 3.7307 42.5825 52.5824 0.0000 -0.0005 0.0000
# 4 0.0000 0.0000 0.0000 -504.9947 0.0000 -0.0061
# 5 -0.0004 0.0001 -0.0005 0.0000 26.8997 0.0000
# 6 0.0000 0.0000 0.0000 -0.0061 0.0000 27.4798
#
#
#
# Elastic Compliance Matrix: (Units=1/GPa)
#
#
# Indices 1 2 3 4 5 6 
#
# 1 0.010711 -0.002911 0.001597 0.000000 0.000000 0.000000
# 2 -0.002911 0.005804 -0.004493 0.000000 0.000000 0.000000
# 3 0.001597 -0.004493 0.022543 0.000000 0.000000 0.000000
# 4 0.000000 0.000000 0.000000 -0.001980 0.000000 0.000000
# 5 0.000000 0.000000 0.000000 0.000000 0.037175 0.000000
# 6 0.000000 0.000000 0.000000 0.000000 0.000000 0.036390
#
#
# Mechanical properties :
#
#
# Convention : Reuss Voigt Hill
#
# Bulk Modulus (GPa) = 36.43713 66.88828 51.66271
# Shear Modulus (GPa) = 38.05014 -70.69842 -16.32414
#
# Velocity S-wave (km/s) = 4.19467 -5.71774 -2.74748
# Velocity P-wave (km/s) = 6.34899 3.55800 3.71821
#
# Compressibility (1/GPa) = 0.02744453
#
# Stress axis : x y z
#
# Youngs Moduli (GPa) = 93.35846 172.30608 44.35907
#
# Poissons Ratio (x) = 0.50151 -0.07085
# Poissons Ratio (y) = 0.27173 0.19932
# Poissons Ratio (z) = -0.14910 0.77424
#
# Static dielectric constant tensor:
#      x y z
#    x 1.865850 0.000000 0.000000 
#    y 0.000000 1.819800 0.000000 
#    z 0.000000 0.000000 1.776180 
# 
# From -- ./inp_files/74609.got.cif
#   From: 2010.05.17/outbox.cif.g08.bks.cpg/sg10_38_cif.got.tgz:74609.got - 2010.06.03 11:33:40.
