data_PCOD9154051
_publ_section_title
;
Structure prediction by ZEFSAII (Michael W. Deem and Ramdas Pophale) SiO2 
 PCOD9154051
Probable space group: P 2/M
;
_chemical_formula_sum "Si O2"
_cell_formula_units_Z 18
_cell_length_a 5.228340
_cell_length_b 25.507012
_cell_length_c 5.215856
_cell_angle_alpha 90.000000
_cell_angle_beta 93.409339
_cell_angle_gamma 90.000000
_cell_volume 694.351988
_symmetry_space_group_name_H-M "P 2/M"
_symmetry_group_IT_number 10
_symmetry_cell_setting 'monoclinic'
loop_
_space_group_symop_operation_xyz
x,y,z
-x,y,-z
-x,-y,-z
x,-y,z
loop_
_atom_site_type_symbol
_atom_site_label
_atom_site_fract_x
_atom_site_fract_y
_atom_site_fract_z
Si Si1 0.666447 0.218761 0.269811
Si Si2 0.753329 0.061394 0.172515
Si Si3 0.000000 0.859363 0.500000
Si Si4 0.679148 0.444058 0.261748
Si Si5 0.232410 0.669877 0.832309
O O1 0.500000 0.198913 0.500000
O O2 0.733535 0.279287 0.339781
O O3 0.079964 0.183011 0.722429
O O4 0.500000 0.217088 0.000000
O O5 0.782935 0.097563 0.422446
O O6 0.744902 0.000000 0.241207
O O7 0.500000 0.074957 0.000000
O O8 0.000000 0.069562 0.000000
O O9 0.500000 0.443643 0.500000
O O10 0.824816 0.500000 0.264386
O O11 0.822716 0.388657 0.270885
O O12 0.500000 0.444456 0.000000
O O13 0.500000 0.665537 0.000000
O O14 0.000000 0.684346 0.000000
#
# Coordination Sequence:
#
# PCOD9154051 Si02
#       5
#     4   4   2   4   4
#     4  11  28  47  71 105 147 196 249 307 372 440
#     4  10  24  46  73 107 148 192 241 298 364 433
#     4  12  27  40  78 100 153 188 252 302 364 434
#     4   9  18  37  65  98 135 179 232 294 361 432
#     4  10  23  44  70  98 141 186 239 298 365 437
#
# _framework density 25.923452000000001
#
# number of rings (size 3 to 8) (size 9 to 14) (size 15 to 20)
#    0.000    1.778    0.000    1.667   12.444    0.444 
#    0.000    3.333    0.000   12.000    0.000    0.000 
#    0.000    0.000    0.000    0.000    0.000    0.222 
#
# Total GULP energy -100516.160693 kJ/mol
# GULP energy per Si atom -5584.231150 kJ/mol
# Density = 2.586445 g / cm^3
# Si number density = 25.923452 Si / 1000 Ang^3
#
#
#
# Elastic Constant Matrix: (Units=GPa)
#
#
# Indices 1 2 3 4 5 6 
#
# 1 130.5383 38.6987 51.1845 0.0000 16.9718 0.0000
# 2 38.6987 209.3510 39.7639 0.0000 30.6618 0.0000
# 3 51.1845 39.7639 139.6103 0.0000 14.8223 0.0000
# 4 0.0000 0.0000 0.0000 29.8832 0.0000 15.7917
# 5 16.9718 30.6618 14.8223 0.0000 60.5102 0.0000
# 6 0.0000 0.0000 0.0000 15.7917 0.0000 55.6976
#
#
#
# Elastic Compliance Matrix: (Units=1/GPa)
#
#
# Indices 1 2 3 4 5 6 
#
# 1 0.009295 -0.000946 -0.002990 0.000000 -0.001395 0.000000
# 2 -0.000946 0.005468 -0.000970 0.000000 -0.002268 0.000000
# 3 -0.002990 -0.000970 0.008618 0.000000 -0.000781 0.000000
# 4 0.000000 0.000000 0.000000 0.039361 0.000000 -0.011160
# 5 -0.001395 -0.002268 -0.000781 0.000000 0.018258 0.000000
# 6 0.000000 0.000000 0.000000 -0.011160 0.000000 0.021118
#
#
# Mechanical properties :
#
#
# Convention : Reuss Voigt Hill
#
# Bulk Modulus (GPa) = 73.69626 82.08821 77.89223
# Shear Modulus (GPa) = 42.93585 52.54170 47.73877
#
# Velocity S-wave (km/s) = 4.07413 4.50689 4.29596
# Velocity P-wave (km/s) = 7.11488 7.66923 7.39725
#
# Compressibility (1/GPa) = 0.01356921
#
# Stress axis : x y z
#
# Youngs Moduli (GPa) = 107.58632 182.88681 116.03339
#
# Poissons Ratio (x) = 0.17299 0.34696
# Poissons Ratio (y) = 0.10176 0.11253
# Poissons Ratio (z) = 0.32170 0.17737
#
# Static dielectric constant tensor:
#      x y z
#    x -0.408090 0.000000 0.665550 
#    y 0.000000 2.066770 0.000000 
#    z 0.665550 0.000000 1.825060 
# 
# From -- ./inp_files/2102.got.cif
#   From: 2010.05.17/outbox.cif.g08.bks.cpg/sg10_2_cif.got.tgz:2102.got - 2010.06.03 11:33:40.
