data_PCOD9154706
_publ_section_title
;
Structure prediction by ZEFSAII (Michael W. Deem and Ramdas Pophale) SiO2 
 PCOD9154706
Probable space group: P 2/M
;
_chemical_formula_sum "Si O2"
_cell_formula_units_Z 24
_cell_length_a 18.717887
_cell_length_b 14.363722
_cell_length_c 10.956117
_cell_angle_alpha 90.000000
_cell_angle_beta 24.254641
_cell_angle_gamma 90.000000
_cell_volume 1210.049665
_symmetry_space_group_name_H-M "P 2/M"
_symmetry_group_IT_number 10
_symmetry_cell_setting 'monoclinic'
loop_
_space_group_symop_operation_xyz
x,y,z
-x,y,-z
-x,-y,-z
x,-y,z
loop_
_atom_site_type_symbol
_atom_site_label
_atom_site_fract_x
_atom_site_fract_y
_atom_site_fract_z
Si Si1 0.689457 0.199873 0.267802
Si Si2 0.205298 0.102391 0.661756
Si Si3 0.704941 0.208493 0.700237
Si Si4 0.374290 0.397721 0.076139
Si Si5 0.600267 0.603050 0.474905
Si Si6 0.994633 0.104074 0.652758
O O1 0.500000 0.195964 0.500000
O O2 0.698066 0.126603 0.364236
O O3 0.713215 0.304052 0.284543
O O4 0.847933 0.173116 0.932452
O O5 0.227440 0.191500 0.540699
O O6 0.264157 0.000000 0.523448
O O7 0.000000 0.095741 0.000000
O O8 0.735853 0.306345 0.720150
O O9 0.813310 0.132064 0.603796
O O10 0.500000 0.194121 0.000000
O O11 0.288538 0.500000 0.202227
O O12 0.500000 0.401265 0.000000
O O13 0.477442 0.384618 0.786900
O O14 0.500000 0.599405 0.500000
O O15 0.682550 0.500000 0.361893
O O16 0.000000 0.105082 0.500000
O O17 0.952597 0.000000 0.763012
#
# Coordination Sequence:
#
# PCOD9154706 Si02
#       6
#     4   4   4   4   4   4
#     4  11  23  40  67  92 120 166 211 256 313 375
#     4  11  23  41  61  86 124 165 207 262 313 359
#     4  11  23  40  66  91 120 165 212 250 308 372
#     4   9  18  35  62  94 126 159 201 254 314 372
#     4   9  19  36  62  94 124 158 205 257 310 370
#     4  11  26  43  58  87 130 166 205 263 314 362
#
# _framework density 19.833897
#
# number of rings (size 3 to 8) (size 9 to 14) (size 15 to 20)
#    0.000    1.667    1.667    3.000    7.000    2.667 
#    0.000    0.833    0.000    2.000    0.000    0.000 
#    0.000    0.000    0.000    0.000    0.000    0.000 
#
# Total GULP energy -133618.105022 kJ/mol
# GULP energy per Si atom -5567.421043 kJ/mol
# Density = 1.978875 g / cm^3
# Si number density = 19.833897 Si / 1000 Ang^3
#
#
#
# Elastic Constant Matrix: (Units=GPa)
#
#
# Indices 1 2 3 4 5 6 
#
# 1 99.6810 28.4515 23.0851 0.0000 10.2070 0.0000
# 2 28.4515 153.8358 71.2261 0.0000 16.3330 0.0000
# 3 23.0851 71.2261 66.2923 0.0000 7.4366 0.0000
# 4 0.0000 0.0000 0.0000 14.4005 0.0000 37.1973
# 5 10.2070 16.3330 7.4366 0.0000 35.5606 0.0000
# 6 0.0000 0.0000 0.0000 37.1973 0.0000 -1.9262
#
#
#
# Elastic Compliance Matrix: (Units=1/GPa)
#
#
# Indices 1 2 3 4 5 6 
#
# 1 0.011120 -0.000268 -0.003318 0.000000 -0.002375 0.000000
# 2 -0.000268 0.013286 -0.013830 0.000000 -0.003133 0.000000
# 3 -0.003318 -0.013830 0.031007 0.000000 0.000820 0.000000
# 4 0.000000 0.000000 0.000000 0.001365 0.000000 0.026355
# 5 -0.002375 -0.003133 0.000820 0.000000 0.030070 0.000000
# 6 0.000000 0.000000 0.000000 0.026355 0.000000 -0.010203
#
#
# Mechanical properties :
#
#
# Convention : Reuss Voigt Hill
#
# Bulk Modulus (GPa) = 48.58727 62.81496 55.70111
# Shear Modulus (GPa) = 42.25221 22.74339 32.49780
#
# Velocity S-wave (km/s) = 4.62053 3.38996 4.05223
# Velocity P-wave (km/s) = 7.28121 6.86015 7.07381
#
# Compressibility (1/GPa) = 0.02058152
#
# Stress axis : x y z
#
# Youngs Moduli (GPa) = 89.92724 75.26751 32.25072
#
# Poissons Ratio (x) = 0.02021 0.10699
# Poissons Ratio (y) = 0.02414 0.44602
# Poissons Ratio (z) = 0.29833 1.04093
#
# Static dielectric constant tensor:
#      x y z
#    x 1.749990 0.000000 0.044260 
#    y 0.000000 1.755990 0.000000 
#    z 0.044260 0.000000 1.694710 
# 
# From -- ./inp_files/56030.got.cif
#   From: 2010.05.17/outbox.cif.g08.bks.cpg/sg10_29_cif.got.tgz:56030.got - 2010.06.03 11:33:40.
