data_PCOD9154668
_publ_section_title
;
Structure prediction by ZEFSAII (Michael W. Deem and Ramdas Pophale) SiO2 
 PCOD9154668
Probable space group: P 2/M
;
_chemical_formula_sum "Si O2"
_cell_formula_units_Z 13
_cell_length_a 9.525881
_cell_length_b 9.235407
_cell_length_c 6.913577
_cell_angle_alpha 90.000000
_cell_angle_beta 49.600576
_cell_angle_gamma 90.000000
_cell_volume 463.190310
_symmetry_space_group_name_H-M "P 2/M"
_symmetry_group_IT_number 10
_symmetry_cell_setting 'monoclinic'
loop_
_space_group_symop_operation_xyz
x,y,z
-x,y,-z
-x,-y,-z
x,-y,z
loop_
_atom_site_type_symbol
_atom_site_label
_atom_site_fract_x
_atom_site_fract_y
_atom_site_fract_z
Si Si1 0.590277 0.500000 0.205289
Si Si2 0.804584 0.500000 0.569179
Si Si3 0.500000 0.000000 0.000000
Si Si4 0.251639 0.806913 0.949657
Si Si5 0.829746 0.842218 0.419470
O O1 0.500000 0.500000 0.500000
O O2 0.414349 0.500000 0.228974
O O3 0.721566 0.636145 0.063365
O O4 0.806270 0.675420 0.502831
O O5 0.000000 0.500000 0.500000
O O6 0.411306 0.874900 0.932596
O O7 0.253394 0.846391 0.722071
O O8 0.051557 0.850819 0.206807
O O9 0.764694 0.000000 0.575280
#
# Coordination Sequence:
#
# PCOD9154668 Si02
#       5
#     2   2   1   4   4
#     4  12  25  46  67 101 143 185 223 284 359 414
#     4  12  29  45  66 103 145 181 231 283 351 420
#     4  12  24  40  70 110 130 170 246 296 320 400
#     4  11  23  43  72 101 133 179 234 284 336 410
#     4  11  22  48  72  98 137 187 230 283 351 408
#
# _framework density 28.066217999999999
#
# number of rings (size 3 to 8) (size 9 to 14) (size 15 to 20)
#    0.000    0.615    6.154    1.846    4.308    3.692 
#    2.769    2.308    0.000    0.000    0.000    0.000 
#    0.000    0.000    0.000    0.000    0.000    0.000 
#
# Total GULP energy -72443.050436 kJ/mol
# GULP energy per Si atom -5572.542341 kJ/mol
# Density = 2.800234 g / cm^3
# Si number density = 28.066218 Si / 1000 Ang^3
#
#
#
# Elastic Constant Matrix: (Units=GPa)
#
#
# Indices 1 2 3 4 5 6 
#
# 1 242.3858 81.6582 48.6393 0.0000 4.7062 0.0000
# 2 81.6582 406.9613 60.8879 0.0000 2.6992 0.0000
# 3 48.6393 60.8879 80.1242 0.0000 6.8021 0.0000
# 4 0.0000 0.0000 0.0000 83.8175 0.0000 34.7914
# 5 4.7062 2.6992 6.8021 0.0000 29.5561 0.0000
# 6 0.0000 0.0000 0.0000 34.7914 0.0000 75.9602
#
#
#
# Elastic Compliance Matrix: (Units=1/GPa)
#
#
# Indices 1 2 3 4 5 6 
#
# 1 0.004824 -0.000599 -0.002461 0.000000 -0.000147 0.000000
# 2 -0.000599 0.002848 -0.001823 0.000000 0.000255 0.000000
# 3 -0.002461 -0.001823 0.015617 0.000000 -0.003036 0.000000
# 4 0.000000 0.000000 0.000000 0.014731 0.000000 -0.006747
# 5 -0.000147 0.000255 -0.003036 0.000000 0.034533 0.000000
# 6 0.000000 0.000000 0.000000 -0.006747 0.000000 0.016255
#
#
# Mechanical properties :
#
#
# Convention : Reuss Voigt Hill
#
# Bulk Modulus (GPa) = 73.93708 123.53802 98.73755
# Shear Modulus (GPa) = 48.50495 73.75249 61.12872
#
# Velocity S-wave (km/s) = 4.16171 5.13177 4.67199
# Velocity P-wave (km/s) = 7.03521 8.90088 8.02246
#
# Compressibility (1/GPa) = 0.01352501
#
# Stress axis : x y z
#
# Youngs Moduli (GPa) = 207.29370 351.07447 64.03142
#
# Poissons Ratio (x) = 0.21022 0.15758
# Poissons Ratio (y) = 0.12413 0.11671
# Poissons Ratio (z) = 0.51013 0.63989
#
# Static dielectric constant tensor:
#      x y z
#    x 1.947810 0.000000 0.188650 
#    y 0.000000 2.172560 0.000000 
#    z 0.188650 0.000000 1.918940 
# 
# From -- ./inp_files/16514.got.cif
#   From: 2010.05.17/outbox.cif.g08.bks.cpg/sg10_9_cif.got.tgz:16514.got - 2010.06.03 11:33:40.
