data_PCOD9154513
_publ_section_title
;
Structure prediction by ZEFSAII (Michael W. Deem and Ramdas Pophale) SiO2 
 PCOD9154513
Probable space group: P 2/M
;
_chemical_formula_sum "Si O2"
_cell_formula_units_Z 28
_cell_length_a 15.557795
_cell_length_b 8.977896
_cell_length_c 9.457741
_cell_angle_alpha 90.000000
_cell_angle_beta 85.158650
_cell_angle_gamma 90.000000
_cell_volume 1316.308814
_symmetry_space_group_name_H-M "P 2/M"
_symmetry_group_IT_number 10
_symmetry_cell_setting 'monoclinic'
loop_
_space_group_symop_operation_xyz
x,y,z
-x,y,-z
-x,-y,-z
x,-y,z
loop_
_atom_site_type_symbol
_atom_site_label
_atom_site_fract_x
_atom_site_fract_y
_atom_site_fract_z
Si Si1 0.789801 0.170059 0.303296
Si Si2 0.859556 0.181287 0.794567
Si Si3 0.732442 0.676994 0.036739
Si Si4 0.026687 0.321675 0.660228
Si Si5 0.535008 0.334796 0.641386
Si Si6 0.718602 0.235930 0.610853
Si Si7 0.599552 0.162865 0.871300
O O1 0.880330 0.251077 0.321076
O O2 0.738126 0.168367 0.457531
O O3 0.802999 0.000000 0.253540
O O4 0.738553 0.264024 0.194394
O O5 0.808759 0.238048 0.939951
O O6 0.809935 0.266673 0.671787
O O7 0.956611 0.240188 0.768945
O O8 0.856902 0.000000 0.780273
O O9 0.743435 0.500000 0.024630
O O10 0.642827 0.726313 0.976171
O O11 0.027716 0.500000 0.683150
O O12 0.000000 0.294292 0.500000
O O13 0.500000 0.267166 0.500000
O O14 0.497747 0.500000 0.663985
O O15 0.638887 0.348238 0.605650
O O16 0.525476 0.237188 0.784757
O O17 0.674030 0.143836 0.742305
O O18 0.582242 0.000000 0.932149
#
# Coordination Sequence:
#
# PCOD9154513 Si02
#       7
#     4   4   4   4   4   4   4
#     4  12  23  39  59  83 116 152 194 239 287 340
#     4  11  21  39  62  84 111 151 197 235 286 342
#     4  11  23  38  57  83 115 153 193 237 287 340
#     4  11  24  38  56  85 118 149 190 241 292 338
#     4   9  19  34  57  90 122 151 186 232 284 336
#     4   9  20  33  60  85 114 147 189 235 280 336
#     4   9  18  35  57  85 112 148 189 228 278 334
#
# _framework density 21.271605000000001
#
# number of rings (size 3 to 8) (size 9 to 14) (size 15 to 20)
#    0.857    0.857    1.429    5.143    0.000    3.143 
#    0.000    2.857    0.000    0.857    0.000    5.000 
#    0.000    0.000    0.000    0.000    0.000    0.000 
#
# Total GULP energy -155895.205193 kJ/mol
# GULP energy per Si atom -5567.685900 kJ/mol
# Density = 2.122319 g / cm^3
# Si number density = 21.271605 Si / 1000 Ang^3
#
#
#
# Elastic Constant Matrix: (Units=GPa)
#
#
# Indices 1 2 3 4 5 6 
#
# 1 55.0967 24.8026 23.3482 0.0000 -4.0120 0.0000
# 2 24.8026 110.5266 21.3945 0.0000 12.6180 0.0000
# 3 23.3482 21.3945 87.1142 0.0000 11.8916 0.0000
# 4 0.0000 0.0000 0.0000 75.5648 0.0000 30.2291
# 5 -4.0120 12.6180 11.8916 0.0000 36.7234 0.0000
# 6 0.0000 0.0000 0.0000 30.2291 0.0000 35.7822
#
#
#
# Elastic Compliance Matrix: (Units=1/GPa)
#
#
# Indices 1 2 3 4 5 6 
#
# 1 0.023234 -0.004769 -0.005886 0.000000 0.006083 0.000000
# 2 -0.004769 0.010726 -0.000818 0.000000 -0.003942 0.000000
# 3 -0.005886 -0.000818 0.013923 0.000000 -0.004870 0.000000
# 4 0.000000 0.000000 0.000000 0.019989 0.000000 -0.016887
# 5 0.006083 -0.003942 -0.004870 0.000000 0.030827 0.000000
# 6 0.000000 0.000000 0.000000 -0.016887 0.000000 0.042213
#
#
# Mechanical properties :
#
#
# Convention : Reuss Voigt Hill
#
# Bulk Modulus (GPa) = 40.10226 43.53645 41.81936
# Shear Modulus (GPa) = 29.04104 41.82689 35.43397
#
# Velocity S-wave (km/s) = 3.69894 4.43914 4.08583
# Velocity P-wave (km/s) = 6.09395 6.84003 6.47774
#
# Compressibility (1/GPa) = 0.02493625
#
# Stress axis : x y z
#
# Youngs Moduli (GPa) = 43.04025 93.23081 71.82593
#
# Poissons Ratio (x) = 0.44460 0.42279
# Poissons Ratio (y) = 0.20525 0.05876
# Poissons Ratio (z) = 0.25335 0.07627
#
# Static dielectric constant tensor:
#      x y z
#    x 1.812270 0.000000 0.006870 
#    y 0.000000 1.725890 0.000000 
#    z 0.006870 0.000000 1.785960 
# 
# From -- ./inp_files/31665.got.cif
#   From: 2010.05.17/outbox.cif.g08.bks.cpg/sg10_16_cif.got.tgz:31665.got - 2010.06.03 11:33:40.
