data_PCOD9154081
_publ_section_title
;
Structure prediction by ZEFSAII (Michael W. Deem and Ramdas Pophale) SiO2 
 PCOD9154081
Probable space group: P 2/M
;
_chemical_formula_sum "Si O2"
_cell_formula_units_Z 28
_cell_length_a 9.482796
_cell_length_b 14.121274
_cell_length_c 10.735288
_cell_angle_alpha 90.000000
_cell_angle_beta 73.073276
_cell_angle_gamma 90.000000
_cell_volume 1375.275558
_symmetry_space_group_name_H-M "P 2/M"
_symmetry_group_IT_number 10
_symmetry_cell_setting 'monoclinic'
loop_
_space_group_symop_operation_xyz
x,y,z
-x,y,-z
-x,-y,-z
x,-y,z
loop_
_atom_site_type_symbol
_atom_site_label
_atom_site_fract_x
_atom_site_fract_y
_atom_site_fract_z
Si Si1 0.378420 0.109348 0.329210
Si Si2 0.666409 0.890097 0.130498
Si Si3 0.160105 0.603292 0.602379
Si Si4 0.195307 0.603180 0.297305
Si Si5 0.138230 0.799645 0.558913
Si Si6 0.976001 0.895849 0.185054
Si Si7 0.263321 0.212140 0.123224
O O1 0.551678 0.129517 0.271330
O O2 0.280099 0.170245 0.446096
O O3 0.316652 0.134143 0.208560
O O4 0.358100 0.000000 0.365495
O O5 0.832375 0.888373 0.137491
O O6 0.635531 0.000000 0.097741
O O7 0.651937 0.811686 0.026123
O O8 0.215252 0.500000 0.635055
O O9 0.211738 0.609649 0.443570
O O10 0.186049 0.711573 0.635160
O O11 0.982900 0.599875 0.665777
O O12 0.252903 0.500000 0.242768
O O13 0.261610 0.687931 0.197254
O O14 0.078557 0.883335 0.659693
O O15 0.000000 0.775901 0.500000
O O16 0.094374 0.814044 0.136381
O O17 0.042791 0.000000 0.148700
#
# Coordination Sequence:
#
# PCOD9154081 Si02
#       7
#     4   4   4   4   4   4   4
#     4  11  22  35  54  80 110 142 179 224 268 315
#     4  10  24  40  51  72 110 158 189 205 254 327
#     4   9  14  27  48  77 112 134 163 218 276 327
#     4   9  16  28  51  84 111 131 166 221 277 318
#     4  12  19  32  54  86 107 129 175 235 279 306
#     4  11  22  35  54  80 110 142 179 224 268 315
#     4  12  19  34  59  81 105 139 185 225 256 303
#
# _framework density 20.359555
#
# number of rings (size 3 to 8) (size 9 to 14) (size 15 to 20)
#    0.000    1.429    5.714    3.429    0.000    3.429 
#    0.000    2.143    0.000    5.143    0.000    1.000 
#    0.000    0.000    0.000    0.000    0.000    0.000 
#
# Total GULP energy -155931.501299 kJ/mol
# GULP energy per Si atom -5568.982189 kJ/mol
# Density = 2.031322 g / cm^3
# Si number density = 20.359555 Si / 1000 Ang^3
#
#
#
# Elastic Constant Matrix: (Units=GPa)
#
#
# Indices 1 2 3 4 5 6 
#
# 1 30.6281 4.0903 -11.7924 0.0000 -4.9869 0.0000
# 2 4.0903 91.1703 5.7445 0.0000 -5.6020 0.0000
# 3 -11.7924 5.7445 37.9644 0.0000 -9.0395 0.0000
# 4 0.0000 0.0000 0.0000 28.8938 0.0000 -8.3164
# 5 -4.9869 -5.6020 -9.0395 0.0000 21.7887 0.0000
# 6 0.0000 0.0000 0.0000 -8.3164 0.0000 4.7258
#
#
#
# Elastic Compliance Matrix: (Units=1/GPa)
#
#
# Indices 1 2 3 4 5 6 
#
# 1 0.042240 -0.001982 0.017311 0.000000 0.016340 0.000000
# 2 -0.001982 0.011280 -0.001931 0.000000 0.001646 0.000000
# 3 0.017311 -0.001931 0.036434 0.000000 0.018581 0.000000
# 4 0.000000 0.000000 0.000000 0.070132 0.000000 0.123417
# 5 0.016340 0.001646 0.018581 0.000000 0.057767 0.000000
# 6 0.000000 0.000000 0.000000 0.123417 0.000000 0.428789
#
#
# Mechanical properties :
#
#
# Convention : Reuss Voigt Hill
#
# Bulk Modulus (GPa) = 8.56524 17.31640 12.94082
# Shear Modulus (GPa) = 7.59000 21.86303 14.72651
#
# Velocity S-wave (km/s) = 1.93289 3.28051 2.69238
# Velocity P-wave (km/s) = 3.03275 4.78255 4.00439
#
# Compressibility (1/GPa) = 0.11675092
#
# Stress axis : x y z
#
# Youngs Moduli (GPa) = 23.67432 88.65131 27.44702
#
# Poissons Ratio (x) = 0.17569 -0.47513
# Poissons Ratio (y) = 0.04692 0.05299
# Poissons Ratio (z) = -0.40982 0.17115
#
# Static dielectric constant tensor:
#      x y z
#    x 1.778350 0.000000 -0.001450 
#    y 0.000000 1.776560 0.000000 
#    z -0.001450 0.000000 1.760290 
# 
# From -- ./inp_files/42658.got.cif
#   From: 2010.05.17/outbox.cif.g08.bks.cpg/sg10_22_cif.got.tgz:42658.got - 2010.06.03 11:33:40.
