data_PCOD9154466
_publ_section_title
;
Structure prediction by ZEFSAII (Michael W. Deem and Ramdas Pophale) SiO2 
 PCOD9154466
Probable space group: P 2/M
;
_chemical_formula_sum "Si O2"
_cell_formula_units_Z 24
_cell_length_a 15.579227
_cell_length_b 12.600022
_cell_length_c 20.041188
_cell_angle_alpha 90.000000
_cell_angle_beta 19.589277
_cell_angle_gamma 90.000000
_cell_volume 1318.992038
_symmetry_space_group_name_H-M "P 2/M"
_symmetry_group_IT_number 10
_symmetry_cell_setting 'monoclinic'
loop_
_space_group_symop_operation_xyz
x,y,z
-x,y,-z
-x,-y,-z
x,-y,z
loop_
_atom_site_type_symbol
_atom_site_label
_atom_site_fract_x
_atom_site_fract_y
_atom_site_fract_z
Si Si1 0.221515 0.626878 0.391290
Si Si2 0.072285 0.500000 0.821752
Si Si3 0.795652 0.315188 0.954822
Si Si4 0.499125 0.500000 0.391328
Si Si5 0.036174 0.123082 0.082768
Si Si6 0.773768 0.304022 0.465340
Si Si7 0.581250 0.876937 0.324420
O O1 0.220229 0.500000 0.407126
O O2 0.182769 0.692618 0.487753
O O3 0.000000 0.647081 0.500000
O O4 0.500118 0.659469 0.160168
O O5 0.294039 0.500000 0.602491
O O6 0.221570 0.500000 0.781546
O O7 0.902259 0.397202 0.932181
O O8 0.853572 0.199451 0.941907
O O9 0.966892 0.331300 0.763802
O O10 0.434709 0.395452 0.397123
O O11 0.757593 0.157283 0.258128
O O12 0.016907 0.000000 0.117214
O O13 0.229970 0.127252 0.877942
O O14 0.654115 0.198141 0.520996
O O15 0.509163 0.000000 0.387459
#
# Coordination Sequence:
#
# PCOD9154466 Si02
#       7
#     4   2   4   2   4   4   4
#     4  11  24  42  61  82 109 143 188 240 296 348
#     4   9  18  31  49  80 117 147 176 216 268 328
#     4  11  21  36  58  84 114 147 187 233 279 334
#     4   9  18  31  49  80 117 147 176 216 268 328
#     4   9  18  33  55  85 121 159 194 225 264 325
#     4  11  21  36  58  84 114 147 187 233 279 334
#     4   9  18  33  55  85 121 159 194 225 264 325
#
# _framework density 18.195712
#
# number of rings (size 3 to 8) (size 9 to 14) (size 15 to 20)
#    0.000    2.000    3.333    2.000    0.000    3.333 
#    0.000    4.167    0.000    2.000    0.000    2.333 
#    0.000    0.000    0.000    0.000    0.000    0.000 
#
# Total GULP energy -134031.277470 kJ/mol
# GULP energy per Si atom -5584.636561 kJ/mol
# Density = 1.815430 g / cm^3
# Si number density = 18.195712 Si / 1000 Ang^3
#
#
#
# Elastic Constant Matrix: (Units=GPa)
#
#
# Indices 1 2 3 4 5 6 
#
# 1 59.5579 17.9464 48.9198 0.0000 -28.4449 0.0000
# 2 17.9464 59.0306 22.8083 0.0000 -21.2947 0.0000
# 3 48.9198 22.8083 114.5072 0.0000 -19.2225 0.0000
# 4 0.0000 0.0000 0.0000 17.4710 0.0000 -7.7669
# 5 -28.4449 -21.2947 -19.2225 0.0000 30.6009 0.0000
# 6 0.0000 0.0000 0.0000 -7.7669 0.0000 7.5423
#
#
#
# Elastic Compliance Matrix: (Units=1/GPa)
#
#
# Indices 1 2 3 4 5 6 
#
# 1 0.043117 0.004682 -0.013502 0.000000 0.034856 0.000000
# 2 0.004682 0.023580 -0.003591 0.000000 0.018506 0.000000
# 3 -0.013502 -0.003591 0.014186 0.000000 -0.006138 0.000000
# 4 0.000000 0.000000 0.000000 0.105566 0.000000 0.108710
# 5 0.034856 0.018506 -0.006138 0.000000 0.074102 0.000000
# 6 0.000000 0.000000 0.000000 0.108710 0.000000 0.244533
#
#
# Mechanical properties :
#
#
# Convention : Reuss Voigt Hill
#
# Bulk Modulus (GPa) = 17.83702 45.82719 31.83210
# Shear Modulus (GPa) = 9.11426 20.68424 14.89925
#
# Velocity S-wave (km/s) = 2.24051 3.37525 2.86463
# Velocity P-wave (km/s) = 4.06415 6.35847 5.33608
#
# Compressibility (1/GPa) = 0.05606319
#
# Stress axis : x y z
#
# Youngs Moduli (GPa) = 23.19283 42.40878 70.49140
#
# Poissons Ratio (x) = -0.19858 0.95175
# Poissons Ratio (y) = -0.10860 0.25311
# Poissons Ratio (z) = 0.31314 0.15227
#
# Static dielectric constant tensor:
#      x y z
#    x 1.612310 0.000000 0.037520 
#    y 0.000000 1.627350 0.000000 
#    z 0.037520 0.000000 1.643650 
# 
# From -- ./inp_files/85177.got.cif
#   From: 2010.05.17/outbox.cif.g08.bks.cpg/sg10_43_cif.got.tgz:85177.got - 2010.06.03 11:33:40.
