data_PCOD9154836
_publ_section_title
;
Structure prediction by ZEFSAII (Michael W. Deem and Ramdas Pophale) SiO2 
 PCOD9154836
Probable space group: P 2/M
;
_chemical_formula_sum "Si O2"
_cell_formula_units_Z 9
_cell_length_a 5.097125
_cell_length_b 13.000897
_cell_length_c 5.245135
_cell_angle_alpha 90.000000
_cell_angle_beta 87.030104
_cell_angle_gamma 90.000000
_cell_volume 347.113558
_symmetry_space_group_name_H-M "P 2/M"
_symmetry_group_IT_number 10
_symmetry_cell_setting 'monoclinic'
loop_
_space_group_symop_operation_xyz
x,y,z
-x,y,-z
-x,-y,-z
x,-y,z
loop_
_atom_site_type_symbol
_atom_site_label
_atom_site_fract_x
_atom_site_fract_y
_atom_site_fract_z
Si Si1 0.817701 0.610424 0.258814
Si Si2 0.500000 0.000000 0.500000
Si Si3 0.729699 0.835630 0.171050
O O1 0.672997 0.500000 0.267664
O O2 0.666230 0.717406 0.245149
O O3 0.000000 0.615604 0.500000
O O4 0.000000 0.608823 0.000000
O O5 0.712331 0.909261 0.411276
O O6 0.500000 0.877528 0.000000
O O7 0.000000 0.839128 0.000000
#
# Coordination Sequence:
#
# PCOD9154836 Si02
#       3
#     4   1   4
#     4   9  20  42  73 107 146 188 238 300 369 439
#     4  12  28  46  78 100 146 200 244 310 356 438
#     4  11  27  47  72 107 147 190 247 302 366 436
#
# _framework density 25.928113
#
# number of rings (size 3 to 8) (size 9 to 14) (size 15 to 20)
#    0.000    1.778    0.000    1.333   12.444    2.667 
#    0.000    1.111    0.000    0.000    0.000    0.000 
#    0.000    0.000    0.000    0.000    0.000    0.000 
#
# Total GULP energy -50128.286178 kJ/mol
# GULP energy per Si atom -5569.809575 kJ/mol
# Density = 2.586910 g / cm^3
# Si number density = 25.928113 Si / 1000 Ang^3
#
#
#
# Elastic Constant Matrix: (Units=GPa)
#
#
# Indices 1 2 3 4 5 6 
#
# 1 106.8552 12.2998 39.8257 0.0000 -16.9868 0.0000
# 2 12.2998 280.5877 9.5707 0.0000 -32.1343 0.0000
# 3 39.8257 9.5707 142.9521 0.0000 -21.0521 0.0000
# 4 0.0000 0.0000 0.0000 -65.3007 0.0000 -50.4576
# 5 -16.9868 -32.1343 -21.0521 0.0000 59.0779 0.0000
# 6 0.0000 0.0000 0.0000 -50.4576 0.0000 4.2143
#
#
#
# Elastic Compliance Matrix: (Units=1/GPa)
#
#
# Indices 1 2 3 4 5 6 
#
# 1 0.010695 -0.000143 -0.002669 0.000000 0.002046 0.000000
# 2 -0.000143 0.003803 0.000089 0.000000 0.002059 0.000000
# 3 -0.002669 0.000089 0.008049 0.000000 0.002149 0.000000
# 4 0.000000 0.000000 0.000000 -0.001494 0.000000 -0.017885
# 5 0.002046 0.002059 0.002149 0.000000 0.019401 0.000000
# 6 0.000000 0.000000 0.000000 -0.017885 0.000000 0.023147
#
#
# Mechanical properties :
#
#
# Convention : Reuss Voigt Hill
#
# Bulk Modulus (GPa) = 58.47863 72.64303 65.56083
# Shear Modulus (GPa) = 66.89129 30.84488 48.86809
#
# Velocity S-wave (km/s) = 5.08476 3.45284 4.34608
# Velocity P-wave (km/s) = 7.55487 6.63130 7.10810
#
# Compressibility (1/GPa) = 0.01710026
#
# Stress axis : x y z
#
# Youngs Moduli (GPa) = 93.50288 262.94957 124.23306
#
# Poissons Ratio (x) = 0.03772 0.33153
# Poissons Ratio (y) = 0.01341 -0.01100
# Poissons Ratio (z) = 0.24952 -0.02329
#
# Static dielectric constant tensor:
#      x y z
#    x 1.889200 0.000000 0.128680 
#    y 0.000000 2.055140 0.000000 
#    z 0.128680 0.000000 2.228310 
# 
# From -- ./inp_files/220.got.cif
#   From: 2010.05.17/outbox.cif.g08.bks.cpg/sg10_1_cif.got.tgz:220.got - 2010.06.03 11:33:40.
