data_PCOD9154713
_publ_section_title
;
Structure prediction by ZEFSAII (Michael W. Deem and Ramdas Pophale) SiO2 
 PCOD9154713
Probable space group: P 2/M
;
_chemical_formula_sum "Si O2"
_cell_formula_units_Z 20
_cell_length_a 12.840604
_cell_length_b 11.627183
_cell_length_c 7.503726
_cell_angle_alpha 90.000000
_cell_angle_beta 124.675873
_cell_angle_gamma 90.000000
_cell_volume 921.321946
_symmetry_space_group_name_H-M "P 2/M"
_symmetry_group_IT_number 10
_symmetry_cell_setting 'monoclinic'
loop_
_space_group_symop_operation_xyz
x,y,z
-x,y,-z
-x,-y,-z
x,-y,z
loop_
_atom_site_type_symbol
_atom_site_label
_atom_site_fract_x
_atom_site_fract_y
_atom_site_fract_z
Si Si1 0.041836 0.132926 0.746617
Si Si2 0.604740 0.500000 0.877153
Si Si3 0.213621 0.747274 0.412184
Si Si4 0.316162 0.500000 0.462945
Si Si5 0.371958 0.872777 0.267330
Si Si6 0.701344 0.744457 0.108744
O O1 0.168628 0.210223 0.859766
O O2 0.000000 0.123766 0.500000
O O3 0.927611 0.202143 0.726755
O O4 0.053378 0.000000 0.822218
O O5 0.450226 0.500000 0.704629
O O6 0.648764 0.500000 0.713088
O O7 0.661600 0.612926 0.030171
O O8 0.232023 0.611066 0.420425
O O9 0.284941 0.799238 0.313437
O O10 0.279328 0.775627 0.666704
O O11 0.500000 0.879733 0.500000
O O12 0.319613 0.000000 0.191109
O O13 0.398679 0.816902 0.102302
#
# Coordination Sequence:
#
# PCOD9154713 Si02
#       6
#     4   2   4   2   4   4
#     4   9  20  40  65  94 129 168 210 259 316 377
#     4  11  23  42  65  91 130 172 211 264 322 376
#     4  11  23  41  66  94 126 167 214 261 315 380
#     4  11  23  42  65  91 130 172 211 264 322 376
#     4  11  24  40  60  91 128 166 212 265 320 377
#     4  11  23  41  66  94 126 167 214 261 315 380
#
# _framework density 21.707939
#
# number of rings (size 3 to 8) (size 9 to 14) (size 15 to 20)
#    0.000    1.400    2.000    3.000    0.000    8.000 
#    0.000    8.000    0.000    0.000    0.000    0.000 
#    0.000    0.000    0.000    0.000    0.000    0.000 
#
# Total GULP energy -111656.209013 kJ/mol
# GULP energy per Si atom -5582.810451 kJ/mol
# Density = 2.165853 g / cm^3
# Si number density = 21.707939 Si / 1000 Ang^3
#
#
#
# Elastic Constant Matrix: (Units=GPa)
#
#
# Indices 1 2 3 4 5 6 
#
# 1 66.4659 29.2059 12.6176 0.0000 2.6414 0.0000
# 2 29.2059 161.0965 32.8940 0.0000 5.8409 0.0000
# 3 12.6176 32.8940 119.1124 0.0000 -18.0919 0.0000
# 4 0.0000 0.0000 0.0000 22.4706 0.0000 13.2090
# 5 2.6414 5.8409 -18.0919 0.0000 41.8289 0.0000
# 6 0.0000 0.0000 0.0000 13.2090 0.0000 11.3467
#
#
#
# Elastic Compliance Matrix: (Units=1/GPa)
#
#
# Indices 1 2 3 4 5 6 
#
# 1 0.016506 -0.002709 -0.001179 0.000000 -0.001174 0.000000
# 2 -0.002709 0.007156 -0.001943 0.000000 -0.001668 0.000000
# 3 -0.001179 -0.001943 0.009750 0.000000 0.004563 0.000000
# 4 0.000000 0.000000 0.000000 0.140972 0.000000 -0.164110
# 5 -0.001174 -0.001668 0.004563 0.000000 0.026187 0.000000
# 6 0.000000 0.000000 0.000000 -0.164110 0.000000 0.279176
#
#
# Mechanical properties :
#
#
# Convention : Reuss Voigt Hill
#
# Bulk Modulus (GPa) = 45.97515 55.12331 50.54923
# Shear Modulus (GPa) = 10.02691 33.25974 21.64332
#
# Velocity S-wave (km/s) = 2.15152 3.91851 3.16099
# Velocity P-wave (km/s) = 5.23421 6.77652 6.05468
#
# Compressibility (1/GPa) = 0.02175088
#
# Stress axis : x y z
#
# Youngs Moduli (GPa) = 60.58340 139.74747 102.56680
#
# Poissons Ratio (x) = 0.37861 0.12089
# Poissons Ratio (y) = 0.16414 0.19924
# Poissons Ratio (z) = 0.07140 0.27146
#
# Static dielectric constant tensor:
#      x y z
#    x 1.794930 0.000000 0.040820 
#    y 0.000000 1.820140 0.000000 
#    z 0.040820 0.000000 1.875140 
# 
# From -- ./inp_files/28079.got.cif
#   From: 2010.05.17/outbox.cif.g08.bks.cpg/sg10_15_cif.got.tgz:28079.got - 2010.06.03 11:33:40.
