data_PCOD9154400
_publ_section_title
;
Structure prediction by ZEFSAII (Michael W. Deem and Ramdas Pophale) SiO2 
 PCOD9154400
Probable space group: P 2/M
;
_chemical_formula_sum "Si O2"
_cell_formula_units_Z 28
_cell_length_a 11.756279
_cell_length_b 8.302138
_cell_length_c 15.148987
_cell_angle_alpha 90.000000
_cell_angle_beta 55.494754
_cell_angle_gamma 90.000000
_cell_volume 1218.455881
_symmetry_space_group_name_H-M "P 2/M"
_symmetry_group_IT_number 10
_symmetry_cell_setting 'monoclinic'
loop_
_space_group_symop_operation_xyz
x,y,z
-x,y,-z
-x,-y,-z
x,-y,z
loop_
_atom_site_type_symbol
_atom_site_label
_atom_site_fract_x
_atom_site_fract_y
_atom_site_fract_z
Si Si1 0.940729 0.804055 0.842170
Si Si2 0.765702 0.182951 0.078275
Si Si3 0.523624 0.679008 0.092806
Si Si4 0.771175 0.190994 0.742364
Si Si5 0.779685 0.809094 0.369313
Si Si6 0.581130 0.309120 0.317428
Si Si7 0.733040 0.690602 0.580624
O O1 0.852593 0.753417 0.794226
O O2 0.095851 0.758279 0.750031
O O3 0.931955 0.000000 0.850442
O O4 0.886085 0.747622 0.962011
O O5 0.636921 0.190109 0.066947
O O6 0.695184 0.268966 0.192359
O O7 0.801003 0.000000 0.089284
O O8 0.568735 0.500000 0.102946
O O9 0.375602 0.721120 0.195368
O O10 0.500000 0.675237 0.000000
O O11 0.819888 0.228593 0.621569
O O12 0.753897 0.000000 0.759125
O O13 0.638677 0.767218 0.381624
O O14 0.793322 0.725984 0.457620
O O15 0.790566 0.000000 0.377826
O O16 0.571523 0.500000 0.333694
O O17 0.428028 0.250284 0.357205
O O18 0.730589 0.500000 0.597539
#
# Coordination Sequence:
#
# PCOD9154400 Si02
#       7
#     4   4   4   4   4   4   4
#     4   9  22  41  61  91 127 162 201 256 303 350
#     4  11  21  37  63  92 122 160 207 249 300 365
#     4  11  21  33  53  88 129 162 195 247 311 360
#     4  11  21  37  63  92 122 160 207 249 300 365
#     4  11  24  44  66  87 118 162 213 256 302 362
#     4  11  24  42  63  91 126 158 198 258 318 361
#     4  11  24  42  63  91 126 158 198 258 318 361
#
# _framework density 22.979904999999999
#
# number of rings (size 3 to 8) (size 9 to 14) (size 15 to 20)
#    0.000    1.286    2.857    3.000    0.000    5.143 
#    0.000   11.429    0.000    0.000    0.000    0.000 
#    0.000    0.000    0.000    0.000    0.000    0.000 
#
# Total GULP energy -156407.951382 kJ/mol
# GULP energy per Si atom -5585.998264 kJ/mol
# Density = 2.292760 g / cm^3
# Si number density = 22.979905 Si / 1000 Ang^3
#
#
#
# Elastic Constant Matrix: (Units=GPa)
#
#
# Indices 1 2 3 4 5 6 
#
# 1 29.5232 -9.9185 2.9529 0.0000 -2.7134 0.0000
# 2 -9.9185 34.4907 0.9618 0.0000 -1.0064 0.0000
# 3 2.9529 0.9618 71.4166 0.0000 -12.9881 0.0000
# 4 0.0000 0.0000 0.0000 -82.6467 0.0000 -175.0016
# 5 -2.7134 -1.0064 -12.9881 0.0000 32.3658 0.0000
# 6 0.0000 0.0000 0.0000 -175.0016 0.0000 -290.5179
#
#
#
# Elastic Compliance Matrix: (Units=1/GPa)
#
#
# Indices 1 2 3 4 5 6 
#
# 1 0.037979 0.011044 -0.001162 0.000000 0.003061 0.000000
# 2 0.011044 0.032235 -0.000583 0.000000 0.001694 0.000000
# 3 -0.001162 -0.000583 0.015142 0.000000 0.005961 0.000000
# 4 0.000000 0.000000 0.000000 0.043917 0.000000 -0.026454
# 5 0.003061 0.001694 0.005961 0.000000 0.033598 0.000000
# 6 0.000000 0.000000 0.000000 -0.026454 0.000000 0.012493
#
#
# Mechanical properties :
#
#
# Convention : Reuss Voigt Hill
#
# Bulk Modulus (GPa) = 9.61968 13.71364 11.66666
# Shear Modulus (GPa) = 26.12070 -58.73081 -16.30506
#
# Velocity S-wave (km/s) = 3.37512 -5.06092 -2.66660
# Velocity P-wave (km/s) = 4.40270 5.30754 2.09597
#
# Compressibility (1/GPa) = 0.10395358
#
# Stress axis : x y z
#
# Youngs Moduli (GPa) = 26.33003 31.02240 66.03996
#
# Poissons Ratio (x) = -0.34260 0.07677
# Poissons Ratio (y) = -0.29078 0.03847
# Poissons Ratio (z) = 0.03061 0.01807
#
# Static dielectric constant tensor:
#      x y z
#    x 1.851720 0.000000 0.015310 
#    y 0.000000 1.797280 0.000000 
#    z 0.015310 0.000000 1.984780 
# 
# From -- ./inp_files/63653.got.cif
#   From: 2010.05.17/outbox.cif.g08.bks.cpg/sg10_32_cif.got.tgz:63653.got - 2010.06.03 11:33:40.
