data_PCOD9154898
_publ_section_title
;
Structure prediction by ZEFSAII (Michael W. Deem and Ramdas Pophale) SiO2 
 PCOD9154898
Probable space group: P 2/M
;
_chemical_formula_sum "Si O2"
_cell_formula_units_Z 32
_cell_length_a 6.897162
_cell_length_b 7.375613
_cell_length_c 23.053347
_cell_angle_alpha 90.000000
_cell_angle_beta 100.096281
_cell_angle_gamma 90.000000
_cell_volume 1154.581724
_symmetry_space_group_name_H-M "P 2/M"
_symmetry_group_IT_number 10
_symmetry_cell_setting 'monoclinic'
loop_
_space_group_symop_operation_xyz
x,y,z
-x,y,-z
-x,-y,-z
x,-y,z
loop_
_atom_site_type_symbol
_atom_site_label
_atom_site_fract_x
_atom_site_fract_y
_atom_site_fract_z
Si Si1 0.809239 0.785300 0.644970
Si Si2 0.735357 0.280205 0.015917
Si Si3 0.759258 0.714305 0.767156
Si Si4 0.760216 0.284773 0.891481
Si Si5 0.281497 0.284112 0.858521
Si Si6 0.307527 0.717498 0.733682
Si Si7 0.649920 0.786548 0.391325
Si Si8 0.208890 0.203439 0.481966
O O1 0.875524 0.729462 0.712631
O O2 0.574846 0.746661 0.634852
O O3 0.845508 0.709443 0.582552
O O4 0.847942 0.000000 0.645197
O O5 0.759537 0.500000 0.017631
O O6 0.795323 0.214980 0.083244
O O7 0.500000 0.246865 0.000000
O O8 0.816369 0.213608 0.958133
O O9 0.738633 0.500000 0.774772
O O10 0.835400 0.784991 0.833071
O O11 0.535926 0.786141 0.747141
O O12 0.804292 0.500000 0.896453
O O13 0.520996 0.268108 0.874400
O O14 0.236607 0.500000 0.855600
O O15 0.226781 0.213623 0.791565
O O16 0.309293 0.500000 0.738195
O O17 0.234837 0.749479 0.663234
O O18 0.677162 0.708278 0.457932
O O19 0.679644 0.000000 0.401625
O O20 0.000000 0.180031 0.500000
O O21 0.291557 0.000000 0.473138
#
# Coordination Sequence:
#
# PCOD9154898 Si02
#       8
#     4   4   4   4   4   4   4   4
#     4   9  16  26  41  59  75  92 118 151 182 212
#     4   7   8  10  18  34  57  85 116 147 174 198
#     4   8  13  21  33  50  72  96 121 149 180 213
#     4   7   9  13  22  38  61  88 117 147 175 202
#     4   7   9  13  22  38  61  88 117 147 175 202
#     4   8  13  21  33  50  72  96 121 149 180 213
#     4   9  16  26  41  59  75  92 118 151 182 212
#     4   9  17  29  44  59  74  94 120 149 180 214
#
# _framework density 27.715664
#
# number of rings (size 3 to 8) (size 9 to 14) (size 15 to 20)
#    0.000    4.000    0.000    3.375    0.000    1.500 
#    0.000    0.625    0.000    4.500    0.000    0.875 
#    0.000    7.000    0.000    1.125    0.000   26.500 
#
# Total GULP energy -178370.083594 kJ/mol
# GULP energy per Si atom -5574.065112 kJ/mol
# Density = 2.765258 g / cm^3
# Si number density = 27.715664 Si / 1000 Ang^3
#
#
#
# Elastic Constant Matrix: (Units=GPa)
#
#
# Indices 1 2 3 4 5 6 
#
# 1 67.3731 -4.0331 70.6681 0.0000 -10.9000 0.0000
# 2 -4.0331 74.0158 25.1368 0.0000 -4.3149 0.0000
# 3 70.6681 25.1368 412.2990 0.0000 -33.0190 0.0000
# 4 0.0000 0.0000 0.0000 45.0258 0.0000 -20.5210
# 5 -10.9000 -4.3149 -33.0190 0.0000 79.2085 0.0000
# 6 0.0000 0.0000 0.0000 -20.5210 0.0000 9.2687
#
#
#
# Elastic Compliance Matrix: (Units=1/GPa)
#
#
# Indices 1 2 3 4 5 6 
#
# 1 0.018551 0.002177 -0.003206 0.000000 0.001335 0.000000
# 2 0.002177 0.014065 -0.001185 0.000000 0.000572 0.000000
# 3 -0.003206 -0.001185 0.003110 0.000000 0.000791 0.000000
# 4 0.000000 0.000000 0.000000 -2.450728 0.000000 -5.425939
# 5 0.001335 0.000572 0.000791 0.000000 0.013170 0.000000
# 6 0.000000 0.000000 0.000000 -5.425939 0.000000-11.905200
#
#
# Mechanical properties :
#
#
# Convention : Reuss Voigt Hill
#
# Bulk Modulus (GPa) = 31.94824 81.91462 56.93143
# Shear Modulus (GPa) = -0.34984 57.49501 28.57258
#
# Velocity S-wave (km/s) = -0.35567 4.55956 3.21427
# Velocity P-wave (km/s) = 3.37394 7.57225 5.86185
#
# Compressibility (1/GPa) = 0.03130063
#
# Stress axis : x y z
#
# Youngs Moduli (GPa) = 53.90437 71.09836 321.49830
#
# Poissons Ratio (x) = -0.15480 1.03057
# Poissons Ratio (y) = -0.11737 0.38094
# Poissons Ratio (z) = 0.17279 0.08424
#
# Static dielectric constant tensor:
#      x y z
#    x 2.250990 0.000000 0.068400 
#    y 0.000000 2.109360 0.000000 
#    z 0.068400 0.000000 2.370350 
# 
# From -- ./inp_files/82363.got.cif
#   From: 2010.05.17/outbox.cif.g08.bks.cpg/sg10_42_cif.got.tgz:82363.got - 2010.06.03 11:33:40.
