data_PCOD9154169
_publ_section_title
;
Structure prediction by ZEFSAII (Michael W. Deem and Ramdas Pophale) SiO2 
 PCOD9154169
Probable space group: P 2/M
;
_chemical_formula_sum "Si O2"
_cell_formula_units_Z 30
_cell_length_a 8.694913
_cell_length_b 18.086331
_cell_length_c 10.946655
_cell_angle_alpha 90.000000
_cell_angle_beta 125.697043
_cell_angle_gamma 90.000000
_cell_volume 1398.021828
_symmetry_space_group_name_H-M "P 2/M"
_symmetry_group_IT_number 10
_symmetry_cell_setting 'monoclinic'
loop_
_space_group_symop_operation_xyz
x,y,z
-x,y,-z
-x,-y,-z
x,-y,z
loop_
_atom_site_type_symbol
_atom_site_label
_atom_site_fract_x
_atom_site_fract_y
_atom_site_fract_z
Si Si1 0.579236 0.661807 0.398336
Si Si2 0.000000 0.695910 0.500000
Si Si3 0.349280 0.917785 0.822138
Si Si4 0.986857 0.814298 0.303821
Si Si5 0.720951 0.915797 0.630699
Si Si6 0.593645 0.186948 0.773275
Si Si7 0.620621 0.416983 0.931998
Si Si8 0.124331 0.714454 0.946925
O O1 0.500000 0.639774 0.500000
O O2 0.811494 0.658990 0.478406
O O3 0.505094 0.746548 0.347926
O O4 0.482560 0.616947 0.238281
O O5 0.087972 0.754554 0.635337
O O6 0.440416 0.865644 0.763753
O O7 0.167303 0.876809 0.789831
O O8 0.306811 0.000000 0.755115
O O9 0.500000 0.923449 0.000000
O O10 0.170775 0.863132 0.414560
O O11 0.013188 0.759773 0.203139
O O12 0.500000 0.919280 0.500000
O O13 0.726323 0.869243 0.758546
O O14 0.793439 0.000000 0.670743
O O15 0.714705 0.229102 0.932781
O O16 0.686095 0.500000 0.931326
O O17 0.777584 0.359310 0.051333
O O18 0.500000 0.422676 0.000000
O O19 0.000000 0.688574 0.000000
#
# Coordination Sequence:
#
# PCOD9154169 Si02
#       8
#     4   2   4   4   4   4   4   4
#     4  11  24  42  71 103 138 182 232 278 332 411
#     4  12  24  38  68  94 132 180 230 280 334 394
#     4  11  23  37  57  88 126 172 227 288 351 404
#     4  12  23  41  60  92 127 169 225 286 333 399
#     4  11  24  40  57  81 121 171 222 278 340 394
#     4  11  20  40  59  88 124 169 220 278 337 397
#     4  10  24  47  74 104 140 174 211 269 341 412
#     4  11  23  39  69  98 125 163 215 271 331 400
#
# _framework density 21.458894000000001
#
# number of rings (size 3 to 8) (size 9 to 14) (size 15 to 20)
#    0.000    0.933    4.000    3.600    3.733    0.533 
#    0.000    1.667    0.000    0.000    0.000    0.000 
#    0.000    0.000    0.000    0.000    0.000    0.000 
#
# Total GULP energy -167079.497633 kJ/mol
# GULP energy per Si atom -5569.316588 kJ/mol
# Density = 2.141005 g / cm^3
# Si number density = 21.458894 Si / 1000 Ang^3
#
#
#
# Elastic Constant Matrix: (Units=GPa)
#
#
# Indices 1 2 3 4 5 6 
#
# 1 81.9651 26.2169 5.9942 0.0000 -3.1724 0.0000
# 2 26.2169 131.5935 20.1143 0.0000 -0.1774 0.0000
# 3 5.9942 20.1143 43.0782 0.0000 -4.2489 0.0000
# 4 0.0000 0.0000 0.0000 20.9963 0.0000 3.5534
# 5 -3.1724 -0.1774 -4.2489 0.0000 30.1787 0.0000
# 6 0.0000 0.0000 0.0000 3.5534 0.0000 34.2413
#
#
#
# Elastic Compliance Matrix: (Units=1/GPa)
#
#
# Indices 1 2 3 4 5 6 
#
# 1 0.013097 -0.002529 -0.000514 0.000000 0.001289 0.000000
# 2 -0.002529 0.008679 -0.003774 0.000000 -0.000746 0.000000
# 3 -0.000514 -0.003774 0.025392 0.000000 0.003499 0.000000
# 4 0.000000 0.000000 0.000000 0.048479 0.000000 -0.005031
# 5 0.001289 -0.000746 0.003499 0.000000 0.033760 0.000000
# 6 0.000000 0.000000 0.000000 -0.005031 0.000000 0.029727
#
#
# Mechanical properties :
#
#
# Convention : Reuss Voigt Hill
#
# Bulk Modulus (GPa) = 29.82103 40.14305 34.98204
# Shear Modulus (GPa) = 27.18193 30.70401 28.94297
#
# Velocity S-wave (km/s) = 3.56293 3.78673 3.67654
# Velocity P-wave (km/s) = 5.55454 6.15359 5.86173
#
# Compressibility (1/GPa) = 0.03353339
#
# Stress axis : x y z
#
# Youngs Moduli (GPa) = 76.35510 115.22270 39.38171
#
# Poissons Ratio (x) = 0.29138 0.02026
# Poissons Ratio (y) = 0.19309 0.14863
# Poissons Ratio (z) = 0.03928 0.43486
#
# Static dielectric constant tensor:
#      x y z
#    x 1.576400 0.000000 -0.037790 
#    y 0.000000 1.732960 0.000000 
#    z -0.037790 0.000000 1.781540 
# 
# From -- ./inp_files/43417.got.cif
#   From: 2010.05.17/outbox.cif.g08.bks.cpg/sg10_22_cif.got.tgz:43417.got - 2010.06.03 11:33:40.
