data_PCOD9154616
_publ_section_title
;
Structure prediction by ZEFSAII (Michael W. Deem and Ramdas Pophale) SiO2 
 PCOD9154616
Probable space group: P 2/M
;
_chemical_formula_sum "Si O2"
_cell_formula_units_Z 24
_cell_length_a 12.803174
_cell_length_b 7.995854
_cell_length_c 17.482942
_cell_angle_alpha 90.000000
_cell_angle_beta 146.808690
_cell_angle_gamma 90.000000
_cell_volume 979.784617
_symmetry_space_group_name_H-M "P 2/M"
_symmetry_group_IT_number 10
_symmetry_cell_setting 'monoclinic'
loop_
_space_group_symop_operation_xyz
x,y,z
-x,y,-z
-x,-y,-z
x,-y,z
loop_
_atom_site_type_symbol
_atom_site_label
_atom_site_fract_x
_atom_site_fract_y
_atom_site_fract_z
Si Si1 0.721011 0.703700 0.776991
Si Si2 0.858428 0.297905 0.022381
Si Si3 0.212496 0.803991 0.601177
Si Si4 0.376516 0.689871 0.854677
Si Si5 0.085440 0.186982 0.780202
Si Si6 0.685288 0.307148 0.502796
O O1 0.714234 0.500000 0.772797
O O2 0.528605 0.761245 0.618472
O O3 0.923332 0.749401 0.864860
O O4 0.731761 0.755532 0.872661
O O5 0.850806 0.500000 0.023339
O O6 0.816468 0.222137 0.078704
O O7 0.352700 0.775846 0.758814
O O8 0.274830 0.705179 0.564022
O O9 0.000000 0.756571 0.500000
O O10 0.206714 0.000000 0.577060
O O11 0.443639 0.500000 0.883227
O O12 0.168402 0.691514 0.766922
O O13 0.500000 0.766089 0.000000
O O14 0.859917 0.214310 0.649238
O O15 0.122757 0.000000 0.776040
O O16 0.691469 0.500000 0.532086
#
# Coordination Sequence:
#
# PCOD9154616 Si02
#       6
#     4   4   4   4   4   4
#     4   8  18  37  64  92 115 147 198 249 296 345
#     4   9  18  39  65  88 117 153 194 247 297 349
#     4  11  23  40  61  88 123 159 192 237 296 356
#     4  11  25  43  64  89 115 153 203 247 288 345
#     4  12  25  40  57  87 124 159 195 240 299 356
#     4  11  22  38  62  90 117 156 205 248 289 345
#
# _framework density 24.495179
#
# number of rings (size 3 to 8) (size 9 to 14) (size 15 to 20)
#    0.000    1.667    1.667    4.000    2.333    2.667 
#    0.000    7.500    0.000    0.000    0.000    0.000 
#    0.000    0.000    0.000    0.000    0.000    0.000 
#
# Total GULP energy -134296.109511 kJ/mol
# GULP energy per Si atom -5595.671230 kJ/mol
# Density = 2.443943 g / cm^3
# Si number density = 24.495179 Si / 1000 Ang^3
#
#
#
# Elastic Constant Matrix: (Units=GPa)
#
#
# Indices 1 2 3 4 5 6 
#
# 1 52.0539 -4.4150 5.6964 0.0000 -7.2111 0.0000
# 2 -4.4150 48.7543 1.8452 0.0000 0.0531 0.0000
# 3 5.6964 1.8452 113.4835 0.0000 -5.0551 0.0000
# 4 0.0000 0.0000 0.0000 196.2733 0.0000 -16.9752
# 5 -7.2111 0.0531 -5.0551 0.0000 48.7063 0.0000
# 6 0.0000 0.0000 0.0000 -16.9752 0.0000 -11.1545
#
#
#
# Elastic Compliance Matrix: (Units=1/GPa)
#
#
# Indices 1 2 3 4 5 6 
#
# 1 0.019859 0.001829 -0.000900 0.000000 0.002845 0.000000
# 2 0.001829 0.020692 -0.000419 0.000000 0.000205 0.000000
# 3 -0.000900 -0.000419 0.008899 0.000000 0.000791 0.000000
# 4 0.000000 0.000000 0.000000 0.004502 0.000000 -0.006852
# 5 0.002845 0.000205 0.000791 0.000000 0.021034 0.000000
# 6 0.000000 0.000000 0.000000 -0.006852 0.000000 -0.079222
#
#
# Mechanical properties :
#
#
# Convention : Reuss Voigt Hill
#
# Bulk Modulus (GPa) = 19.81356 24.50499 22.15927
# Shear Modulus (GPa) = 432.26511 60.84268 246.55389
#
# Velocity S-wave (km/s) = 13.29859 4.98924 10.04353
# Velocity P-wave (km/s) = 15.61761 6.57387 11.98177
#
# Compressibility (1/GPa) = 0.05047049
#
# Stress axis : x y z
#
# Youngs Moduli (GPa) = 50.35614 48.32716 112.37133
#
# Poissons Ratio (x) = -0.08840 0.10112
# Poissons Ratio (y) = -0.09212 0.04710
# Poissons Ratio (z) = 0.04531 0.02026
#
# Static dielectric constant tensor:
#      x y z
#    x 1.957890 0.000000 0.060750 
#    y 0.000000 1.871100 0.000000 
#    z 0.060750 0.000000 1.975440 
# 
# From -- ./inp_files/77882.got.cif
#   From: 2010.05.17/outbox.cif.g08.bks.cpg/sg10_39_cif.got.tgz:77882.got - 2010.06.03 11:33:40.
