data_PCOD9154237
_publ_section_title
;
Structure prediction by ZEFSAII (Michael W. Deem and Ramdas Pophale) SiO2 
 PCOD9154237
Probable space group: P 2/M
;
_chemical_formula_sum "Si O2"
_cell_formula_units_Z 24
_cell_length_a 10.769919
_cell_length_b 15.165549
_cell_length_c 11.970157
_cell_angle_alpha 90.000000
_cell_angle_beta 36.640722
_cell_angle_gamma 90.000000
_cell_volume 1166.798398
_symmetry_space_group_name_H-M "P 2/M"
_symmetry_group_IT_number 10
_symmetry_cell_setting 'monoclinic'
loop_
_space_group_symop_operation_xyz
x,y,z
-x,y,-z
-x,-y,-z
x,-y,z
loop_
_atom_site_type_symbol
_atom_site_label
_atom_site_fract_x
_atom_site_fract_y
_atom_site_fract_z
Si Si1 0.281520 0.352830 0.214278
Si Si2 0.836776 0.401345 0.451127
Si Si3 0.804360 0.855994 0.723361
Si Si4 0.932786 0.900659 0.880199
Si Si5 0.710498 0.771724 0.417753
Si Si6 0.469265 0.098574 0.273269
O O1 0.272228 0.378359 0.351479
O O2 0.241118 0.248048 0.231804
O O3 0.083032 0.397275 0.299461
O O4 0.500000 0.375290 0.000000
O O5 0.778897 0.500000 0.457827
O O6 0.782898 0.324515 0.403614
O O7 0.866612 0.894583 0.797454
O O8 0.609859 0.895926 0.797141
O O9 0.000000 0.868554 0.500000
O O10 0.106082 0.826745 0.773808
O O11 0.007743 0.000000 0.850197
O O12 0.715565 0.885734 0.100472
O O13 0.500000 0.767428 0.500000
O O14 0.654110 0.828841 0.568385
O O15 0.424881 0.000000 0.348053
#
# Coordination Sequence:
#
# PCOD9154237 Si02
#       6
#     4   4   4   4   4   4
#     4  11  19  36  66  94 124 156 183 233 309 371
#     4  11  24  42  61  92 123 149 197 247 300 368
#     4  12  19  34  62  96 130 161 191 234 300 367
#     4  11  23  39  62  92 125 161 199 243 297 358
#     4  12  26  44  62  83 115 163 213 257 298 341
#     4  11  23  39  62  92 125 161 199 243 297 358
#
# _framework density 20.569106000000001
#
# number of rings (size 3 to 8) (size 9 to 14) (size 15 to 20)
#    0.000    0.667    6.667    3.500    0.000    5.667 
#    0.000    1.667    0.000    0.000    0.000    4.667 
#    0.000    0.000    0.000    0.000    0.000    0.000 
#
# Total GULP energy -134296.779743 kJ/mol
# GULP energy per Si atom -5595.699156 kJ/mol
# Density = 2.052229 g / cm^3
# Si number density = 20.569106 Si / 1000 Ang^3
#
#
#
# Elastic Constant Matrix: (Units=GPa)
#
#
# Indices 1 2 3 4 5 6 
#
# 1 73.8246 19.9459 4.1752 0.0000 -20.1803 0.0000
# 2 19.9459 159.0498 23.3708 0.0000 -15.7298 0.0000
# 3 4.1752 23.3708 98.7395 0.0000 -18.0360 0.0000
# 4 0.0000 0.0000 0.0000 1.0817 0.0000 8.2154
# 5 -20.1803 -15.7298 -18.0360 0.0000 26.7996 0.0000
# 6 0.0000 0.0000 0.0000 8.2154 0.0000 -16.7780
#
#
#
# Elastic Compliance Matrix: (Units=1/GPa)
#
#
# Indices 1 2 3 4 5 6 
#
# 1 0.017544 -0.001125 0.002072 0.000000 0.013945 0.000000
# 2 -0.001125 0.006832 -0.001131 0.000000 0.002402 0.000000
# 3 0.002072 -0.001131 0.011939 0.000000 0.008931 0.000000
# 4 0.000000 0.000000 0.000000 0.195908 0.000000 0.095927
# 5 0.013945 0.002402 0.008931 0.000000 0.055235 0.000000
# 6 0.000000 0.000000 0.000000 0.095927 0.000000 -0.012631
#
#
# Mechanical properties :
#
#
# Convention : Reuss Voigt Hill
#
# Bulk Modulus (GPa) = 27.81916 47.39973 37.60945
# Shear Modulus (GPa) = 17.41076 21.16215 19.28645
#
# Velocity S-wave (km/s) = 2.91254 3.21102 3.06542
# Velocity P-wave (km/s) = 4.98644 6.06974 5.55456
#
# Compressibility (1/GPa) = 0.03594644
#
# Stress axis : x y z
#
# Youngs Moduli (GPa) = 56.99826 146.36672 83.75818
#
# Poissons Ratio (x) = 0.16473 -0.17352
# Poissons Ratio (y) = 0.06415 0.09472
# Poissons Ratio (z) = -0.11808 0.16552
#
# Static dielectric constant tensor:
#      x y z
#    x 1.735360 0.000000 0.001990 
#    y 0.000000 1.733500 0.000000 
#    z 0.001990 0.000000 1.744820 
# 
# From -- ./inp_files/51454.got.cif
#   From: 2010.05.17/outbox.cif.g08.bks.cpg/sg10_26_cif.got.tgz:51454.got - 2010.06.03 11:33:40.
