data_PCOD9154360
_publ_section_title
;
Structure prediction by ZEFSAII (Michael W. Deem and Ramdas Pophale) SiO2 
 PCOD9154360
Probable space group: P 2/M
;
_chemical_formula_sum "Si O2"
_cell_formula_units_Z 32
_cell_length_a 23.953073
_cell_length_b 7.716558
_cell_length_c 17.307647
_cell_angle_alpha 90.000000
_cell_angle_beta 31.548292
_cell_angle_gamma 90.000000
_cell_volume 1673.804625
_symmetry_space_group_name_H-M "P 2/M"
_symmetry_group_IT_number 10
_symmetry_cell_setting 'monoclinic'
loop_
_space_group_symop_operation_xyz
x,y,z
-x,y,-z
-x,-y,-z
x,-y,z
loop_
_atom_site_type_symbol
_atom_site_label
_atom_site_fract_x
_atom_site_fract_y
_atom_site_fract_z
Si Si1 0.885740 0.207609 0.465619
Si Si2 0.448232 0.290263 0.378530
Si Si3 0.129474 0.198829 0.349354
Si Si4 0.116006 0.287972 0.838588
Si Si5 0.326233 0.705317 0.672422
Si Si6 0.325752 0.202619 0.848134
Si Si7 0.762552 0.708319 0.457281
Si Si8 0.129794 0.213554 0.178769
O O1 0.846093 0.277823 0.595622
O O2 0.807724 0.242264 0.486889
O O3 0.007634 0.267910 0.305939
O O4 0.893763 0.000000 0.465760
O O5 0.450577 0.500000 0.375419
O O6 0.407305 0.227336 0.511550
O O7 0.568872 0.231083 0.225033
O O8 0.356367 0.233211 0.426942
O O9 0.159784 0.273561 0.230331
O O10 0.000000 0.193370 0.500000
O O11 0.169040 0.000000 0.302700
O O12 0.112789 0.500000 0.842386
O O13 0.208011 0.231454 0.789540
O O14 0.156662 0.233416 0.705975
O O15 0.000000 0.225907 0.000000
O O16 0.325401 0.500000 0.660298
O O17 0.349355 0.730646 0.734455
O O18 0.308000 0.000000 0.860352
O O19 0.218420 0.274878 0.013725
O O20 0.760447 0.500000 0.456205
O O21 0.130276 0.000000 0.179229
#
# Coordination Sequence:
#
# PCOD9154360 Si02
#       8
#     4   4   4   4   4   4   4   4
#     4   9  16  28  50  74  94 119 151 183 221 279
#     4   9  19  36  50  62  87 125 165 194 222 265
#     4   7  11  24  46  67  89 122 154 176 211 271
#     4   8  15  28  45  64  88 120 155 184 214 265
#     4   9  18  32  49  66  86 120 161 195 225 264
#     4  11  21  30  46  71  96 119 149 195 239 270
#     4   9  18  31  48  69  91 118 152 193 232 264
#     4   8  16  29  44  69 101 123 144 182 230 274
#
# _framework density 19.118120999999999
#
# number of rings (size 3 to 8) (size 9 to 14) (size 15 to 20)
#    0.000    3.250    0.000    3.750    1.750    2.500 
#    0.000    2.500    0.000    6.375    0.000    5.250 
#    0.000    0.000    0.000    0.000    0.000    0.000 
#
# Total GULP energy -178215.613972 kJ/mol
# GULP energy per Si atom -5569.237937 kJ/mol
# Density = 1.907461 g / cm^3
# Si number density = 19.118121 Si / 1000 Ang^3
#
#
#
# Elastic Constant Matrix: (Units=GPa)
#
#
# Indices 1 2 3 4 5 6 
#
# 1 117.6126 -12.0383 25.2470 0.0000 5.2343 0.0000
# 2 -12.0383 21.5268 -3.7632 0.0000 1.1546 0.0000
# 3 25.2470 -3.7632 41.6026 0.0000 -6.6167 0.0000
# 4 0.0000 0.0000 0.0000 9.9055 0.0000 -2.0554
# 5 5.2343 1.1546 -6.6167 0.0000 14.9162 0.0000
# 6 0.0000 0.0000 0.0000 -2.0554 0.0000 19.9621
#
#
#
# Elastic Compliance Matrix: (Units=1/GPa)
#
#
# Indices 1 2 3 4 5 6 
#
# 1 0.010956 0.005242 -0.007371 0.000000 -0.007520 0.000000
# 2 0.005242 0.049758 0.000446 0.000000 -0.005493 0.000000
# 3 -0.007371 0.000446 0.031154 0.000000 0.016372 0.000000
# 4 0.000000 0.000000 0.000000 0.103158 0.000000 0.010622
# 5 -0.007520 -0.005493 0.016372 0.000000 0.077367 0.000000
# 6 0.000000 0.000000 0.000000 0.010622 0.000000 0.051188
#
#
# Mechanical properties :
#
#
# Convention : Reuss Voigt Hill
#
# Bulk Modulus (GPa) = 11.29912 22.18144 16.74028
# Shear Modulus (GPa) = 14.02730 20.37653 17.20192
#
# Velocity S-wave (km/s) = 2.71166 3.26824 3.00287
# Velocity P-wave (km/s) = 3.96574 5.08619 4.56051
#
# Compressibility (1/GPa) = 0.08850244
#
# Stress axis : x y z
#
# Youngs Moduli (GPa) = 91.27547 20.09741 32.09854
#
# Poissons Ratio (x) = -0.10534 0.23658
# Poissons Ratio (y) = -0.47843 -0.01433
# Poissons Ratio (z) = 0.67275 -0.00897
#
# Static dielectric constant tensor:
#      x y z
#    x 1.688500 0.000000 0.018630 
#    y 0.000000 1.723890 0.000000 
#    z 0.018630 0.000000 1.670060 
# 
# From -- ./inp_files/79924.got.cif
#   From: 2010.05.17/outbox.cif.g08.bks.cpg/sg10_40_cif.got.tgz:79924.got - 2010.06.03 11:33:40.
