data_PCOD9154455
_publ_section_title
;
Structure prediction by ZEFSAII (Michael W. Deem and Ramdas Pophale) SiO2 
 PCOD9154455
Probable space group: P 2/M
;
_chemical_formula_sum "Si O2"
_cell_formula_units_Z 32
_cell_length_a 15.325682
_cell_length_b 18.852417
_cell_length_c 9.454739
_cell_angle_alpha 90.000000
_cell_angle_beta 142.124177
_cell_angle_gamma 90.000000
_cell_volume 1677.146250
_symmetry_space_group_name_H-M "P 2/M"
_symmetry_group_IT_number 10
_symmetry_cell_setting 'monoclinic'
loop_
_space_group_symop_operation_xyz
x,y,z
-x,y,-z
-x,-y,-z
x,-y,z
loop_
_atom_site_type_symbol
_atom_site_label
_atom_site_fract_x
_atom_site_fract_y
_atom_site_fract_z
Si Si1 0.353225 0.175382 0.356204
Si Si2 0.110614 0.584334 0.516945
Si Si3 0.119453 0.323101 0.263576
Si Si4 0.591473 0.661461 0.483643
Si Si5 0.606836 0.659024 0.016375
Si Si6 0.203825 0.778994 0.877230
Si Si7 0.144379 0.081323 0.274902
Si Si8 0.118450 0.802704 0.464969
O O1 0.500000 0.139373 0.500000
O O2 0.395251 0.251833 0.480046
O O3 0.261092 0.127084 0.340955
O O4 0.269614 0.188165 0.102606
O O5 0.106724 0.500000 0.500210
O O6 0.068077 0.621316 0.315293
O O7 0.271575 0.609556 0.760372
O O8 0.000000 0.605669 0.500000
O O9 0.244480 0.357144 0.329980
O O10 0.177862 0.257410 0.434006
O O11 0.000000 0.297648 0.000000
O O12 0.500000 0.637374 0.500000
O O13 0.507209 0.631121 0.241671
O O14 0.700803 0.711566 0.039792
O O15 0.500000 0.689965 0.000000
O O16 0.199153 0.814667 0.715661
O O17 0.037823 0.771413 0.701648
O O18 0.110975 0.123573 0.374876
O O19 0.187861 0.000000 0.352337
O O20 0.000000 0.081964 0.000000
#
# Coordination Sequence:
#
# PCOD9154455 Si02
#       8
#     4   4   4   4   4   4   4   4
#     4  11  21  37  59  92 126 160 199 261 318 377
#     4  11  26  46  66  93 131 174 211 252 316 383
#     4  12  23  38  65  94 124 162 212 270 311 371
#     4  11  22  36  60  98 126 156 204 266 318 361
#     4  12  22  40  63  96 126 160 209 258 319 368
#     4  11  21  35  61  95 121 155 204 266 310 365
#     4  11  23  41  62  86 126 170 211 257 314 379
#     4  11  21  37  62  95 121 155 216 266 315 360
#
# _framework density 19.080029
#
# number of rings (size 3 to 8) (size 9 to 14) (size 15 to 20)
#    0.000    0.750    7.500    1.875    1.750    0.750 
#    0.000    1.875    0.000    1.500    0.000    0.000 
#    0.000    0.000    0.000    0.000    0.000    0.000 
#
# Total GULP energy -178271.018128 kJ/mol
# GULP energy per Si atom -5570.969317 kJ/mol
# Density = 1.903660 g / cm^3
# Si number density = 19.080029 Si / 1000 Ang^3
#
#
#
# Elastic Constant Matrix: (Units=GPa)
#
#
# Indices 1 2 3 4 5 6 
#
# 1 118.8119 19.8711 4.9374 0.0000 3.4505 0.0000
# 2 19.8711 60.5461 9.8201 0.0000 -3.9826 0.0000
# 3 4.9374 9.8201 61.1741 0.0000 -12.9570 0.0000
# 4 0.0000 0.0000 0.0000 13.6822 0.0000 4.4756
# 5 3.4505 -3.9826 -12.9570 0.0000 28.0991 0.0000
# 6 0.0000 0.0000 0.0000 4.4756 0.0000 6.5201
#
#
#
# Elastic Compliance Matrix: (Units=1/GPa)
#
#
# Indices 1 2 3 4 5 6 
#
# 1 0.008992 -0.002968 -0.000634 0.000000 -0.001817 0.000000
# 2 -0.002968 0.017979 -0.002249 0.000000 0.001875 0.000000
# 3 -0.000634 -0.002249 0.018516 0.000000 0.008297 0.000000
# 4 0.000000 0.000000 0.000000 0.094251 0.000000 -0.064697
# 5 -0.001817 0.001875 0.008297 0.000000 0.039903 0.000000
# 6 0.000000 0.000000 0.000000 -0.064697 0.000000 0.197781
#
#
# Mechanical properties :
#
#
# Convention : Reuss Voigt Hill
#
# Bulk Modulus (GPa) = 29.59948 34.42104 32.01026
# Shear Modulus (GPa) = 12.48791 23.38719 17.93755
#
# Velocity S-wave (km/s) = 2.56110 3.50486 3.06947
# Velocity P-wave (km/s) = 4.92876 5.87011 5.41991
#
# Compressibility (1/GPa) = 0.03378437
#
# Stress axis : x y z
#
# Youngs Moduli (GPa) = 111.20785 55.62179 54.00594
#
# Poissons Ratio (x) = 0.16508 0.03425
# Poissons Ratio (y) = 0.33005 0.12147
# Poissons Ratio (z) = 0.07053 0.12511
#
# Static dielectric constant tensor:
#      x y z
#    x 1.715630 0.000000 0.016390 
#    y 0.000000 1.654890 0.000000 
#    z 0.016390 0.000000 1.793870 
# 
# From -- ./inp_files/30336.got.cif
#   From: 2010.05.17/outbox.cif.g08.bks.cpg/sg10_16_cif.got.tgz:30336.got - 2010.06.03 11:33:40.
