data_PCOD9154164
_publ_section_title
;
Structure prediction by ZEFSAII (Michael W. Deem and Ramdas Pophale) SiO2 
 PCOD9154164
Probable space group: P 2/M
;
_chemical_formula_sum "Si O2"
_cell_formula_units_Z 13
_cell_length_a 5.158877
_cell_length_b 18.651290
_cell_length_c 5.554622
_cell_angle_alpha 90.000000
_cell_angle_beta 94.540058
_cell_angle_gamma 90.000000
_cell_volume 532.787101
_symmetry_space_group_name_H-M "P 2/M"
_symmetry_group_IT_number 10
_symmetry_cell_setting 'monoclinic'
loop_
_space_group_symop_operation_xyz
x,y,z
-x,y,-z
-x,-y,-z
x,-y,z
loop_
_atom_site_type_symbol
_atom_site_label
_atom_site_fract_x
_atom_site_fract_y
_atom_site_fract_z
Si Si1 0.738481 0.000000 0.331694
Si Si2 0.729546 0.621962 0.830126
Si Si3 0.239361 0.159236 0.847614
Si Si4 0.500000 0.500000 0.500000
Si Si5 0.500000 0.251792 0.500000
O O1 0.500000 0.000000 0.500000
O O2 0.746041 0.926327 0.186729
O O3 0.000000 0.000000 0.500000
O O4 0.699673 0.562531 0.621195
O O5 0.646826 0.696221 0.698848
O O6 0.500000 0.602032 0.000000
O O7 0.000000 0.624032 0.000000
O O8 0.281095 0.200746 0.601546
O O9 0.500000 0.180473 0.000000
O O10 0.000000 0.177214 0.000000
#
# Coordination Sequence:
#
# PCOD9154164 Si02
#       5
#     2   4   4   1   2
#     4  12  24  48  74 105 145 192 253 328 385 445
#     4  11  26  48  75 113 156 198 253 304 378 447
#     4  12  27  47  75 105 145 199 257 319 389 453
#     4  10  24  46  84 114 152 200 246 316 360 448
#     4  11  28  48  72 109 156 204 254 317 380 462
#
# _framework density 24.399989999999999
#
# number of rings (size 3 to 8) (size 9 to 14) (size 15 to 20)
#    0.000    0.615    1.538    4.615    0.000   13.538 
#    0.000    0.000    0.000    1.846    0.000    0.000 
#    0.000    0.000    0.000    0.000    0.000    0.000 
#
# Total GULP energy -72560.439514 kJ/mol
# GULP energy per Si atom -5581.572270 kJ/mol
# Density = 2.434445 g / cm^3
# Si number density = 24.399990 Si / 1000 Ang^3
#
#
#
# Elastic Constant Matrix: (Units=GPa)
#
#
# Indices 1 2 3 4 5 6 
#
# 1 233.7333 41.3146 72.6776 0.0000 5.1009 0.0000
# 2 41.3146 198.1861 44.2521 0.0000 1.9080 0.0000
# 3 72.6776 44.2521 76.6520 0.0000 18.8753 0.0000
# 4 0.0000 0.0000 0.0000 -153.7061 0.0000 7.8200
# 5 5.1009 1.9080 18.8753 0.0000 66.1720 0.0000
# 6 0.0000 0.0000 0.0000 7.8200 0.0000 -7.5366
#
#
#
# Elastic Compliance Matrix: (Units=1/GPa)
#
#
# Indices 1 2 3 4 5 6 
#
# 1 0.006168 0.000090 -0.006220 0.000000 0.001296 0.000000
# 2 0.000090 0.005838 -0.003671 0.000000 0.000872 0.000000
# 3 -0.006220 -0.003671 0.022499 0.000000 -0.005832 0.000000
# 4 0.000000 0.000000 0.000000 -0.006869 0.000000 -0.007127
# 5 0.001296 0.000872 -0.005832 0.000000 0.016651 0.000000
# 6 0.000000 0.000000 0.000000 -0.007127 0.000000 -0.140080
#
#
# Mechanical properties :
#
#
# Convention : Reuss Voigt Hill
#
# Bulk Modulus (GPa) = 67.09298 91.67333 79.38316
# Shear Modulus (GPa) = -70.20009 4.34099 -32.92955
#
# Velocity S-wave (km/s) = -5.36964 1.33527 -3.67764
# Velocity P-wave (km/s) = 3.29957 6.32692 3.81725
#
# Compressibility (1/GPa) = 0.01490469
#
# Stress axis : x y z
#
# Youngs Moduli (GPa) = 162.12584 171.28655 44.44728
#
# Poissons Ratio (x) = -0.01549 0.27644
# Poissons Ratio (y) = -0.01467 0.16316
# Poissons Ratio (z) = 1.00836 0.62877
#
# Static dielectric constant tensor:
#      x y z
#    x 1.888140 0.000000 -0.082960 
#    y 0.000000 2.361090 0.000000 
#    z -0.082960 0.000000 1.446840 
# 
# From -- ./inp_files/846.got.cif
#   From: 2010.05.17/outbox.cif.g08.bks.cpg/sg10_1_cif.got.tgz:846.got - 2010.06.03 11:33:40.
