data_PCOD9154971
_publ_section_title
;
Structure prediction by ZEFSAII (Michael W. Deem and Ramdas Pophale) SiO2 
 PCOD9154971
Probable space group: P 2/M
;
_chemical_formula_sum "Si O2"
_cell_formula_units_Z 14
_cell_length_a 5.195392
_cell_length_b 20.062147
_cell_length_c 7.142795
_cell_angle_alpha 90.000000
_cell_angle_beta 46.870281
_cell_angle_gamma 90.000000
_cell_volume 543.340899
_symmetry_space_group_name_H-M "P 2/M"
_symmetry_group_IT_number 10
_symmetry_cell_setting 'monoclinic'
loop_
_space_group_symop_operation_xyz
x,y,z
-x,y,-z
-x,-y,-z
x,-y,z
loop_
_atom_site_type_symbol
_atom_site_label
_atom_site_fract_x
_atom_site_fract_y
_atom_site_fract_z
Si Si1 0.423844 0.571083 0.259732
Si Si2 0.413305 0.858669 0.822733
Si Si3 0.424624 0.000000 0.815703
Si Si4 0.587282 0.287591 0.736074
O O1 0.566867 0.500000 0.262157
O O2 0.571573 0.642247 0.258805
O O3 0.000000 0.570167 0.500000
O O4 0.500000 0.571446 0.000000
O O5 0.501059 0.785594 0.702115
O O6 0.571475 0.928854 0.669808
O O7 0.500000 0.856916 0.000000
O O8 0.000000 0.864257 0.000000
O O9 0.500000 0.000000 0.000000
O O10 0.000000 0.000000 0.000000
O O11 0.000000 0.293691 0.500000
O O12 0.500000 0.285586 0.000000
#
# Coordination Sequence:
#
# PCOD9154971 Si02
#       4
#     4   4   2   4
#     4   8  13  22  39  64  94 128 166 208 254 305
#     4   9  17  31  51  76 105 138 176 218 265 316
#     4   8  14  26  47  72 100 134 172 214 260 312
#     4   9  17  30  48  73 103 136 174 216 263 314
#
# _framework density 25.766513
#
# number of rings (size 3 to 8) (size 9 to 14) (size 15 to 20)
#    0.000    3.429    0.000    0.000    0.000    0.000 
#    0.000    6.429    0.000    0.857    0.000   30.000 
#    0.000   50.286    0.000    0.000    0.000   12.000 
#
# Total GULP energy -78042.451507 kJ/mol
# GULP energy per Si atom -5574.460822 kJ/mol
# Density = 2.570787 g / cm^3
# Si number density = 25.766513 Si / 1000 Ang^3
#
#
#
# Elastic Constant Matrix: (Units=GPa)
#
#
# Indices 1 2 3 4 5 6 
#
# 1 118.6894 -0.0285 36.6973 0.0000 18.5627 0.0000
# 2 -0.0285 424.2705 -4.0700 0.0000 -2.7329 0.0000
# 3 36.6973 -4.0700 140.1457 0.0000 16.1465 0.0000
# 4 0.0000 0.0000 0.0000 -28.1612 0.0000 -64.8646
# 5 18.5627 -2.7329 16.1465 0.0000 55.6099 0.0000
# 6 0.0000 0.0000 0.0000 -64.8646 0.0000 -70.2088
#
#
#
# Elastic Compliance Matrix: (Units=1/GPa)
#
#
# Indices 1 2 3 4 5 6 
#
# 1 0.009501 -0.000037 -0.002197 0.000000 -0.002535 0.000000
# 2 -0.000037 0.002358 0.000066 0.000000 0.000109 0.000000
# 3 -0.002197 0.000066 0.007892 0.000000 -0.001555 0.000000
# 4 0.000000 0.000000 0.000000 0.031480 0.000000 -0.029084
# 5 -0.002535 0.000109 -0.001555 0.000000 0.019286 0.000000
# 6 0.000000 0.000000 0.000000 -0.029084 0.000000 0.012627
#
#
# Mechanical properties :
#
#
# Convention : Reuss Voigt Hill
#
# Bulk Modulus (GPa) = 64.87176 83.14480 74.00828
# Shear Modulus (GPa) = 53.98501 34.81509 44.40005
#
# Velocity S-wave (km/s) = 4.58226 3.67982 4.15561
# Velocity P-wave (km/s) = 7.29572 7.09883 7.19795
#
# Compressibility (1/GPa) = 0.01541503
#
# Stress axis : x y z
#
# Youngs Moduli (GPa) = 105.25082 424.03138 126.71516
#
# Poissons Ratio (x) = 0.01559 0.27837
# Poissons Ratio (y) = 0.00387 -0.00831
# Poissons Ratio (z) = 0.23122 -0.02779
#
# Static dielectric constant tensor:
#      x y z
#    x 1.972660 0.000000 -0.056720 
#    y 0.000000 2.300510 0.000000 
#    z -0.056720 0.000000 1.957700 
# 
# From -- ./inp_files/974.got.cif
#   From: 2010.05.17/outbox.cif.g08.bks.cpg/sg10_1_cif.got.tgz:974.got - 2010.06.03 11:33:40.
