data_PCOD9154422
_publ_section_title
;
Structure prediction by ZEFSAII (Michael W. Deem and Ramdas Pophale) SiO2 
 PCOD9154422
Probable space group: P 2/M
;
_chemical_formula_sum "Si O2"
_cell_formula_units_Z 28
_cell_length_a 22.253595
_cell_length_b 9.293484
_cell_length_c 15.259500
_cell_angle_alpha 90.000000
_cell_angle_beta 28.493821
_cell_angle_gamma 90.000000
_cell_volume 1505.551682
_symmetry_space_group_name_H-M "P 2/M"
_symmetry_group_IT_number 10
_symmetry_cell_setting 'monoclinic'
loop_
_space_group_symop_operation_xyz
x,y,z
-x,y,-z
-x,-y,-z
x,-y,z
loop_
_atom_site_type_symbol
_atom_site_label
_atom_site_fract_x
_atom_site_fract_y
_atom_site_fract_z
Si Si1 0.691043 0.671318 0.035146
Si Si2 0.917236 0.328682 0.356576
Si Si3 0.413695 0.834939 0.979795
Si Si4 0.307183 0.834939 0.299325
Si Si5 0.355308 0.674427 0.701566
Si Si6 0.912182 0.674427 0.030945
Si Si7 0.943797 0.166476 0.668605
O O1 0.701753 0.500000 0.014730
O O2 0.586349 0.733093 0.104132
O O3 0.813124 0.750728 0.842110
O O4 0.674440 0.706891 0.158642
O O5 0.918240 0.500000 0.365279
O O6 0.776832 0.266908 0.532690
O O7 0.007522 0.293110 0.159396
O O8 0.968364 0.249271 0.376400
O O9 0.322755 0.789178 0.177244
O O10 0.378712 0.000000 0.001176
O O11 0.552724 0.838324 0.841830
O O12 0.258598 0.000000 0.361513
O O13 0.500000 0.724732 0.500000
O O14 0.357886 0.500000 0.689097
O O15 0.233941 0.723436 0.798177
O O16 0.904869 0.500000 0.048150
O O17 0.000000 0.724733 0.000000
O O18 0.000000 0.171945 0.500000
O O19 0.929042 0.000000 0.712869
#
# Coordination Sequence:
#
# PCOD9154422 Si02
#       7
#     4   4   4   4   4   4   4
#     4  11  21  34  55  85 114 140 183 241 292 333
#     4  11  21  34  55  85 114 140 183 241 292 333
#     4   9  19  36  55  76 109 154 194 225 271 343
#     4   9  19  36  55  76 109 154 194 225 271 343
#     4   9  18  34  55  80 112 148 186 233 291 352
#     4   9  18  34  55  80 112 148 186 233 291 352
#     4  11  23  37  55  79 111 155 195 223 274 353
#
# _framework density 18.597835
#
# number of rings (size 3 to 8) (size 9 to 14) (size 15 to 20)
#    0.000    2.143    1.429    3.000    0.000    6.857 
#    0.000    4.286    0.000    3.429    0.000    0.000 
#    0.000    0.000    0.000    0.000    0.000    0.000 
#
# Total GULP energy -156022.543256 kJ/mol
# GULP energy per Si atom -5572.233688 kJ/mol
# Density = 1.855551 g / cm^3
# Si number density = 18.597835 Si / 1000 Ang^3
#
#
#
# Elastic Constant Matrix: (Units=GPa)
#
#
# Indices 1 2 3 4 5 6 
#
# 1 87.4042 33.3552 62.0725 0.0000 -10.1284 0.0000
# 2 33.3552 49.3315 35.2413 0.0000 6.3800 0.0000
# 3 62.0725 35.2413 82.1060 0.0000 -7.7949 0.0000
# 4 0.0000 0.0000 0.0000 -43.8325 0.0000 -62.4910
# 5 -10.1284 6.3800 -7.7949 0.0000 19.0736 0.0000
# 6 0.0000 0.0000 0.0000 -62.4910 0.0000 -25.3659
#
#
#
# Elastic Compliance Matrix: (Units=1/GPa)
#
#
# Indices 1 2 3 4 5 6 
#
# 1 0.027222 -0.008397 -0.015956 0.000000 0.010743 0.000000
# 2 -0.008397 0.037018 -0.011589 0.000000 -0.021577 0.000000
# 3 -0.015956 -0.011589 0.029942 0.000000 0.007640 0.000000
# 4 0.000000 0.000000 0.000000 0.009081 0.000000 -0.022372
# 5 0.010743 -0.021577 0.007640 0.000000 0.068473 0.000000
# 6 0.000000 0.000000 0.000000 -0.022372 0.000000 0.015692
#
#
# Mechanical properties :
#
#
# Convention : Reuss Voigt Hill
#
# Bulk Modulus (GPa) = 44.84740 53.35329 49.10035
# Shear Modulus (GPa) = 18.74451 -4.14677 7.29887
#
# Velocity S-wave (km/s) = 3.17817 -1.49484 1.98320
# Velocity P-wave (km/s) = 6.13468 5.07649 5.63050
#
# Compressibility (1/GPa) = 0.02229784
#
# Stress axis : x y z
#
# Youngs Moduli (GPa) = 36.73500 27.01381 33.39816
#
# Poissons Ratio (x) = 0.22683 0.53290
# Poissons Ratio (y) = 0.30846 0.38706
# Poissons Ratio (z) = 0.58614 0.31307
#
# Static dielectric constant tensor:
#      x y z
#    x 1.635260 0.000000 -0.009810 
#    y 0.000000 1.607030 0.000000 
#    z -0.009810 0.000000 1.632360 
# 
# From -- ./inp_files/49574.got.cif
#   From: 2010.05.17/outbox.cif.g08.bks.cpg/sg10_25_cif.got.tgz:49574.got - 2010.06.03 11:33:40.
