data_PCOD9154863
_publ_section_title
;
Structure prediction by ZEFSAII (Michael W. Deem and Ramdas Pophale) SiO2 
 PCOD9154863
Probable space group: P 2/M
;
_chemical_formula_sum "Si O2"
_cell_formula_units_Z 28
_cell_length_a 12.074444
_cell_length_b 7.958656
_cell_length_c 19.809428
_cell_angle_alpha 90.000000
_cell_angle_beta 128.028973
_cell_angle_gamma 90.000000
_cell_volume 1499.475195
_symmetry_space_group_name_H-M "P 2/M"
_symmetry_group_IT_number 10
_symmetry_cell_setting 'monoclinic'
loop_
_space_group_symop_operation_xyz
x,y,z
-x,y,-z
-x,-y,-z
x,-y,z
loop_
_atom_site_type_symbol
_atom_site_label
_atom_site_fract_x
_atom_site_fract_y
_atom_site_fract_z
Si Si1 0.880704 0.297704 0.753014
Si Si2 0.508313 0.694588 0.290411
Si Si3 0.429372 0.706462 0.403944
Si Si4 0.730686 0.297561 0.980852
Si Si5 0.823007 0.305654 0.876145
Si Si6 0.420604 0.702056 0.824159
Si Si7 0.821214 0.198037 0.164361
O O1 0.872737 0.500000 0.755823
O O2 0.733488 0.241931 0.665457
O O3 0.892090 0.230353 0.834728
O O4 0.018899 0.253767 0.763729
O O5 0.552955 0.500000 0.313848
O O6 0.508829 0.766783 0.365897
O O7 0.343729 0.692572 0.205878
O O8 0.588767 0.769077 0.256237
O O9 0.500000 0.760407 0.500000
O O10 0.431100 0.500000 0.403329
O O11 0.730635 0.500000 0.973723
O O12 0.824012 0.233471 0.952340
O O13 0.569494 0.237770 0.910937
O O14 0.781501 0.258708 0.074429
O O15 0.871511 0.500000 0.898570
O O16 0.432871 0.500000 0.823692
O O17 0.290786 0.738629 0.823398
O O18 0.814822 0.000000 0.162314
#
# Coordination Sequence:
#
# PCOD9154863 Si02
#       7
#     4   4   4   4   4   4   4
#     4   9  17  31  49  68  93 123 151 177 218 278
#     4   7  11  22  43  71  96 114 138 178 225 269
#     4   8  13  24  49  83 105 111 128 177 237 279
#     4   9  17  31  50  68  85 112 156 200 232 265
#     4   7  12  25  46  68  87 112 148 187 222 264
#     4   9  17  31  50  67  86 119 161 194 220 261
#     4  12  24  32  40  60  93 127 158 194 230 261
#
# _framework density 18.673200000000001
#
# number of rings (size 3 to 8) (size 9 to 14) (size 15 to 20)
#    0.000    3.286    0.000    5.143    0.000    2.857 
#    0.000    3.571    0.000    6.429    0.000    6.000 
#    0.000    0.000    0.000    0.000    0.000    0.000 
#
# Total GULP energy -155943.753463 kJ/mol
# GULP energy per Si atom -5569.419767 kJ/mol
# Density = 1.863070 g / cm^3
# Si number density = 18.673200 Si / 1000 Ang^3
#
#
#
# Elastic Constant Matrix: (Units=GPa)
#
#
# Indices 1 2 3 4 5 6 
#
# 1 132.7971 4.1250 65.2127 0.0000 -6.3386 0.0000
# 2 4.1250 17.3050 7.0775 0.0000 -0.5782 0.0000
# 3 65.2127 7.0775 107.9219 0.0000 -22.2449 0.0000
# 4 0.0000 0.0000 0.0000 62.3596 0.0000 52.2533
# 5 -6.3386 -0.5782 -22.2449 0.0000 22.0233 0.0000
# 6 0.0000 0.0000 0.0000 52.2533 0.0000 9.4341
#
#
#
# Elastic Compliance Matrix: (Units=1/GPa)
#
#
# Indices 1 2 3 4 5 6 
#
# 1 0.011052 0.000336 -0.007632 0.000000 -0.004519 0.000000
# 2 0.000336 0.059547 -0.004756 0.000000 -0.003144 0.000000
# 3 -0.007632 -0.004756 0.017316 0.000000 0.015169 0.000000
# 4 0.000000 0.000000 0.000000 -0.004404 0.000000 0.024393
# 5 -0.004519 -0.003144 0.015169 0.000000 0.059345 0.000000
# 6 0.000000 0.000000 0.000000 0.024393 0.000000 -0.029111
#
#
# Mechanical properties :
#
#
# Convention : Reuss Voigt Hill
#
# Bulk Modulus (GPa) = 15.67126 45.65049 30.66087
# Shear Modulus (GPa) = 31.42328 30.87065 31.14697
#
# Velocity S-wave (km/s) = 4.10665 4.07038 4.08855
# Velocity P-wave (km/s) = 5.55848 6.82574 6.22444
#
# Compressibility (1/GPa) = 0.06381109
#
# Stress axis : x y z
#
# Youngs Moduli (GPa) = 90.48301 16.79346 57.75052
#
# Poissons Ratio (x) = -0.00564 0.44073
# Poissons Ratio (y) = -0.03039 0.27466
# Poissons Ratio (z) = 0.69053 0.07987
#
# Static dielectric constant tensor:
#      x y z
#    x 1.712500 0.000000 -0.024390 
#    y 0.000000 1.666560 0.000000 
#    z -0.024390 0.000000 1.658140 
# 
# From -- ./inp_files/83410.got.cif
#   From: 2010.05.17/outbox.cif.g08.bks.cpg/sg10_42_cif.got.tgz:83410.got - 2010.06.03 11:33:40.
