data_PCOD9154913
_publ_section_title
;
Structure prediction by ZEFSAII (Michael W. Deem and Ramdas Pophale) SiO2 
 PCOD9154913
Probable space group: P 2/M
;
_chemical_formula_sum "Si O2"
_cell_formula_units_Z 28
_cell_length_a 13.800191
_cell_length_b 14.992273
_cell_length_c 13.801626
_cell_angle_alpha 90.000000
_cell_angle_beta 149.267116
_cell_angle_gamma 90.000000
_cell_volume 1459.266495
_symmetry_space_group_name_H-M "P 2/M"
_symmetry_group_IT_number 10
_symmetry_cell_setting 'monoclinic'
loop_
_space_group_symop_operation_xyz
x,y,z
-x,y,-z
-x,-y,-z
x,-y,z
loop_
_atom_site_type_symbol
_atom_site_label
_atom_site_fract_x
_atom_site_fract_y
_atom_site_fract_z
Si Si1 0.321730 0.786101 0.124906
Si Si2 0.124997 0.213889 0.321781
Si Si3 0.719239 0.400954 0.836271
Si Si4 0.163843 0.400949 0.280790
Si Si5 0.025157 0.101516 0.410829
Si Si6 0.589236 0.898486 0.974922
Si Si7 0.777397 0.102794 0.777421
O O1 0.435252 0.833102 0.136249
O O2 0.098563 0.785355 0.901367
O O3 0.372825 0.684243 0.192537
O O4 0.328452 0.844645 0.228271
O O5 0.192676 0.315742 0.372854
O O6 0.228323 0.155311 0.328469
O O7 0.136321 0.166914 0.435295
O O8 0.644000 0.500000 0.793130
O O9 0.725727 0.388469 0.725780
O O10 0.940817 0.401084 0.059255
O O11 0.207021 0.500000 0.356037
O O12 0.813790 0.096318 0.186284
O O13 0.000000 0.131299 0.500000
O O14 0.101434 0.000000 0.476850
O O15 0.523206 0.000000 0.898659
O O16 0.500000 0.868679 0.000000
O O17 0.718306 0.000000 0.718364
O O18 0.000000 0.102366 0.000000
#
# Coordination Sequence:
#
# PCOD9154913 Si02
#       7
#     4   4   4   4   4   4   4
#     4   9  14  21  33  51  75 100 124 155 194 232
#     4   9  14  21  33  51  75 100 124 155 194 232
#     4   8  12  18  29  47  73 102 126 148 184 236
#     4   8  12  18  29  47  73 102 126 148 184 236
#     4   9  17  28  41  57  77 103 135 165 191 224
#     4   9  17  28  41  57  77 103 135 165 191 224
#     4   9  14  18  27  47  74  98 117 146 194 240
#
# _framework density 19.187722000000001
#
# number of rings (size 3 to 8) (size 9 to 14) (size 15 to 20)
#    0.000    3.286    1.429    1.714    0.000    3.429 
#    0.000    0.000    0.000    0.857    0.000    1.000 
#    0.000    5.714    0.000    3.143    0.000    2.857 
#
# Total GULP energy -156196.314705 kJ/mol
# GULP energy per Si atom -5578.439811 kJ/mol
# Density = 1.914405 g / cm^3
# Si number density = 19.187722 Si / 1000 Ang^3
#
#
#
# Elastic Constant Matrix: (Units=GPa)
#
#
# Indices 1 2 3 4 5 6 
#
# 1 87.6815 88.9678 53.4294 0.0000 -40.1706 0.0000
# 2 88.9678 199.5040 46.8703 0.0000 -57.9859 0.0000
# 3 53.4294 46.8703 56.4287 0.0000 -3.1151 0.0000
# 4 0.0000 0.0000 0.0000 1.2026 0.0000 -18.0735
# 5 -40.1706 -57.9859 -3.1151 0.0000 53.4250 0.0000
# 6 0.0000 0.0000 0.0000 -18.0735 0.0000 14.3484
#
#
#
# Elastic Compliance Matrix: (Units=1/GPa)
#
#
# Indices 1 2 3 4 5 6 
#
# 1 0.093093 -0.005307 -0.080450 0.000000 0.059547 0.000000
# 2 -0.005307 0.010017 -0.002925 0.000000 0.006711 0.000000
# 3 -0.080450 -0.002925 0.093110 0.000000 -0.058236 0.000000
# 4 0.000000 0.000000 0.000000 -0.046375 0.000000 -0.058415
# 5 0.059547 0.006711 -0.058236 0.000000 0.067380 0.000000
# 6 0.000000 0.000000 0.000000 -0.058415 0.000000 -0.003887
#
#
# Mechanical properties :
#
#
# Convention : Reuss Voigt Hill
#
# Bulk Modulus (GPa) = 53.03173 80.23878 66.63526
# Shear Modulus (GPa) = 12.59489 24.08498 18.33994
#
# Velocity S-wave (km/s) = 2.56482 3.54676 3.09498
# Velocity P-wave (km/s) = 6.03899 7.66037 6.89749
#
# Compressibility (1/GPa) = 0.01885663
#
# Stress axis : x y z
#
# Youngs Moduli (GPa) = 10.74192 99.83382 10.73999
#
# Poissons Ratio (x) = 0.52979 0.86403
# Poissons Ratio (y) = 0.05700 0.03141
# Poissons Ratio (z) = 0.86419 0.29200
#
# Static dielectric constant tensor:
#      x y z
#    x 1.675880 0.000000 0.071530 
#    y 0.000000 1.666740 0.000000 
#    z 0.071530 0.000000 1.727930 
# 
# From -- ./inp_files/47196.got.cif
#   From: 2010.05.17/outbox.cif.g08.bks.cpg/sg10_24_cif.got.tgz:47196.got - 2010.06.03 11:33:40.
