data_PCOD9154563
_publ_section_title
;
Structure prediction by ZEFSAII (Michael W. Deem and Ramdas Pophale) SiO2 
 PCOD9154563
Probable space group: P 2/M
;
_chemical_formula_sum "Si O2"
_cell_formula_units_Z 28
_cell_length_a 15.221292
_cell_length_b 14.495314
_cell_length_c 11.290712
_cell_angle_alpha 90.000000
_cell_angle_beta 137.781086
_cell_angle_gamma 90.000000
_cell_volume 1673.968159
_symmetry_space_group_name_H-M "P 2/M"
_symmetry_group_IT_number 10
_symmetry_cell_setting 'monoclinic'
loop_
_space_group_symop_operation_xyz
x,y,z
-x,y,-z
-x,-y,-z
x,-y,z
loop_
_atom_site_type_symbol
_atom_site_label
_atom_site_fract_x
_atom_site_fract_y
_atom_site_fract_z
Si Si1 0.982954 0.611746 0.118965
Si Si2 0.255647 0.389241 0.505674
Si Si3 0.659808 0.698951 0.161037
Si Si4 0.290846 0.100861 0.813407
Si Si5 0.478979 0.901411 0.772718
Si Si6 0.526239 0.721773 0.391384
Si Si7 0.291745 0.390387 0.039636
O O1 0.981077 0.500000 0.111857
O O2 0.107562 0.636327 0.323693
O O3 0.000000 0.644502 0.000000
O O4 0.847557 0.639385 0.045222
O O5 0.268227 0.500000 0.518432
O O6 0.303755 0.348974 0.679138
O O7 0.348366 0.343297 0.500140
O O8 0.748532 0.791543 0.233160
O O9 0.500000 0.718395 0.000000
O O10 0.691949 0.634111 0.082193
O O11 0.377553 0.097096 0.780350
O O12 0.219231 0.000000 0.744904
O O13 0.382333 0.101786 0.021328
O O14 0.457852 0.813658 0.670610
O O15 0.468280 0.000000 0.698251
O O16 0.500000 0.745773 0.500000
O O17 0.405085 0.664349 0.219284
O O18 0.306438 0.500000 0.070983
#
# Coordination Sequence:
#
# PCOD9154563 Si02
#       7
#     4   4   4   4   4   4   4
#     4   9  20  39  55  69  99 145 190 222 249 295
#     4  11  22  35  53  76 106 144 178 216 263 311
#     4  12  19  32  52  82 113 133 165 221 275 318
#     4   9  14  27  52  73  98 134 167 206 264 321
#     4   9  16  30  49  74 103 133 167 212 267 315
#     4  12  22  32  50  79 107 137 180 221 259 314
#     4  11  22  35  53  76 106 144 178 216 263 311
#
# _framework density 16.726721999999999
#
# number of rings (size 3 to 8) (size 9 to 14) (size 15 to 20)
#    0.000    1.571    5.714    2.571    0.000    3.714 
#    0.000    2.143    0.000    0.000    0.000    5.000 
#    0.000    6.857    0.000    0.000    0.000    0.000 
#
# Total GULP energy -155887.127333 kJ/mol
# GULP energy per Si atom -5567.397405 kJ/mol
# Density = 1.668865 g / cm^3
# Si number density = 16.726722 Si / 1000 Ang^3
#
#
#
# Elastic Constant Matrix: (Units=GPa)
#
#
# Indices 1 2 3 4 5 6 
#
# 1 35.7149 -6.8771 7.0378 0.0000 2.4337 0.0000
# 2 -6.8771 90.3166 13.4069 0.0000 1.5583 0.0000
# 3 7.0378 13.4069 28.4119 0.0000 4.5459 0.0000
# 4 0.0000 0.0000 0.0000 1.6275 0.0000 -8.5896
# 5 2.4337 1.5583 4.5459 0.0000 30.0072 0.0000
# 6 0.0000 0.0000 0.0000 -8.5896 0.0000 2.1612
#
#
#
# Elastic Compliance Matrix: (Units=1/GPa)
#
#
# Indices 1 2 3 4 5 6 
#
# 1 0.030599 0.003706 -0.009122 0.000000 -0.001292 0.000000
# 2 0.003706 0.012357 -0.006762 0.000000 0.000082 0.000000
# 3 -0.009122 -0.006762 0.041478 0.000000 -0.005193 0.000000
# 4 0.000000 0.000000 0.000000 -0.030758 0.000000 -0.122248
# 5 -0.001292 0.000082 -0.005193 0.000000 0.034213 0.000000
# 6 0.000000 0.000000 0.000000 -0.122248 0.000000 -0.023162
#
#
# Mechanical properties :
#
#
# Convention : Reuss Voigt Hill
#
# Bulk Modulus (GPa) = 16.64494 20.17539 18.41016
# Shear Modulus (GPa) = 45.82701 16.15089 30.98895
#
# Velocity S-wave (km/s) = 5.23994 3.11074 4.30893
# Velocity P-wave (km/s) = 6.82510 4.99902 5.98215
#
# Compressibility (1/GPa) = 0.06007832
#
# Stress axis : x y z
#
# Youngs Moduli (GPa) = 32.68109 80.92752 24.10936
#
# Poissons Ratio (x) = -0.29994 0.21992
# Poissons Ratio (y) = -0.12112 0.16303
# Poissons Ratio (z) = 0.29810 0.54723
#
# Static dielectric constant tensor:
#      x y z
#    x 1.561270 0.000000 0.007900 
#    y 0.000000 1.609450 0.000000 
#    z 0.007900 0.000000 1.555650 
# 
# From -- ./inp_files/51410.got.cif
#   From: 2010.05.17/outbox.cif.g08.bks.cpg/sg10_26_cif.got.tgz:51410.got - 2010.06.03 11:33:40.
