data_PCOD9154029
_publ_section_title
;
Structure prediction by ZEFSAII (Michael W. Deem and Ramdas Pophale) SiO2 
 PCOD9154029
Probable space group: P 2/M
;
_chemical_formula_sum "Si O2"
_cell_formula_units_Z 14
_cell_length_a 5.298708
_cell_length_b 20.291784
_cell_length_c 5.096757
_cell_angle_alpha 90.000000
_cell_angle_beta 85.832952
_cell_angle_gamma 90.000000
_cell_volume 546.555840
_symmetry_space_group_name_H-M "P 2/M"
_symmetry_group_IT_number 10
_symmetry_cell_setting 'monoclinic'
loop_
_space_group_symop_operation_xyz
x,y,z
-x,y,-z
-x,-y,-z
x,-y,z
loop_
_atom_site_type_symbol
_atom_site_label
_atom_site_fract_x
_atom_site_fract_y
_atom_site_fract_z
Si Si1 0.000000 0.322221 0.000000
Si Si2 0.655977 0.207573 0.219094
Si Si3 0.321044 0.576606 0.757380
Si Si4 0.000000 0.112145 0.500000
Si Si5 0.242204 0.000000 0.176579
O O1 0.876991 0.159901 0.297169
O O2 0.229288 0.271331 0.937614
O O3 0.500000 0.223125 0.500000
O O4 0.920781 0.375850 0.223715
O O5 0.500000 0.173476 0.000000
O O6 0.500000 0.590092 0.500000
O O7 0.243325 0.500000 0.760233
O O8 0.500000 0.587349 0.000000
O O9 0.791760 0.063862 0.638191
O O10 0.500000 0.000000 0.000000
O O11 0.000000 0.000000 0.000000
#
# Coordination Sequence:
#
# PCOD9154029 Si02
#       5
#     2   4   4   2   2
#     4  12  25  46  70 111 146 206 258 326 396 471
#     4  12  29  48  77 111 158 208 262 325 398 483
#     4  10  23  43  69 102 145 197 256 324 393 470
#     4  11  30  52  80 118 159 206 264 326 399 480
#     4  11  30  53  87 124 160 212 268 336 404 490
#
# _framework density 25.61495
#
# number of rings (size 3 to 8) (size 9 to 14) (size 15 to 20)
#    0.000    0.857    0.000    3.857   10.000    6.857 
#    0.000    6.429    0.000    0.000    0.000    0.000 
#    0.000    0.000    0.000    0.000    0.000    0.000 
#
# Total GULP energy -78366.754566 kJ/mol
# GULP energy per Si atom -5597.625326 kJ/mol
# Density = 2.555665 g / cm^3
# Si number density = 25.614950 Si / 1000 Ang^3
#
#
#
# Elastic Constant Matrix: (Units=GPa)
#
#
# Indices 1 2 3 4 5 6 
#
# 1 151.6639 71.9190 77.3221 0.0000 -33.5916 0.0000
# 2 71.9190 155.5010 48.8547 0.0000 -19.8268 0.0000
# 3 77.3221 48.8547 182.8021 0.0000 -4.5489 0.0000
# 4 0.0000 0.0000 0.0000 17.9380 0.0000 -38.4168
# 5 -33.5916 -19.8268 -4.5489 0.0000 61.7873 0.0000
# 6 0.0000 0.0000 0.0000 -38.4168 0.0000 27.9514
#
#
#
# Elastic Compliance Matrix: (Units=1/GPa)
#
#
# Indices 1 2 3 4 5 6 
#
# 1 0.011112 -0.003386 -0.003679 0.000000 0.004684 0.000000
# 2 -0.003386 0.008340 -0.000777 0.000000 0.000778 0.000000
# 3 -0.003679 -0.000777 0.007191 0.000000 -0.001720 0.000000
# 4 0.000000 0.000000 0.000000 -0.028684 0.000000 -0.039424
# 5 0.004684 0.000778 -0.001720 0.000000 0.018854 0.000000
# 6 0.000000 0.000000 0.000000 -0.039424 0.000000 -0.018408
#
#
# Mechanical properties :
#
#
# Convention : Reuss Voigt Hill
#
# Bulk Modulus (GPa) = 91.24697 98.46207 94.85452
# Shear Modulus (GPa) = 281.78615 40.99340 161.38978
#
# Velocity S-wave (km/s) = 10.49987 4.00480 7.94625
# Velocity P-wave (km/s) = 13.51652 7.73998 11.01371
#
# Compressibility (1/GPa) = 0.01095927
#
# Stress axis : x y z
#
# Youngs Moduli (GPa) = 89.99039 119.89755 139.05597
#
# Poissons Ratio (x) = 0.40603 0.51155
# Poissons Ratio (y) = 0.30475 0.10808
# Poissons Ratio (z) = 0.33105 0.09319
#
# Static dielectric constant tensor:
#      x y z
#    x 2.017290 0.000000 -0.004920 
#    y 0.000000 1.993820 0.000000 
#    z -0.004920 0.000000 1.989100 
# 
# From -- ./inp_files/1427.got.cif
#   From: 2010.05.17/outbox.cif.g08.bks.cpg/sg10_1_cif.got.tgz:1427.got - 2010.06.03 11:33:40.
