data_PCOD9154970
_publ_section_title
;
Structure prediction by ZEFSAII (Michael W. Deem and Ramdas Pophale) SiO2 
 PCOD9154970
Probable space group: P 2/M
;
_chemical_formula_sum "Si O2"
_cell_formula_units_Z 28
_cell_length_a 12.053332
_cell_length_b 7.411696
_cell_length_c 19.247373
_cell_angle_alpha 90.000000
_cell_angle_beta 53.289476
_cell_angle_gamma 90.000000
_cell_volume 1378.445400
_symmetry_space_group_name_H-M "P 2/M"
_symmetry_group_IT_number 10
_symmetry_cell_setting 'monoclinic'
loop_
_space_group_symop_operation_xyz
x,y,z
-x,y,-z
-x,-y,-z
x,-y,z
loop_
_atom_site_type_symbol
_atom_site_label
_atom_site_fract_x
_atom_site_fract_y
_atom_site_fract_z
Si Si1 0.231304 0.720838 0.517634
Si Si2 0.631936 0.209184 0.911730
Si Si3 0.067031 0.704523 0.382766
Si Si4 0.631030 0.719306 0.750244
Si Si5 0.929949 0.785945 0.779013
Si Si6 0.492437 0.279980 0.667166
Si Si7 0.231179 0.284025 0.677966
O O1 0.225495 0.500000 0.519137
O O2 0.369162 0.774384 0.425981
O O3 0.242620 0.780502 0.593782
O O4 0.083345 0.781544 0.540968
O O5 0.611360 0.218532 0.836282
O O6 0.787244 0.282393 0.865905
O O7 0.638109 0.000000 0.931378
O O8 0.500000 0.291181 0.000000
O O9 0.075534 0.500000 0.406045
O O10 0.219513 0.784772 0.334757
O O11 0.056496 0.699378 0.302295
O O12 0.637743 0.500000 0.750014
O O13 0.514805 0.773129 0.738676
O O14 0.075876 0.756392 0.761549
O O15 0.914217 0.000000 0.773033
O O16 0.490435 0.500000 0.666611
O O17 0.354598 0.216457 0.680241
O O18 0.244749 0.500000 0.669527
#
# Coordination Sequence:
#
# PCOD9154970 Si02
#       7
#     4   4   4   4   4   4   4
#     4   8  13  22  39  62  85 115 155 188 210 236
#     4   9  18  33  52  70  86 106 134 171 217 269
#     4   8  14  25  41  61  86 114 144 178 214 253
#     4   9  17  28  43  67  94 115 139 174 218 261
#     4   9  16  27  45  66  85 106 136 176 219 257
#     4   9  16  25  40  63  91 121 150 181 212 243
#     4   9  16  27  43  62  87 120 155 183 206 239
#
# _framework density 20.312736999999998
#
# number of rings (size 3 to 8) (size 9 to 14) (size 15 to 20)
#    0.000    3.286    0.000    1.714    0.000    3.143 
#    0.000    3.571    0.000   11.143    0.000   19.000 
#    0.000    0.000    0.000    0.000    0.000    0.000 
#
# Total GULP energy -156075.288635 kJ/mol
# GULP energy per Si atom -5574.117451 kJ/mol
# Density = 2.026650 g / cm^3
# Si number density = 20.312737 Si / 1000 Ang^3
#
#
#
# Elastic Constant Matrix: (Units=GPa)
#
#
# Indices 1 2 3 4 5 6 
#
# 1 151.3345 -5.8888 57.5738 0.0000 -21.7120 0.0000
# 2 -5.8888 69.5513 -4.4345 0.0000 -0.1468 0.0000
# 3 57.5738 -4.4345 117.9450 0.0000 -30.2952 0.0000
# 4 0.0000 0.0000 0.0000 6.6461 0.0000 -10.5626
# 5 -21.7120 -0.1468 -30.2952 0.0000 22.9556 0.0000
# 6 0.0000 0.0000 0.0000 -10.5626 0.0000 -17.8157
#
#
#
# Elastic Compliance Matrix: (Units=1/GPa)
#
#
# Indices 1 2 3 4 5 6 
#
# 1 0.008347 0.000519 -0.003065 0.000000 0.003853 0.000000
# 2 0.000519 0.014467 0.000666 0.000000 0.001463 0.000000
# 3 -0.003065 0.000666 0.014003 0.000000 0.015585 0.000000
# 4 0.000000 0.000000 0.000000 0.077468 0.000000 -0.045929
# 5 0.003853 0.001463 0.015585 0.000000 0.067784 0.000000
# 6 0.000000 0.000000 0.000000 -0.045929 0.000000 -0.028899
#
#
# Mechanical properties :
#
#
# Convention : Reuss Voigt Hill
#
# Bulk Modulus (GPa) = 30.24988 48.14797 39.19892
# Shear Modulus (GPa) = 29.77090 21.79589 25.78339
#
# Velocity S-wave (km/s) = 3.83250 3.27925 3.56662
# Velocity P-wave (km/s) = 5.87440 6.17193 6.02500
#
# Compressibility (1/GPa) = 0.03305798
#
# Stress axis : x y z
#
# Youngs Moduli (GPa) = 119.80287 69.12086 71.41253
#
# Poissons Ratio (x) = -0.03590 0.21891
# Poissons Ratio (y) = -0.06223 -0.04757
# Poissons Ratio (z) = 0.36725 -0.04605
#
# Static dielectric constant tensor:
#      x y z
#    x 1.748890 0.000000 -0.036390 
#    y 0.000000 1.803250 0.000000 
#    z -0.036390 0.000000 1.720990 
# 
# From -- ./inp_files/54714.got.cif
#   From: 2010.05.17/outbox.cif.g08.bks.cpg/sg10_28_cif.got.tgz:54714.got - 2010.06.03 11:33:40.
