data_PCOD9154156
_publ_section_title
;
Structure prediction by ZEFSAII (Michael W. Deem and Ramdas Pophale) SiO2 
 PCOD9154156
Probable space group: P 2/M
;
_chemical_formula_sum "Si O2"
_cell_formula_units_Z 18
_cell_length_a 5.083959
_cell_length_b 26.365078
_cell_length_c 5.142374
_cell_angle_alpha 90.000000
_cell_angle_beta 89.650693
_cell_angle_gamma 90.000000
_cell_volume 689.265734
_symmetry_space_group_name_H-M "P 2/M"
_symmetry_group_IT_number 10
_symmetry_cell_setting 'monoclinic'
loop_
_space_group_symop_operation_xyz
x,y,z
-x,y,-z
-x,-y,-z
x,-y,z
loop_
_atom_site_type_symbol
_atom_site_label
_atom_site_fract_x
_atom_site_fract_y
_atom_site_fract_z
Si Si1 0.751496 0.500000 0.197872
Si Si2 0.752982 0.943307 0.685333
Si Si3 0.500000 0.412372 0.500000
Si Si4 0.811505 0.665730 0.248096
Si Si5 0.818476 0.218069 0.254413
Si Si6 0.500000 0.861743 0.000000
O O1 0.719369 0.452502 0.394952
O O2 0.500000 0.500000 0.000000
O O3 0.000000 0.500000 0.000000
O O4 0.500000 0.941055 0.500000
O O5 0.000000 0.936099 0.500000
O O6 0.762846 0.000000 0.802142
O O7 0.720660 0.899651 0.894905
O O8 0.439269 0.370891 0.724929
O O9 0.718130 0.724056 0.256099
O O10 0.000000 0.657172 0.500000
O O11 0.000000 0.657176 0.000000
O O12 0.000000 0.210149 0.500000
O O13 0.599270 0.175866 0.221677
O O14 0.000000 0.213866 0.000000
#
# Coordination Sequence:
#
# PCOD9154156 Si02
#       6
#     2   4   2   4   4   2
#     4  11  28  49  76 116 159 194 263 329 394 456
#     4  10  25  48  75 110 151 200 263 328 396 476
#     4  11  26  42  80 106 152 208 257 318 388 468
#     4  10  24  46  72 107 153 205 262 316 385 463
#     4  10  26  47  71 112 159 205 261 327 389 474
#     4  12  27  42  80 108 158 205 260 318 408 466
#
# _framework density 26.114743000000001
#
# number of rings (size 3 to 8) (size 9 to 14) (size 15 to 20)
#    0.000    1.556    0.000    1.000   12.444    6.222 
#    0.000    3.333    0.000    2.000    0.000    0.000 
#    0.000    0.000    0.000    0.000    0.000    0.000 
#
# Total GULP energy -100759.492539 kJ/mol
# GULP energy per Si atom -5597.749585 kJ/mol
# Density = 2.605530 g / cm^3
# Si number density = 26.114743 Si / 1000 Ang^3
#
#
#
# Elastic Constant Matrix: (Units=GPa)
#
#
# Indices 1 2 3 4 5 6 
#
# 1 151.8686 69.3312 71.2099 0.0000 -24.0368 0.0000
# 2 69.3312 234.8543 83.3183 0.0000 -26.2021 0.0000
# 3 71.2099 83.3183 190.5167 0.0000 -21.3410 0.0000
# 4 0.0000 0.0000 0.0000 43.7805 0.0000 -30.8626
# 5 -24.0368 -26.2021 -21.3410 0.0000 59.7290 0.0000
# 6 0.0000 0.0000 0.0000 -30.8626 0.0000 33.1332
#
#
#
# Elastic Compliance Matrix: (Units=1/GPa)
#
#
# Indices 1 2 3 4 5 6 
#
# 1 0.008698 -0.001505 -0.002370 0.000000 0.001994 0.000000
# 2 -0.001505 0.005429 -0.001680 0.000000 0.001176 0.000000
# 3 -0.002370 -0.001680 0.006959 0.000000 0.000795 0.000000
# 4 0.000000 0.000000 0.000000 0.066520 0.000000 0.061962
# 5 0.001994 0.001176 0.000795 0.000000 0.018345 0.000000
# 6 0.000000 0.000000 0.000000 0.061962 0.000000 0.087897
#
#
# Mechanical properties :
#
#
# Convention : Reuss Voigt Hill
#
# Bulk Modulus (GPa) = 100.23318 113.88425 107.05871
# Shear Modulus (GPa) = 24.00576 50.88721 37.44649
#
# Velocity S-wave (km/s) = 3.03519 4.41908 3.79082
# Velocity P-wave (km/s) = 7.12379 8.35114 7.76176
#
# Compressibility (1/GPa) = 0.00997674
#
# Stress axis : x y z
#
# Youngs Moduli (GPa) = 114.96521 184.18012 143.70657
#
# Poissons Ratio (x) = 0.27713 0.34056
# Poissons Ratio (y) = 0.17298 0.24148
# Poissons Ratio (z) = 0.27245 0.30948
#
# Static dielectric constant tensor:
#      x y z
#    x 2.064200 0.000000 0.055890 
#    y 0.000000 2.027110 0.000000 
#    z 0.055890 0.000000 2.005990 
# 
# From -- ./inp_files/1653.got.cif
#   From: 2010.05.17/outbox.cif.g08.bks.cpg/sg10_1_cif.got.tgz:1653.got - 2010.06.03 11:33:40.
