data_PCOD9154555
_publ_section_title
;
Structure prediction by ZEFSAII (Michael W. Deem and Ramdas Pophale) SiO2 
 PCOD9154555
Probable space group: P 2/M
;
_chemical_formula_sum "Si O2"
_cell_formula_units_Z 32
_cell_length_a 29.114858
_cell_length_b 7.568689
_cell_length_c 16.323711
_cell_angle_alpha 90.000000
_cell_angle_beta 153.105878
_cell_angle_gamma 90.000000
_cell_volume 1627.130239
_symmetry_space_group_name_H-M "P 2/M"
_symmetry_group_IT_number 10
_symmetry_cell_setting 'monoclinic'
loop_
_space_group_symop_operation_xyz
x,y,z
-x,y,-z
-x,-y,-z
x,-y,z
loop_
_atom_site_type_symbol
_atom_site_label
_atom_site_fract_x
_atom_site_fract_y
_atom_site_fract_z
Si Si1 0.518103 0.783899 0.790914
Si Si2 0.447519 0.784681 0.500014
Si Si3 0.028995 0.206756 0.801899
Si Si4 0.947346 0.782829 0.500008
Si Si5 0.701173 0.213358 0.500032
Si Si6 0.727078 0.206778 0.198105
Si Si7 0.807931 0.294920 0.500016
Si Si8 0.227171 0.783899 0.209068
O O1 0.505291 0.732075 0.675391
O O2 0.415695 0.728364 0.675103
O O3 0.517599 0.000000 0.791750
O O4 0.621434 0.719049 0.996843
O O5 0.500000 0.723050 0.500000
O O6 0.329904 0.732082 0.324638
O O7 0.448515 0.000000 0.500017
O O8 0.007081 0.278155 0.676119
O O9 0.921829 0.218719 0.678689
O O10 0.051841 0.000000 0.826951
O O11 0.124584 0.280952 0.003140
O O12 0.830959 0.721854 0.323901
O O13 0.000000 0.728779 0.500000
O O14 0.946065 0.000000 0.500009
O O15 0.753612 0.270608 0.500024
O O16 0.759451 0.271642 0.675169
O O17 0.701195 0.000000 0.500032
O O18 0.743100 0.218829 0.321271
O O19 0.724879 0.000000 0.173113
O O20 0.819179 0.500000 0.500090
O O21 0.225829 0.000000 0.208235
#
# Coordination Sequence:
#
# PCOD9154555 Si02
#       8
#     4   4   4   4   4   4   4   4
#     4   8  15  27  45  68  93 125 159 186 218 270
#     4   8  13  22  39  70 108 131 145 180 232 272
#     4   9  17  31  49  68  93 125 158 188 223 270
#     4   8  14  24  41  67  94 117 147 188 223 252
#     4   9  17  32  50  67  91 121 154 188 226 275
#     4   9  17  31  49  68  93 125 158 188 223 270
#     4  11  22  34  47  66  91 117 152 197 243 281
#     4   8  15  27  45  68  93 125 159 186 218 270
#
# _framework density 19.666526999999999
#
# number of rings (size 3 to 8) (size 9 to 14) (size 15 to 20)
#    0.000    3.250    0.000    3.375    0.000    2.000 
#    0.000   11.250    0.000    6.000    0.000    0.000 
#    0.000   17.000    0.000    0.000    0.000    0.000 
#
# Total GULP energy -178389.248372 kJ/mol
# GULP energy per Si atom -5574.664012 kJ/mol
# Density = 1.962177 g / cm^3
# Si number density = 19.666527 Si / 1000 Ang^3
#
#
#
# Elastic Constant Matrix: (Units=GPa)
#
#
# Indices 1 2 3 4 5 6 
#
# 1 186.8309 -10.5162 103.3458 0.0000 -2.8727 0.0000
# 2 -10.5162 41.3028 0.9377 0.0000 0.4232 0.0000
# 3 103.3458 0.9377 217.8721 0.0000 3.8703 0.0000
# 4 0.0000 0.0000 0.0000 -25.8365 0.0000 0.1030
# 5 -2.8727 0.4232 3.8703 0.0000 2.1057 0.0000
# 6 0.0000 0.0000 0.0000 0.1030 0.0000 -28.4114
#
#
#
# Elastic Compliance Matrix: (Units=1/GPa)
#
#
# Indices 1 2 3 4 5 6 
#
# 1 0.008033 0.001953 -0.004142 0.000000 0.018179 0.000000
# 2 0.001953 0.024736 -0.001025 0.000000 -0.000422 0.000000
# 3 -0.004142 -0.001025 0.006880 0.000000 -0.018090 0.000000
# 4 0.000000 0.000000 0.000000 -0.038706 0.000000 -0.000140
# 5 0.018179 -0.000422 -0.018090 0.000000 0.533034 0.000000
# 6 0.000000 0.000000 0.000000 -0.000140 0.000000 -0.035198
#
#
# Mechanical properties :
#
#
# Convention : Reuss Voigt Hill
#
# Bulk Modulus (GPa) = 30.10113 70.39338 50.24726
# Shear Modulus (GPa) = 9.68463 13.05415 11.36939
#
# Velocity S-wave (km/s) = 2.22151 2.57918 2.40700
# Velocity P-wave (km/s) = 4.68179 6.68885 5.77321
#
# Compressibility (1/GPa) = 0.03322134
#
# Stress axis : x y z
#
# Youngs Moduli (GPa) = 124.48900 40.42642 145.34518
#
# Poissons Ratio (x) = -0.07895 0.60197
# Poissons Ratio (y) = -0.24313 0.14903
# Poissons Ratio (z) = 0.51559 0.04145
#
# Static dielectric constant tensor:
#      x y z
#    x 1.652700 0.000000 0.002180 
#    y 0.000000 1.718550 0.000000 
#    z 0.002180 0.000000 1.714490 
# 
# From -- ./inp_files/72178.got.cif
#   From: 2010.05.17/outbox.cif.g08.bks.cpg/sg10_37_cif.got.tgz:72178.got - 2010.06.03 11:33:40.
