data_PCOD9154372
_publ_section_title
;
Structure prediction by ZEFSAII (Michael W. Deem and Ramdas Pophale) SiO2 
 PCOD9154372
Probable space group: P 2/M
;
_chemical_formula_sum "Si O2"
_cell_formula_units_Z 28
_cell_length_a 11.456020
_cell_length_b 7.476328
_cell_length_c 20.718795
_cell_angle_alpha 90.000000
_cell_angle_beta 129.439024
_cell_angle_gamma 90.000000
_cell_volume 1370.481715
_symmetry_space_group_name_H-M "P 2/M"
_symmetry_group_IT_number 10
_symmetry_cell_setting 'monoclinic'
loop_
_space_group_symop_operation_xyz
x,y,z
-x,y,-z
-x,-y,-z
x,-y,z
loop_
_atom_site_type_symbol
_atom_site_label
_atom_site_fract_x
_atom_site_fract_y
_atom_site_fract_z
Si Si1 0.089910 0.784162 0.628580
Si Si2 0.220497 0.217816 0.538756
Si Si3 0.053306 0.219041 0.946660
Si Si4 0.470623 0.780749 0.415956
Si Si5 0.836864 0.793154 0.755068
Si Si6 0.877346 0.294021 0.217621
Si Si7 0.658121 0.202407 0.030474
O O1 0.180069 0.725972 0.596893
O O2 0.154795 0.719784 0.718493
O O3 0.916653 0.726177 0.555969
O O4 0.091283 0.000000 0.630525
O O5 0.382861 0.275010 0.572419
O O6 0.218792 0.000000 0.537790
O O7 0.221477 0.276393 0.980614
O O8 0.928579 0.278923 0.849580
O O9 0.057550 0.000000 0.945960
O O10 0.000000 0.270201 0.000000
O O11 0.500000 0.724919 0.500000
O O12 0.318641 0.716325 0.327216
O O13 0.462872 0.000000 0.414568
O O14 0.957875 0.783619 0.739740
O O15 0.805806 0.000000 0.760333
O O16 0.877138 0.500000 0.197748
O O17 0.759880 0.196880 0.130446
O O18 0.620197 0.000000 0.995286
O O19 0.500000 0.286683 0.000000
#
# Coordination Sequence:
#
# PCOD9154372 Si02
#       7
#     4   4   4   4   4   4   4
#     4   9  16  30  50  70  96 129 164 202 246 292
#     4   8  15  27  46  73 100 125 159 206 251 290
#     4   8  14  27  47  72  99 123 152 194 245 295
#     4   9  15  24  43  73 100 121 155 203 248 287
#     4   9  17  30  49  70  94 126 163 202 244 289
#     4  11  21  32  49  71  97 130 167 200 240 291
#     4   9  18  34  54  77 100 124 160 205 252 298
#
# _framework density 20.430772000000001
#
# number of rings (size 3 to 8) (size 9 to 14) (size 15 to 20)
#    0.000    3.000    0.000    3.857    0.000    2.571 
#    2.571    1.429    0.000   11.571    0.000    0.000 
#    0.000    0.000    0.000    0.000    0.000    0.000 
#
# Total GULP energy -156027.014502 kJ/mol
# GULP energy per Si atom -5572.393375 kJ/mol
# Density = 2.038427 g / cm^3
# Si number density = 20.430772 Si / 1000 Ang^3
#
#
#
# Elastic Constant Matrix: (Units=GPa)
#
#
# Indices 1 2 3 4 5 6 
#
# 1 155.1602 1.7732 82.1255 0.0000 19.2496 0.0000
# 2 1.7732 60.2030 5.4547 0.0000 1.7936 0.0000
# 3 82.1255 5.4547 82.8155 0.0000 -1.8555 0.0000
# 4 0.0000 0.0000 0.0000 157.6872 0.0000 49.1910
# 5 19.2496 1.7936 -1.8555 0.0000 39.0546 0.0000
# 6 0.0000 0.0000 0.0000 49.1910 0.0000 -0.9113
#
#
#
# Elastic Compliance Matrix: (Units=1/GPa)
#
#
# Indices 1 2 3 4 5 6 
#
# 1 0.016141 0.001262 -0.016287 0.000000 -0.008788 0.000000
# 2 0.001262 0.016835 -0.002394 0.000000 -0.001509 0.000000
# 3 -0.016287 -0.002394 0.028597 0.000000 0.009496 0.000000
# 4 0.000000 0.000000 0.000000 0.000356 0.000000 0.019189
# 5 -0.008788 -0.001509 0.009496 0.000000 0.030457 0.000000
# 6 0.000000 0.000000 0.000000 0.019189 0.000000 -0.061513
#
#
# Mechanical properties :
#
#
# Convention : Reuss Voigt Hill
#
# Bulk Modulus (GPa) = 37.40395 52.98727 45.19561
# Shear Modulus (GPa) = 67.00452 53.08777 60.04615
#
# Velocity S-wave (km/s) = 5.73298 5.10300 5.42714
# Velocity P-wave (km/s) = 7.88481 7.79180 7.83844
#
# Compressibility (1/GPa) = 0.02673514
#
# Stress axis : x y z
#
# Youngs Moduli (GPa) = 61.95300 59.39941 34.96917
#
# Poissons Ratio (x) = -0.07497 0.56954
# Poissons Ratio (y) = -0.07819 0.08372
# Poissons Ratio (z) = 1.00902 0.14222
#
# Static dielectric constant tensor:
#      x y z
#    x 1.729420 0.000000 0.012480 
#    y 0.000000 1.786540 0.000000 
#    z 0.012480 0.000000 1.689670 
# 
# From -- ./inp_files/55009.got.cif
#   From: 2010.05.17/outbox.cif.g08.bks.cpg/sg10_28_cif.got.tgz:55009.got - 2010.06.03 11:33:40.
