data_PCOD9154599
_publ_section_title
;
Structure prediction by ZEFSAII (Michael W. Deem and Ramdas Pophale) SiO2 
 PCOD9154599
Probable space group: P 2/M
;
_chemical_formula_sum "Si O2"
_cell_formula_units_Z 28
_cell_length_a 32.101844
_cell_length_b 7.360708
_cell_length_c 31.278567
_cell_angle_alpha 90.000000
_cell_angle_beta 9.166155
_cell_angle_gamma 90.000000
_cell_volume 1177.353508
_symmetry_space_group_name_H-M "P 2/M"
_symmetry_group_IT_number 10
_symmetry_cell_setting 'monoclinic'
loop_
_space_group_symop_operation_xyz
x,y,z
-x,y,-z
-x,-y,-z
x,-y,z
loop_
_atom_site_type_symbol
_atom_site_label
_atom_site_fract_x
_atom_site_fract_y
_atom_site_fract_z
Si Si1 0.220618 0.778756 0.047247
Si Si2 0.604293 0.778424 0.519574
Si Si3 0.078099 0.778495 0.096392
Si Si4 0.697687 0.778522 0.619523
Si Si5 0.888096 0.293207 0.569625
Si Si6 0.738478 0.778284 0.288359
Si Si7 0.587502 0.792609 0.006768
O O1 0.992070 0.720831 0.311360
O O2 0.221435 0.000000 0.045706
O O3 0.145386 0.718234 0.076020
O O4 0.504207 0.725657 0.777048
O O5 0.311810 0.724270 0.827979
O O6 0.698316 0.718330 0.377722
O O7 0.606352 0.000000 0.516997
O O8 0.803847 0.720607 0.354392
O O9 0.073010 0.000000 0.102876
O O10 0.563704 0.714877 0.798985
O O11 0.705054 0.000000 0.614080
O O12 0.811547 0.500000 0.656986
O O13 0.000000 0.209277 0.500000
O O14 0.630167 0.209540 0.810068
O O15 0.138189 0.292780 0.284787
O O16 0.500000 0.724995 0.500000
O O17 0.744457 0.000000 0.283665
O O18 0.000000 0.718090 0.000000
O O19 0.657742 0.000000 0.946005
#
# Coordination Sequence:
#
# PCOD9154599 Si02
#       7
#     4   4   4   4   4   4   4
#     4   9  15  24  37  54  79 108 134 164 213 273
#     4   9  15  21  27  37  52  71 104 147 189 245
#     4   9  15  21  30  43  60  85 114 146 189 249
#     4   9  17  28  43  65  91 116 145 185 229 275
#     4  11  24  41  59  81 112 147 179 215 264 317
#     4   9  15  21  27  33  43  63  93 136 193 249
#     4  11  22  37  59  85 110 139 179 223 262 305
#
# _framework density 23.782152
#
# number of rings (size 3 to 8) (size 9 to 14) (size 15 to 20)
#    0.000    2.429    0.000    3.857    0.000   12.000 
#    0.000    0.000    0.000    0.000    0.000    0.000 
#    0.000    0.000    0.000    0.000    0.000    0.000 
#
# Total GULP energy -156589.055347 kJ/mol
# GULP energy per Si atom -5592.466262 kJ/mol
# Density = 2.372802 g / cm^3
# Si number density = 23.782152 Si / 1000 Ang^3
#
#
#
# Elastic Constant Matrix: (Units=GPa)
#
#
# Indices 1 2 3 4 5 6 
#
# 1 59.1309 -7.0147 -24.4022 0.0000 0.9380 0.0000
# 2 -7.0147 85.2518 -8.2568 0.0000 1.3843 0.0000
# 3 -24.4022 -8.2568 86.7985 0.0000 -1.9827 0.0000
# 4 0.0000 0.0000 0.0000 0.7686 0.0000 -6.4438
# 5 0.9380 1.3843 -1.9827 0.0000 41.2337 0.0000
# 6 0.0000 0.0000 0.0000 -6.4438 0.0000 -16.1730
#
#
#
# Elastic Compliance Matrix: (Units=1/GPa)
#
#
# Indices 1 2 3 4 5 6 
#
# 1 0.019519 0.002161 0.005687 0.000000 -0.000243 0.000000
# 2 0.002161 0.012083 0.001748 0.000000 -0.000371 0.000000
# 3 0.005687 0.001748 0.013297 0.000000 0.000451 0.000000
# 4 0.000000 0.000000 0.000000 0.299761 0.000000 -0.119433
# 5 -0.000243 -0.000371 0.000451 0.000000 0.024292 0.000000
# 6 0.000000 0.000000 0.000000 -0.119433 0.000000 -0.014246
#
#
# Mechanical properties :
#
#
# Convention : Reuss Voigt Hill
#
# Bulk Modulus (GPa) = 15.60255 16.87043 16.23649
# Shear Modulus (GPa) = 14.01047 23.22285 18.61666
#
# Velocity S-wave (km/s) = 2.42981 3.12826 2.80089
# Velocity P-wave (km/s) = 3.80089 4.48967 4.15957
#
# Compressibility (1/GPa) = 0.06409209
#
# Stress axis : x y z
#
# Youngs Moduli (GPa) = 51.23231 82.76010 75.20765
#
# Poissons Ratio (x) = -0.17883 -0.42774
# Poissons Ratio (y) = -0.11071 -0.13150
# Poissons Ratio (z) = -0.29138 -0.14470
#
# Static dielectric constant tensor:
#      x y z
#    x 1.876710 0.000000 0.012820 
#    y 0.000000 1.933960 0.000000 
#    z 0.012820 0.000000 1.806670 
# 
# From -- ./inp_files/96000.got.cif
#   From: 2010.05.17/outbox.cif.g08.bks.cpg/sg10_48_cif.got.tgz:96000.got - 2010.06.03 11:33:40.
