data_PCOD9154492
_publ_section_title
;
Structure prediction by ZEFSAII (Michael W. Deem and Ramdas Pophale) SiO2 
 PCOD9154492
Probable space group: P 2/M
;
_chemical_formula_sum "Si O2"
_cell_formula_units_Z 16
_cell_length_a 7.884314
_cell_length_b 19.902364
_cell_length_c 9.278040
_cell_angle_alpha 90.000000
_cell_angle_beta 146.963289
_cell_angle_gamma 90.000000
_cell_volume 793.709853
_symmetry_space_group_name_H-M "P 2/M"
_symmetry_group_IT_number 10
_symmetry_cell_setting 'monoclinic'
loop_
_space_group_symop_operation_xyz
x,y,z
-x,y,-z
-x,-y,-z
x,-y,z
loop_
_atom_site_type_symbol
_atom_site_label
_atom_site_fract_x
_atom_site_fract_y
_atom_site_fract_z
Si Si1 0.627800 0.500000 0.253082
Si Si2 0.698729 0.788734 0.390343
Si Si3 0.926141 0.135793 0.114388
Si Si4 0.867679 0.000000 0.245590
Si Si5 0.370593 0.645027 0.745657
O O1 0.529173 0.572404 0.245991
O O2 0.000000 0.500000 0.500000
O O3 0.500000 0.500000 0.000000
O O4 0.425977 0.835723 0.133815
O O5 0.566570 0.712847 0.296958
O O6 0.000000 0.791060 0.500000
O O7 0.834286 0.813115 0.638997
O O8 0.960359 0.066656 0.225381
O O9 0.000000 0.125910 0.000000
O O10 0.000000 0.000000 0.500000
O O11 0.500000 0.000000 0.000000
O O12 0.000000 0.641653 0.500000
O O13 0.500000 0.653153 0.000000
#
# Coordination Sequence:
#
# PCOD9154492 Si02
#       5
#     2   4   4   2   4
#     4   8  14  24  40  70 109 140 171 222 283 320
#     4  11  21  37  60  85 112 149 191 231 274 328
#     4  12  25  41  59  85 116 147 182 228 279 332
#     4  12  25  42  65  86 109 144 185 228 275 330
#     4   9  16  27  47  76 109 142 179 228 277 321
#
# _framework density 20.1585
#
# number of rings (size 3 to 8) (size 9 to 14) (size 15 to 20)
#    0.000    1.500    0.000    8.625    0.000    0.000 
#    0.000    3.750    0.000    0.000    0.000    5.250 
#    0.000    0.000    0.000    0.000    0.000    0.000 
#
# Total GULP energy -89320.305051 kJ/mol
# GULP energy per Si atom -5582.519066 kJ/mol
# Density = 2.011262 g / cm^3
# Si number density = 20.158500 Si / 1000 Ang^3
#
#
#
# Elastic Constant Matrix: (Units=GPa)
#
#
# Indices 1 2 3 4 5 6 
#
# 1 53.5904 48.3911 28.5659 0.0000 -19.0150 0.0000
# 2 48.3911 202.7434 66.4620 0.0000 -26.0679 0.0000
# 3 28.5659 66.4620 176.6333 0.0000 -16.2999 0.0000
# 4 0.0000 0.0000 0.0000 35.3468 0.0000 -2.6464
# 5 -19.0150 -26.0679 -16.2999 0.0000 34.7333 0.0000
# 6 0.0000 0.0000 0.0000 -2.6464 0.0000 -6.5387
#
#
#
# Elastic Compliance Matrix: (Units=1/GPa)
#
#
# Indices 1 2 3 4 5 6 
#
# 1 0.027602 -0.004631 -0.001722 0.000000 0.010827 0.000000
# 2 -0.004631 0.006809 -0.001647 0.000000 0.001802 0.000000
# 3 -0.001722 -0.001647 0.006646 0.000000 0.000940 0.000000
# 4 0.000000 0.000000 0.000000 0.027459 0.000000 -0.011114
# 5 0.010827 0.001802 0.000940 0.000000 0.036512 0.000000
# 6 0.000000 0.000000 0.000000 -0.011114 0.000000 -0.148439
#
#
# Mechanical properties :
#
#
# Convention : Reuss Voigt Hill
#
# Bulk Modulus (GPa) = 39.90968 79.97834 59.94401
# Shear Modulus (GPa) = -262.36141 32.01149 -115.17496
#
# Velocity S-wave (km/s) = -11.42067 3.98928 -7.56695
# Velocity P-wave (km/s) = 12.41242 7.80897 6.82232
#
# Compressibility (1/GPa) = 0.02505658
#
# Stress axis : x y z
#
# Youngs Moduli (GPa) = 36.22984 146.85682 150.45777
#
# Poissons Ratio (x) = 0.68016 0.25910
# Poissons Ratio (y) = 0.16780 0.24778
# Poissons Ratio (z) = 0.06239 0.24185
#
# Static dielectric constant tensor:
#      x y z
#    x 1.691370 0.000000 0.008880 
#    y 0.000000 1.819830 0.000000 
#    z 0.008880 0.000000 1.674440 
# 
# From -- ./inp_files/4265.got.cif
#   From: 2010.05.17/outbox.cif.g08.bks.cpg/sg10_3_cif.got.tgz:4265.got - 2010.06.03 11:33:40.
