data_PCOD9154195
_publ_section_title
;
Structure prediction by ZEFSAII (Michael W. Deem and Ramdas Pophale) SiO2 
 PCOD9154195
Probable space group: P 2/M
;
_chemical_formula_sum "Si O2"
_cell_formula_units_Z 18
_cell_length_a 10.707255
_cell_length_b 11.507769
_cell_length_c 13.975915
_cell_angle_alpha 90.000000
_cell_angle_beta 32.665573
_cell_angle_gamma 90.000000
_cell_volume 929.458028
_symmetry_space_group_name_H-M "P 2/M"
_symmetry_group_IT_number 10
_symmetry_cell_setting 'monoclinic'
loop_
_space_group_symop_operation_xyz
x,y,z
-x,y,-z
-x,-y,-z
x,-y,z
loop_
_atom_site_type_symbol
_atom_site_label
_atom_site_fract_x
_atom_site_fract_y
_atom_site_fract_z
Si Si1 0.007900 0.792482 0.252345
Si Si2 0.223401 0.239234 0.927508
Si Si3 0.561562 0.000000 0.233011
Si Si4 0.581412 0.362353 0.557046
Si Si5 0.012543 0.000000 0.605379
Si Si6 0.764157 0.000000 0.300678
O O1 0.816657 0.708884 0.420507
O O2 0.884730 0.886238 0.261952
O O3 0.094861 0.883353 0.277499
O O4 0.153490 0.720399 0.079780
O O5 0.394899 0.318319 0.754155
O O6 0.367310 0.120955 0.859848
O O7 0.000000 0.228014 0.000000
O O8 0.743030 0.000000 0.202481
O O9 0.294346 0.000000 0.439506
O O10 0.500000 0.336077 0.500000
O O11 0.613384 0.500000 0.543478
O O12 0.000000 0.000000 0.500000
O O13 0.500000 0.000000 0.500000
#
# Coordination Sequence:
#
# PCOD9154195 Si02
#       6
#     4   4   2   4   2   2
#     4  11  21  36  56  83 119 152 190 230 291 345
#     4  12  21  31  56  91 120 152 186 226 289 355
#     4  12  18  32  56  84 118 141 180 235 289 352
#     4  11  22  35  53  84 125 162 189 226 276 339
#     4  11  24  40  62  85 113 153 195 242 298 345
#     4  11  15  26  53  82 107 143 173 215 280 353
#
# _framework density 19.366125
#
# number of rings (size 3 to 8) (size 9 to 14) (size 15 to 20)
#    0.000    0.667    8.889    2.333    0.000    1.333 
#    0.000    2.222    0.000    0.667    0.000    1.556 
#    0.000    0.000    0.000    0.000    0.000    0.000 
#
# Total GULP energy -100243.538046 kJ/mol
# GULP energy per Si atom -5569.085447 kJ/mol
# Density = 1.932205 g / cm^3
# Si number density = 19.366125 Si / 1000 Ang^3
#
#
#
# Elastic Constant Matrix: (Units=GPa)
#
#
# Indices 1 2 3 4 5 6 
#
# 1 55.1286 9.6669 12.3808 0.0000 32.2433 0.0000
# 2 9.6669 84.2613 29.7830 0.0000 8.0479 0.0000
# 3 12.3808 29.7830 119.4719 0.0000 29.3403 0.0000
# 4 0.0000 0.0000 0.0000 -0.3265 0.0000 -2.0296
# 5 32.2433 8.0479 29.3403 0.0000 27.0960 0.0000
# 6 0.0000 0.0000 0.0000 -2.0296 0.0000 4.4861
#
#
#
# Elastic Compliance Matrix: (Units=1/GPa)
#
#
# Indices 1 2 3 4 5 6 
#
# 1 0.094549 -0.006774 0.025920 0.000000 -0.138565 0.000000
# 2 -0.006774 0.013505 -0.004985 0.000000 0.009448 0.000000
# 3 0.025920 -0.004985 0.019259 0.000000 -0.050218 0.000000
# 4 0.000000 0.000000 0.000000 -0.803417 0.000000 -0.363477
# 5 -0.138565 0.009448 -0.050218 0.000000 0.253364 0.000000
# 6 0.000000 0.000000 0.000000 -0.363477 0.000000 0.058469
#
#
# Mechanical properties :
#
#
# Convention : Reuss Voigt Hill
#
# Bulk Modulus (GPa) = 6.42531 40.28036 23.35283
# Shear Modulus (GPa) = -14.67505 20.05320 2.68907
#
# Velocity S-wave (km/s) = -2.75575 3.22138 1.17964
# Velocity P-wave (km/s) = 2.60778 5.88905 3.73366
#
# Compressibility (1/GPa) = 0.15563454
#
# Stress axis : x y z
#
# Youngs Moduli (GPa) = 10.57651 74.04906 51.92288
#
# Poissons Ratio (x) = 0.50163 -1.34583
# Poissons Ratio (y) = 0.07165 0.25882
# Poissons Ratio (z) = -0.27414 0.36911
#
# Static dielectric constant tensor:
#      x y z
#    x 1.726760 0.000000 0.036640 
#    y 0.000000 1.680160 0.000000 
#    z 0.036640 0.000000 1.783070 
# 
# From -- ./inp_files/50552.got.cif
#   From: 2010.05.17/outbox.cif.g08.bks.cpg/sg10_26_cif.got.tgz:50552.got - 2010.06.03 11:33:40.
