data_PCOD9154478
_publ_section_title
;
Structure prediction by ZEFSAII (Michael W. Deem and Ramdas Pophale) SiO2 
 PCOD9154478
Probable space group: P 2/M
;
_chemical_formula_sum "Si O2"
_cell_formula_units_Z 20
_cell_length_a 5.406934
_cell_length_b 22.699486
_cell_length_c 9.081313
_cell_angle_alpha 90.000000
_cell_angle_beta 72.441524
_cell_angle_gamma 90.000000
_cell_volume 1062.662208
_symmetry_space_group_name_H-M "P 2/M"
_symmetry_group_IT_number 10
_symmetry_cell_setting 'monoclinic'
loop_
_space_group_symop_operation_xyz
x,y,z
-x,y,-z
-x,-y,-z
x,-y,z
loop_
_atom_site_type_symbol
_atom_site_label
_atom_site_fract_x
_atom_site_fract_y
_atom_site_fract_z
Si Si1 0.696800 0.500000 0.604026
Si Si2 0.225800 0.754041 0.338032
Si Si3 0.500000 0.156648 0.500000
Si Si4 0.799995 0.155223 0.901339
Si Si5 0.069491 0.065912 0.659391
Si Si6 0.303393 0.371961 0.395700
O O1 0.500000 0.500000 0.500000
O O2 0.649519 0.436119 0.685952
O O3 0.000000 0.500000 0.500000
O O4 0.411755 0.800152 0.385949
O O5 0.136788 0.786837 0.207405
O O6 0.335659 0.688337 0.298770
O O7 0.000000 0.748953 0.500000
O O8 0.298994 0.112963 0.614170
O O9 0.846254 0.097204 0.793115
O O10 0.500000 0.158813 0.000000
O O11 0.000000 0.151734 0.000000
O O12 0.000000 0.061891 0.500000
O O13 0.133757 0.000000 0.700337
O O14 0.500000 0.367133 0.500000
O O15 0.000000 0.373579 0.500000
#
# Coordination Sequence:
#
# PCOD9154478 Si02
#       6
#     2   4   2   4   4   4
#     4   8  14  26  40  72 118 144 172 224 291 332
#     4  11  21  36  61  86 111 153 201 238 284 340
#     4  12  17  38  64  85 114 140 198 246 282 325
#     4  12  26  42  60  86 123 154 185 242 302 347
#     4  11  24  41  63  86 109 151 198 238 287 353
#     4   9  17  27  49  80 111 147 183 232 283 333
#
# _framework density 18.820654999999999
#
# number of rings (size 3 to 8) (size 9 to 14) (size 15 to 20)
#    0.000    1.400    5.000    1.500    0.000    0.800 
#    0.000    0.000    0.000    0.000    0.000    1.400 
#    0.000    0.000    0.000    0.400    0.000    0.200 
#
# Total GULP energy -111393.986742 kJ/mol
# GULP energy per Si atom -5569.699337 kJ/mol
# Density = 1.877782 g / cm^3
# Si number density = 18.820655 Si / 1000 Ang^3
#
#
#
# Elastic Constant Matrix: (Units=GPa)
#
#
# Indices 1 2 3 4 5 6 
#
# 1 87.6666 25.0596 18.6107 0.0000 2.0880 0.0000
# 2 25.0596 215.7677 31.1513 0.0000 3.7985 0.0000
# 3 18.6107 31.1513 63.6074 0.0000 2.3509 0.0000
# 4 0.0000 0.0000 0.0000 46.1594 0.0000 -33.5488
# 5 2.0880 3.7985 2.3509 0.0000 28.6148 0.0000
# 6 0.0000 0.0000 0.0000 -33.5488 0.0000 48.0291
#
#
#
# Elastic Compliance Matrix: (Units=1/GPa)
#
#
# Indices 1 2 3 4 5 6 
#
# 1 0.012360 -0.000976 -0.003119 0.000000 -0.000516 0.000000
# 2 -0.000976 0.005070 -0.002182 0.000000 -0.000423 0.000000
# 3 -0.003119 -0.002182 0.017737 0.000000 -0.000940 0.000000
# 4 0.000000 0.000000 0.000000 0.044004 0.000000 0.030737
# 5 -0.000516 -0.000423 -0.000940 0.000000 0.035118 0.000000
# 6 0.000000 0.000000 0.000000 0.030737 0.000000 0.042291
#
#
# Mechanical properties :
#
#
# Convention : Reuss Voigt Hill
#
# Bulk Modulus (GPa) = 44.22166 57.40944 50.81555
# Shear Modulus (GPa) = 28.30074 44.04201 36.17137
#
# Velocity S-wave (km/s) = 3.88197 4.84269 4.38870
# Velocity P-wave (km/s) = 6.60608 7.86375 7.26219
#
# Compressibility (1/GPa) = 0.02261335
#
# Stress axis : x y z
#
# Youngs Moduli (GPa) = 80.90370 197.22139 56.37781
#
# Poissons Ratio (x) = 0.19251 0.17586
# Poissons Ratio (y) = 0.07897 0.12302
# Poissons Ratio (z) = 0.25237 0.43034
#
# Static dielectric constant tensor:
#      x y z
#    x 1.735480 0.000000 -0.014730 
#    y 0.000000 1.736270 0.000000 
#    z -0.014730 0.000000 1.749480 
# 
# From -- ./inp_files/4713.got.cif
#   From: 2010.05.17/outbox.cif.g08.bks.cpg/sg10_3_cif.got.tgz:4713.got - 2010.06.03 11:33:40.
