data_PCOD9154755
_publ_section_title
;
Structure prediction by ZEFSAII (Michael W. Deem and Ramdas Pophale) SiO2 
 PCOD9154755
Probable space group: P 2/M
;
_chemical_formula_sum "Si O2"
_cell_formula_units_Z 25
_cell_length_a 15.098207
_cell_length_b 11.937447
_cell_length_c 20.153221
_cell_angle_alpha 90.000000
_cell_angle_beta 160.083139
_cell_angle_gamma 90.000000
_cell_volume 1237.364500
_symmetry_space_group_name_H-M "P 2/M"
_symmetry_group_IT_number 10
_symmetry_cell_setting 'monoclinic'
loop_
_space_group_symop_operation_xyz
x,y,z
-x,y,-z
-x,-y,-z
x,-y,z
loop_
_atom_site_type_symbol
_atom_site_label
_atom_site_fract_x
_atom_site_fract_y
_atom_site_fract_z
Si Si1 0.623255 0.262273 0.397462
Si Si2 0.392135 0.869614 0.027118
Si Si3 0.873062 0.265588 0.044463
Si Si4 0.097033 0.500000 0.225414
Si Si5 0.000000 0.500000 0.000000
Si Si6 0.354271 0.870070 0.326847
Si Si7 0.903932 0.868653 0.322731
Si Si8 0.605330 0.500000 0.435116
O O1 0.536552 0.186200 0.399449
O O2 0.721943 0.383092 0.491258
O O3 0.834057 0.199874 0.501037
O O4 0.363008 0.280195 0.172188
O O5 0.685515 0.826661 0.220573
O O6 0.419926 0.000000 0.062696
O O7 0.226793 0.813933 0.967829
O O8 0.236644 0.862346 0.848296
O O9 0.956601 0.381308 0.137464
O O10 0.105370 0.208787 0.165466
O O11 0.340167 0.500000 0.447209
O O12 0.099041 0.500000 0.147055
O O13 0.689278 0.500000 0.800093
O O14 0.500000 0.872041 0.500000
O O15 0.289619 0.000000 0.263914
O O16 0.957969 0.000000 0.374068
#
# Coordination Sequence:
#
# PCOD9154755 Si02
#       8
#     4   4   4   2   1   4   4   2
#     4  12  24  40  60  91 129 160 211 266 311 381
#     4   9  19  38  64  92 123 165 216 263 314 380
#     4  12  24  40  60  91 129 160 211 266 311 381
#     4  12  25  43  66  89 126 171 211 263 320 374
#     4  12  22  44  60  94 120 152 222 256 300 374
#     4  11  24  40  59  86 120 163 209 250 310 381
#     4   9  19  38  64  92 123 165 216 263 314 380
#     4  12  25  43  66  89 126 171 211 263 320 374
#
# _framework density 20.204234
#
# number of rings (size 3 to 8) (size 9 to 14) (size 15 to 20)
#    0.000    1.120    1.600    6.480    0.000    6.400 
#    0.000    2.400    0.000    4.800    0.000    0.000 
#    0.000    0.000    0.000    0.000    0.000    0.000 
#
# Total GULP energy -139335.997339 kJ/mol
# GULP energy per Si atom -5573.439894 kJ/mol
# Density = 2.015825 g / cm^3
# Si number density = 20.204234 Si / 1000 Ang^3
#
#
#
# Elastic Constant Matrix: (Units=GPa)
#
#
# Indices 1 2 3 4 5 6 
#
# 1 45.8984 11.8078 4.5325 0.0000 6.7259 0.0000
# 2 11.8078 94.9702 34.0437 0.0000 11.9171 0.0000
# 3 4.5325 34.0437 103.7469 0.0000 0.6011 0.0000
# 4 0.0000 0.0000 0.0000 41.9995 0.0000 21.5756
# 5 6.7259 11.9171 0.6011 0.0000 41.1112 0.0000
# 6 0.0000 0.0000 0.0000 21.5756 0.0000 22.8835
#
#
#
# Elastic Compliance Matrix: (Units=1/GPa)
#
#
# Indices 1 2 3 4 5 6 
#
# 1 0.022868 -0.002390 -0.000197 0.000000 -0.003045 0.000000
# 2 -0.002390 0.012679 -0.004037 0.000000 -0.003225 0.000000
# 3 -0.000197 -0.004037 0.010966 0.000000 0.001042 0.000000
# 4 0.000000 0.000000 0.000000 0.046174 0.000000 -0.043535
# 5 -0.003045 -0.003225 0.001042 0.000000 0.025742 0.000000
# 6 0.000000 0.000000 0.000000 -0.043535 0.000000 0.084746
#
#
# Mechanical properties :
#
#
# Convention : Reuss Voigt Hill
#
# Bulk Modulus (GPa) = 30.06306 38.37596 34.21951
# Shear Modulus (GPa) = 21.97678 34.14761 28.06220
#
# Velocity S-wave (km/s) = 3.30166 4.11557 3.73087
# Velocity P-wave (km/s) = 5.42646 6.45129 5.96094
#
# Compressibility (1/GPa) = 0.03326342
#
# Stress axis : x y z
#
# Youngs Moduli (GPa) = 43.72930 78.87196 91.18909
#
# Poissons Ratio (x) = 0.18854 0.01797
# Poissons Ratio (y) = 0.10453 0.36816
# Poissons Ratio (z) = 0.00862 0.31843
#
# Static dielectric constant tensor:
#      x y z
#    x 1.715790 0.000000 -0.000590 
#    y 0.000000 1.743760 0.000000 
#    z -0.000590 0.000000 1.741040 
# 
# From -- ./inp_files/85261.got.cif
#   From: 2010.05.17/outbox.cif.g08.bks.cpg/sg10_43_cif.got.tgz:85261.got - 2010.06.03 11:33:40.
