data_PCOD9154740
_publ_section_title
;
Structure prediction by ZEFSAII (Michael W. Deem and Ramdas Pophale) SiO2 
 PCOD9154740
Probable space group: P 2/M
;
_chemical_formula_sum "Si O2"
_cell_formula_units_Z 18
_cell_length_a 8.279000
_cell_length_b 9.487811
_cell_length_c 19.518381
_cell_angle_alpha 90.000000
_cell_angle_beta 32.344060
_cell_angle_gamma 90.000000
_cell_volume 820.244372
_symmetry_space_group_name_H-M "P 2/M"
_symmetry_group_IT_number 10
_symmetry_cell_setting 'monoclinic'
loop_
_space_group_symop_operation_xyz
x,y,z
-x,y,-z
-x,-y,-z
x,-y,z
loop_
_atom_site_type_symbol
_atom_site_label
_atom_site_fract_x
_atom_site_fract_y
_atom_site_fract_z
Si Si1 0.534639 0.500000 0.903887
Si Si2 0.238601 0.500000 0.653230
Si Si3 0.716720 0.247758 0.254462
Si Si4 0.183200 0.000000 0.266414
Si Si5 0.725649 0.000000 0.546808
Si Si6 0.658500 0.751255 0.122149
Si Si7 0.142329 0.000000 0.125779
O O1 0.381353 0.634069 0.922178
O O2 0.888104 0.500000 0.755079
O O3 0.500000 0.500000 0.000000
O O4 0.500000 0.500000 0.500000
O O5 0.258651 0.365517 0.696526
O O6 0.630903 0.305846 0.210165
O O7 0.008675 0.144409 0.143696
O O8 0.467067 0.137246 0.368523
O O9 0.400925 0.132576 0.203033
O O10 0.059817 0.000000 0.234508
O O11 0.883844 0.000000 0.417900
O O12 0.000000 0.000000 0.500000
O O13 0.000000 0.810098 0.000000
O O14 0.500000 0.000000 0.000000
#
# Coordination Sequence:
#
# PCOD9154740 Si02
#       7
#     2   2   4   2   2   4   2
#     4  12  28  51  73 101 144 191 239 298 369 430
#     4  12  29  45  69 107 144 193 248 300 359 426
#     4  11  25  45  70 103 146 189 240 294 356 432
#     4  12  24  40  72 107 141 183 236 291 365 408
#     4  11  23  45  70 102 145 186 234 294 354 431
#     4  12  24  44  74 103 138 184 237 291 357 432
#     4  11  24  44  72 107 147 186 242 299 367 428
#
# _framework density 21.944680999999999
#
# number of rings (size 3 to 8) (size 9 to 14) (size 15 to 20)
#    0.000    0.444    2.222    6.000    6.222    2.667 
#    0.000    1.667    0.000    0.000    0.000    0.000 
#    0.000    0.000    0.000    0.000    0.000    0.000 
#
# Total GULP energy -100673.197266 kJ/mol
# GULP energy per Si atom -5592.955404 kJ/mol
# Density = 2.189473 g / cm^3
# Si number density = 21.944681 Si / 1000 Ang^3
#
#
#
# Elastic Constant Matrix: (Units=GPa)
#
#
# Indices 1 2 3 4 5 6 
#
# 1 146.5747 51.3814 44.2119 0.0000 21.7711 0.0000
# 2 51.3814 127.8403 35.7431 0.0000 -4.7485 0.0000
# 3 44.2119 35.7431 121.0408 0.0000 6.6053 0.0000
# 4 0.0000 0.0000 0.0000 -48.1865 0.0000 -28.8431
# 5 21.7711 -4.7485 6.6053 0.0000 55.7349 0.0000
# 6 0.0000 0.0000 0.0000 -28.8431 0.0000 49.2260
#
#
#
# Elastic Compliance Matrix: (Units=1/GPa)
#
#
# Indices 1 2 3 4 5 6 
#
# 1 0.009136 -0.003190 -0.002200 0.000000 -0.003580 0.000000
# 2 -0.003190 0.009699 -0.001824 0.000000 0.002289 0.000000
# 3 -0.002200 -0.001824 0.009628 0.000000 -0.000437 0.000000
# 4 0.000000 0.000000 0.000000 -0.015364 0.000000 -0.009002
# 5 -0.003580 0.002289 -0.000437 0.000000 0.019587 0.000000
# 6 0.000000 0.000000 0.000000 -0.009002 0.000000 0.015040
#
#
# Mechanical properties :
#
#
# Convention : Reuss Voigt Hill
#
# Bulk Modulus (GPa) = 71.24631 73.12541 72.18586
# Shear Modulus (GPa) = 74.81560 28.96284 51.88922
#
# Velocity S-wave (km/s) = 5.84524 3.63686 4.86794
# Velocity P-wave (km/s) = 8.83700 7.14357 8.03502
#
# Compressibility (1/GPa) = 0.01403581
#
# Stress axis : x y z
#
# Youngs Moduli (GPa) = 109.45893 103.10049 103.86789
#
# Poissons Ratio (x) = 0.32887 0.22848
# Poissons Ratio (y) = 0.34915 0.18945
# Poissons Ratio (z) = 0.24078 0.18805
#
# Static dielectric constant tensor:
#      x y z
#    x 1.777690 0.000000 0.000410 
#    y 0.000000 1.814230 0.000000 
#    z 0.000410 0.000000 1.751920 
# 
# From -- ./inp_files/81882.got.cif
#   From: 2010.05.17/outbox.cif.g08.bks.cpg/sg10_41_cif.got.tgz:81882.got - 2010.06.03 11:33:40.
