data_PCOD9154662
_publ_section_title
;
Structure prediction by ZEFSAII (Michael W. Deem and Ramdas Pophale) SiO2 
 PCOD9154662
Probable space group: P 2/M
;
_chemical_formula_sum "Si O2"
_cell_formula_units_Z 28
_cell_length_a 14.291452
_cell_length_b 22.746044
_cell_length_c 8.736677
_cell_angle_alpha 90.000000
_cell_angle_beta 25.069855
_cell_angle_gamma 90.000000
_cell_volume 1203.401265
_symmetry_space_group_name_H-M "P 2/M"
_symmetry_group_IT_number 10
_symmetry_cell_setting 'monoclinic'
loop_
_space_group_symop_operation_xyz
x,y,z
-x,y,-z
-x,-y,-z
x,-y,z
loop_
_atom_site_type_symbol
_atom_site_label
_atom_site_fract_x
_atom_site_fract_y
_atom_site_fract_z
Si Si1 0.294737 0.159221 0.722486
Si Si2 0.254870 0.065761 0.556389
Si Si3 0.251570 0.433763 0.297182
Si Si4 0.029389 0.749270 0.284499
Si Si5 0.969066 0.068152 0.711620
Si Si6 0.383688 0.353549 0.829167
Si Si7 0.192951 0.670483 0.593821
O O1 0.500000 0.188853 0.500000
O O2 0.344215 0.127424 0.489132
O O3 0.098852 0.203639 0.051926
O O4 0.229341 0.101740 0.915774
O O5 0.200171 0.071972 0.459244
O O6 0.351147 0.000000 0.444573
O O7 0.000000 0.063380 0.000000
O O8 0.165038 0.500000 0.418227
O O9 0.138601 0.390757 0.587621
O O10 0.500000 0.436410 0.000000
O O11 0.266122 0.402891 0.109046
O O12 0.000000 0.773367 0.500000
O O13 0.815966 0.717521 0.529939
O O14 0.213704 0.697963 0.034123
O O15 0.000000 0.092718 0.500000
O O16 0.910582 0.000000 0.791069
O O17 0.500000 0.375266 0.500000
O O18 0.580353 0.330847 0.648689
O O19 0.000000 0.683196 0.000000
#
# Coordination Sequence:
#
# PCOD9154662 Si02
#       7
#     4   4   4   4   4   4   4
#     4  11  23  37  56  89 123 157 211 265 309 379
#     4   8  16  34  59  85 117 157 197 246 309 376
#     4   9  20  40  66  98 133 167 212 267 316 381
#     4  12  25  44  65  90 124 169 222 271 318 379
#     4   9  18  37  64  89 119 161 205 255 318 381
#     4  11  22  42  66  95 132 165 218 259 323 393
#     4  11  23  40  69  93 127 178 207 263 331 377
#
# _framework density 23.267384
#
# number of rings (size 3 to 8) (size 9 to 14) (size 15 to 20)
#    0.000    1.857    2.857    2.143    0.000    3.429 
#    0.000    2.143    3.143    2.571    0.000    0.000 
#    0.000    0.000    0.000    0.000    0.000    0.000 
#
# Total GULP energy -156190.239419 kJ/mol
# GULP energy per Si atom -5578.222836 kJ/mol
# Density = 2.321443 g / cm^3
# Si number density = 23.267384 Si / 1000 Ang^3
#
#
#
# Elastic Constant Matrix: (Units=GPa)
#
#
# Indices 1 2 3 4 5 6 
#
# 1 121.2591 41.4515 18.2140 0.0000 16.9962 0.0000
# 2 41.4515 103.0746 8.4204 0.0000 8.1301 0.0000
# 3 18.2140 8.4204 31.5318 0.0000 8.0324 0.0000
# 4 0.0000 0.0000 0.0000 37.5421 0.0000 5.4780
# 5 16.9962 8.1301 8.0324 0.0000 37.1209 0.0000
# 6 0.0000 0.0000 0.0000 5.4780 0.0000 23.9695
#
#
#
# Elastic Compliance Matrix: (Units=1/GPa)
#
#
# Indices 1 2 3 4 5 6 
#
# 1 0.010585 -0.003657 -0.004347 0.000000 -0.003105 0.000000
# 2 -0.003657 0.011283 -0.000738 0.000000 -0.000637 0.000000
# 3 -0.004347 -0.000738 0.035850 0.000000 -0.005605 0.000000
# 4 0.000000 0.000000 0.000000 0.027556 0.000000 -0.006298
# 5 -0.003105 -0.000637 -0.005605 0.000000 0.029713 0.000000
# 6 0.000000 0.000000 0.000000 -0.006298 0.000000 0.043159
#
#
# Mechanical properties :
#
#
# Convention : Reuss Voigt Hill
#
# Bulk Modulus (GPa) = 24.85473 43.55969 34.20721
# Shear Modulus (GPa) = 26.44933 32.24516 29.34724
#
# Velocity S-wave (km/s) = 3.37524 3.72674 3.55534
# Velocity P-wave (km/s) = 5.08872 6.10575 5.62028
#
# Compressibility (1/GPa) = 0.04023380
#
# Stress axis : x y z
#
# Youngs Moduli (GPa) = 94.47371 88.63014 27.89400
#
# Poissons Ratio (x) = 0.32410 0.12125
# Poissons Ratio (y) = 0.34547 0.02060
# Poissons Ratio (z) = 0.41066 0.06545
#
# Static dielectric constant tensor:
#      x y z
#    x 2.025080 0.000000 0.019330 
#    y 0.000000 1.886440 0.000000 
#    z 0.019330 0.000000 1.991740 
# 
# From -- ./inp_files/30413.got.cif
#   From: 2010.05.17/outbox.cif.g08.bks.cpg/sg10_16_cif.got.tgz:30413.got - 2010.06.03 11:33:40.
