data_PCOD9154241
_publ_section_title
;
Structure prediction by ZEFSAII (Michael W. Deem and Ramdas Pophale) SiO2 
 PCOD9154241
Probable space group: P 2/M
;
_chemical_formula_sum "Si O2"
_cell_formula_units_Z 32
_cell_length_a 17.707496
_cell_length_b 15.072281
_cell_length_c 12.016528
_cell_angle_alpha 90.000000
_cell_angle_beta 150.630424
_cell_angle_gamma 90.000000
_cell_volume 1572.903104
_symmetry_space_group_name_H-M "P 2/M"
_symmetry_group_IT_number 10
_symmetry_cell_setting 'monoclinic'
loop_
_space_group_symop_operation_xyz
x,y,z
-x,y,-z
-x,-y,-z
x,-y,z
loop_
_atom_site_type_symbol
_atom_site_label
_atom_site_fract_x
_atom_site_fract_y
_atom_site_fract_z
Si Si1 0.248551 0.596923 0.570948
Si Si2 0.926402 0.596749 0.282042
Si Si3 0.326338 0.101910 0.949430
Si Si4 0.266806 0.787450 0.664620
Si Si5 0.157585 0.213171 0.129568
Si Si6 0.096956 0.211406 0.795606
Si Si7 0.661388 0.103066 0.464662
Si Si8 0.186131 0.596027 0.231612
O O1 0.311287 0.500000 0.684684
O O2 0.317260 0.685700 0.711630
O O3 0.248479 0.603960 0.437551
O O4 0.068974 0.596867 0.378429
O O5 0.847436 0.500000 0.170537
O O6 0.840231 0.689168 0.151247
O O7 0.000000 0.600230 0.500000
O O8 0.349225 0.162089 0.870240
O O9 0.182491 0.139823 0.831450
O O10 0.304920 0.000000 0.887415
O O11 0.476981 0.107183 0.219789
O O12 0.281076 0.840598 0.567596
O O13 0.085090 0.785901 0.461376
O O14 0.271479 0.146829 0.338389
O O15 0.223406 0.313563 0.216776
O O16 0.120888 0.190850 0.955880
O O17 0.000000 0.212939 0.000000
O O18 0.708097 0.000000 0.514837
O O19 0.234898 0.500000 0.247518
O O20 0.000000 0.593535 0.000000
#
# Coordination Sequence:
#
# PCOD9154241 Si02
#       8
#     4   4   4   4   4   4   4   4
#     4   9  16  27  50  85 119 146 181 232 285 335
#     4   9  16  28  49  82 121 156 190 230 282 343
#     4  11  26  43  59  83 115 157 200 243 303 359
#     4  11  19  39  65  90 118 150 197 246 288 342
#     4  11  20  38  59  89 118 149 195 245 290 345
#     4  11  22  36  61  90 122 152 192 244 295 343
#     4  11  24  42  62  84 113 154 200 245 298 357
#     4   9  15  26  49  81 116 148 181 228 280 335
#
# _framework density 20.344546000000001
#
# number of rings (size 3 to 8) (size 9 to 14) (size 15 to 20)
#    0.000    1.750    2.500    4.875    0.000    5.250 
#    0.000    1.250    0.000    3.750    0.000    1.750 
#    0.000    0.000    0.000    0.000    0.000    0.000 
#
# Total GULP energy -178640.250294 kJ/mol
# GULP energy per Si atom -5582.507822 kJ/mol
# Density = 2.029824 g / cm^3
# Si number density = 20.344546 Si / 1000 Ang^3
#
#
#
# Elastic Constant Matrix: (Units=GPa)
#
#
# Indices 1 2 3 4 5 6 
#
# 1 41.3204 9.1437 13.5614 0.0000 -12.7956 0.0000
# 2 9.1437 153.5240 46.3337 0.0000 -8.4476 0.0000
# 3 13.5614 46.3337 64.4929 0.0000 -18.3836 0.0000
# 4 0.0000 0.0000 0.0000 -4.1307 0.0000 -34.0935
# 5 -12.7956 -8.4476 -18.3836 0.0000 27.8292 0.0000
# 6 0.0000 0.0000 0.0000 -34.0935 0.0000 -9.0587
#
#
#
# Elastic Compliance Matrix: (Units=1/GPa)
#
#
# Indices 1 2 3 4 5 6 
#
# 1 0.028633 -0.000308 -0.002555 0.000000 0.011384 0.000000
# 2 -0.000308 0.008390 -0.006502 0.000000 -0.001890 0.000000
# 3 -0.002555 -0.006502 0.024413 0.000000 0.012979 0.000000
# 4 0.000000 0.000000 0.000000 0.008053 0.000000 -0.030307
# 5 0.011384 -0.001890 0.012979 0.000000 0.049168 0.000000
# 6 0.000000 0.000000 0.000000 -0.030307 0.000000 0.003672
#
#
# Mechanical properties :
#
#
# Convention : Reuss Voigt Hill
#
# Bulk Modulus (GPa) = 23.41469 44.15721 33.78595
# Shear Modulus (GPa) = 32.19711 15.61453 23.90582
#
# Velocity S-wave (km/s) = 3.98250 2.77339 3.43162
# Velocity P-wave (km/s) = 5.71674 5.65751 5.68720
#
# Compressibility (1/GPa) = 0.04270824
#
# Stress axis : x y z
#
# Youngs Moduli (GPa) = 34.92469 119.18643 40.96115
#
# Poissons Ratio (x) = 0.03671 0.10464
# Poissons Ratio (y) = 0.01076 0.26632
# Poissons Ratio (z) = 0.08922 0.77491
#
# Static dielectric constant tensor:
#      x y z
#    x 1.706950 0.000000 0.009460 
#    y 0.000000 1.763640 0.000000 
#    z 0.009460 0.000000 1.719580 
# 
# From -- ./inp_files/54044.got.cif
#   From: 2010.05.17/outbox.cif.g08.bks.cpg/sg10_28_cif.got.tgz:54044.got - 2010.06.03 11:33:40.
