data_PCOD9154108
_publ_section_title
;
Structure prediction by ZEFSAII (Michael W. Deem and Ramdas Pophale) SiO2 
 PCOD9154108
Probable space group: P 2/M
;
_chemical_formula_sum "Si O2"
_cell_formula_units_Z 28
_cell_length_a 15.860248
_cell_length_b 8.773407
_cell_length_c 12.082315
_cell_angle_alpha 90.000000
_cell_angle_beta 120.350953
_cell_angle_gamma 90.000000
_cell_volume 1450.815857
_symmetry_space_group_name_H-M "P 2/M"
_symmetry_group_IT_number 10
_symmetry_cell_setting 'monoclinic'
loop_
_space_group_symop_operation_xyz
x,y,z
-x,y,-z
-x,-y,-z
x,-y,z
loop_
_atom_site_type_symbol
_atom_site_label
_atom_site_fract_x
_atom_site_fract_y
_atom_site_fract_z
Si Si1 0.300315 0.316501 0.135143
Si Si2 0.382563 0.820893 0.417240
Si Si3 0.016439 0.181440 0.689667
Si Si4 0.161927 0.818125 0.585232
Si Si5 0.357302 0.319828 0.636510
Si Si6 0.468449 0.817120 0.103904
Si Si7 0.076195 0.682939 0.959354
O O1 0.304682 0.500000 0.137420
O O2 0.343206 0.255273 0.279437
O O3 0.367138 0.253337 0.079856
O O4 0.187832 0.265049 0.049603
O O5 0.500000 0.807124 0.500000
O O6 0.344322 0.742063 0.503337
O O7 0.357593 0.000000 0.401065
O O8 0.101473 0.212068 0.656674
O O9 0.037108 0.269827 0.814365
O O10 0.913341 0.218822 0.563734
O O11 0.016630 0.000000 0.710237
O O12 0.260412 0.724804 0.639251
O O13 0.183009 0.000000 0.594898
O O14 0.373578 0.500000 0.645599
O O15 0.448781 0.238846 0.755880
O O16 0.461609 0.000000 0.103588
O O17 0.500000 0.773000 0.000000
O O18 0.078518 0.500000 0.969160
O O19 0.000000 0.741921 0.000000
#
# Coordination Sequence:
#
# PCOD9154108 Si02
#       7
#     4   4   4   4   4   4   4
#     4  11  24  42  65  93 126 165 209 259 314 370
#     4  11  23  41  65  90 121 160 205 251 304 365
#     4   9  20  40  65  90 119 160 209 256 304 362
#     4   9  20  40  63  91 125 158 201 258 309 360
#     4  12  25  39  63  95 126 161 203 252 311 372
#     4  11  25  44  65  91 126 168 211 256 309 370
#     4  10  24  43  61  88 128 166 204 255 312 369
#
# _framework density 19.299485000000001
#
# number of rings (size 3 to 8) (size 9 to 14) (size 15 to 20)
#    0.000    1.571    1.429    3.429    4.000    4.286 
#    0.000    1.429    0.000    0.000    0.000    0.000 
#    0.000    0.000    0.000    0.000    0.000    0.000 
#
# Total GULP energy -156518.809847 kJ/mol
# GULP energy per Si atom -5589.957495 kJ/mol
# Density = 1.925556 g / cm^3
# Si number density = 19.299485 Si / 1000 Ang^3
#
#
#
# Elastic Constant Matrix: (Units=GPa)
#
#
# Indices 1 2 3 4 5 6 
#
# 1 117.0496 37.0272 52.8011 0.0000 9.0047 0.0000
# 2 37.0272 47.7670 25.2369 0.0000 -2.8930 0.0000
# 3 52.8011 25.2369 88.2801 0.0000 -18.6844 0.0000
# 4 0.0000 0.0000 0.0000 32.7000 0.0000 -0.0304
# 5 9.0047 -2.8930 -18.6844 0.0000 21.8944 0.0000
# 6 0.0000 0.0000 0.0000 -0.0304 0.0000 31.4316
#
#
#
# Elastic Compliance Matrix: (Units=1/GPa)
#
#
# Indices 1 2 3 4 5 6 
#
# 1 0.018649 -0.008893 -0.012795 0.000000 -0.019764 0.000000
# 2 -0.008893 0.029105 -0.001725 0.000000 0.006031 0.000000
# 3 -0.012795 -0.001725 0.025066 0.000000 0.026425 0.000000
# 4 0.000000 0.000000 0.000000 0.030581 0.000000 0.000030
# 5 -0.019764 0.006031 0.026425 0.000000 0.077150 0.000000
# 6 0.000000 0.000000 0.000000 0.000030 0.000000 0.031815
#
#
# Mechanical properties :
#
#
# Convention : Reuss Voigt Hill
#
# Bulk Modulus (GPa) = 38.46902 53.69191 46.08046
# Shear Modulus (GPa) = 18.66679 26.40730 22.53704
#
# Velocity S-wave (km/s) = 3.11338 3.70305 3.42095
# Velocity P-wave (km/s) = 5.73587 6.79443 6.28746
#
# Compressibility (1/GPa) = 0.02599494
#
# Stress axis : x y z
#
# Youngs Moduli (GPa) = 53.62326 34.35836 39.89454
#
# Poissons Ratio (x) = 0.30555 0.51043
# Poissons Ratio (y) = 0.47687 0.06881
# Poissons Ratio (z) = 0.68609 0.05926
#
# Static dielectric constant tensor:
#      x y z
#    x 1.675370 0.000000 -0.001780 
#    y 0.000000 1.651260 0.000000 
#    z -0.001780 0.000000 1.642190 
# 
# From -- ./inp_files/50062.got.cif
#   From: 2010.05.17/outbox.cif.g08.bks.cpg/sg10_26_cif.got.tgz:50062.got - 2010.06.03 11:33:40.
