data_PCOD9154462
_publ_section_title
;
Structure prediction by ZEFSAII (Michael W. Deem and Ramdas Pophale) SiO2 
 PCOD9154462
Probable space group: P 2/M
;
_chemical_formula_sum "Si O2"
_cell_formula_units_Z 28
_cell_length_a 5.194637
_cell_length_b 33.295289
_cell_length_c 8.281275
_cell_angle_alpha 90.000000
_cell_angle_beta 121.275908
_cell_angle_gamma 90.000000
_cell_volume 1224.157566
_symmetry_space_group_name_H-M "P 2/M"
_symmetry_group_IT_number 10
_symmetry_cell_setting 'monoclinic'
loop_
_space_group_symop_operation_xyz
x,y,z
-x,y,-z
-x,-y,-z
x,-y,z
loop_
_atom_site_type_symbol
_atom_site_label
_atom_site_fract_x
_atom_site_fract_y
_atom_site_fract_z
Si Si1 0.184020 0.129418 0.300492
Si Si2 0.180265 0.314745 0.230551
Si Si3 0.320651 0.732558 0.768791
Si Si4 0.319425 0.545830 0.769349
Si Si5 0.861173 0.044094 0.633972
Si Si6 0.605553 0.177811 0.215208
Si Si7 0.819956 0.593776 0.769415
O O1 0.500000 0.125687 0.500000
O O2 0.074678 0.083600 0.239168
O O3 0.318642 0.155718 0.200438
O O4 0.912612 0.151974 0.302660
O O5 0.504291 0.297779 0.289876
O O6 0.186623 0.360458 0.291416
O O7 0.003256 0.284532 0.289393
O O8 0.000000 0.315057 0.000000
O O9 0.331551 0.777463 0.700581
O O10 0.500000 0.732766 0.000000
O O11 0.307967 0.500000 0.708247
O O12 0.501006 0.574946 0.710535
O O13 0.000575 0.564624 0.710354
O O14 0.500000 0.545252 0.000000
O O15 0.500000 0.041524 0.500000
O O16 0.000000 0.050832 0.500000
O O17 0.968756 0.000000 0.726188
O O18 0.500000 0.183499 0.000000
O O19 0.000000 0.594447 0.000000
#
# Coordination Sequence:
#
# PCOD9154462 Si02
#       7
#     4   4   4   4   4   4   4
#     4  11  21  36  57  82 108 137 177 221 260 303
#     4   9  15  24  37  53  73  98 137 186 233 281
#     4   9  17  28  42  60  83 114 149 187 236 294
#     4   9  15  21  27  37  56  83 117 160 218 283
#     4   9  17  31  53  80 106 134 173 218 258 300
#     4  11  22  36  54  77 108 143 175 211 266 325
#     4   9  15  21  30  43  59  84 120 168 224 273
#
# _framework density 22.872876000000002
#
# number of rings (size 3 to 8) (size 9 to 14) (size 15 to 20)
#    0.000    2.429    0.000    4.714    0.000    7.429 
#    0.000    0.000    0.000    2.571    0.000    0.000 
#    0.000    0.000    0.000    0.000    0.000    0.000 
#
# Total GULP energy -156392.184281 kJ/mol
# GULP energy per Si atom -5585.435153 kJ/mol
# Density = 2.282082 g / cm^3
# Si number density = 22.872876 Si / 1000 Ang^3
#
#
#
# Elastic Constant Matrix: (Units=GPa)
#
#
# Indices 1 2 3 4 5 6 
#
# 1 138.4453 42.0272 1.4042 0.0000 -8.2974 0.0000
# 2 42.0272 177.2180 -3.5412 0.0000 -12.2464 0.0000
# 3 1.4042 -3.5412 46.0027 0.0000 17.0845 0.0000
# 4 0.0000 0.0000 0.0000 2.1948 0.0000 -9.1338
# 5 -8.2974 -12.2464 17.0845 0.0000 22.3898 0.0000
# 6 0.0000 0.0000 0.0000 -9.1338 0.0000 27.5884
#
#
#
# Elastic Compliance Matrix: (Units=1/GPa)
#
#
# Indices 1 2 3 4 5 6 
#
# 1 0.007946 -0.001694 -0.001566 0.000000 0.003213 0.000000
# 2 -0.001694 0.006261 -0.000705 0.000000 0.003335 0.000000
# 3 -0.001566 -0.000705 0.030826 0.000000 -0.024487 0.000000
# 4 0.000000 0.000000 0.000000 -1.205956 0.000000 -0.399262
# 5 0.003213 0.003335 -0.024487 0.000000 0.066363 0.000000
# 6 0.000000 0.000000 0.000000 -0.399262 0.000000 -0.095939
#
#
# Mechanical properties :
#
#
# Convention : Reuss Voigt Hill
#
# Bulk Modulus (GPa) = 26.95222 49.04961 38.00091
# Shear Modulus (GPa) = -4.27276 31.88633 13.80678
#
# Velocity S-wave (km/s) = -1.36825 3.73777 2.45956
# Velocity P-wave (km/s) = 3.05171 6.33395 4.97151
#
# Compressibility (1/GPa) = 0.03710270
#
# Stress axis : x y z
#
# Youngs Moduli (GPa) = 125.85505 159.72556 32.44066
#
# Poissons Ratio (x) = 0.27050 0.05081
# Poissons Ratio (y) = 0.21314 0.02286
# Poissons Ratio (z) = 0.19713 0.11257
#
# Static dielectric constant tensor:
#      x y z
#    x 1.803190 0.000000 -0.008690 
#    y 0.000000 1.864790 0.000000 
#    z -0.008690 0.000000 1.984920 
# 
# From -- ./inp_files/15913.got.cif
#   From: 2010.05.17/outbox.cif.g08.bks.cpg/sg10_8_cif.got.tgz:15913.got - 2010.06.03 11:33:40.
