data_PCOD9154022
_publ_section_title
;
Structure prediction by ZEFSAII (Michael W. Deem and Ramdas Pophale) SiO2 
 PCOD9154022
Probable space group: P 2/M
;
_chemical_formula_sum "Si O2"
_cell_formula_units_Z 32
_cell_length_a 11.521865
_cell_length_b 15.078632
_cell_length_c 18.074850
_cell_angle_alpha 90.000000
_cell_angle_beta 150.480426
_cell_angle_gamma 90.000000
_cell_volume 1547.249624
_symmetry_space_group_name_H-M "P 2/M"
_symmetry_group_IT_number 10
_symmetry_cell_setting 'monoclinic'
loop_
_space_group_symop_operation_xyz
x,y,z
-x,y,-z
-x,-y,-z
x,-y,z
loop_
_atom_site_type_symbol
_atom_site_label
_atom_site_fract_x
_atom_site_fract_y
_atom_site_fract_z
Si Si1 0.086898 0.776911 0.341867
Si Si2 0.492419 0.602051 0.909352
Si Si3 0.220094 0.603198 0.335491
Si Si4 0.921870 0.353748 0.036275
Si Si5 0.346782 0.169386 0.138560
Si Si6 0.187133 0.250874 0.667238
Si Si7 0.036495 0.094982 0.843609
Si Si8 0.520830 0.101658 0.625661
O O1 0.121904 0.673982 0.340226
O O2 0.333739 0.829168 0.488526
O O3 0.952743 0.791634 0.343248
O O4 0.931053 0.821790 0.191436
O O5 0.424209 0.500000 0.875132
O O6 0.726360 0.608670 0.986648
O O7 0.301900 0.659929 0.761535
O O8 0.500000 0.633199 0.000000
O O9 0.500000 0.602631 0.500000
O O10 0.138905 0.500000 0.297471
O O11 0.149274 0.642441 0.215721
O O12 0.808295 0.259618 0.949898
O O13 0.000000 0.395060 0.000000
O O14 0.597778 0.191669 0.241780
O O15 0.400206 0.133111 0.249195
O O16 0.197929 0.103666 0.004992
O O17 0.000000 0.268755 0.500000
O O18 0.763721 0.099458 0.715417
O O19 0.080040 0.000000 0.830916
O O20 0.427553 0.000000 0.575048
#
# Coordination Sequence:
#
# PCOD9154022 Si02
#       8
#     4   4   4   4   4   4   4   4
#     4  12  24  43  68  95 136 176 218 273 327 392
#     4  10  23  43  67  94 127 172 225 282 338 396
#     4  11  25  42  64  98 137 178 219 269 334 397
#     4  11  23  40  68  99 134 175 221 277 340 398
#     4  11  23  42  66  97 132 175 217 269 332 389
#     4  11  25  44  63  89 126 179 224 264 324 399
#     4  11  23  41  68 103 131 164 218 273 331 396
#     4  11  23  42  70 100 135 173 214 266 335 404
#
# _framework density 20.681861000000001
#
# number of rings (size 3 to 8) (size 9 to 14) (size 15 to 20)
#    0.000    1.000    2.500    4.125    3.500    4.750 
#    0.000    5.000    0.000    0.000    0.000    0.000 
#    0.000    0.000    0.000    0.000    0.000    0.000 
#
# Total GULP energy -178698.871008 kJ/mol
# GULP energy per Si atom -5584.339719 kJ/mol
# Density = 2.063479 g / cm^3
# Si number density = 20.681861 Si / 1000 Ang^3
#
#
#
# Elastic Constant Matrix: (Units=GPa)
#
#
# Indices 1 2 3 4 5 6 
#
# 1 113.6548 25.8376 37.1456 0.0000 -10.9269 0.0000
# 2 25.8376 95.8193 13.9133 0.0000 -1.7523 0.0000
# 3 37.1456 13.9133 102.8597 0.0000 -3.4363 0.0000
# 4 0.0000 0.0000 0.0000 -40.0370 0.0000 -13.8647
# 5 -10.9269 -1.7523 -3.4363 0.0000 31.1634 0.0000
# 6 0.0000 0.0000 0.0000 -13.8647 0.0000 9.5293
#
#
#
# Elastic Compliance Matrix: (Units=1/GPa)
#
#
# Indices 1 2 3 4 5 6 
#
# 1 0.010778 -0.002343 -0.003466 0.000000 0.003265 0.000000
# 2 -0.002343 0.011161 -0.000672 0.000000 -0.000268 0.000000
# 3 -0.003466 -0.000672 0.011064 0.000000 -0.000033 0.000000
# 4 0.000000 0.000000 0.000000 -0.016609 0.000000 -0.024165
# 5 0.003265 -0.000268 -0.000033 0.000000 0.033215 0.000000
# 6 0.000000 0.000000 0.000000 -0.024165 0.000000 0.069781
#
#
# Mechanical properties :
#
#
# Convention : Reuss Voigt Hill
#
# Bulk Modulus (GPa) = 49.90338 51.79185 50.84762
# Shear Modulus (GPa) = 35.96271 15.82696 25.89484
#
# Velocity S-wave (km/s) = 4.17448 2.76933 3.54228
# Velocity P-wave (km/s) = 6.88596 5.94324 6.43190
#
# Compressibility (1/GPa) = 0.02003872
#
# Stress axis : x y z
#
# Youngs Moduli (GPa) = 92.78119 89.59846 90.38673
#
# Poissons Ratio (x) = 0.20995 0.31330
# Poissons Ratio (y) = 0.21741 0.06078
# Poissons Ratio (z) = 0.32160 0.06025
#
# Static dielectric constant tensor:
#      x y z
#    x 1.763240 0.000000 0.012620 
#    y 0.000000 1.765480 0.000000 
#    z 0.012620 0.000000 1.734760 
# 
# From -- ./inp_files/77048.got.cif
#   From: 2010.05.17/outbox.cif.g08.bks.cpg/sg10_39_cif.got.tgz:77048.got - 2010.06.03 11:33:40.
