data_PCOD9154752
_publ_section_title
;
Structure prediction by ZEFSAII (Michael W. Deem and Ramdas Pophale) SiO2 
 PCOD9154752
Probable space group: P 2/M
;
_chemical_formula_sum "Si O2"
_cell_formula_units_Z 20
_cell_length_a 12.110958
_cell_length_b 15.521703
_cell_length_c 14.391436
_cell_angle_alpha 90.000000
_cell_angle_beta 159.089301
_cell_angle_gamma 90.000000
_cell_volume 965.569820
_symmetry_space_group_name_H-M "P 2/M"
_symmetry_group_IT_number 10
_symmetry_cell_setting 'monoclinic'
loop_
_space_group_symop_operation_xyz
x,y,z
-x,y,-z
-x,-y,-z
x,-y,z
loop_
_atom_site_type_symbol
_atom_site_label
_atom_site_fract_x
_atom_site_fract_y
_atom_site_fract_z
Si Si1 0.424130 0.798152 0.259476
Si Si2 0.163651 0.900605 0.286902
Si Si3 0.108839 0.599278 0.834715
Si Si4 0.743771 0.671654 0.372722
Si Si5 0.797180 0.352437 0.768548
O O1 0.717067 0.852331 0.527701
O O2 0.564062 0.748860 0.281640
O O3 0.324750 0.729257 0.264047
O O4 0.120408 0.853463 0.990059
O O5 0.500000 0.901173 0.500000
O O6 0.073759 0.000000 0.229931
O O7 0.059037 0.500000 0.821436
O O8 0.916246 0.621241 0.591562
O O9 0.989376 0.659812 0.825762
O O10 0.473885 0.615927 0.112541
O O11 0.000000 0.698279 0.500000
O O12 0.500000 0.399837 0.500000
O O13 0.000000 0.402954 0.000000
#
# Coordination Sequence:
#
# PCOD9154752 Si02
#       5
#     4   4   4   4   4
#     4  12  22  41  68  92 138 169 213 264 315 385
#     4  11  24  38  64 103 138 168 199 254 330 395
#     4  12  26  44  67  97 129 168 219 277 334 382
#     4  12  27  46  67  94 124 177 232 264 320 377
#     4  12  21  38  64  96 126 169 204 257 331 386
#
# _framework density 20.713158
#
# number of rings (size 3 to 8) (size 9 to 14) (size 15 to 20)
#    0.000    0.200    4.000    6.600    0.000    4.800 
#    0.000    0.000    0.000    3.600    0.000    0.000 
#    0.000    0.000    0.000    0.000    0.000    0.000 
#
# Total GULP energy -111565.733201 kJ/mol
# GULP energy per Si atom -5578.286660 kJ/mol
# Density = 2.066601 g / cm^3
# Si number density = 20.713158 Si / 1000 Ang^3
#
#
#
# Elastic Constant Matrix: (Units=GPa)
#
#
# Indices 1 2 3 4 5 6 
#
# 1 80.1716 39.7427 41.0908 0.0000 18.8185 0.0000
# 2 39.7427 132.5028 55.7681 0.0000 -0.9069 0.0000
# 3 41.0908 55.7681 192.3157 0.0000 -20.4382 0.0000
# 4 0.0000 0.0000 0.0000 8.9480 0.0000 -16.4010
# 5 18.8185 -0.9069 -20.4382 0.0000 43.1787 0.0000
# 6 0.0000 0.0000 0.0000 -16.4010 0.0000 42.0093
#
#
#
# Elastic Compliance Matrix: (Units=1/GPa)
#
#
# Indices 1 2 3 4 5 6 
#
# 1 0.018908 -0.004083 -0.003939 0.000000 -0.010191 0.000000
# 2 -0.004083 0.009524 -0.001768 0.000000 0.001143 0.000000
# 3 -0.003939 -0.001768 0.007089 0.000000 0.005035 0.000000
# 4 0.000000 0.000000 0.000000 0.392954 0.000000 0.153415
# 5 -0.010191 0.001143 0.005035 0.000000 0.030009 0.000000
# 6 0.000000 0.000000 0.000000 0.153415 0.000000 0.083700
#
#
# Mechanical properties :
#
#
# Convention : Reuss Voigt Hill
#
# Bulk Modulus (GPa) = 62.73108 75.35482 69.04295
# Shear Modulus (GPa) = 8.81714 36.71975 22.76845
#
# Velocity S-wave (km/s) = 2.06544 4.21500 3.31905
# Velocity P-wave (km/s) = 6.00328 7.75548 6.93494
#
# Compressibility (1/GPa) = 0.01594106
#
# Stress axis : x y z
#
# Youngs Moduli (GPa) = 52.88646 105.00248 141.06090
#
# Poissons Ratio (x) = 0.42875 0.55564
# Poissons Ratio (y) = 0.21595 0.24936
# Poissons Ratio (z) = 0.20832 0.18562
#
# Static dielectric constant tensor:
#      x y z
#    x 1.762510 0.000000 -0.020710 
#    y 0.000000 1.758530 0.000000 
#    z -0.020710 0.000000 1.844800 
# 
# From -- ./inp_files/65354.got.cif
#   From: 2010.05.17/outbox.cif.g08.bks.cpg/sg10_33_cif.got.tgz:65354.got - 2010.06.03 11:33:40.
