data_PCOD9154012
_publ_section_title
;
Structure prediction by ZEFSAII (Michael W. Deem and Ramdas Pophale) SiO2 
 PCOD9154012
Probable space group: P 2/M
;
_chemical_formula_sum "Si O2"
_cell_formula_units_Z 20
_cell_length_a 14.231678
_cell_length_b 11.652475
_cell_length_c 11.879441
_cell_angle_alpha 90.000000
_cell_angle_beta 31.707838
_cell_angle_gamma 90.000000
_cell_volume 1035.418129
_symmetry_space_group_name_H-M "P 2/M"
_symmetry_group_IT_number 10
_symmetry_cell_setting 'monoclinic'
loop_
_space_group_symop_operation_xyz
x,y,z
-x,y,-z
-x,-y,-z
x,-y,z
loop_
_atom_site_type_symbol
_atom_site_label
_atom_site_fract_x
_atom_site_fract_y
_atom_site_fract_z
Si Si1 0.236488 0.500000 0.347589
Si Si2 0.715538 0.130957 0.290309
Si Si3 0.366121 0.500000 0.955465
Si Si4 0.075460 0.748200 0.543718
Si Si5 0.630902 0.136228 0.621864
Si Si6 0.257621 0.741060 0.959780
O O1 0.422560 0.500000 0.228227
O O2 0.127395 0.613978 0.488055
O O3 0.277560 0.500000 0.171078
O O4 0.500000 0.124440 0.500000
O O5 0.738100 0.165999 0.397004
O O6 0.775018 0.222382 0.136651
O O7 0.782452 0.000000 0.201600
O O8 0.308924 0.611144 0.941863
O O9 0.254950 0.814514 0.392813
O O10 0.000000 0.781297 0.500000
O O11 0.918590 0.771346 0.791603
O O12 0.432709 0.187366 0.818390
O O13 0.618765 0.000000 0.637324
#
# Coordination Sequence:
#
# PCOD9154012 Si02
#       6
#     2   4   2   4   4   4
#     4  11  22  43  63  88 122 167 210 247 303 375
#     4   8  17  38  65  88 119 163 205 246 301 363
#     4  11  21  38  71  87 119 167 205 250 314 358
#     4  12  24  39  64  92 124 162 207 254 304 363
#     4  10  23  43  63  90 127 164 206 253 299 363
#     4  11  21  38  65  96 119 160 206 251 305 365
#
# _framework density 19.315867999999998
#
# number of rings (size 3 to 8) (size 9 to 14) (size 15 to 20)
#    0.000    1.600    4.000    2.700    0.000    3.600 
#    0.000    8.500    0.000    2.400    0.000    0.000 
#    0.000    0.000    0.000    0.000    0.000    0.000 
#
# Total GULP energy -111649.334675 kJ/mol
# GULP energy per Si atom -5582.466734 kJ/mol
# Density = 1.927190 g / cm^3
# Si number density = 19.315868 Si / 1000 Ang^3
#
#
#
# Elastic Constant Matrix: (Units=GPa)
#
#
# Indices 1 2 3 4 5 6 
#
# 1 50.6933 12.1686 7.6518 0.0000 -13.3080 0.0000
# 2 12.1686 66.1961 30.6312 0.0000 5.5507 0.0000
# 3 7.6518 30.6312 88.7826 0.0000 -2.5673 0.0000
# 4 0.0000 0.0000 0.0000 22.5942 0.0000 30.7046
# 5 -13.3080 5.5507 -2.5673 0.0000 25.3522 0.0000
# 6 0.0000 0.0000 0.0000 30.7046 0.0000 -14.3710
#
#
#
# Elastic Compliance Matrix: (Units=1/GPa)
#
#
# Indices 1 2 3 4 5 6 
#
# 1 0.024879 -0.005926 0.000317 0.000000 0.014389 0.000000
# 2 -0.005926 0.019934 -0.006602 0.000000 -0.008144 0.000000
# 3 0.000317 -0.006602 0.013600 0.000000 0.002989 0.000000
# 4 0.000000 0.000000 0.000000 0.011338 0.000000 0.024225
# 5 0.014389 -0.008144 0.002989 0.000000 0.049083 0.000000
# 6 0.000000 0.000000 0.000000 0.024225 0.000000 -0.017826
#
#
# Mechanical properties :
#
#
# Convention : Reuss Voigt Hill
#
# Bulk Modulus (GPa) = 29.42122 34.06390 31.74256
# Shear Modulus (GPa) = 36.55977 17.06310 26.81144
#
# Velocity S-wave (km/s) = 4.35527 2.97538 3.72970
# Velocity P-wave (km/s) = 6.36835 5.42930 5.91749
#
# Compressibility (1/GPa) = 0.03398908
#
# Stress axis : x y z
#
# Youngs Moduli (GPa) = 40.19507 50.16548 73.52684
#
# Poissons Ratio (x) = 0.29730 -0.02328
# Poissons Ratio (y) = 0.23821 0.48544
# Poissons Ratio (z) = -0.01273 0.33120
#
# Static dielectric constant tensor:
#      x y z
#    x 1.701550 0.000000 0.010480 
#    y 0.000000 1.646910 0.000000 
#    z 0.010480 0.000000 1.680560 
# 
# From -- ./inp_files/50557.got.cif
#   From: 2010.05.17/outbox.cif.g08.bks.cpg/sg10_26_cif.got.tgz:50557.got - 2010.06.03 11:33:40.
