data_PCOD9154693
_publ_section_title
;
Structure prediction by ZEFSAII (Michael W. Deem and Ramdas Pophale) SiO2 
 PCOD9154693
Probable space group: P 2/M
;
_chemical_formula_sum "Si O2"
_cell_formula_units_Z 28
_cell_length_a 9.344464
_cell_length_b 18.315073
_cell_length_c 16.258999
_cell_angle_alpha 90.000000
_cell_angle_beta 28.989672
_cell_angle_gamma 90.000000
_cell_volume 1348.611389
_symmetry_space_group_name_H-M "P 2/M"
_symmetry_group_IT_number 10
_symmetry_cell_setting 'monoclinic'
loop_
_space_group_symop_operation_xyz
x,y,z
-x,y,-z
-x,-y,-z
x,-y,z
loop_
_atom_site_type_symbol
_atom_site_label
_atom_site_fract_x
_atom_site_fract_y
_atom_site_fract_z
Si Si1 0.796096 0.688937 0.299929
Si Si2 0.284312 0.148487 0.688415
Si Si3 0.634006 0.171748 0.686778
Si Si4 0.277513 0.577413 0.800732
Si Si5 0.202110 0.417943 0.198688
Si Si6 0.683736 0.335186 0.696109
Si Si7 0.359816 0.914011 0.981699
O O1 0.500000 0.694614 0.500000
O O2 0.876012 0.772523 0.244843
O O3 0.738136 0.649128 0.244398
O O4 0.989453 0.629274 0.249004
O O5 0.500000 0.134923 0.500000
O O6 0.482238 0.151933 0.673772
O O7 0.997596 0.096627 0.838489
O O8 0.540343 0.256033 0.754375
O O9 0.000000 0.165095 0.500000
O O10 0.505576 0.125569 0.828601
O O11 0.293468 0.500000 0.747227
O O12 0.553712 0.593217 0.718320
O O13 0.000000 0.575315 0.000000
O O14 0.092086 0.500000 0.277553
O O15 0.282530 0.361240 0.229026
O O16 0.500000 0.429118 0.000000
O O17 0.000000 0.323318 0.500000
O O18 0.425356 0.000000 0.941695
O O19 0.500000 0.889181 0.000000
#
# Coordination Sequence:
#
# PCOD9154693 Si02
#       7
#     4   4   4   4   4   4   4
#     4  11  24  39  62  92 125 171 226 279 338 406
#     4  11  25  44  72 108 144 186 236 288 345 412
#     4  11  25  44  72 108 144 186 236 288 345 412
#     4  11  23  39  59  87 127 172 221 280 340 398
#     4  11  25  41  59  89 127 174 227 286 352 406
#     4  11  24  39  62  92 125 171 226 279 338 406
#     4  11  27  49  77 111 144 185 226 271 344 419
#
# _framework density 20.762097000000001
#
# number of rings (size 3 to 8) (size 9 to 14) (size 15 to 20)
#    0.000    1.000    1.429    3.857   12.000    7.429 
#    0.000    0.000    0.000    0.000    0.000    0.000 
#    0.000    0.000    0.000    0.000    0.000    0.000 
#
# Total GULP energy -155963.247531 kJ/mol
# GULP energy per Si atom -5570.115983 kJ/mol
# Density = 2.071484 g / cm^3
# Si number density = 20.762097 Si / 1000 Ang^3
#
#
#
# Elastic Constant Matrix: (Units=GPa)
#
#
# Indices 1 2 3 4 5 6 
#
# 1 123.9553 27.7446 33.4084 0.0000 10.9320 0.0000
# 2 27.7446 94.0858 37.2357 0.0000 11.7805 0.0000
# 3 33.4084 37.2357 75.7036 0.0000 16.3588 0.0000
# 4 0.0000 0.0000 0.0000 48.9365 0.0000 0.9007
# 5 10.9320 11.7805 16.3588 0.0000 37.3300 0.0000
# 6 0.0000 0.0000 0.0000 0.9007 0.0000 29.6053
#
#
#
# Elastic Compliance Matrix: (Units=1/GPa)
#
#
# Indices 1 2 3 4 5 6 
#
# 1 0.009326 -0.001349 -0.003263 0.000000 -0.000875 0.000000
# 2 -0.001349 0.013465 -0.005738 0.000000 -0.001340 0.000000
# 3 -0.003263 -0.005738 0.018639 0.000000 -0.005402 0.000000
# 4 0.000000 0.000000 0.000000 0.020446 0.000000 -0.000622
# 5 -0.000875 -0.001340 -0.005402 0.000000 0.029834 0.000000
# 6 0.000000 0.000000 0.000000 -0.000622 0.000000 0.033797
#
#
# Mechanical properties :
#
#
# Convention : Reuss Voigt Hill
#
# Bulk Modulus (GPa) = 48.23969 54.50248 51.37108
# Shear Modulus (GPa) = 32.65471 36.19810 34.42640
#
# Velocity S-wave (km/s) = 3.97016 4.18002 4.07644
# Velocity P-wave (km/s) = 6.65591 7.04306 6.85222
#
# Compressibility (1/GPa) = 0.02072982
#
# Stress axis : x y z
#
# Youngs Moduli (GPa) = 107.22699 74.26600 53.65120
#
# Poissons Ratio (x) = 0.10020 0.17505
# Poissons Ratio (y) = 0.14467 0.30786
# Poissons Ratio (z) = 0.34986 0.42615
#
# Static dielectric constant tensor:
#      x y z
#    x 1.767550 0.000000 -0.014470 
#    y 0.000000 1.777720 0.000000 
#    z -0.014470 0.000000 1.729930 
# 
# From -- ./inp_files/62553.got.cif
#   From: 2010.05.17/outbox.cif.g08.bks.cpg/sg10_32_cif.got.tgz:62553.got - 2010.06.03 11:33:40.
