data_PCOD9154341
_publ_section_title
;
Structure prediction by ZEFSAII (Michael W. Deem and Ramdas Pophale) SiO2 
 PCOD9154341
Probable space group: P 2/M
;
_chemical_formula_sum "Si O2"
_cell_formula_units_Z 25
_cell_length_a 23.568867
_cell_length_b 11.624681
_cell_length_c 8.979268
_cell_angle_alpha 90.000000
_cell_angle_beta 150.364612
_cell_angle_gamma 90.000000
_cell_volume 1216.489499
_symmetry_space_group_name_H-M "P 2/M"
_symmetry_group_IT_number 10
_symmetry_cell_setting 'monoclinic'
loop_
_space_group_symop_operation_xyz
x,y,z
-x,y,-z
-x,-y,-z
x,-y,z
loop_
_atom_site_type_symbol
_atom_site_label
_atom_site_fract_x
_atom_site_fract_y
_atom_site_fract_z
Si Si1 0.993388 0.000000 0.714410
Si Si2 0.500000 0.000000 0.000000
Si Si3 0.916594 0.218205 0.695113
Si Si4 0.472369 0.369134 0.114629
Si Si5 0.207972 0.000000 0.981058
Si Si6 0.695830 0.807519 0.364902
Si Si7 0.114347 0.636444 0.669398
Si Si8 0.697417 0.759128 0.709520
O O1 0.992770 0.115020 0.806085
O O2 0.871056 0.000000 0.346306
O O3 0.106375 0.000000 0.871232
O O4 0.594015 0.899668 0.160577
O O5 0.807734 0.160594 0.527786
O O6 0.882360 0.297050 0.478589
O O7 0.000000 0.283871 0.000000
O O8 0.466882 0.500000 0.157115
O O9 0.570243 0.294150 0.417892
O O10 0.500000 0.373800 0.000000
O O11 0.355629 0.298478 0.847256
O O12 0.285008 0.113493 0.181145
O O13 0.730205 0.768541 0.609944
O O14 0.112714 0.500000 0.643978
O O15 0.000000 0.671314 0.500000
O O16 0.219879 0.675483 0.011917
#
# Coordination Sequence:
#
# PCOD9154341 Si02
#       8
#     2   1   4   4   2   4   4   4
#     4  11  22  40  58  93 130 166 208 259 327 395
#     4  12  20  44  64 104 132 176 220 272 338 392
#     4  12  25  43  65 100 133 169 216 274 336 393
#     4   9  19  37  61  91 122 165 218 261 313 381
#     4  11  21  34  67  91 124 170 215 262 321 400
#     4  11  23  39  69  96 134 171 217 277 328 392
#     4  11  24  42  65  94 133 179 225 271 328 397
#     4  11  20  39  65  96 123 173 218 270 323 397
#
# _framework density 20.550936
#
# number of rings (size 3 to 8) (size 9 to 14) (size 15 to 20)
#    0.000    1.120    4.000    4.560    0.000    1.600 
#    0.000    0.800    0.000    3.840    0.000    0.000 
#    0.000    0.000    0.000    0.000    0.000    0.000 
#
# Total GULP energy -139346.007797 kJ/mol
# GULP energy per Si atom -5573.840312 kJ/mol
# Density = 2.050416 g / cm^3
# Si number density = 20.550936 Si / 1000 Ang^3
#
#
#
# Elastic Constant Matrix: (Units=GPa)
#
#
# Indices 1 2 3 4 5 6 
#
# 1 73.2389 24.3510 28.5663 0.0000 1.2230 0.0000
# 2 24.3510 92.1779 42.0000 0.0000 1.1686 0.0000
# 3 28.5663 42.0000 120.9177 0.0000 -12.0093 0.0000
# 4 0.0000 0.0000 0.0000 23.0739 0.0000 -15.5322
# 5 1.2230 1.1686 -12.0093 0.0000 24.5364 0.0000
# 6 0.0000 0.0000 0.0000 -15.5322 0.0000 86.4071
#
#
#
# Elastic Compliance Matrix: (Units=1/GPa)
#
#
# Indices 1 2 3 4 5 6 
#
# 1 0.015773 -0.002788 -0.002967 0.000000 -0.002106 0.000000
# 2 -0.002788 0.013587 -0.004321 0.000000 -0.002623 0.000000
# 3 -0.002967 -0.004321 0.011044 0.000000 0.005759 0.000000
# 4 0.000000 0.000000 0.000000 0.049305 0.000000 0.008863
# 5 -0.002106 -0.002623 0.005759 0.000000 0.043804 0.000000
# 6 0.000000 0.000000 0.000000 0.008863 0.000000 0.013166
#
#
# Mechanical properties :
#
#
# Convention : Reuss Voigt Hill
#
# Bulk Modulus (GPa) = 49.37897 52.90768 51.14333
# Shear Modulus (GPa) = 28.80442 39.56463 34.18453
#
# Velocity S-wave (km/s) = 3.74787 4.39247 4.08291
# Velocity P-wave (km/s) = 6.54282 7.17813 6.86783
#
# Compressibility (1/GPa) = 0.02025154
#
# Stress axis : x y z
#
# Youngs Moduli (GPa) = 63.39765 73.59757 90.54688
#
# Poissons Ratio (x) = 0.20521 0.26866
# Poissons Ratio (y) = 0.17677 0.39128
# Poissons Ratio (z) = 0.18810 0.31804
#
# Static dielectric constant tensor:
#      x y z
#    x 1.705570 0.000000 -0.010960 
#    y 0.000000 1.717770 0.000000 
#    z -0.010960 0.000000 1.796090 
# 
# From -- ./inp_files/36234.got.cif
#   From: 2010.05.17/outbox.cif.g08.bks.cpg/sg10_19_cif.got.tgz:36234.got - 2010.06.03 11:33:40.
