data_PCOD9154812
_publ_section_title
;
Structure prediction by ZEFSAII (Michael W. Deem and Ramdas Pophale) SiO2 
 PCOD9154812
Probable space group: P 2/M
;
_chemical_formula_sum "Si O2"
_cell_formula_units_Z 17
_cell_length_a 4.860832
_cell_length_b 24.341512
_cell_length_c 7.304365
_cell_angle_alpha 90.000000
_cell_angle_beta 46.130939
_cell_angle_gamma 90.000000
_cell_volume 623.061588
_symmetry_space_group_name_H-M "P 2/M"
_symmetry_group_IT_number 10
_symmetry_cell_setting 'monoclinic'
loop_
_space_group_symop_operation_xyz
x,y,z
-x,y,-z
-x,-y,-z
x,-y,z
loop_
_atom_site_type_symbol
_atom_site_label
_atom_site_fract_x
_atom_site_fract_y
_atom_site_fract_z
Si Si1 0.552345 0.324263 0.255873
Si Si2 0.446881 0.793283 0.743249
Si Si3 0.552046 0.558587 0.255861
Si Si4 0.500000 0.000000 0.500000
Si Si5 0.544873 0.087297 0.178764
O O1 0.500000 0.323922 0.500000
O O2 0.396461 0.265551 0.259398
O O3 0.395404 0.382827 0.257531
O O4 0.000000 0.324522 0.000000
O O5 0.500000 0.795990 0.500000
O O6 0.603877 0.850163 0.749834
O O7 0.000000 0.792640 0.000000
O O8 0.500000 0.558648 0.500000
O O9 0.395491 0.500000 0.257432
O O10 0.000000 0.558534 0.000000
O O11 0.385718 0.048381 0.406328
O O12 0.500000 0.063063 0.000000
O O13 0.000000 0.088769 0.000000
#
# Coordination Sequence:
#
# PCOD9154812 Si02
#       5
#     4   4   4   1   4
#     4   8  13  21  38  58  89 131 177 229 287 345
#     4   9  17  34  53  80 111 150 197 249 303 364
#     4   8  12  17  26  47  79 120 168 220 276 338
#     4  12  24  46  68  96 128 170 210 262 314 382
#     4  11  25  43  65  95 128 166 212 261 316 378
#
# _framework density 27.284624000000001
#
# number of rings (size 3 to 8) (size 9 to 14) (size 15 to 20)
#    0.000    2.824    1.176    0.706    0.000    1.882 
#    0.000    0.000    0.000    0.000    0.000    0.000 
#    0.000    0.941    0.000    0.706    0.000  321.412 
#
# Total GULP energy -94871.385707 kJ/mol
# GULP energy per Si atom -5580.669747 kJ/mol
# Density = 2.722252 g / cm^3
# Si number density = 27.284624 Si / 1000 Ang^3
#
#
#
# Elastic Constant Matrix: (Units=GPa)
#
#
# Indices 1 2 3 4 5 6 
#
# 1 83.3252 6.8031 48.9868 0.0000 -24.1743 0.0000
# 2 6.8031 342.7866 14.1239 0.0000 28.2815 0.0000
# 3 48.9868 14.1239 222.3808 0.0000 0.6001 0.0000
# 4 0.0000 0.0000 0.0000 29.2669 0.0000 6.9588
# 5 -24.1743 28.2815 0.6001 0.0000 73.7720 0.0000
# 6 0.0000 0.0000 0.0000 6.9588 0.0000 -23.7130
#
#
#
# Elastic Compliance Matrix: (Units=1/GPa)
#
#
# Indices 1 2 3 4 5 6 
#
# 1 0.015621 -0.000613 -0.003417 0.000000 0.005382 0.000000
# 2 -0.000613 0.003045 -0.000055 0.000000 -0.001368 0.000000
# 3 -0.003417 -0.000055 0.005256 0.000000 -0.001141 0.000000
# 4 0.000000 0.000000 0.000000 0.031940 0.000000 0.009373
# 5 0.005382 -0.001368 -0.001141 0.000000 0.015852 0.000000
# 6 0.000000 0.000000 0.000000 0.009373 0.000000 -0.039420
#
#
# Mechanical properties :
#
#
# Convention : Reuss Voigt Hill
#
# Bulk Modulus (GPa) = 63.48109 87.59111 75.53610
# Shear Modulus (GPa) = 109.37692 54.43711 81.90701
#
# Velocity S-wave (km/s) = 6.33833 4.47156 5.48495
# Velocity P-wave (km/s) = 8.76827 7.67022 8.23756
#
# Compressibility (1/GPa) = 0.01575272
#
# Stress axis : x y z
#
# Youngs Moduli (GPa) = 64.01519 328.45821 190.25961
#
# Poissons Ratio (x) = 0.20144 0.65006
# Poissons Ratio (y) = 0.03926 0.01038
# Poissons Ratio (z) = 0.21872 0.01793
#
# Static dielectric constant tensor:
#      x y z
#    x 2.041310 0.000000 -0.066710 
#    y 0.000000 2.183890 0.000000 
#    z -0.066710 0.000000 2.073910 
# 
# From -- ./inp_files/1941.got.cif
#   From: 2010.05.17/outbox.cif.g08.bks.cpg/sg10_1_cif.got.tgz:1941.got - 2010.06.03 11:33:40.
