data_PCOD9154415
_publ_section_title
;
Structure prediction by ZEFSAII (Michael W. Deem and Ramdas Pophale) SiO2 
 PCOD9154415
Probable space group: P 2/M
;
_chemical_formula_sum "Si O2"
_cell_formula_units_Z 24
_cell_length_a 11.569348
_cell_length_b 8.545759
_cell_length_c 14.478737
_cell_angle_alpha 90.000000
_cell_angle_beta 77.777853
_cell_angle_gamma 90.000000
_cell_volume 1399.050120
_symmetry_space_group_name_H-M "P 2/M"
_symmetry_group_IT_number 10
_symmetry_cell_setting 'monoclinic'
loop_
_space_group_symop_operation_xyz
x,y,z
-x,y,-z
-x,-y,-z
x,-y,z
loop_
_atom_site_type_symbol
_atom_site_label
_atom_site_fract_x
_atom_site_fract_y
_atom_site_fract_z
Si Si1 0.412769 0.814687 0.641743
Si Si2 0.133183 0.681650 0.019419
Si Si3 0.102784 0.187334 0.410431
Si Si4 0.774041 0.689952 0.185164
Si Si5 0.339229 0.685076 0.460064
Si Si6 0.031053 0.690044 0.222714
O O1 0.335649 0.757424 0.740708
O O2 0.344775 0.768916 0.558746
O O3 0.540083 0.732525 0.612195
O O4 0.429661 0.000000 0.641335
O O5 0.168353 0.500000 0.024588
O O6 0.116622 0.747673 0.124860
O O7 0.212938 0.747448 0.923179
O O8 0.000000 0.681112 0.000000
O O9 0.225018 0.262477 0.423058
O O10 0.066818 0.243311 0.314884
O O11 0.000000 0.232469 0.500000
O O12 0.114248 0.000000 0.409834
O O13 0.768097 0.500000 0.184927
O O14 0.896411 0.731420 0.217193
O O15 0.337917 0.500000 0.476022
O O16 0.036446 0.500000 0.223702
#
# Coordination Sequence:
#
# PCOD9154415 Si02
#       6
#     4   4   4   4   4   4
#     4  11  21  34  52  75 104 131 159 201 252 297
#     4   7  12  25  46  72 100 129 164 207 246 280
#     4  11  23  36  50  72 104 136 163 197 247 300
#     4   9  16  29  51  77 103 132 169 206 241 287
#     4  11  22  37  55  73  95 128 171 208 242 288
#     4   9  17  30  50  75 102 134 170 206 244 287
#
# _framework density 17.154496999999999
#
# number of rings (size 3 to 8) (size 9 to 14) (size 15 to 20)
#    0.000    2.333    0.000    7.500    0.000    4.667 
#    0.000    0.833    0.000    4.000    0.000    7.000 
#    0.000    0.000    0.000    0.000    0.000    0.000 
#
# Total GULP energy -133836.478114 kJ/mol
# GULP energy per Si atom -5576.519921 kJ/mol
# Density = 1.711545 g / cm^3
# Si number density = 17.154497 Si / 1000 Ang^3
#
#
#
# Elastic Constant Matrix: (Units=GPa)
#
#
# Indices 1 2 3 4 5 6 
#
# 1 47.5440 5.9538 44.5865 0.0000 -3.7115 0.0000
# 2 5.9538 21.3084 2.3114 0.0000 1.5291 0.0000
# 3 44.5865 2.3114 130.6425 0.0000 -18.3162 0.0000
# 4 0.0000 0.0000 0.0000 216.9588 0.0000 69.9747
# 5 -3.7115 1.5291 -18.3162 0.0000 28.9022 0.0000
# 6 0.0000 0.0000 0.0000 69.9747 0.0000 43.1251
#
#
#
# Elastic Compliance Matrix: (Units=1/GPa)
#
#
# Indices 1 2 3 4 5 6 
#
# 1 0.032356 -0.007633 -0.011270 0.000000 -0.002583 0.000000
# 2 -0.007633 0.049111 0.001355 0.000000 -0.002720 0.000000
# 3 -0.011270 0.001355 0.012362 0.000000 0.006315 0.000000
# 4 0.000000 0.000000 0.000000 0.009670 0.000000 -0.015690
# 5 -0.002583 -0.002720 0.006315 0.000000 0.038414 0.000000
# 6 0.000000 0.000000 0.000000 -0.015690 0.000000 0.048647
#
#
# Mechanical properties :
#
#
# Convention : Reuss Voigt Hill
#
# Bulk Modulus (GPa) = 17.02614 33.91092 25.46853
# Shear Modulus (GPa) = 20.38884 67.57344 43.98114
#
# Velocity S-wave (km/s) = 3.45126 6.28304 5.06892
# Velocity P-wave (km/s) = 5.08216 8.51154 7.00980
#
# Compressibility (1/GPa) = 0.05873320
#
# Stress axis : x y z
#
# Youngs Moduli (GPa) = 30.90613 20.36216 80.89212
#
# Poissons Ratio (x) = 0.15542 0.91164
# Poissons Ratio (y) = 0.23590 -0.10959
# Poissons Ratio (z) = 0.34831 -0.02759
#
# Static dielectric constant tensor:
#      x y z
#    x 1.556450 0.000000 -0.022070 
#    y 0.000000 1.579300 0.000000 
#    z -0.022070 0.000000 1.598700 
# 
# From -- ./inp_files/45167.got.cif
#   From: 2010.05.17/outbox.cif.g08.bks.cpg/sg10_23_cif.got.tgz:45167.got - 2010.06.03 11:33:40.
