data_PCOD9154437
_publ_section_title
;
Structure prediction by ZEFSAII (Michael W. Deem and Ramdas Pophale) SiO2 
 PCOD9154437
Probable space group: P 2/M
;
_chemical_formula_sum "Si O2"
_cell_formula_units_Z 32
_cell_length_a 12.231681
_cell_length_b 20.483038
_cell_length_c 9.933415
_cell_angle_alpha 90.000000
_cell_angle_beta 142.569703
_cell_angle_gamma 90.000000
_cell_volume 1512.644285
_symmetry_space_group_name_H-M "P 2/M"
_symmetry_group_IT_number 10
_symmetry_cell_setting 'monoclinic'
loop_
_space_group_symop_operation_xyz
x,y,z
-x,y,-z
-x,-y,-z
x,-y,z
loop_
_atom_site_type_symbol
_atom_site_label
_atom_site_fract_x
_atom_site_fract_y
_atom_site_fract_z
Si Si1 0.685925 0.654916 0.375838
Si Si2 0.326036 0.930347 0.517295
Si Si3 0.752752 0.929469 0.877570
Si Si4 0.252268 0.213067 0.132421
Si Si5 0.197982 0.572261 0.753333
Si Si6 0.199031 0.425056 0.259167
Si Si7 0.281712 0.648494 0.084743
Si Si8 0.685517 0.210943 0.494705
O O1 0.709209 0.625245 0.251644
O O2 0.784183 0.608371 0.579922
O O3 0.477834 0.654454 0.212878
O O4 0.742310 0.729580 0.456082
O O5 0.543991 0.930646 0.720151
O O6 0.257545 0.929240 0.295351
O O7 0.271532 0.860544 0.521931
O O8 0.271494 0.000000 0.525301
O O9 0.825182 0.857653 0.986824
O O10 0.834666 0.000000 0.998012
O O11 0.188773 0.280640 0.004700
O O12 0.468173 0.211583 0.310663
O O13 0.233195 0.218768 0.275563
O O14 0.282359 0.500000 0.831380
O O15 0.000000 0.567246 0.500000
O O16 0.186150 0.597636 0.893392
O O17 0.261302 0.500000 0.326898
O O18 0.303934 0.380894 0.254533
O O19 0.000000 0.424760 0.000000
#
# Coordination Sequence:
#
# PCOD9154437 Si02
#       8
#     4   4   4   4   4   4   4   4
#     4  11  21  35  56  80 103 131 168 212 257 303
#     4   7   9  14  28  54  92 134 163 184 226 287
#     4   7   9  14  28  54  92 134 163 184 226 287
#     4   8  13  23  40  67 102 131 158 199 246 287
#     4  11  25  43  57  71  98 133 168 212 263 313
#     4  11  23  37  53  75 104 135 166 204 253 307
#     4  11  21  35  56  80 103 131 168 212 257 303
#     4   8  13  23  40  67 102 131 158 199 246 287
#
# _framework density 21.155007000000001
#
# number of rings (size 3 to 8) (size 9 to 14) (size 15 to 20)
#    0.000    2.750    1.250    4.500    0.000    5.000 
#    0.000    0.000    0.000    0.000    0.000    0.875 
#    0.000   12.000    0.000    0.000    0.000    0.000 
#
# Total GULP energy -178442.867072 kJ/mol
# GULP energy per Si atom -5576.339596 kJ/mol
# Density = 2.110686 g / cm^3
# Si number density = 21.155007 Si / 1000 Ang^3
#
#
#
# Elastic Constant Matrix: (Units=GPa)
#
#
# Indices 1 2 3 4 5 6 
#
# 1 47.0229 25.3087 2.1960 0.0000 -5.6389 0.0000
# 2 25.3087 214.3710 16.8320 0.0000 -9.5684 0.0000
# 3 2.1960 16.8320 46.5916 0.0000 -1.8474 0.0000
# 4 0.0000 0.0000 0.0000 24.2562 0.0000 85.4684
# 5 -5.6389 -9.5684 -1.8474 0.0000 18.6961 0.0000
# 6 0.0000 0.0000 0.0000 85.4684 0.0000 741.5963
#
#
#
# Elastic Compliance Matrix: (Units=1/GPa)
#
#
# Indices 1 2 3 4 5 6 
#
# 1 0.023298 -0.002496 0.000032 0.000000 0.005752 0.000000
# 2 -0.002496 0.005169 -0.001681 0.000000 0.001726 0.000000
# 3 0.000032 -0.001681 0.022122 0.000000 0.001335 0.000000
# 4 0.000000 0.000000 0.000000 0.069415 0.000000 -0.008000
# 5 0.005752 0.001726 0.001335 0.000000 0.056238 0.000000
# 6 0.000000 0.000000 0.000000 -0.008000 0.000000 0.002270
#
#
# Mechanical properties :
#
#
# Convention : Reuss Voigt Hill
#
# Bulk Modulus (GPa) = 23.64219 44.07324 33.85771
# Shear Modulus (GPa) = 24.88774 174.48631 99.68702
#
# Velocity S-wave (km/s) = 3.43366 9.09170 6.87201
# Velocity P-wave (km/s) = 5.18845 11.44948 8.88849
#
# Compressibility (1/GPa) = 0.04229727
#
# Stress axis : x y z
#
# Youngs Moduli (GPa) = 42.92190 193.47694 45.20414
#
# Poissons Ratio (x) = 0.48298 -0.00144
# Poissons Ratio (y) = 0.10715 0.07599
# Poissons Ratio (z) = -0.00137 0.32526
#
# Static dielectric constant tensor:
#      x y z
#    x 1.766830 0.000000 0.085470 
#    y 0.000000 1.847170 0.000000 
#    z 0.085470 0.000000 1.798400 
# 
# From -- ./inp_files/26104.got.cif
#   From: 2010.05.17/outbox.cif.g08.bks.cpg/sg10_14_cif.got.tgz:26104.got - 2010.06.03 11:33:40.
