data_PCOD9154351
_publ_section_title
;
Structure prediction by ZEFSAII (Michael W. Deem and Ramdas Pophale) SiO2 
 PCOD9154351
Probable space group: P 2/M
;
_chemical_formula_sum "Si O2"
_cell_formula_units_Z 24
_cell_length_a 7.705465
_cell_length_b 15.569139
_cell_length_c 14.328126
_cell_angle_alpha 90.000000
_cell_angle_beta 137.671278
_cell_angle_gamma 90.000000
_cell_volume 1157.484324
_symmetry_space_group_name_H-M "P 2/M"
_symmetry_group_IT_number 10
_symmetry_cell_setting 'monoclinic'
loop_
_space_group_symop_operation_xyz
x,y,z
-x,y,-z
-x,-y,-z
x,-y,z
loop_
_atom_site_type_symbol
_atom_site_label
_atom_site_fract_x
_atom_site_fract_y
_atom_site_fract_z
Si Si1 0.544050 0.802842 0.880455
Si Si2 0.089748 0.000000 0.639736
Si Si3 0.084448 0.259995 0.838970
Si Si4 0.701105 0.269073 0.400929
Si Si5 0.668297 0.401085 0.661959
Si Si6 0.229311 0.144955 0.396334
Si Si7 0.594069 0.000000 0.930243
O O1 0.304211 0.772592 0.852678
O O2 0.424667 0.789017 0.730754
O O3 0.668503 0.898166 0.948924
O O4 0.776643 0.741345 0.006291
O O5 0.986482 0.081928 0.652748
O O6 0.000000 0.000000 0.500000
O O7 0.390720 0.000000 0.765747
O O8 0.935373 0.348152 0.758191
O O9 0.862560 0.188564 0.735266
O O10 0.514033 0.350126 0.338367
O O11 0.720000 0.217834 0.506030
O O12 0.000000 0.291643 0.500000
O O13 0.500000 0.398926 0.500000
O O14 0.713841 0.500000 0.704630
O O15 0.500000 0.097375 0.500000
O O16 0.500000 0.000000 0.000000
#
# Coordination Sequence:
#
# PCOD9154351 Si02
#       7
#     4   2   4   4   4   4   2
#     4  11  23  35  67  91 128 170 210 258 303 372
#     4  12  23  35  58  91 126 161 219 271 301 356
#     4  11  20  42  60  91 122 166 205 251 322 376
#     4  12  21  39  63  93 125 163 208 261 321 371
#     4  11  23  43  70  92 120 162 209 264 325 392
#     4  12  21  38  59  87 127 166 211 258 313 378
#     4  12  18  37  58  92 121 168 218 237 293 362
#
# _framework density 20.734622999999999
#
# number of rings (size 3 to 8) (size 9 to 14) (size 15 to 20)
#    0.000    0.500    8.333    1.750    0.000    1.000 
#    0.000    4.167    0.000    1.000    0.000    0.000 
#    0.000    0.000    0.000    0.000    0.000    0.000 
#
# Total GULP energy -133676.629862 kJ/mol
# GULP energy per Si atom -5569.859578 kJ/mol
# Density = 2.068743 g / cm^3
# Si number density = 20.734623 Si / 1000 Ang^3
#
#
#
# Elastic Constant Matrix: (Units=GPa)
#
#
# Indices 1 2 3 4 5 6 
#
# 1 49.0381 23.8760 9.5834 0.0000 8.4780 0.0000
# 2 23.8760 148.6517 28.9190 0.0000 12.8867 0.0000
# 3 9.5834 28.9190 118.5441 0.0000 5.5484 0.0000
# 4 0.0000 0.0000 0.0000 32.8742 0.0000 0.5604
# 5 8.4780 12.8867 5.5484 0.0000 26.4731 0.0000
# 6 0.0000 0.0000 0.0000 0.5604 0.0000 20.0886
#
#
#
# Elastic Compliance Matrix: (Units=1/GPa)
#
#
# Indices 1 2 3 4 5 6 
#
# 1 0.023026 -0.003037 -0.000853 0.000000 -0.005717 0.000000
# 2 -0.003037 0.007725 -0.001524 0.000000 -0.002469 0.000000
# 3 -0.000853 -0.001524 0.008916 0.000000 -0.000854 0.000000
# 4 0.000000 0.000000 0.000000 0.030433 0.000000 -0.000849
# 5 -0.005717 -0.002469 -0.000854 0.000000 0.040986 0.000000
# 6 0.000000 0.000000 0.000000 -0.000849 0.000000 0.049803
#
#
# Mechanical properties :
#
#
# Convention : Reuss Voigt Hill
#
# Bulk Modulus (GPa) = 34.67318 48.99896 41.83607
# Shear Modulus (GPa) = 27.57400 32.81089 30.19244
#
# Velocity S-wave (km/s) = 3.65067 3.98228 3.82008
# Velocity P-wave (km/s) = 5.87610 6.69534 6.29905
#
# Compressibility (1/GPa) = 0.02884074
#
# Stress axis : x y z
#
# Youngs Moduli (GPa) = 43.42922 129.44469 112.15440
#
# Poissons Ratio (x) = 0.39310 0.09568
# Poissons Ratio (y) = 0.13189 0.17087
# Poissons Ratio (z) = 0.03705 0.19722
#
# Static dielectric constant tensor:
#      x y z
#    x 1.798340 0.000000 0.016310 
#    y 0.000000 1.755200 0.000000 
#    z 0.016310 0.000000 1.763140 
# 
# From -- ./inp_files/61984.got.cif
#   From: 2010.05.17/outbox.cif.g08.bks.cpg/sg10_31_cif.got.tgz:61984.got - 2010.06.03 11:33:40.
