data_PCOD9154027
_publ_section_title
;
Structure prediction by ZEFSAII (Michael W. Deem and Ramdas Pophale) SiO2 
 PCOD9154027
Probable space group: P 2/M
;
_chemical_formula_sum "Si O2"
_cell_formula_units_Z 15
_cell_length_a 16.877412
_cell_length_b 9.978683
_cell_length_c 5.084403
_cell_angle_alpha 90.000000
_cell_angle_beta 57.922645
_cell_angle_gamma 90.000000
_cell_volume 725.558762
_symmetry_space_group_name_H-M "P 2/M"
_symmetry_group_IT_number 10
_symmetry_cell_setting 'monoclinic'
loop_
_space_group_symop_operation_xyz
x,y,z
-x,y,-z
-x,-y,-z
x,-y,z
loop_
_atom_site_type_symbol
_atom_site_label
_atom_site_fract_x
_atom_site_fract_y
_atom_site_fract_z
Si Si1 0.733426 0.848383 0.217851
Si Si2 0.933136 0.500000 0.367884
Si Si3 0.853322 0.205794 0.501826
Si Si4 0.000000 0.000000 0.500000
Si Si5 0.435958 0.344956 0.354504
O O1 0.819279 0.834634 0.271340
O O2 0.654692 0.744160 0.440041
O O3 0.697461 0.000000 0.297760
O O4 0.771956 0.823392 0.857711
O O5 0.874597 0.363421 0.469490
O O6 0.000000 0.500000 0.500000
O O7 0.000000 0.500000 0.000000
O O8 0.940450 0.117177 0.443905
O O9 0.500000 0.341271 0.500000
O O10 0.409047 0.500000 0.350348
O O11 0.500000 0.298055 0.000000
#
# Coordination Sequence:
#
# PCOD9154027 Si02
#       5
#     4   2   4   1   4
#     4  12  25  44  66 103 133 170 226 274 333 397
#     4  12  26  44  64  94 126 172 234 270 330 392
#     4  12  27  42  68  96 133 178 220 279 331 389
#     4  12  24  48  68  90 144 176 220 270 336 400
#     4  10  23  43  68  97 133 177 218 268 338 401
#
# _framework density 20.673719999999999
#
# number of rings (size 3 to 8) (size 9 to 14) (size 15 to 20)
#    0.000    0.533    4.000    3.200    3.733    2.133 
#    0.000    0.000    0.000    0.000    0.000    0.000 
#    0.000    0.000    0.000    0.000    0.000    0.000 
#
# Total GULP energy -83715.120958 kJ/mol
# GULP energy per Si atom -5581.008064 kJ/mol
# Density = 2.062667 g / cm^3
# Si number density = 20.673720 Si / 1000 Ang^3
#
#
#
# Elastic Constant Matrix: (Units=GPa)
#
#
# Indices 1 2 3 4 5 6 
#
# 1 40.9687 10.4239 -1.6821 0.0000 -2.9465 0.0000
# 2 10.4239 145.7296 6.2006 0.0000 -19.3267 0.0000
# 3 -1.6821 6.2006 68.8701 0.0000 13.6466 0.0000
# 4 0.0000 0.0000 0.0000 149.8876 0.0000 -26.4239
# 5 -2.9465 -19.3267 13.6466 0.0000 32.8929 0.0000
# 6 0.0000 0.0000 0.0000 -26.4239 0.0000 51.5568
#
#
#
# Elastic Compliance Matrix: (Units=1/GPa)
#
#
# Indices 1 2 3 4 5 6 
#
# 1 0.024930 -0.001672 0.000557 0.000000 0.001020 0.000000
# 2 -0.001672 0.007735 -0.001752 0.000000 0.005122 0.000000
# 3 0.000557 -0.001752 0.016219 0.000000 -0.007709 0.000000
# 4 0.000000 0.000000 0.000000 0.007334 0.000000 0.003759
# 5 0.001020 0.005122 -0.007709 0.000000 0.036701 0.000000
# 6 0.000000 0.000000 0.000000 0.003759 0.000000 0.021323
#
#
# Mechanical properties :
#
#
# Convention : Reuss Voigt Hill
#
# Bulk Modulus (GPa) = 23.17416 31.71705 27.44561
# Shear Modulus (GPa) = 37.21353 62.90920 50.06137
#
# Velocity S-wave (km/s) = 4.24729 5.52228 4.92621
# Velocity P-wave (km/s) = 5.94024 7.48571 6.75730
#
# Compressibility (1/GPa) = 0.04315150
#
# Stress axis : x y z
#
# Youngs Moduli (GPa) = 40.11163 129.27448 61.65649
#
# Poissons Ratio (x) = 0.21611 -0.03436
# Poissons Ratio (y) = 0.06706 0.10804
# Poissons Ratio (z) = -0.02236 0.22652
#
# Static dielectric constant tensor:
#      x y z
#    x 1.704640 0.000000 -0.003260 
#    y 0.000000 1.759730 0.000000 
#    z -0.003260 0.000000 1.721870 
# 
# From -- ./inp_files/8499.got.cif
#   From: 2010.05.17/outbox.cif.g08.bks.cpg/sg10_5_cif.got.tgz:8499.got - 2010.06.03 11:33:40.
