data_PCOD9154126
_publ_section_title
;
Structure prediction by ZEFSAII (Michael W. Deem and Ramdas Pophale) SiO2 
 PCOD9154126
Probable space group: P 2/M
;
_chemical_formula_sum "Si O2"
_cell_formula_units_Z 15
_cell_length_a 5.950790
_cell_length_b 10.457250
_cell_length_c 11.261007
_cell_angle_alpha 90.000000
_cell_angle_beta 100.676323
_cell_angle_gamma 90.000000
_cell_volume 688.629514
_symmetry_space_group_name_H-M "P 2/M"
_symmetry_group_IT_number 10
_symmetry_cell_setting 'monoclinic'
loop_
_space_group_symop_operation_xyz
x,y,z
-x,y,-z
-x,-y,-z
x,-y,z
loop_
_atom_site_type_symbol
_atom_site_label
_atom_site_fract_x
_atom_site_fract_y
_atom_site_fract_z
Si Si1 0.500000 0.251257 0.000000
Si Si2 0.765396 0.857459 0.813568
Si Si3 0.000000 0.000000 0.500000
Si Si4 0.364196 0.777789 0.598400
Si Si5 0.135269 0.356317 0.785637
O O1 0.666997 0.165895 0.935306
O O2 0.345624 0.335229 0.896995
O O3 0.552020 0.840037 0.704568
O O4 0.948413 0.749611 0.800659
O O5 0.862968 0.000000 0.807736
O O6 0.805138 0.112081 0.461570
O O7 0.500000 0.722046 0.500000
O O8 0.227752 0.675775 0.663887
O O9 0.046237 0.500000 0.786823
#
# Coordination Sequence:
#
# PCOD9154126 Si02
#       5
#     2   4   1   4   4
#     4  10  24  44  70  98 140 184 234 280 336 404
#     4  11  24  43  69 107 137 177 230 287 344 400
#     4  12  22  44  70 100 132 172 226 278 352 398
#     4  11  25  42  70 102 137 180 226 283 341 406
#     4  11  26  45  69 101 141 186 230 278 337 406
#
# _framework density 21.782397
#
# number of rings (size 3 to 8) (size 9 to 14) (size 15 to 20)
#    0.000    1.067    1.333    3.600    5.600   10.133 
#    0.000    4.667    0.000    0.000    0.000    0.000 
#    0.000    0.000    0.000    0.000    0.000    0.000 
#
# Total GULP energy -83716.132802 kJ/mol
# GULP energy per Si atom -5581.075520 kJ/mol
# Density = 2.173282 g / cm^3
# Si number density = 21.782397 Si / 1000 Ang^3
#
#
#
# Elastic Constant Matrix: (Units=GPa)
#
#
# Indices 1 2 3 4 5 6 
#
# 1 121.1888 69.1296 42.6340 0.0000 -10.1318 0.0000
# 2 69.1296 174.9097 15.6066 0.0000 -15.5308 0.0000
# 3 42.6340 15.6066 69.9834 0.0000 -34.7142 0.0000
# 4 0.0000 0.0000 0.0000 99.0714 0.0000 68.3250
# 5 -10.1318 -15.5308 -34.7142 0.0000 33.3597 0.0000
# 6 0.0000 0.0000 0.0000 68.3250 0.0000 71.5864
#
#
#
# Elastic Compliance Matrix: (Units=1/GPa)
#
#
# Indices 1 2 3 4 5 6 
#
# 1 0.015988 -0.006192 -0.015254 0.000000 -0.013901 0.000000
# 2 -0.006192 0.008362 0.006006 0.000000 0.008262 0.000000
# 3 -0.015254 0.006006 0.044089 0.000000 0.044042 0.000000
# 4 0.000000 0.000000 0.000000 0.029534 0.000000 -0.028189
# 5 -0.013901 0.008262 0.044042 0.000000 0.075432 0.000000
# 6 0.000000 0.000000 0.000000 -0.028189 0.000000 0.040874
#
#
# Mechanical properties :
#
#
# Convention : Reuss Voigt Hill
#
# Bulk Modulus (GPa) = 26.62537 68.98027 47.80282
# Shear Modulus (GPa) = 19.40393 56.71759 38.06076
#
# Velocity S-wave (km/s) = 2.98788 5.10831 4.18463
# Velocity P-wave (km/s) = 4.91458 8.15657 6.73360
#
# Compressibility (1/GPa) = 0.03755816
#
# Stress axis : x y z
#
# Youngs Moduli (GPa) = 62.54676 119.58439 22.68126
#
# Poissons Ratio (x) = 0.74048 0.34598
# Poissons Ratio (y) = 0.38730 -0.13622
# Poissons Ratio (z) = 0.95410 -0.71818
#
# Static dielectric constant tensor:
#      x y z
#    x 1.777750 0.000000 -0.016070 
#    y 0.000000 1.744100 0.000000 
#    z -0.016070 0.000000 1.847360 
# 
# From -- ./inp_files/38642.got.cif
#   From: 2010.05.17/outbox.cif.g08.bks.cpg/sg10_20_cif.got.tgz:38642.got - 2010.06.03 11:33:40.
