data_PCOD9154361
_publ_section_title
;
Structure prediction by ZEFSAII (Michael W. Deem and Ramdas Pophale) SiO2 
 PCOD9154361
Probable space group: P 2/M
;
_chemical_formula_sum "Si O2"
_cell_formula_units_Z 20
_cell_length_a 7.541307
_cell_length_b 17.387834
_cell_length_c 10.830191
_cell_angle_alpha 90.000000
_cell_angle_beta 42.940802
_cell_angle_gamma 90.000000
_cell_volume 967.452983
_symmetry_space_group_name_H-M "P 2/M"
_symmetry_group_IT_number 10
_symmetry_cell_setting 'monoclinic'
loop_
_space_group_symop_operation_xyz
x,y,z
-x,y,-z
-x,-y,-z
x,-y,z
loop_
_atom_site_type_symbol
_atom_site_label
_atom_site_fract_x
_atom_site_fract_y
_atom_site_fract_z
Si Si1 0.075534 0.084827 0.758365
Si Si2 0.416985 0.500000 0.295474
Si Si3 0.987818 0.500000 0.291602
Si Si4 0.711764 0.623722 0.004413
Si Si5 0.353912 0.796970 0.945439
Si Si6 0.388708 0.086333 0.360100
O O1 0.152571 0.098018 0.576360
O O2 0.346766 0.083155 0.693544
O O3 0.954120 0.000000 0.832016
O O4 0.890562 0.147580 0.910402
O O5 0.199027 0.500000 0.296812
O O6 0.591836 0.573748 0.176112
O O7 0.281415 0.500000 0.497109
O O8 0.050485 0.575060 0.176176
O O9 0.741538 0.710887 0.034155
O O10 0.500000 0.624063 0.000000
O O11 0.556595 0.841187 0.753918
O O12 0.500000 0.791596 0.000000
O O13 0.359974 0.000000 0.318438
#
# Coordination Sequence:
#
# PCOD9154361 Si02
#       6
#     4   2   2   4   4   4
#     4   9  19  36  54  69  90 128 175 210 234 274
#     4   8  13  25  44  59  81 124 164 188 218 270
#     4   8  13  25  44  59  81 124 164 188 218 270
#     4   8  16  27  38  63  97 122 151 188 230 285
#     4  11  21  30  46  76 109 130 148 193 257 301
#     4   9  19  36  54  69  90 128 175 210 234 274
#
# _framework density 20.672840000000001
#
# number of rings (size 3 to 8) (size 9 to 14) (size 15 to 20)
#    0.000    3.000    0.000    3.600    0.000    5.600 
#    0.000    6.000    0.000    0.000    0.000   11.200 
#    0.000   19.200    0.000    0.000    0.000    0.000 
#
# Total GULP energy -111557.049401 kJ/mol
# GULP energy per Si atom -5577.852470 kJ/mol
# Density = 2.062579 g / cm^3
# Si number density = 20.672840 Si / 1000 Ang^3
#
#
#
# Elastic Constant Matrix: (Units=GPa)
#
#
# Indices 1 2 3 4 5 6 
#
# 1 33.0403 11.3265 5.1145 0.0000 2.9512 0.0000
# 2 11.3265 211.2141 99.2875 0.0000 11.0026 0.0000
# 3 5.1145 99.2875 136.5328 0.0000 8.2814 0.0000
# 4 0.0000 0.0000 0.0000 -1.2387 0.0000 23.7026
# 5 2.9512 11.0026 8.2814 0.0000 19.7599 0.0000
# 6 0.0000 0.0000 0.0000 23.7026 0.0000 0.6383
#
#
#
# Elastic Compliance Matrix: (Units=1/GPa)
#
#
# Indices 1 2 3 4 5 6 
#
# 1 0.031115 -0.001564 0.000206 0.000000 -0.003863 0.000000
# 2 -0.001564 0.007340 -0.005177 0.000000 -0.001684 0.000000
# 3 0.000206 -0.005177 0.011193 0.000000 -0.001839 0.000000
# 4 0.000000 0.000000 0.000000 -0.001135 0.000000 0.042130
# 5 -0.003863 -0.001684 -0.001839 0.000000 0.052893 0.000000
# 6 0.000000 0.000000 0.000000 0.042130 0.000000 0.002202
#
#
# Mechanical properties :
#
#
# Convention : Reuss Voigt Hill
#
# Bulk Modulus (GPa) = 27.33871 68.02713 47.68292
# Shear Modulus (GPa) = 38.79892 21.50248 30.15070
#
# Velocity S-wave (km/s) = 4.33691 3.22861 3.82313
# Velocity P-wave (km/s) = 6.19125 6.84664 6.52718
#
# Compressibility (1/GPa) = 0.03657817
#
# Stress axis : x y z
#
# Youngs Moduli (GPa) = 32.13841 136.24788 89.34503
#
# Poissons Ratio (x) = 0.21314 -0.01843
# Poissons Ratio (y) = 0.05028 0.46251
# Poissons Ratio (z) = -0.00663 0.70531
#
# Static dielectric constant tensor:
#      x y z
#    x 1.804970 0.000000 -0.001580 
#    y 0.000000 1.747870 0.000000 
#    z -0.001580 0.000000 1.741810 
# 
# From -- ./inp_files/43197.got.cif
#   From: 2010.05.17/outbox.cif.g08.bks.cpg/sg10_22_cif.got.tgz:43197.got - 2010.06.03 11:33:40.
