data_PCOD9154129
_publ_section_title
;
Structure prediction by ZEFSAII (Michael W. Deem and Ramdas Pophale) SiO2 
 PCOD9154129
Probable space group: P 2/M
;
_chemical_formula_sum "Si O2"
_cell_formula_units_Z 9
_cell_length_a 5.084222
_cell_length_b 13.528747
_cell_length_c 5.347386
_cell_angle_alpha 90.000000
_cell_angle_beta 94.109486
_cell_angle_gamma 90.000000
_cell_volume 366.864405
_symmetry_space_group_name_H-M "P 2/M"
_symmetry_group_IT_number 10
_symmetry_cell_setting 'monoclinic'
loop_
_space_group_symop_operation_xyz
x,y,z
-x,y,-z
-x,-y,-z
x,-y,z
loop_
_atom_site_type_symbol
_atom_site_label
_atom_site_fract_x
_atom_site_fract_y
_atom_site_fract_z
Si Si1 0.177407 0.000000 0.757069
Si Si2 0.218288 0.300090 0.343150
Si Si3 0.000000 0.500000 0.500000
Si Si4 0.500000 0.167637 0.000000
O O1 0.000000 0.000000 0.500000
O O2 0.368116 0.905188 0.790713
O O3 0.000000 0.000000 0.000000
O O4 0.500000 0.308463 0.500000
O O5 0.108823 0.411401 0.319714
O O6 0.282213 0.238954 0.102818
O O7 0.000000 0.247759 0.500000
#
# Coordination Sequence:
#
# PCOD9154129 Si02
#       4
#     2   4   1   2
#     4  11  30  51  81 118 164 212 280 342 414 490
#     4  10  24  44  75 113 163 207 270 328 403 485
#     4   8  22  46  72 118 160 202 272 328 398 486
#     4  11  28  47  78 118 160 217 268 335 414 486
#
# _framework density 24.532222999999998
#
# number of rings (size 3 to 8) (size 9 to 14) (size 15 to 20)
#    1.333    0.444    0.000    0.667   12.444    2.667 
#    0.000    5.556    0.000    0.000    0.000    0.000 
#    0.000    0.000    0.000    0.000    0.000    0.000 
#
# Total GULP energy -50108.099328 kJ/mol
# GULP energy per Si atom -5567.566592 kJ/mol
# Density = 2.447639 g / cm^3
# Si number density = 24.532223 Si / 1000 Ang^3
#
#
#
# Elastic Constant Matrix: (Units=GPa)
#
#
# Indices 1 2 3 4 5 6 
#
# 1 128.2524 64.0970 71.7351 0.0000 -15.4023 0.0000
# 2 64.0970 229.0205 77.7568 0.0000 -11.5356 0.0000
# 3 71.7351 77.7568 134.2718 0.0000 -10.3873 0.0000
# 4 0.0000 0.0000 0.0000 29.0978 0.0000 -23.4640
# 5 -15.4023 -11.5356 -10.3873 0.0000 68.7124 0.0000
# 6 0.0000 0.0000 0.0000 -23.4640 0.0000 20.8470
#
#
#
# Elastic Compliance Matrix: (Units=1/GPa)
#
#
# Indices 1 2 3 4 5 6 
#
# 1 0.011639 -0.001379 -0.005297 0.000000 0.001577 0.000000
# 2 -0.001379 0.005612 -0.002493 0.000000 0.000256 0.000000
# 3 -0.005297 -0.002493 0.011734 0.000000 0.000168 0.000000
# 4 0.000000 0.000000 0.000000 0.372002 0.000000 0.418702
# 5 0.001577 0.000256 0.000168 0.000000 0.014975 0.000000
# 6 0.000000 0.000000 0.000000 0.418702 0.000000 0.519234
#
#
# Mechanical properties :
#
#
# Convention : Reuss Voigt Hill
#
# Bulk Modulus (GPa) = 93.93647 102.08026 98.00836
# Shear Modulus (GPa) = 5.22420 42.26181 23.74301
#
# Velocity S-wave (km/s) = 1.46087 4.15505 3.11437
# Velocity P-wave (km/s) = 6.42026 8.04489 7.27805
#
# Compressibility (1/GPa) = 0.01064549
#
# Stress axis : x y z
#
# Youngs Moduli (GPa) = 85.91975 178.19521 85.21998
#
# Poissons Ratio (x) = 0.24582 0.45143
# Poissons Ratio (y) = 0.11852 0.21245
# Poissons Ratio (z) = 0.45514 0.44424
#
# Static dielectric constant tensor:
#      x y z
#    x 2.090120 0.000000 0.069520 
#    y 0.000000 1.868200 0.000000 
#    z 0.069520 0.000000 2.032830 
# 
# From -- ./inp_files/442.got.cif
#   From: 2010.05.17/outbox.cif.g08.bks.cpg/sg10_1_cif.got.tgz:442.got - 2010.06.03 11:33:40.
