data_PCOD9154871
_publ_section_title
;
Structure prediction by ZEFSAII (Michael W. Deem and Ramdas Pophale) SiO2 
 PCOD9154871
Probable space group: P 2/M
;
_chemical_formula_sum "Si O2"
_cell_formula_units_Z 24
_cell_length_a 11.787420
_cell_length_b 14.014142
_cell_length_c 13.862577
_cell_angle_alpha 90.000000
_cell_angle_beta 148.912838
_cell_angle_gamma 90.000000
_cell_volume 1182.404948
_symmetry_space_group_name_H-M "P 2/M"
_symmetry_group_IT_number 10
_symmetry_cell_setting 'monoclinic'
loop_
_space_group_symop_operation_xyz
x,y,z
-x,y,-z
-x,-y,-z
x,-y,z
loop_
_atom_site_type_symbol
_atom_site_label
_atom_site_fract_x
_atom_site_fract_y
_atom_site_fract_z
Si Si1 0.727582 0.615497 0.207516
Si Si2 0.209799 0.385667 0.521813
Si Si3 0.304867 0.889000 0.778230
Si Si4 0.552084 0.766369 0.426920
Si Si5 0.984715 0.885937 0.702967
Si Si6 0.636415 0.114182 0.862754
O O1 0.717371 0.500000 0.195617
O O2 0.748107 0.638683 0.335238
O O3 0.953076 0.640020 0.316917
O O4 0.500000 0.655355 0.000000
O O5 0.231801 0.500000 0.528183
O O6 0.375169 0.329674 0.574307
O O7 0.093399 0.850893 0.680814
O O8 0.417636 0.853590 0.763006
O O9 0.258122 0.000000 0.724820
O O10 0.500000 0.887357 0.000000
O O11 0.500000 0.750241 0.500000
O O12 0.360036 0.821985 0.229729
O O13 0.762019 0.835593 0.569177
O O14 0.953169 0.000000 0.670831
O O15 0.162227 0.871491 0.917487
O O16 0.622484 0.000000 0.833085
#
# Coordination Sequence:
#
# PCOD9154871 Si02
#       6
#     4   4   4   4   4   4
#     4   8  15  33  63  92 113 133 164 217 285 347
#     4   9  20  38  58  84 115 144 177 220 275 330
#     4   7  12  27  52  80 106 131 162 205 267 336
#     4  12  26  38  51  76 108 149 201 235 254 305
#     4   9  19  37  59  82 110 141 175 226 287 336
#     4   9  19  37  59  82 110 141 175 226 287 336
#
# _framework density 20.297612999999998
#
# number of rings (size 3 to 8) (size 9 to 14) (size 15 to 20)
#    0.000    3.000    0.000    3.500    0.000    7.000 
#    0.000    5.833    0.000    0.000    0.000    7.000 
#    0.000    0.000    0.000    0.000    0.000    0.000 
#
# Total GULP energy -134004.547479 kJ/mol
# GULP energy per Si atom -5583.522812 kJ/mol
# Density = 2.025142 g / cm^3
# Si number density = 20.297613 Si / 1000 Ang^3
#
#
#
# Elastic Constant Matrix: (Units=GPa)
#
#
# Indices 1 2 3 4 5 6 
#
# 1 83.2676 12.8109 12.6983 0.0000 -20.5234 0.0000
# 2 12.8109 81.7522 13.7559 0.0000 -7.6009 0.0000
# 3 12.6983 13.7559 76.7862 0.0000 -2.7381 0.0000
# 4 0.0000 0.0000 0.0000 -0.4298 0.0000 -10.4600
# 5 -20.5234 -7.6009 -2.7381 0.0000 22.2026 0.0000
# 6 0.0000 0.0000 0.0000 -10.4600 0.0000 18.0016
#
#
#
# Elastic Compliance Matrix: (Units=1/GPa)
#
#
# Indices 1 2 3 4 5 6 
#
# 1 0.015942 -0.000845 -0.001979 0.000000 0.014203 0.000000
# 2 -0.000845 0.013032 -0.002073 0.000000 0.003425 0.000000
# 3 -0.001979 -0.002073 0.013691 0.000000 -0.000850 0.000000
# 4 0.000000 0.000000 0.000000 -0.153666 0.000000 -0.089288
# 5 0.014203 0.003425 -0.000850 0.000000 0.059236 0.000000
# 6 0.000000 0.000000 0.000000 -0.089288 0.000000 0.003669
#
#
# Mechanical properties :
#
#
# Convention : Reuss Voigt Hill
#
# Bulk Modulus (GPa) = 30.42024 35.59290 33.00657
# Shear Modulus (GPa) = -182.84251 21.45762 -80.69245
#
# Velocity S-wave (km/s) = -9.50139 3.25491 -6.31197
# Velocity P-wave (km/s) = 10.26396 5.63023 6.06833
#
# Compressibility (1/GPa) = 0.03287285
#
# Stress axis : x y z
#
# Youngs Moduli (GPa) = 62.72804 76.73623 73.03866
#
# Poissons Ratio (x) = 0.06482 0.14451
# Poissons Ratio (y) = 0.05299 0.15139
# Poissons Ratio (z) = 0.12411 0.15905
#
# Static dielectric constant tensor:
#      x y z
#    x 1.698730 0.000000 0.001600 
#    y 0.000000 1.754960 0.000000 
#    z 0.001600 0.000000 1.767390 
# 
# From -- ./inp_files/65149.got.cif
#   From: 2010.05.17/outbox.cif.g08.bks.cpg/sg10_33_cif.got.tgz:65149.got - 2010.06.03 11:33:40.
