data_PCOD9154866
_publ_section_title
;
Structure prediction by ZEFSAII (Michael W. Deem and Ramdas Pophale) SiO2 
 PCOD9154866
Probable space group: P 2/M
;
_chemical_formula_sum "Si O2"
_cell_formula_units_Z 19
_cell_length_a 7.976073
_cell_length_b 21.925972
_cell_length_c 8.394959
_cell_angle_alpha 90.000000
_cell_angle_beta 33.288026
_cell_angle_gamma 90.000000
_cell_volume 805.784199
_symmetry_space_group_name_H-M "P 2/M"
_symmetry_group_IT_number 10
_symmetry_cell_setting 'monoclinic'
loop_
_space_group_symop_operation_xyz
x,y,z
-x,y,-z
-x,-y,-z
x,-y,z
loop_
_atom_site_type_symbol
_atom_site_label
_atom_site_fract_x
_atom_site_fract_y
_atom_site_fract_z
Si Si1 0.500000 0.500000 0.000000
Si Si2 0.953407 0.316887 0.854539
Si Si3 0.836047 0.196933 0.787280
Si Si4 0.661705 0.000000 0.703294
Si Si5 0.691702 0.619464 0.651642
Si Si6 0.325102 0.892780 0.794516
O O1 0.608234 0.553798 0.787268
O O2 0.018430 0.256143 0.701601
O O3 0.182002 0.371856 0.626842
O O4 0.609335 0.339762 0.097066
O O5 0.000000 0.300877 0.000000
O O6 0.000000 0.169638 0.500000
O O7 0.500000 0.216395 0.000000
O O8 0.774126 0.153549 0.987210
O O9 0.554470 0.941928 0.686923
O O10 0.000000 0.000000 0.500000
O O11 0.500000 0.000000 0.000000
O O12 0.000000 0.639471 0.500000
O O13 0.500000 0.866147 0.500000
O O14 0.000000 0.921182 0.000000
#
# Coordination Sequence:
#
# PCOD9154866 Si02
#       6
#     1   4   4   2   4   4
#     4  12  26  44  80 102 138 184 260 286 356 418
#     4  12  26  45  71 106 148 187 234 302 375 428
#     4  12  26  45  74 110 144 194 250 301 361 448
#     4  12  26  48  76 108 149 200 255 304 354 442
#     4  12  24  45  74 102 135 190 240 295 348 441
#     4  12  26  47  74 109 152 195 243 309 377 430
#
# _framework density 23.579514
#
# number of rings (size 3 to 8) (size 9 to 14) (size 15 to 20)
#    0.000    0.000    2.105    8.526    0.000    3.368 
#    0.000    3.158    0.000    0.000    0.000    0.000 
#    0.000    0.000    0.000    0.000    0.000    0.000 
#
# Total GULP energy -106017.062078 kJ/mol
# GULP energy per Si atom -5579.845373 kJ/mol
# Density = 2.352585 g / cm^3
# Si number density = 23.579514 Si / 1000 Ang^3
#
#
#
# Elastic Constant Matrix: (Units=GPa)
#
#
# Indices 1 2 3 4 5 6 
#
# 1 125.0740 61.9766 53.3359 0.0000 0.8546 0.0000
# 2 61.9766 132.8547 47.8820 0.0000 14.4626 0.0000
# 3 53.3359 47.8820 178.8449 0.0000 16.1237 0.0000
# 4 0.0000 0.0000 0.0000 21.0824 0.0000 15.4785
# 5 0.8546 14.4626 16.1237 0.0000 60.0977 0.0000
# 6 0.0000 0.0000 0.0000 15.4785 0.0000 0.8608
#
#
#
# Elastic Compliance Matrix: (Units=1/GPa)
#
#
# Indices 1 2 3 4 5 6 
#
# 1 0.011222 -0.004590 -0.002258 0.000000 0.001551 0.000000
# 2 -0.004590 0.010332 -0.001208 0.000000 -0.002097 0.000000
# 3 -0.002258 -0.001208 0.006722 0.000000 -0.001480 0.000000
# 4 0.000000 0.000000 0.000000 -0.003888 0.000000 0.069901
# 5 0.001551 -0.002097 -0.001480 0.000000 0.017519 0.000000
# 6 0.000000 0.000000 0.000000 0.069901 0.000000 -0.095208
#
#
# Mechanical properties :
#
#
# Convention : Reuss Voigt Hill
#
# Bulk Modulus (GPa) = 82.21172 84.79583 83.50378
# Shear Modulus (GPa) = -150.90372 34.64678 -58.12847
#
# Velocity S-wave (km/s) = -8.00854 3.83738 -4.97048
# Velocity P-wave (km/s) = 7.11156 7.46148 1.59679
#
# Compressibility (1/GPa) = 0.01216372
#
# Stress axis : x y z
#
# Youngs Moduli (GPa) = 89.11165 96.78597 148.77322
#
# Poissons Ratio (x) = 0.44426 0.33586
# Poissons Ratio (y) = 0.40904 0.17975
# Poissons Ratio (z) = 0.20117 0.11694
#
# Static dielectric constant tensor:
#      x y z
#    x 1.947310 0.000000 0.051650 
#    y 0.000000 1.826600 0.000000 
#    z 0.051650 0.000000 1.924530 
# 
# From -- ./inp_files/20617.got.cif
#   From: 2010.05.17/outbox.cif.g08.bks.cpg/sg10_11_cif.got.tgz:20617.got - 2010.06.03 11:33:40.
