data_PCOD9154960
_publ_section_title
;
Structure prediction by ZEFSAII (Michael W. Deem and Ramdas Pophale) SiO2 
 PCOD9154960
Probable space group: P 2/M
;
_chemical_formula_sum "Si O2"
_cell_formula_units_Z 20
_cell_length_a 9.086373
_cell_length_b 16.039596
_cell_length_c 7.139601
_cell_angle_alpha 90.000000
_cell_angle_beta 49.515850
_cell_angle_gamma 90.000000
_cell_volume 791.418184
_symmetry_space_group_name_H-M "P 2/M"
_symmetry_group_IT_number 10
_symmetry_cell_setting 'monoclinic'
loop_
_space_group_symop_operation_xyz
x,y,z
-x,y,-z
-x,-y,-z
x,-y,z
loop_
_atom_site_type_symbol
_atom_site_label
_atom_site_fract_x
_atom_site_fract_y
_atom_site_fract_z
Si Si1 0.275992 0.406642 0.255718
Si Si2 0.459687 0.086009 0.314054
Si Si3 0.906998 0.094358 0.866470
Si Si4 0.563603 0.740243 0.728411
Si Si5 0.133339 0.281699 0.066069
O O1 0.211097 0.500000 0.353247
O O2 0.301086 0.339606 0.401612
O O3 0.500000 0.415318 0.000000
O O4 0.155385 0.357513 0.196008
O O5 0.500000 0.081781 0.500000
O O6 0.672880 0.091055 0.052620
O O7 0.345423 0.170327 0.382067
O O8 0.367820 0.000000 0.326977
O O9 0.930534 0.192623 0.790044
O O10 0.963645 0.000000 0.749721
O O11 0.000000 0.095068 0.000000
O O12 0.354761 0.731575 0.803854
O O13 0.500000 0.745464 0.000000
O O14 0.000000 0.300199 0.000000
#
# Coordination Sequence:
#
# PCOD9154960 Si02
#       5
#     4   4   4   4   4
#     4   8  14  24  36  52  78 108 134 168 213 249
#     4   9  16  25  39  62  88 110 136 173 209 239
#     4   8  13  22  36  55  81 109 132 159 200 245
#     4   8  15  26  39  57  82 111 137 165 206 252
#     4   8  13  21  35  57  79  99 134 172 201 234
#
# _framework density 25.271087000000001
#
# number of rings (size 3 to 8) (size 9 to 14) (size 15 to 20)
#    0.000    4.200    0.000    0.000    0.000    0.800 
#    0.000    3.000    0.000    1.200    0.000   68.600 
#    0.000  227.200    0.000    0.000    0.000    0.000 
#
# Total GULP energy -111383.974566 kJ/mol
# GULP energy per Si atom -5569.198728 kJ/mol
# Density = 2.521357 g / cm^3
# Si number density = 25.271087 Si / 1000 Ang^3
#
#
#
# Elastic Constant Matrix: (Units=GPa)
#
#
# Indices 1 2 3 4 5 6 
#
# 1 169.0565 68.5952 26.8302 0.0000 -11.1333 0.0000
# 2 68.5952 334.7576 21.7050 0.0000 20.8478 0.0000
# 3 26.8302 21.7050 37.7873 0.0000 -2.7553 0.0000
# 4 0.0000 0.0000 0.0000 -23.8488 0.0000 31.4954
# 5 -11.1333 20.8478 -2.7553 0.0000 41.2375 0.0000
# 6 0.0000 0.0000 0.0000 31.4954 0.0000 6.8973
#
#
#
# Elastic Compliance Matrix: (Units=1/GPa)
#
#
# Indices 1 2 3 4 5 6 
#
# 1 0.007298 -0.001370 -0.004221 0.000000 0.002381 0.000000
# 2 -0.001370 0.003483 -0.001189 0.000000 -0.002210 0.000000
# 3 -0.004221 -0.001189 0.030252 0.000000 0.001483 0.000000
# 4 0.000000 0.000000 0.000000 -0.005964 0.000000 0.027235
# 5 0.002381 -0.002210 0.001483 0.000000 0.026109 0.000000
# 6 0.000000 0.000000 0.000000 0.027235 0.000000 0.020622
#
#
# Mechanical properties :
#
#
# Convention : Reuss Voigt Hill
#
# Bulk Modulus (GPa) = 36.39998 86.20690 61.30344
# Shear Modulus (GPa) = 47.83912 33.15528 40.49720
#
# Velocity S-wave (km/s) = 4.35563 3.62606 4.00748
# Velocity P-wave (km/s) = 6.30320 7.19152 6.76197
#
# Compressibility (1/GPa) = 0.02747254
#
# Stress axis : x y z
#
# Youngs Moduli (GPa) = 137.02850 287.13605 33.05563
#
# Poissons Ratio (x) = 0.39337 0.13953
# Poissons Ratio (y) = 0.18772 0.03930
# Poissons Ratio (z) = 0.57841 0.34137
#
# Static dielectric constant tensor:
#      x y z
#    x 2.042610 0.000000 0.002500 
#    y 0.000000 2.109270 0.000000 
#    z 0.002500 0.000000 2.070570 
# 
# From -- ./inp_files/19068.got.cif
#   From: 2010.05.17/outbox.cif.g08.bks.cpg/sg10_10_cif.got.tgz:19068.got - 2010.06.03 11:33:40.
