data_PCOD9154702
_publ_section_title
;
Structure prediction by ZEFSAII (Michael W. Deem and Ramdas Pophale) SiO2 
 PCOD9154702
Probable space group: P 2/M
;
_chemical_formula_sum "Si O2"
_cell_formula_units_Z 28
_cell_length_a 20.965665
_cell_length_b 8.904807
_cell_length_c 14.650894
_cell_angle_alpha 90.000000
_cell_angle_beta 31.692403
_cell_angle_gamma 90.000000
_cell_volume 1436.988590
_symmetry_space_group_name_H-M "P 2/M"
_symmetry_group_IT_number 10
_symmetry_cell_setting 'monoclinic'
loop_
_space_group_symop_operation_xyz
x,y,z
-x,y,-z
-x,-y,-z
x,-y,z
loop_
_atom_site_type_symbol
_atom_site_label
_atom_site_fract_x
_atom_site_fract_y
_atom_site_fract_z
Si Si1 0.719471 0.677352 0.394624
Si Si2 0.067986 0.182427 0.216377
Si Si3 0.359901 0.321163 0.187559
Si Si4 0.258772 0.179768 0.828698
Si Si5 0.538355 0.823445 0.270952
Si Si6 0.257440 0.821014 0.132857
Si Si7 0.191475 0.179790 0.536824
O O1 0.733636 0.500000 0.382540
O O2 0.744787 0.736865 0.262398
O O3 0.581198 0.724637 0.586311
O O4 0.803510 0.756634 0.367441
O O5 0.137745 0.229681 0.223174
O O6 0.930564 0.229862 0.367172
O O7 0.069980 0.000000 0.216545
O O8 0.150715 0.224999 0.028889
O O9 0.352255 0.500000 0.207749
O O10 0.284153 0.266544 0.192293
O O11 0.305933 0.241128 0.341755
O O12 0.500000 0.279770 0.000000
O O13 0.382843 0.206989 0.733998
O O14 0.251083 0.000000 0.823159
O O15 0.503445 0.000000 0.314591
O O16 0.630028 0.801342 0.074591
O O17 0.247609 0.000000 0.164085
O O18 0.194036 0.000000 0.536143
#
# Coordination Sequence:
#
# PCOD9154702 Si02
#       7
#     4   4   4   4   4   4   4
#     4  12  24  35  50  79 118 152 184 227 279 329
#     4   8  18  38  62  86 108 137 184 236 275 315
#     4  11  24  40  57  83 118 149 178 218 272 330
#     4   9  18  36  60  83 109 143 186 231 274 325
#     4   9  18  34  58  85 111 143 186 231 272 323
#     4   9  18  36  62  87 110 140 182 229 275 324
#     4  11  23  40  61  81 106 144 189 232 273 322
#
# _framework density 19.485194
#
# number of rings (size 3 to 8) (size 9 to 14) (size 15 to 20)
#    0.000    2.143    0.000    5.143    0.000    7.429 
#    0.000   10.714    0.000    0.000    0.000    0.000 
#    0.000    0.000    0.000    0.000    0.000    0.000 
#
# Total GULP energy -156444.043815 kJ/mol
# GULP energy per Si atom -5587.287279 kJ/mol
# Density = 1.944084 g / cm^3
# Si number density = 19.485194 Si / 1000 Ang^3
#
#
#
# Elastic Constant Matrix: (Units=GPa)
#
#
# Indices 1 2 3 4 5 6 
#
# 1 93.7613 30.6303 16.5681 0.0000 8.9593 0.0000
# 2 30.6303 42.0336 17.8046 0.0000 -0.8863 0.0000
# 3 16.5681 17.8046 30.7471 0.0000 -11.0759 0.0000
# 4 0.0000 0.0000 0.0000 -24.2383 0.0000 -9.2401
# 5 8.9593 -0.8863 -11.0759 0.0000 27.6425 0.0000
# 6 0.0000 0.0000 0.0000 -9.2401 0.0000 -165.9732
#
#
#
# Elastic Compliance Matrix: (Units=1/GPa)
#
#
# Indices 1 2 3 4 5 6 
#
# 1 0.015315 -0.008831 -0.005877 0.000000 -0.007602 0.000000
# 2 -0.008831 0.037953 -0.018406 0.000000 -0.003296 0.000000
# 3 -0.005877 -0.018406 0.054720 0.000000 0.023240 0.000000
# 4 0.000000 0.000000 0.000000 -0.042152 0.000000 0.002347
# 5 -0.007602 -0.003296 0.023240 0.000000 0.047846 0.000000
# 6 0.000000 0.000000 0.000000 0.002347 0.000000 -0.006156
#
#
# Mechanical properties :
#
#
# Convention : Reuss Voigt Hill
#
# Bulk Modulus (GPa) = 23.94635 32.94980 28.44807
# Shear Modulus (GPa) = 26.64174 -25.74453 0.44860
#
# Velocity S-wave (km/s) = 3.70169 -3.63882 0.48034
# Velocity P-wave (km/s) = 5.53048 0.84133 3.86512
#
# Compressibility (1/GPa) = 0.04176002
#
# Stress axis : x y z
#
# Youngs Moduli (GPa) = 65.29390 26.34862 18.27479
#
# Poissons Ratio (x) = 0.23269 0.10741
# Poissons Ratio (y) = 0.57663 0.33636
# Poissons Ratio (z) = 0.38375 0.48496
#
# Static dielectric constant tensor:
#      x y z
#    x 1.681730 0.000000 -0.010260 
#    y 0.000000 1.645410 0.000000 
#    z -0.010260 0.000000 1.681630 
# 
# From -- ./inp_files/70195.got.cif
#   From: 2010.05.17/outbox.cif.g08.bks.cpg/sg10_36_cif.got.tgz:70195.got - 2010.06.03 11:33:40.
