data_PCOD9154396
_publ_section_title
;
Structure prediction by ZEFSAII (Michael W. Deem and Ramdas Pophale) SiO2 
 PCOD9154396
Probable space group: P 2/M
;
_chemical_formula_sum "Si O2"
_cell_formula_units_Z 24
_cell_length_a 14.234916
_cell_length_b 14.545758
_cell_length_c 12.094590
_cell_angle_alpha 90.000000
_cell_angle_beta 148.175744
_cell_angle_gamma 90.000000
_cell_volume 1320.544357
_symmetry_space_group_name_H-M "P 2/M"
_symmetry_group_IT_number 10
_symmetry_cell_setting 'monoclinic'
loop_
_space_group_symop_operation_xyz
x,y,z
-x,y,-z
-x,-y,-z
x,-y,z
loop_
_atom_site_type_symbol
_atom_site_label
_atom_site_fract_x
_atom_site_fract_y
_atom_site_fract_z
Si Si1 0.716960 0.102992 0.344402
Si Si2 0.785057 0.392718 0.285046
Si Si3 0.705722 0.708909 0.433722
Si Si4 0.283077 0.897008 0.910532
Si Si5 0.705662 0.708913 0.977637
Si Si6 0.000040 0.608091 0.868217
O O1 0.771992 0.187378 0.475672
O O2 0.773527 0.118284 0.273519
O O3 0.772285 0.000000 0.432490
O O4 0.500019 0.104401 0.126368
O O5 0.734787 0.500000 0.234775
O O6 0.717179 0.342798 0.327109
O O7 0.000000 0.387195 0.500000
O O8 0.717184 0.342800 0.107224
O O9 0.500039 0.711284 0.263486
O O10 0.829356 0.656043 0.642823
O O11 0.227761 0.000000 0.887981
O O12 0.228071 0.812626 0.931772
O O13 0.829262 0.656053 0.015753
O O14 0.000055 0.500000 0.839334
O O15 0.000000 0.617150 0.000000
#
# Coordination Sequence:
#
# PCOD9154396 Si02
#       6
#     4   4   4   4   4   4
#     4   8  14  27  50  83 120 151 179 214 264 333
#     4  11  21  33  52  82 120 154 179 220 285 346
#     4  11  21  36  60  86 114 149 186 230 282 338
#     4   8  14  27  50  83 120 151 179 214 264 333
#     4  11  21  36  60  86 114 149 186 230 282 338
#     4  11  26  45  60  77 106 147 197 248 288 328
#
# _framework density 18.174323000000001
#
# number of rings (size 3 to 8) (size 9 to 14) (size 15 to 20)
#    0.000    2.000    3.333    2.500    0.000    4.000 
#    0.000    2.500    0.000    5.000    0.000    4.667 
#    0.000    0.000    0.000    0.000    0.000    0.000 
#
# Total GULP energy -134051.973411 kJ/mol
# GULP energy per Si atom -5585.498892 kJ/mol
# Density = 1.813296 g / cm^3
# Si number density = 18.174323 Si / 1000 Ang^3
#
#
#
# Elastic Constant Matrix: (Units=GPa)
#
#
# Indices 1 2 3 4 5 6 
#
# 1 -5.6168 62.0621 116.1204 0.0000 -27.7067 0.0000
# 2 62.0621 183.1137 55.4893 0.0000 -7.5239 0.0000
# 3 116.1204 55.4893 3.4531 0.0000 39.6580 0.0000
# 4 0.0000 0.0000 0.0000 25.4290 0.0000 10.5272
# 5 -27.7067 -7.5239 39.6580 0.0000 9.2052 0.0000
# 6 0.0000 0.0000 0.0000 10.5272 0.0000 16.7759
#
#
#
# Elastic Compliance Matrix: (Units=1/GPa)
#
#
# Indices 1 2 3 4 5 6 
#
# 1 0.008126 -0.005939 0.008312 0.000000 -0.016206 0.000000
# 2 -0.005939 0.008822 -0.003721 0.000000 0.005369 0.000000
# 3 0.008312 -0.003721 0.003765 0.000000 0.005757 0.000000
# 4 0.000000 0.000000 0.000000 0.053126 0.000000 -0.033338
# 5 -0.016206 0.005369 0.005757 0.000000 0.039440 0.000000
# 6 0.000000 0.000000 0.000000 -0.033338 0.000000 0.080529
#
#
# Mechanical properties :
#
#
# Convention : Reuss Voigt Hill
#
# Bulk Modulus (GPa) = 55.50596 72.03262 63.76929
# Shear Modulus (GPa) = 24.69027 6.76724 15.72875
#
# Velocity S-wave (km/s) = 3.68982 1.93173 2.94502
# Velocity P-wave (km/s) = 6.98285 6.68549 6.83579
#
# Compressibility (1/GPa) = 0.01801608
#
# Stress axis : x y z
#
# Youngs Moduli (GPa) = 123.06901 113.35139 265.62753
#
# Poissons Ratio (x) = 0.67315 -2.20786
# Poissons Ratio (y) = 0.73086 0.98850
# Poissons Ratio (z) = -1.02293 0.42182
#
# Static dielectric constant tensor:
#      x y z
#    x 1.598680 0.000000 0.047880 
#    y 0.000000 1.646000 0.000000 
#    z 0.047880 0.000000 1.638160 
# 
# From -- ./inp_files/51677.got.cif
#   From: 2010.05.17/outbox.cif.g08.bks.cpg/sg10_26_cif.got.tgz:51677.got - 2010.06.03 11:33:40.
