data_PCOD9154444
_publ_section_title
;
Structure prediction by ZEFSAII (Michael W. Deem and Ramdas Pophale) SiO2 
 PCOD9154444
Probable space group: P 2/M
;
_chemical_formula_sum "Si O2"
_cell_formula_units_Z 30
_cell_length_a 14.646567
_cell_length_b 21.765365
_cell_length_c 15.074748
_cell_angle_alpha 90.000000
_cell_angle_beta 160.517540
_cell_angle_gamma 90.000000
_cell_volume 1602.771053
_symmetry_space_group_name_H-M "P 2/M"
_symmetry_group_IT_number 10
_symmetry_cell_setting 'monoclinic'
loop_
_space_group_symop_operation_xyz
x,y,z
-x,y,-z
-x,-y,-z
x,-y,z
loop_
_atom_site_type_symbol
_atom_site_label
_atom_site_fract_x
_atom_site_fract_y
_atom_site_fract_z
Si Si1 0.194886 0.132631 0.103888
Si Si2 0.366124 0.204030 0.969368
Si Si3 0.610872 0.308078 0.499717
Si Si4 0.175452 0.250977 0.972744
Si Si5 0.167065 0.874500 0.517861
Si Si6 0.249319 0.070918 0.403481
Si Si7 0.296235 0.000000 0.731380
Si Si8 0.198544 0.432120 0.264301
O O1 0.485035 0.103953 0.392290
O O2 0.244081 0.184063 0.075129
O O3 0.000000 0.162175 0.000000
O O4 0.006858 0.077772 0.895496
O O5 0.621153 0.176463 0.256955
O O6 0.500000 0.227385 0.000000
O O7 0.227475 0.249526 0.914462
O O8 0.137348 0.151043 0.737392
O O9 0.500000 0.300057 0.500000
O O10 0.756877 0.375134 0.629497
O O11 0.857677 0.262391 0.703262
O O12 0.367176 0.296855 0.206263
O O13 0.167069 0.890713 0.414850
O O14 0.294280 0.936961 0.675515
O O15 0.303965 0.000000 0.474343
O O16 0.000000 0.000000 0.500000
O O17 0.500000 0.000000 0.000000
O O18 0.500000 0.438656 0.500000
O O19 0.113578 0.500000 0.220516
O O20 0.000000 0.415794 0.000000
#
# Coordination Sequence:
#
# PCOD9154444 Si02
#       8
#     4   4   4   4   4   4   2   4
#     4  12  25  41  60  80 108 146 185 232 286 337
#     4  12  25  42  62  79 107 144 182 228 290 349
#     4  11  21  35  57  88 122 159 195 231 275 321
#     4  12  23  39  58  84 115 146 194 241 280 338
#     4  12  22  42  59  80 106 133 170 222 288 355
#     4  12  24  42  61  79 106 138 181 232 284 350
#     4  12  24  36  58  88 103 124 165 216 286 362
#     4   9  17  31  52  82 124 168 202 230 267 319
#
# _framework density 18.717583999999999
#
# number of rings (size 3 to 8) (size 9 to 14) (size 15 to 20)
#    0.000    0.533    3.333    7.600    0.000    1.600 
#    0.000    0.000    0.000    0.000    0.000    0.000 
#    0.000    3.200    0.000    0.000    0.000    0.000 
#
# Total GULP energy -167387.631566 kJ/mol
# GULP energy per Si atom -5579.587719 kJ/mol
# Density = 1.867498 g / cm^3
# Si number density = 18.717584 Si / 1000 Ang^3
#
#
#
# Elastic Constant Matrix: (Units=GPa)
#
#
# Indices 1 2 3 4 5 6 
#
# 1 118.4270 16.2297 20.6718 0.0000 -1.5943 0.0000
# 2 16.2297 57.7978 9.6606 0.0000 -2.9539 0.0000
# 3 20.6718 9.6606 100.3766 0.0000 -0.0725 0.0000
# 4 0.0000 0.0000 0.0000 26.7142 0.0000 -0.6486
# 5 -1.5943 -2.9539 -0.0725 0.0000 26.1088 0.0000
# 6 0.0000 0.0000 0.0000 -0.6486 0.0000 7.3961
#
#
#
# Elastic Compliance Matrix: (Units=1/GPa)
#
#
# Indices 1 2 3 4 5 6 
#
# 1 0.009043 -0.002249 -0.001646 0.000000 0.000293 0.000000
# 2 -0.002249 0.018248 -0.001292 0.000000 0.001924 0.000000
# 3 -0.001646 -0.001292 0.010426 0.000000 -0.000218 0.000000
# 4 0.000000 0.000000 0.000000 0.037513 0.000000 0.003290
# 5 0.000293 0.001924 -0.000218 0.000000 0.038536 0.000000
# 6 0.000000 0.000000 0.000000 0.003290 0.000000 0.135495
#
#
# Mechanical properties :
#
#
# Convention : Reuss Voigt Hill
#
# Bulk Modulus (GPa) = 36.57216 41.08062 38.82639
# Shear Modulus (GPa) = 18.60472 27.37976 22.99224
#
# Velocity S-wave (km/s) = 3.15615 3.82878 3.50862
# Velocity P-wave (km/s) = 5.73263 6.44526 6.09936
#
# Compressibility (1/GPa) = 0.02734320
#
# Stress axis : x y z
#
# Youngs Moduli (GPa) = 110.57673 54.80200 95.91807
#
# Poissons Ratio (x) = 0.12327 0.15786
# Poissons Ratio (y) = 0.24873 0.12389
# Poissons Ratio (z) = 0.18198 0.07078
#
# Static dielectric constant tensor:
#      x y z
#    x 1.694650 0.000000 -0.012000 
#    y 0.000000 1.642860 0.000000 
#    z -0.012000 0.000000 1.653350 
# 
# From -- ./inp_files/67888.got.cif
#   From: 2010.05.17/outbox.cif.g08.bks.cpg/sg10_34_cif.got.tgz:67888.got - 2010.06.03 11:33:40.
