data_PCOD9154167
_publ_section_title
;
Structure prediction by ZEFSAII (Michael W. Deem and Ramdas Pophale) SiO2 
 PCOD9154167
Probable space group: P 2/M
;
_chemical_formula_sum "Si O2"
_cell_formula_units_Z 20
_cell_length_a 15.610000
_cell_length_b 8.558541
_cell_length_c 8.186744
_cell_angle_alpha 90.000000
_cell_angle_beta 53.065138
_cell_angle_gamma 90.000000
_cell_volume 874.246864
_symmetry_space_group_name_H-M "P 2/M"
_symmetry_group_IT_number 10
_symmetry_cell_setting 'monoclinic'
loop_
_space_group_symop_operation_xyz
x,y,z
-x,y,-z
-x,-y,-z
x,-y,z
loop_
_atom_site_type_symbol
_atom_site_label
_atom_site_fract_x
_atom_site_fract_y
_atom_site_fract_z
Si Si1 0.737878 0.812317 0.465377
Si Si2 0.113677 0.822235 0.283384
Si Si3 0.615784 0.182817 0.283742
Si Si4 0.668977 0.679551 0.874812
Si Si5 0.975187 0.326596 0.214517
O O1 0.695212 0.756212 0.336518
O O2 0.661563 0.763868 0.706423
O O3 0.856429 0.745652 0.366190
O O4 0.741952 0.000000 0.456996
O O5 0.206050 0.705044 0.223379
O O6 0.000000 0.794656 0.500000
O O7 0.071456 0.790257 0.152534
O O8 0.148708 0.000000 0.273935
O O9 0.500000 0.193651 0.500000
O O10 0.642430 0.000000 0.227655
O O11 0.615713 0.257445 0.103291
O O12 0.640961 0.500000 0.884260
O O13 0.980563 0.500000 0.289119
O O14 0.000000 0.350139 0.000000
#
# Coordination Sequence:
#
# PCOD9154167 Si02
#       5
#     4   4   4   4   4
#     4  11  23  41  66  94 126 167 217 266 316 382
#     4  11  22  37  60  89 123 165 211 254 300 365
#     4  10  24  47  72  96 125 165 216 273 327 382
#     4  12  25  41  66  97 134 173 211 264 324 385
#     4  11  23  37  57  89 128 167 208 257 316 378
#
# _framework density 22.876833000000001
#
# number of rings (size 3 to 8) (size 9 to 14) (size 15 to 20)
#    0.000    1.000    2.000    4.800    0.000    8.400 
#    0.000    4.000    0.000    0.000    0.000    0.000 
#    0.000    0.000    0.000    0.000    0.000    0.000 
#
# Total GULP energy -111599.733580 kJ/mol
# GULP energy per Si atom -5579.986679 kJ/mol
# Density = 2.282476 g / cm^3
# Si number density = 22.876833 Si / 1000 Ang^3
#
#
#
# Elastic Constant Matrix: (Units=GPa)
#
#
# Indices 1 2 3 4 5 6 
#
# 1 44.1519 -12.4996 -7.8309 0.0000 -1.0927 0.0000
# 2 -12.4996 74.8416 19.7224 0.0000 6.7981 0.0000
# 3 -7.8309 19.7224 123.2887 0.0000 15.7793 0.0000
# 4 0.0000 0.0000 0.0000 38.4845 0.0000 6.2487
# 5 -1.0927 6.7981 15.7793 0.0000 23.5242 0.0000
# 6 0.0000 0.0000 0.0000 6.2487 0.0000 16.6913
#
#
#
# Elastic Compliance Matrix: (Units=1/GPa)
#
#
# Indices 1 2 3 4 5 6 
#
# 1 0.023881 0.003786 0.000995 0.000000 -0.000652 0.000000
# 2 0.003786 0.014717 -0.001742 0.000000 -0.002909 0.000000
# 3 0.000995 -0.001742 0.009170 0.000000 -0.005601 0.000000
# 4 0.000000 0.000000 0.000000 0.027666 0.000000 -0.010357
# 5 -0.000652 -0.002909 -0.005601 0.000000 0.047077 0.000000
# 6 0.000000 0.000000 0.000000 -0.010357 0.000000 0.063789
#
#
# Mechanical properties :
#
#
# Convention : Reuss Voigt Hill
#
# Bulk Modulus (GPa) = 18.57174 26.78512 22.67843
# Shear Modulus (GPa) = 25.23076 31.93267 28.58171
#
# Velocity S-wave (km/s) = 3.32459 3.74016 3.53848
# Velocity P-wave (km/s) = 4.78257 5.51231 5.16036
#
# Compressibility (1/GPa) = 0.05384526
#
# Stress axis : x y z
#
# Youngs Moduli (GPa) = 41.87412 67.94887 109.05484
#
# Poissons Ratio (x) = -0.25722 -0.10848
# Poissons Ratio (y) = -0.15852 0.18992
# Poissons Ratio (z) = -0.04165 0.11833
#
# Static dielectric constant tensor:
#      x y z
#    x 1.642640 0.000000 -0.135320 
#    y 0.000000 1.818450 0.000000 
#    z -0.135320 0.000000 1.794200 
# 
# From -- ./inp_files/22272.got.cif
#   From: 2010.05.17/outbox.cif.g08.bks.cpg/sg10_12_cif.got.tgz:22272.got - 2010.06.03 11:33:40.
