data_PCOD9154576
_publ_section_title
;
Structure prediction by ZEFSAII (Michael W. Deem and Ramdas Pophale) SiO2 
 PCOD9154576
Probable space group: P 2/M
;
_chemical_formula_sum "Si O2"
_cell_formula_units_Z 22
_cell_length_a 5.145607
_cell_length_b 22.969979
_cell_length_c 12.277284
_cell_angle_alpha 90.000000
_cell_angle_beta 54.040720
_cell_angle_gamma 90.000000
_cell_volume 1174.576317
_symmetry_space_group_name_H-M "P 2/M"
_symmetry_group_IT_number 10
_symmetry_cell_setting 'monoclinic'
loop_
_space_group_symop_operation_xyz
x,y,z
-x,y,-z
-x,-y,-z
x,-y,z
loop_
_atom_site_type_symbol
_atom_site_label
_atom_site_fract_x
_atom_site_fract_y
_atom_site_fract_z
Si Si1 0.614501 0.811604 0.096620
Si Si2 0.304258 0.500000 0.307352
Si Si3 0.642668 0.622913 0.585361
Si Si4 0.500000 0.397964 0.000000
Si Si5 0.349820 0.684847 0.853806
Si Si6 0.978988 0.500000 0.857008
Si Si7 0.386902 0.937375 0.902499
O O1 0.528529 0.751326 0.175908
O O2 0.500000 0.806606 0.000000
O O3 0.504434 0.874508 0.169928
O O4 0.000000 0.813820 0.000000
O O5 0.301252 0.558641 0.378137
O O6 0.056160 0.500000 0.267604
O O7 0.672162 0.500000 0.177112
O O8 0.500000 0.619163 0.500000
O O9 0.394503 0.657030 0.724621
O O10 0.000000 0.650739 0.500000
O O11 0.550014 0.356853 0.884403
O O12 0.798258 0.441392 0.935206
O O13 0.000000 0.684654 0.000000
O O14 0.490898 0.000000 0.828219
O O15 0.500000 0.937171 0.000000
O O16 0.000000 0.937564 0.000000
#
# Coordination Sequence:
#
# PCOD9154576 Si02
#       7
#     4   2   4   2   4   2   4
#     4   9  17  28  46  74 101 134 175 214 254 307
#     4  12  22  44  58  77 104 140 176 219 269 332
#     4  12  27  43  60  82 111 141 177 221 279 328
#     4  11  22  36  56  84 109 136 174 228 273 318
#     4  11  23  38  62  81 111 142 184 221 269 322
#     4  11  24  35  60  83 107 130 178 224 274 317
#     4   8  13  22  37  61  98 136 166 201 251 303
#
# _framework density 18.730157999999999
#
# number of rings (size 3 to 8) (size 9 to 14) (size 15 to 20)
#    0.000    1.636    2.727    2.727    2.545    0.727 
#    0.000    0.000    0.000    0.000    0.000    0.000 
#    0.000    1.455    0.000    0.000    0.000    4.000 
#
# Total GULP energy -122665.002283 kJ/mol
# GULP energy per Si atom -5575.681922 kJ/mol
# Density = 1.868753 g / cm^3
# Si number density = 18.730158 Si / 1000 Ang^3
#
#
#
# Elastic Constant Matrix: (Units=GPa)
#
#
# Indices 1 2 3 4 5 6 
#
# 1 92.0014 1.2207 21.5445 0.0000 14.5164 0.0000
# 2 1.2207 183.6656 42.8687 0.0000 14.3013 0.0000
# 3 21.5445 42.8687 72.1648 0.0000 16.6552 0.0000
# 4 0.0000 0.0000 0.0000 17.5029 0.0000 5.7717
# 5 14.5164 14.3013 16.6552 0.0000 36.3389 0.0000
# 6 0.0000 0.0000 0.0000 5.7717 0.0000 16.6661
#
#
#
# Elastic Compliance Matrix: (Units=1/GPa)
#
#
# Indices 1 2 3 4 5 6 
#
# 1 0.012238 0.001000 -0.003386 0.000000 -0.003730 0.000000
# 2 0.001000 0.006427 -0.003847 0.000000 -0.001165 0.000000
# 3 -0.003386 -0.003847 0.018443 0.000000 -0.005586 0.000000
# 4 0.000000 0.000000 0.000000 0.064499 0.000000 -0.022337
# 5 -0.003730 -0.001165 -0.005586 0.000000 0.032027 0.000000
# 6 0.000000 0.000000 0.000000 -0.022337 0.000000 0.067738
#
#
# Mechanical properties :
#
#
# Convention : Reuss Voigt Hill
#
# Bulk Modulus (GPa) = 40.58614 53.23329 46.90971
# Shear Modulus (GPa) = 22.51719 32.91478 27.71598
#
# Velocity S-wave (km/s) = 3.47102 4.19658 3.85093
# Velocity P-wave (km/s) = 6.14654 7.20865 6.69867
#
# Compressibility (1/GPa) = 0.02463895
#
# Stress axis : x y z
#
# Youngs Moduli (GPa) = 81.71488 155.60023 54.22183
#
# Poissons Ratio (x) = -0.15552 0.18362
# Poissons Ratio (y) = -0.08167 0.20860
# Poissons Ratio (z) = 0.27672 0.59862
#
# Static dielectric constant tensor:
#      x y z
#    x 1.684890 0.000000 -0.045000 
#    y 0.000000 1.727800 0.000000 
#    z -0.045000 0.000000 1.672890 
# 
# From -- ./inp_files/39856.got.cif
#   From: 2010.05.17/outbox.cif.g08.bks.cpg/sg10_20_cif.got.tgz:39856.got - 2010.06.03 11:33:40.
