data_PCOD9154032
_publ_section_title
;
Structure prediction by ZEFSAII (Michael W. Deem and Ramdas Pophale) SiO2 
 PCOD9154032
Probable space group: P 2/M
;
_chemical_formula_sum "Si O2"
_cell_formula_units_Z 24
_cell_length_a 8.190716
_cell_length_b 15.009462
_cell_length_c 13.048427
_cell_angle_alpha 90.000000
_cell_angle_beta 45.673713
_cell_angle_gamma 90.000000
_cell_volume 1147.564832
_symmetry_space_group_name_H-M "P 2/M"
_symmetry_group_IT_number 10
_symmetry_cell_setting 'monoclinic'
loop_
_space_group_symop_operation_xyz
x,y,z
-x,y,-z
-x,-y,-z
x,-y,z
loop_
_atom_site_type_symbol
_atom_site_label
_atom_site_fract_x
_atom_site_fract_y
_atom_site_fract_z
Si Si1 0.232652 0.000000 0.069418
Si Si2 0.195695 0.500000 0.755864
Si Si3 0.552978 0.189610 0.308268
Si Si4 0.296721 0.000000 0.672668
Si Si5 0.371209 0.186079 0.948357
Si Si6 0.298460 0.500000 0.466607
Si Si7 0.869624 0.701023 0.457060
Si Si8 0.017316 0.689565 0.825428
O O1 0.235951 0.092320 0.007040
O O2 0.978140 0.000000 0.236234
O O3 0.500000 0.000000 0.000000
O O4 0.263494 0.500000 0.605210
O O5 0.447917 0.500000 0.691709
O O6 0.055598 0.587965 0.837788
O O7 0.644625 0.091503 0.294201
O O8 0.342842 0.231392 0.463257
O O9 0.760720 0.256182 0.237890
O O10 0.485400 0.190418 0.217922
O O11 0.500000 0.000000 0.500000
O O12 0.197108 0.267025 0.027005
O O13 0.500000 0.189308 0.000000
O O14 0.203000 0.598754 0.484011
O O15 0.999073 0.697913 0.291534
O O16 0.000000 0.733839 0.500000
#
# Coordination Sequence:
#
# PCOD9154032 Si02
#       8
#     2   2   4   2   4   2   4   4
#     4  10  23  43  71  93 129 173 218 257 327 381
#     4   9  18  34  59  89 120 158 210 266 317 375
#     4  12  24  40  65  95 125 168 216 264 321 384
#     4  12  25  43  69 104 135 167 220 277 321 380
#     4  11  24  43  64  91 127 167 214 263 321 388
#     4   9  17  34  59  88 119 163 210 260 314 387
#     4  11  22  38  61  93 128 165 209 265 327 381
#     4  11  21  39  64  89 124 164 215 262 319 385
#
# _framework density 20.91385
#
# number of rings (size 3 to 8) (size 9 to 14) (size 15 to 20)
#    0.000    1.167    3.333    3.750    0.000    0.667 
#    0.000    3.333    0.000    0.000    0.000    0.000 
#    0.000    0.000    0.000    0.000    0.000    0.000 
#
# Total GULP energy -133761.555057 kJ/mol
# GULP energy per Si atom -5573.398127 kJ/mol
# Density = 2.086625 g / cm^3
# Si number density = 20.913850 Si / 1000 Ang^3
#
#
#
# Elastic Constant Matrix: (Units=GPa)
#
#
# Indices 1 2 3 4 5 6 
#
# 1 67.4289 15.2663 10.8528 0.0000 6.5153 0.0000
# 2 15.2663 162.4552 27.2177 0.0000 -11.4783 0.0000
# 3 10.8528 27.2177 85.6590 0.0000 -1.2267 0.0000
# 4 0.0000 0.0000 0.0000 25.2259 0.0000 -16.6534
# 5 6.5153 -11.4783 -1.2267 0.0000 29.0534 0.0000
# 6 0.0000 0.0000 0.0000 -16.6534 0.0000 40.0050
#
#
#
# Elastic Compliance Matrix: (Units=1/GPa)
#
#
# Indices 1 2 3 4 5 6 
#
# 1 0.015837 -0.001521 -0.001584 0.000000 -0.004219 0.000000
# 2 -0.001521 0.006832 -0.001936 0.000000 0.002958 0.000000
# 3 -0.001584 -0.001936 0.012492 0.000000 0.000118 0.000000
# 4 0.000000 0.000000 0.000000 0.054664 0.000000 0.022756
# 5 -0.004219 0.002958 0.000118 0.000000 0.036539 0.000000
# 6 0.000000 0.000000 0.000000 0.022756 0.000000 0.034470
#
#
# Mechanical properties :
#
#
# Convention : Reuss Voigt Hill
#
# Bulk Modulus (GPa) = 39.87250 46.91296 43.39273
# Shear Modulus (GPa) = 27.89006 36.33728 32.11367
#
# Velocity S-wave (km/s) = 3.65577 4.17282 3.92282
# Velocity P-wave (km/s) = 6.07668 6.75994 6.42740
#
# Compressibility (1/GPa) = 0.02507994
#
# Stress axis : x y z
#
# Youngs Moduli (GPa) = 63.14160 146.37395 80.05387
#
# Poissons Ratio (x) = 0.22265 0.12678
# Poissons Ratio (y) = 0.09604 0.15496
# Poissons Ratio (z) = 0.10000 0.28333
#
# Static dielectric constant tensor:
#      x y z
#    x 1.826940 0.000000 -0.007480 
#    y 0.000000 1.747880 0.000000 
#    z -0.007480 0.000000 1.744660 
# 
# From -- ./inp_files/61728.got.cif
#   From: 2010.05.17/outbox.cif.g08.bks.cpg/sg10_31_cif.got.tgz:61728.got - 2010.06.03 11:33:40.
