data_PCOD9154072
_publ_section_title
;
Structure prediction by ZEFSAII (Michael W. Deem and Ramdas Pophale) SiO2 
 PCOD9154072
Probable space group: P 2/M
;
_chemical_formula_sum "Si O2"
_cell_formula_units_Z 22
_cell_length_a 7.387350
_cell_length_b 7.679895
_cell_length_c 27.561961
_cell_angle_alpha 90.000000
_cell_angle_beta 34.306732
_cell_angle_gamma 90.000000
_cell_volume 881.338744
_symmetry_space_group_name_H-M "P 2/M"
_symmetry_group_IT_number 10
_symmetry_cell_setting 'monoclinic'
loop_
_space_group_symop_operation_xyz
x,y,z
-x,y,-z
-x,-y,-z
x,-y,z
loop_
_atom_site_type_symbol
_atom_site_label
_atom_site_fract_x
_atom_site_fract_y
_atom_site_fract_z
Si Si1 0.549889 0.313014 0.834029
Si Si2 0.486203 0.705932 0.428836
Si Si3 0.004181 0.000000 0.695220
Si Si4 0.579881 0.791623 0.927866
Si Si5 0.748623 0.197758 0.191020
Si Si6 0.216012 0.296043 0.379520
O O1 0.718163 0.500000 0.793453
O O2 0.415828 0.290201 0.917706
O O3 0.287341 0.304829 0.849690
O O4 0.780295 0.152280 0.770874
O O5 0.560158 0.500000 0.420566
O O6 0.387552 0.728749 0.393693
O O7 0.156415 0.745956 0.530610
O O8 0.759131 0.844722 0.378153
O O9 0.960535 0.748401 0.839016
O O10 0.532012 0.000000 0.936355
O O11 0.500000 0.734317 0.000000
O O12 0.416500 0.198534 0.294146
O O13 0.819537 0.000000 0.160489
O O14 0.238907 0.500000 0.362256
#
# Coordination Sequence:
#
# PCOD9154072 Si02
#       6
#     4   4   2   4   4   4
#     4  12  26  45  68 101 142 179 226 280 333 404
#     4   9  20  36  60  95 136 179 229 286 334 394
#     4  12  22  39  62  93 129 176 230 272 337 387
#     4  10  23  46  76 107 137 174 221 276 340 409
#     4  11  23  41  69 100 137 183 226 275 340 406
#     4   9  19  36  59  95 136 180 229 277 339 399
#
# _framework density 24.962025000000001
#
# number of rings (size 3 to 8) (size 9 to 14) (size 15 to 20)
#    0.000    1.636    1.818    3.273    5.091    4.727 
#    0.000    5.455    0.000    3.273    0.000    0.000 
#    0.000    0.000    0.000    0.000    0.000    0.000 
#
# Total GULP energy -122624.579769 kJ/mol
# GULP energy per Si atom -5573.844535 kJ/mol
# Density = 2.490521 g / cm^3
# Si number density = 24.962025 Si / 1000 Ang^3
#
#
#
# Elastic Constant Matrix: (Units=GPa)
#
#
# Indices 1 2 3 4 5 6 
#
# 1 80.3002 32.5037 20.6248 0.0000 25.8906 0.0000
# 2 32.5037 137.7987 19.4966 0.0000 5.5111 0.0000
# 3 20.6248 19.4966 53.9284 0.0000 5.1895 0.0000
# 4 0.0000 0.0000 0.0000 23.8671 0.0000 -1.4546
# 5 25.8906 5.5111 5.1895 0.0000 33.4051 0.0000
# 6 0.0000 0.0000 0.0000 -1.4546 0.0000 12.3441
#
#
#
# Elastic Compliance Matrix: (Units=1/GPa)
#
#
# Indices 1 2 3 4 5 6 
#
# 1 0.019534 -0.003358 -0.004927 0.000000 -0.013820 0.000000
# 2 -0.003358 0.008249 -0.001845 0.000000 0.001528 0.000000
# 3 -0.004927 -0.001845 0.021012 0.000000 0.000859 0.000000
# 4 0.000000 0.000000 0.000000 0.042202 0.000000 0.004973
# 5 -0.013820 0.001528 0.000859 0.000000 0.040262 0.000000
# 6 0.000000 0.000000 0.000000 0.004973 0.000000 0.081597
#
#
# Mechanical properties :
#
#
# Convention : Reuss Voigt Hill
#
# Bulk Modulus (GPa) = 35.04452 46.36415 40.70434
# Shear Modulus (GPa) = 20.60790 27.21673 23.91232
#
# Velocity S-wave (km/s) = 2.87639 3.30559 3.09843
# Velocity P-wave (km/s) = 5.01010 5.76051 5.39836
#
# Compressibility (1/GPa) = 0.02853514
#
# Stress axis : x y z
#
# Youngs Moduli (GPa) = 51.19318 121.22785 47.59238
#
# Poissons Ratio (x) = 0.40706 0.23448
# Poissons Ratio (y) = 0.17190 0.08781
# Poissons Ratio (z) = 0.25222 0.22368
#
# Static dielectric constant tensor:
#      x y z
#    x 2.037250 0.000000 -0.009450 
#    y 0.000000 1.908840 0.000000 
#    z -0.009450 0.000000 1.980280 
# 
# From -- ./inp_files/94477.got.cif
#   From: 2010.05.17/outbox.cif.g08.bks.cpg/sg10_48_cif.got.tgz:94477.got - 2010.06.03 11:33:40.
