data_PCOD9154155
_publ_section_title
;
Structure prediction by ZEFSAII (Michael W. Deem and Ramdas Pophale) SiO2 
 PCOD9154155
Probable space group: P 2/M
;
_chemical_formula_sum "Si O2"
_cell_formula_units_Z 11
_cell_length_a 5.052334
_cell_length_b 16.137534
_cell_length_c 5.484068
_cell_angle_alpha 90.000000
_cell_angle_beta 91.901936
_cell_angle_gamma 90.000000
_cell_volume 446.881868
_symmetry_space_group_name_H-M "P 2/M"
_symmetry_group_IT_number 10
_symmetry_cell_setting 'monoclinic'
loop_
_space_group_symop_operation_xyz
x,y,z
-x,y,-z
-x,-y,-z
x,-y,z
loop_
_atom_site_type_symbol
_atom_site_label
_atom_site_fract_x
_atom_site_fract_y
_atom_site_fract_z
Si Si1 0.000000 0.719237 0.000000
Si Si2 0.737308 0.405904 0.327009
Si Si3 0.237674 0.138367 0.332738
Si Si4 0.500000 0.000000 0.000000
O O1 0.213280 0.659698 0.881745
O O2 0.868520 0.779065 0.797312
O O3 0.500000 0.385040 0.500000
O O4 0.700220 0.500000 0.232869
O O5 0.000000 0.405543 0.500000
O O6 0.500000 0.153426 0.500000
O O7 0.000000 0.106790 0.500000
O O8 0.323664 0.072051 0.134131
#
# Coordination Sequence:
#
# PCOD9154155 Si02
#       4
#     2   4   4   1
#     4  12  27  47  78 112 148 198 242 301 373 430
#     4  10  24  46  72 106 148 194 246 300 357 429
#     4  12  29  50  75 111 148 188 247 305 362 441
#     4  12  28  54  80 102 146 202 236 298 380 434
#
# _framework density 24.615006000000001
#
# number of rings (size 3 to 8) (size 9 to 14) (size 15 to 20)
#    0.000    0.727    0.000    4.909    0.000   21.091 
#    0.000    5.455    0.000    3.273    0.000    0.000 
#    0.000    0.000    0.000    0.000    0.000    0.000 
#
# Total GULP energy -61525.906472 kJ/mol
# GULP energy per Si atom -5593.264225 kJ/mol
# Density = 2.455898 g / cm^3
# Si number density = 24.615006 Si / 1000 Ang^3
#
#
#
# Elastic Constant Matrix: (Units=GPa)
#
#
# Indices 1 2 3 4 5 6 
#
# 1 198.7560 53.0398 92.0345 0.0000 -47.6740 0.0000
# 2 53.0398 189.4513 99.3843 0.0000 -64.7043 0.0000
# 3 92.0345 99.3843 125.5463 0.0000 -60.4729 0.0000
# 4 0.0000 0.0000 0.0000 36.1640 0.0000 -60.5039
# 5 -47.6740 -64.7043 -60.4729 0.0000 67.6160 0.0000
# 6 0.0000 0.0000 0.0000 -60.5039 0.0000 17.5567
#
#
#
# Elastic Compliance Matrix: (Units=1/GPa)
#
#
# Indices 1 2 3 4 5 6 
#
# 1 0.007898 0.001625 -0.006403 0.000000 0.001397 0.000000
# 2 0.001625 0.010004 -0.006935 0.000000 0.004517 0.000000
# 3 -0.006403 -0.006935 0.022448 0.000000 0.008926 0.000000
# 4 0.000000 0.000000 0.000000 -0.005802 0.000000 -0.019996
# 5 0.001397 0.004517 0.008926 0.000000 0.028079 0.000000
# 6 0.000000 0.000000 0.000000 -0.019996 0.000000 -0.011952
#
#
# Mechanical properties :
#
#
# Convention : Reuss Voigt Hill
#
# Bulk Modulus (GPa) = 59.08878 111.40790 85.24834
# Shear Modulus (GPa) = 62.70140 42.22032 52.46086
#
# Velocity S-wave (km/s) = 5.05254 4.14602 4.62156
# Velocity P-wave (km/s) = 7.62200 8.26304 7.94898
#
# Compressibility (1/GPa) = 0.01692369
#
# Stress axis : x y z
#
# Youngs Moduli (GPa) = 126.61961 99.95877 44.54647
#
# Poissons Ratio (x) = -0.16243 0.28524
# Poissons Ratio (y) = -0.20575 0.30893
# Poissons Ratio (z) = 0.81077 0.69322
#
# Static dielectric constant tensor:
#      x y z
#    x 1.958380 0.000000 0.091350 
#    y 0.000000 1.884870 0.000000 
#    z 0.091350 0.000000 1.996910 
# 
# From -- ./inp_files/436.got.cif
#   From: 2010.05.17/outbox.cif.g08.bks.cpg/sg10_1_cif.got.tgz:436.got - 2010.06.03 11:33:40.
