data_PCOD9154781
_publ_section_title
;
Structure prediction by ZEFSAII (Michael W. Deem and Ramdas Pophale) SiO2 
 PCOD9154781
Probable space group: P 2/M
;
_chemical_formula_sum "Si O2"
_cell_formula_units_Z 24
_cell_length_a 8.878084
_cell_length_b 18.713696
_cell_length_c 9.092952
_cell_angle_alpha 90.000000
_cell_angle_beta 119.221418
_cell_angle_gamma 90.000000
_cell_volume 1318.464450
_symmetry_space_group_name_H-M "P 2/M"
_symmetry_group_IT_number 10
_symmetry_cell_setting 'monoclinic'
loop_
_space_group_symop_operation_xyz
x,y,z
-x,y,-z
-x,-y,-z
x,-y,z
loop_
_atom_site_type_symbol
_atom_site_label
_atom_site_fract_x
_atom_site_fract_y
_atom_site_fract_z
Si Si1 0.322786 0.414511 0.000001
Si Si2 0.230579 0.797561 0.806441
Si Si3 0.820123 0.083604 0.000001
Si Si4 0.575862 0.202439 0.806441
Si Si5 0.658145 0.340433 0.674759
Si Si6 0.983386 0.659567 0.325241
O O1 0.310008 0.500000 0.000002
O O2 0.328312 0.383324 0.166803
O O3 0.500000 0.395559 0.000000
O O4 0.161509 0.383325 0.833196
O O5 0.374060 0.802883 0.748119
O O6 0.082544 0.741718 0.700729
O O7 0.171008 0.874479 0.839820
O O8 0.330416 0.768433 0.000000
O O9 0.668813 0.125521 0.839821
O O10 0.784751 0.000000 0.000001
O O11 0.000000 0.093236 0.000000
O O12 0.618186 0.258281 0.700729
O O13 0.500000 0.366816 0.500000
O O14 0.835423 0.344711 0.670846
O O15 0.000000 0.633183 0.500000
#
# Coordination Sequence:
#
# PCOD9154781 Si02
#       6
#     4   4   4   4   4   4
#     4  11  24  43  64  87 119 153 188 235 288 343
#     4   9  18  32  53  79 111 146 188 234 281 335
#     4   9  16  27  48  79 113 151 194 235 282 341
#     4   9  18  32  53  79 111 146 188 234 281 335
#     4  12  24  39  62  88 117 152 194 239 287 343
#     4  12  24  39  62  88 117 152 194 239 287 343
#
# _framework density 18.202992999999999
#
# number of rings (size 3 to 8) (size 9 to 14) (size 15 to 20)
#    1.000    0.667    1.667    4.500    0.000    3.333 
#    0.000    0.000    0.000    1.000    0.000    0.000 
#    0.000    0.000    0.000    0.000    0.000    0.000 
#
# Total GULP energy -133802.297353 kJ/mol
# GULP energy per Si atom -5575.095723 kJ/mol
# Density = 1.816156 g / cm^3
# Si number density = 18.202993 Si / 1000 Ang^3
#
#
#
# Elastic Constant Matrix: (Units=GPa)
#
#
# Indices 1 2 3 4 5 6 
#
# 1 193.3151 70.2907 73.7791 0.0000 6.0990 0.0000
# 2 70.2907 103.2723 48.3425 0.0000 1.9026 0.0000
# 3 73.7791 48.3425 121.0284 0.0000 0.1670 0.0000
# 4 0.0000 0.0000 0.0000 4.2252 0.0000 2.3153
# 5 6.0990 1.9026 0.1670 0.0000 25.0984 0.0000
# 6 0.0000 0.0000 0.0000 2.3153 0.0000 30.9394
#
#
#
# Elastic Compliance Matrix: (Units=1/GPa)
#
#
# Indices 1 2 3 4 5 6 
#
# 1 0.007846 -0.003780 -0.003271 0.000000 -0.001598 0.000000
# 2 -0.003780 0.013750 -0.003188 0.000000 -0.000103 0.000000
# 3 -0.003271 -0.003188 0.011529 0.000000 0.000960 0.000000
# 4 0.000000 0.000000 0.000000 0.246794 0.000000 -0.018468
# 5 -0.001598 -0.000103 0.000960 0.000000 0.040233 0.000000
# 6 0.000000 0.000000 0.000000 -0.018468 0.000000 0.033703
#
#
# Mechanical properties :
#
#
# Convention : Reuss Voigt Hill
#
# Bulk Modulus (GPa) = 79.06827 89.16006 84.11417
# Shear Modulus (GPa) = 13.20839 27.06618 20.13728
#
# Velocity S-wave (km/s) = 2.69665 3.86023 3.32966
# Velocity P-wave (km/s) = 7.29569 8.30396 7.81610
#
# Compressibility (1/GPa) = 0.01264730
#
# Stress axis : x y z
#
# Youngs Moduli (GPa) = 127.45303 72.72805 86.74083
#
# Poissons Ratio (x) = 0.27488 0.28373
# Poissons Ratio (y) = 0.48172 0.27652
# Poissons Ratio (z) = 0.41691 0.23185
#
# Static dielectric constant tensor:
#      x y z
#    x 1.606240 0.000000 -0.001950 
#    y 0.000000 1.632760 0.000000 
#    z -0.001950 0.000000 1.628700 
# 
# From -- ./inp_files/20260.got.cif
#   From: 2010.05.17/outbox.cif.g08.bks.cpg/sg10_11_cif.got.tgz:20260.got - 2010.06.03 11:33:40.
