data_PCOD9154439
_publ_section_title
;
Structure prediction by ZEFSAII (Michael W. Deem and Ramdas Pophale) SiO2 
 PCOD9154439
Probable space group: P 2/M
;
_chemical_formula_sum "Si O2"
_cell_formula_units_Z 24
_cell_length_a 10.742198
_cell_length_b 13.142342
_cell_length_c 7.901305
_cell_angle_alpha 90.000000
_cell_angle_beta 82.151139
_cell_angle_gamma 90.000000
_cell_volume 1105.037419
_symmetry_space_group_name_H-M "P 2/M"
_symmetry_group_IT_number 10
_symmetry_cell_setting 'monoclinic'
loop_
_space_group_symop_operation_xyz
x,y,z
-x,y,-z
-x,-y,-z
x,-y,z
loop_
_atom_site_type_symbol
_atom_site_label
_atom_site_fract_x
_atom_site_fract_y
_atom_site_fract_z
Si Si1 0.946459 0.500000 0.782880
Si Si2 0.929426 0.884352 0.778961
Si Si3 0.573110 0.618723 0.806622
Si Si4 0.335557 0.308391 0.666952
Si Si5 0.202616 0.500000 0.543860
Si Si6 0.809046 0.308103 0.948918
Si Si7 0.200274 0.883957 0.563903
O O1 0.869892 0.500000 0.619855
O O2 0.902233 0.400489 0.890732
O O3 0.091607 0.500000 0.705240
O O4 0.877425 0.798658 0.911047
O O5 0.849925 0.876262 0.619061
O O6 0.074117 0.867454 0.699143
O O7 0.915596 0.000000 0.844775
O O8 0.595034 0.500000 0.758804
O O9 0.479034 0.672013 0.693801
O O10 0.699625 0.678001 0.828097
O O11 0.500000 0.615894 0.000000
O O12 0.284525 0.399563 0.560039
O O13 0.301492 0.200692 0.591528
O O14 0.255841 0.316188 0.856938
O O15 0.243469 0.000000 0.583761
#
# Coordination Sequence:
#
# PCOD9154439 Si02
#       7
#     2   4   4   4   2   4   4
#     4  11  23  36  51  76 112 145 172 213 272 331
#     4   9  19  37  58  79 109 147 179 214 269 328
#     4   9  18  36  55  74 107 147 178 215 271 322
#     4  11  21  35  57  81 106 139 182 227 267 312
#     4  11  23  36  51  76 112 145 172 213 272 331
#     4  11  21  35  57  81 106 139 182 227 267 312
#     4   9  19  37  58  79 109 147 179 214 269 328
#
# _framework density 21.718720999999999
#
# number of rings (size 3 to 8) (size 9 to 14) (size 15 to 20)
#    0.000    2.000    1.667    3.500    0.000    6.667 
#    0.000    6.667    0.000    5.000    0.000    0.000 
#    0.000    0.000    0.000    0.000    0.000    0.000 
#
# Total GULP energy -134405.927555 kJ/mol
# GULP energy per Si atom -5600.246981 kJ/mol
# Density = 2.166929 g / cm^3
# Si number density = 21.718721 Si / 1000 Ang^3
#
#
#
# Elastic Constant Matrix: (Units=GPa)
#
#
# Indices 1 2 3 4 5 6 
#
# 1 110.3882 64.5408 24.5401 0.0000 26.0807 0.0000
# 2 64.5408 151.3621 40.6628 0.0000 16.4200 0.0000
# 3 24.5401 40.6628 95.4958 0.0000 12.9445 0.0000
# 4 0.0000 0.0000 0.0000 234.2458 0.0000 89.9157
# 5 26.0807 16.4200 12.9445 0.0000 45.2873 0.0000
# 6 0.0000 0.0000 0.0000 89.9157 0.0000 70.7546
#
#
#
# Elastic Compliance Matrix: (Units=1/GPa)
#
#
# Indices 1 2 3 4 5 6 
#
# 1 0.013449 -0.004956 -0.000561 0.000000 -0.005788 0.000000
# 2 -0.004956 0.009442 -0.002777 0.000000 0.000225 0.000000
# 3 -0.000561 -0.002777 0.012086 0.000000 -0.002125 0.000000
# 4 0.000000 0.000000 0.000000 0.008335 0.000000 -0.010592
# 5 -0.005788 0.000225 -0.002125 0.000000 0.025940 0.000000
# 6 0.000000 0.000000 0.000000 -0.010592 0.000000 0.027594
#
#
# Mechanical properties :
#
#
# Convention : Reuss Voigt Hill
#
# Bulk Modulus (GPa) = 54.38295 68.52592 61.45444
# Shear Modulus (GPa) = 41.81888 85.22437 63.52162
#
# Velocity S-wave (km/s) = 4.39279 6.27098 5.41395
# Velocity P-wave (km/s) = 7.12901 9.16808 8.21208
#
# Compressibility (1/GPa) = 0.01838811
#
# Stress axis : x y z
#
# Youngs Moduli (GPa) = 74.35657 105.91444 82.73756
#
# Poissons Ratio (x) = 0.52490 0.04643
# Poissons Ratio (y) = 0.36850 0.22978
# Poissons Ratio (z) = 0.04173 0.29414
#
# Static dielectric constant tensor:
#      x y z
#    x 1.765120 0.000000 -0.010920 
#    y 0.000000 1.726350 0.000000 
#    z -0.010920 0.000000 1.844640 
# 
# From -- ./inp_files/24085.got.cif
#   From: 2010.05.17/outbox.cif.g08.bks.cpg/sg10_13_cif.got.tgz:24085.got - 2010.06.03 11:33:40.
