data_PCOD9154523
_publ_section_title
;
Structure prediction by ZEFSAII (Michael W. Deem and Ramdas Pophale) SiO2 
 PCOD9154523
Probable space group: P 2/M
;
_chemical_formula_sum "Si O2"
_cell_formula_units_Z 20
_cell_length_a 11.397496
_cell_length_b 11.498804
_cell_length_c 8.832625
_cell_angle_alpha 90.000000
_cell_angle_beta 56.257602
_cell_angle_gamma 90.000000
_cell_volume 962.579903
_symmetry_space_group_name_H-M "P 2/M"
_symmetry_group_IT_number 10
_symmetry_cell_setting 'monoclinic'
loop_
_space_group_symop_operation_xyz
x,y,z
-x,y,-z
-x,-y,-z
x,-y,z
loop_
_atom_site_type_symbol
_atom_site_label
_atom_site_fract_x
_atom_site_fract_y
_atom_site_fract_z
Si Si1 0.695389 0.249653 0.555674
Si Si2 0.564409 0.632070 0.125173
Si Si3 0.061281 0.360667 0.785982
Si Si4 0.654727 0.000000 0.971389
Si Si5 0.810364 0.757956 0.806108
Si Si6 0.435628 0.000000 0.383352
O O1 0.540832 0.303951 0.688189
O O2 0.783043 0.308608 0.357894
O O3 0.775545 0.275459 0.657721
O O4 0.662497 0.112753 0.570951
O O5 0.577190 0.500000 0.161279
O O6 0.500000 0.638809 0.000000
O O7 0.714885 0.687915 0.994141
O O8 0.056939 0.500000 0.752885
O O9 0.965301 0.280372 0.744094
O O10 0.000000 0.347573 0.000000
O O11 0.750929 0.888736 0.867097
O O12 0.500000 0.000000 0.000000
O O13 0.583871 0.000000 0.185227
O O14 0.500000 0.000000 0.500000
#
# Coordination Sequence:
#
# PCOD9154523 Si02
#       6
#     4   4   4   2   4   2
#     4  11  22  41  66  95 127 170 219 266 318 382
#     4   9  17  31  59  95 121 153 209 268 318 368
#     4  11  27  46  62  91 137 177 215 266 326 388
#     4  12  20  43  68 101 133 163 211 275 324 381
#     4  11  21  39  68  94 127 169 215 270 320 378
#     4  12  26  41  66 101 137 169 209 267 330 391
#
# _framework density 20.777495999999999
#
# number of rings (size 3 to 8) (size 9 to 14) (size 15 to 20)
#    0.000    1.200    4.000    2.400    2.800    4.000 
#    0.000    3.000    0.000    4.800    0.000    0.000 
#    0.000    0.000    0.000    0.000    0.000    0.000 
#
# Total GULP energy -111555.310417 kJ/mol
# GULP energy per Si atom -5577.765521 kJ/mol
# Density = 2.073021 g / cm^3
# Si number density = 20.777496 Si / 1000 Ang^3
#
#
#
# Elastic Constant Matrix: (Units=GPa)
#
#
# Indices 1 2 3 4 5 6 
#
# 1 44.5032 5.9186 9.7936 0.0000 -6.0224 0.0000
# 2 5.9186 113.0889 39.4034 0.0000 -16.5933 0.0000
# 3 9.7936 39.4034 143.8299 0.0000 -15.7567 0.0000
# 4 0.0000 0.0000 0.0000 28.6353 0.0000 10.7754
# 5 -6.0224 -16.5933 -15.7567 0.0000 33.5441 0.0000
# 6 0.0000 0.0000 0.0000 10.7754 0.0000 21.6406
#
#
#
# Elastic Compliance Matrix: (Units=1/GPa)
#
#
# Indices 1 2 3 4 5 6 
#
# 1 0.023230 -0.000316 -0.001113 0.000000 0.003492 0.000000
# 2 -0.000316 0.010255 -0.002360 0.000000 0.003908 0.000000
# 3 -0.001113 -0.002360 0.007933 0.000000 0.002359 0.000000
# 4 0.000000 0.000000 0.000000 0.042974 0.000000 -0.021398
# 5 0.003492 0.003908 0.002359 0.000000 0.033480 0.000000
# 6 0.000000 0.000000 0.000000 -0.021398 0.000000 0.056864
#
#
# Mechanical properties :
#
#
# Convention : Reuss Voigt Hill
#
# Bulk Modulus (GPa) = 29.54969 45.73923 37.64446
# Shear Modulus (GPa) = 25.82753 33.18444 29.50598
#
# Velocity S-wave (km/s) = 3.52952 4.00075 3.77250
# Velocity P-wave (km/s) = 5.55544 6.58809 6.09368
#
# Compressibility (1/GPa) = 0.03384130
#
# Stress axis : x y z
#
# Youngs Moduli (GPa) = 43.04844 97.51641 126.04955
#
# Poissons Ratio (x) = 0.03079 0.14026
# Poissons Ratio (y) = 0.01359 0.29745
# Poissons Ratio (z) = 0.04790 0.23012
#
# Static dielectric constant tensor:
#      x y z
#    x 1.732970 0.000000 -0.024980 
#    y 0.000000 1.765960 0.000000 
#    z -0.024980 0.000000 1.647600 
# 
# From -- ./inp_files/23881.got.cif
#   From: 2010.05.17/outbox.cif.g08.bks.cpg/sg10_12_cif.got.tgz:23881.got - 2010.06.03 11:33:40.
