data_PCOD9154161
_publ_section_title
;
Structure prediction by ZEFSAII (Michael W. Deem and Ramdas Pophale) SiO2 
 PCOD9154161
Probable space group: P 2/M
;
_chemical_formula_sum "Si O2"
_cell_formula_units_Z 11
_cell_length_a 5.162925
_cell_length_b 16.624021
_cell_length_c 5.049968
_cell_angle_alpha 90.000000
_cell_angle_beta 93.481939
_cell_angle_gamma 90.000000
_cell_volume 432.631433
_symmetry_space_group_name_H-M "P 2/M"
_symmetry_group_IT_number 10
_symmetry_cell_setting 'monoclinic'
loop_
_space_group_symop_operation_xyz
x,y,z
-x,y,-z
-x,-y,-z
x,-y,z
loop_
_atom_site_type_symbol
_atom_site_label
_atom_site_fract_x
_atom_site_fract_y
_atom_site_fract_z
Si Si1 0.500000 0.500000 0.000000
Si Si2 0.776432 0.738732 0.173265
Si Si3 0.500000 0.376863 0.500000
Si Si4 0.310558 0.086390 0.739027
O O1 0.539875 0.430984 0.765530
O O2 0.725950 0.683689 0.424221
O O3 0.844632 0.830885 0.248925
O O4 0.500000 0.741253 0.000000
O O5 0.000000 0.705260 0.000000
O O6 0.500000 0.091456 0.500000
O O7 0.169117 0.000000 0.729943
O O8 0.500000 0.084764 0.000000
#
# Coordination Sequence:
#
# PCOD9154161 Si02
#       4
#     1   4   2   4
#     4  10  24  46  78 100 144 174 228 288 364 412
#     4  11  24  44  73 103 142 186 231 285 342 410
#     4  11  22  48  71 108 136 182 227 290 346 431
#     4   9  18  36  61  96 138 182 229 279 332 396
#
# _framework density 25.425799999999999
#
# number of rings (size 3 to 8) (size 9 to 14) (size 15 to 20)
#    0.000    1.818    3.636    0.000    0.000    2.182 
#    0.000    5.455    0.000   10.909    0.000    0.000 
#    0.000    0.000    0.000    0.000    0.000    0.000 
#
# Total GULP energy -61272.177598 kJ/mol
# GULP energy per Si atom -5570.197963 kJ/mol
# Density = 2.536793 g / cm^3
# Si number density = 25.425800 Si / 1000 Ang^3
#
#
#
# Elastic Constant Matrix: (Units=GPa)
#
#
# Indices 1 2 3 4 5 6 
#
# 1 105.2889 16.4066 61.1708 0.0000 -9.4198 0.0000
# 2 16.4066 239.6820 73.0772 0.0000 -26.5379 0.0000
# 3 61.1708 73.0772 275.3842 0.0000 -22.9877 0.0000
# 4 0.0000 0.0000 0.0000 56.2974 0.0000 -16.5771
# 5 -9.4198 -26.5379 -22.9877 0.0000 66.6034 0.0000
# 6 0.0000 0.0000 0.0000 -16.5771 0.0000 -24.8290
#
#
#
# Elastic Compliance Matrix: (Units=1/GPa)
#
#
# Indices 1 2 3 4 5 6 
#
# 1 0.010940 0.000061 -0.002384 0.000000 0.000749 0.000000
# 2 0.000061 0.004677 -0.001131 0.000000 0.001482 0.000000
# 3 -0.002384 -0.001131 0.004526 0.000000 0.000774 0.000000
# 4 0.000000 0.000000 0.000000 0.014844 0.000000 -0.009911
# 5 0.000749 0.001482 0.000774 0.000000 0.015978 0.000000
# 6 0.000000 0.000000 0.000000 -0.009911 0.000000 -0.033658
#
#
# Mechanical properties :
#
#
# Convention : Reuss Voigt Hill
#
# Bulk Modulus (GPa) = 75.55803 102.40716 88.98259
# Shear Modulus (GPa) = 174.66880 50.92772 112.79826
#
# Velocity S-wave (km/s) = 8.29739 4.48034 6.66783
# Velocity P-wave (km/s) = 11.02620 8.19322 9.71355
#
# Compressibility (1/GPa) = 0.01323486
#
# Stress axis : x y z
#
# Youngs Moduli (GPa) = 91.40688 213.81688 220.96919
#
# Poissons Ratio (x) = -0.01301 0.52673
# Poissons Ratio (y) = -0.00556 0.24989
# Poissons Ratio (z) = 0.21789 0.24181
#
# Static dielectric constant tensor:
#      x y z
#    x 1.486840 0.000000 -0.126500 
#    y 0.000000 2.059970 0.000000 
#    z -0.126500 0.000000 1.912910 
# 
# From -- ./inp_files/618.got.cif
#   From: 2010.05.17/outbox.cif.g08.bks.cpg/sg10_1_cif.got.tgz:618.got - 2010.06.03 11:33:40.
