data_PCOD9154889
_publ_section_title
;
Structure prediction by ZEFSAII (Michael W. Deem and Ramdas Pophale) SiO2 
 PCOD9154889
Probable space group: P 2/M
;
_chemical_formula_sum "Si O2"
_cell_formula_units_Z 32
_cell_length_a 23.978744
_cell_length_b 7.401951
_cell_length_c 13.916273
_cell_angle_alpha 90.000000
_cell_angle_beta 150.001614
_cell_angle_gamma 90.000000
_cell_volume 1234.935828
_symmetry_space_group_name_H-M "P 2/M"
_symmetry_group_IT_number 10
_symmetry_cell_setting 'monoclinic'
loop_
_space_group_symop_operation_xyz
x,y,z
-x,y,-z
-x,-y,-z
x,-y,z
loop_
_atom_site_type_symbol
_atom_site_label
_atom_site_fract_x
_atom_site_fract_y
_atom_site_fract_z
Si Si1 0.166536 0.211275 0.760650
Si Si2 0.758933 0.283920 0.637416
Si Si3 0.959344 0.790608 0.601068
Si Si4 0.317619 0.709392 0.675892
Si Si5 0.427576 0.288725 0.021687
Si Si6 0.519679 0.716338 0.351469
Si Si7 0.312115 0.783661 0.143909
Si Si8 0.880451 0.216079 0.001972
O O1 0.062838 0.209548 0.680618
O O2 0.133761 0.292001 0.608596
O O3 0.191827 0.000000 0.781002
O O4 0.259229 0.294952 0.966934
O O5 0.749491 0.500000 0.614131
O O6 0.754597 0.214242 0.520580
O O7 0.646308 0.217139 0.524807
O O8 0.862125 0.249997 0.862127
O O9 0.928544 0.000000 0.574137
O O10 0.011384 0.714242 0.777364
O O11 0.282950 0.500000 0.637352
O O12 0.445060 0.709546 0.827280
O O13 0.341073 0.792002 0.815903
O O14 0.397344 0.500000 0.986515
O O15 0.448472 0.205048 0.156173
O O16 0.526969 0.500000 0.352539
O O17 0.442975 0.749997 0.328921
O O18 0.232194 0.717139 0.110694
O O19 0.298609 0.000000 0.124186
O O20 0.884852 0.000000 0.020219
#
# Coordination Sequence:
#
# PCOD9154889 Si02
#       8
#     4   4   4   4   4   4   4   4
#     4   7  10  19  36  54  68  84 112 150 185 214
#     4   9  17  27  38  53  73  98 126 152 178 209
#     4   7  10  19  36  54  68  84 112 150 185 214
#     4   7  10  19  36  54  68  84 112 150 185 214
#     4   7  10  19  36  54  68  84 112 150 185 214
#     4   9  17  27  38  53  73  98 126 152 178 209
#     4   9  17  27  38  53  73  98 126 152 178 209
#     4   9  17  27  38  53  73  98 126 152 178 209
#
# _framework density 25.912277
#
# number of rings (size 3 to 8) (size 9 to 14) (size 15 to 20)
#    0.000    4.000    0.000    4.500    0.000    1.500 
#    0.000    2.500    0.000    1.500    0.000    7.000 
#    0.000    1.000    0.000   12.500    0.000    1.000 
#
# Total GULP energy -178161.830656 kJ/mol
# GULP energy per Si atom -5567.557208 kJ/mol
# Density = 2.585330 g / cm^3
# Si number density = 25.912277 Si / 1000 Ang^3
#
#
#
# Elastic Constant Matrix: (Units=GPa)
#
#
# Indices 1 2 3 4 5 6 
#
# 1 32.4389 -0.4907 52.9171 0.0000 11.3063 0.0000
# 2 -0.4907 98.1181 7.5712 0.0000 -4.1508 0.0000
# 3 52.9171 7.5712 200.7555 0.0000 -97.9607 0.0000
# 4 0.0000 0.0000 0.0000 -4.5843 0.0000 -21.5044
# 5 11.3063 -4.1508 -97.9607 0.0000 35.0219 0.0000
# 6 0.0000 0.0000 0.0000 -21.5044 0.0000 -46.3722
#
#
#
# Elastic Compliance Matrix: (Units=1/GPa)
#
#
# Indices 1 2 3 4 5 6 
#
# 1 0.007923 0.000309 0.009127 0.000000 0.023009 0.000000
# 2 0.000309 0.010232 -0.000208 0.000000 0.000531 0.000000
# 3 0.009127 -0.000208 -0.003106 0.000000 -0.011659 0.000000
# 4 0.000000 0.000000 0.000000 0.185594 0.000000 -0.086067
# 5 0.023009 0.000531 -0.011659 0.000000 -0.011423 0.000000
# 6 0.000000 0.000000 0.000000 -0.086067 0.000000 0.018348
#
#
# Mechanical properties :
#
#
# Convention : Reuss Voigt Hill
#
# Bulk Modulus (GPa) = 29.84616 50.14531 39.99573
# Shear Modulus (GPa) = 24.96505 14.90073 19.93289
#
# Velocity S-wave (km/s) = 3.10731 2.40061 2.77654
# Velocity P-wave (km/s) = 4.94135 5.20364 5.07419
#
# Compressibility (1/GPa) = 0.03350515
#
# Stress axis : x y z
#
# Youngs Moduli (GPa) = 126.21161 97.73387 -321.96170
#
# Poissons Ratio (x) = -0.03017 2.93862
# Poissons Ratio (y) = -0.03896 -0.06694
# Poissons Ratio (z) = -1.15196 0.02032
#
# Static dielectric constant tensor:
#      x y z
#    x 2.096510 0.000000 -0.009510 
#    y 0.000000 2.234920 0.000000 
#    z -0.009510 0.000000 2.114990 
# 
# From -- ./inp_files/72578.got.cif
#   From: 2010.05.17/outbox.cif.g08.bks.cpg/sg10_37_cif.got.tgz:72578.got - 2010.06.03 11:33:40.
