data_PCOD9154208
_publ_section_title
;
Structure prediction by ZEFSAII (Michael W. Deem and Ramdas Pophale) SiO2 
 PCOD9154208
Probable space group: P 2/M
;
_chemical_formula_sum "Si O2"
_cell_formula_units_Z 32
_cell_length_a 14.302747
_cell_length_b 13.116224
_cell_length_c 10.302780
_cell_angle_alpha 90.000000
_cell_angle_beta 57.373623
_cell_angle_gamma 90.000000
_cell_volume 1627.796648
_symmetry_space_group_name_H-M "P 2/M"
_symmetry_group_IT_number 10
_symmetry_cell_setting 'monoclinic'
loop_
_space_group_symop_operation_xyz
x,y,z
-x,y,-z
-x,-y,-z
x,-y,z
loop_
_atom_site_type_symbol
_atom_site_label
_atom_site_fract_x
_atom_site_fract_y
_atom_site_fract_z
Si Si1 0.407698 0.670181 0.668928
Si Si2 0.922569 0.829724 0.178956
Si Si3 0.155028 0.613248 0.847666
Si Si4 0.688773 0.888751 0.257041
Si Si5 0.065116 0.175591 0.320283
Si Si6 0.697194 0.887674 0.944385
Si Si7 0.149853 0.386902 0.162013
Si Si8 0.404143 0.329345 0.975846
O O1 0.500000 0.633470 0.500000
O O2 0.287738 0.620987 0.732045
O O3 0.387707 0.791348 0.662611
O O4 0.434497 0.655350 0.801338
O O5 0.899831 0.707625 0.184845
O O6 0.801456 0.878011 0.254126
O O7 0.987619 0.857128 0.259177
O O8 0.000000 0.858447 0.000000
O O9 0.116630 0.500000 0.839212
O O10 0.137173 0.628193 0.015782
O O11 0.637793 0.000000 0.315928
O O12 0.723454 0.881248 0.079118
O O13 0.186629 0.125839 0.217013
O O14 0.089603 0.296070 0.281190
O O15 0.000000 0.155136 0.500000
O O16 0.650064 0.000000 0.953526
O O17 0.618555 0.791100 0.980167
O O18 0.111398 0.500000 0.224644
O O19 0.282593 0.378200 0.086625
O O20 0.500000 0.366051 0.000000
#
# Coordination Sequence:
#
# PCOD9154208 Si02
#       8
#     4   4   4   4   4   4   4   4
#     4   9  18  34  53  75 106 134 161 205 262 305
#     4  11  18  33  55  78  98 132 178 207 243 301
#     4   9  18  33  55  79 101 130 173 214 246 295
#     4   9  18  33  55  79 101 130 173 214 246 295
#     4  11  22  35  51  74 108 140 164 206 260 299
#     4   9  18  35  55  75 101 135 173 209 249 302
#     4   9  18  35  55  75 101 135 173 209 249 302
#     4   9  18  34  55  76  98 134 173 207 247 299
#
# _framework density 19.658474999999999
#
# number of rings (size 3 to 8) (size 9 to 14) (size 15 to 20)
#    0.000    2.500    2.500    1.500    0.000    3.000 
#    9.000    0.000    0.000    0.000    0.000    0.000 
#    0.000    0.000    0.000    0.000    0.000    0.000 
#
# Total GULP energy -178614.271802 kJ/mol
# GULP energy per Si atom -5581.695994 kJ/mol
# Density = 1.961373 g / cm^3
# Si number density = 19.658475 Si / 1000 Ang^3
#
#
#
# Elastic Constant Matrix: (Units=GPa)
#
#
# Indices 1 2 3 4 5 6 
#
# 1 73.9725 -18.0738 31.6587 0.0000 2.9962 0.0000
# 2 -18.0738 72.3556 -9.8442 0.0000 1.7194 0.0000
# 3 31.6587 -9.8442 95.0368 0.0000 -5.7718 0.0000
# 4 0.0000 0.0000 0.0000 5.1153 0.0000 6.1200
# 5 2.9962 1.7194 -5.7718 0.0000 20.3437 0.0000
# 6 0.0000 0.0000 0.0000 6.1200 0.0000 -2.5578
#
#
#
# Elastic Compliance Matrix: (Units=1/GPa)
#
#
# Indices 1 2 3 4 5 6 
#
# 1 0.016941 0.003582 -0.005538 0.000000 -0.004369 0.000000
# 2 0.003582 0.014788 0.000235 0.000000 -0.001711 0.000000
# 3 -0.005538 0.000235 0.012658 0.000000 0.004387 0.000000
# 4 0.000000 0.000000 0.000000 0.050611 0.000000 0.121097
# 5 -0.004369 -0.001711 0.004387 0.000000 0.051188 0.000000
# 6 0.000000 0.000000 0.000000 0.121097 0.000000 -0.101217
#
#
# Mechanical properties :
#
#
# Convention : Reuss Voigt Hill
#
# Bulk Modulus (GPa) = 24.42330 27.64958 26.03644
# Shear Modulus (GPa) = 80.56866 20.42185 50.49526
#
# Velocity S-wave (km/s) = 6.40883 3.22659 5.07366
# Velocity P-wave (km/s) = 8.19847 5.28930 6.89897
#
# Compressibility (1/GPa) = 0.04094451
#
# Stress axis : x y z
#
# Youngs Moduli (GPa) = 59.02948 67.62250 79.00360
#
# Poissons Ratio (x) = -0.24223 0.43749
# Poissons Ratio (y) = -0.21145 -0.01854
# Poissons Ratio (z) = 0.32688 -0.01587
#
# Static dielectric constant tensor:
#      x y z
#    x 1.675940 0.000000 -0.005780 
#    y 0.000000 1.736170 0.000000 
#    z -0.005780 0.000000 1.643530 
# 
# From -- ./inp_files/29508.got.cif
#   From: 2010.05.17/outbox.cif.g08.bks.cpg/sg10_15_cif.got.tgz:29508.got - 2010.06.03 11:33:40.
