data_PCOD9154017
_publ_section_title
;
Structure prediction by ZEFSAII (Michael W. Deem and Ramdas Pophale) SiO2 
 PCOD9154017
Probable space group: P 2/M
;
_chemical_formula_sum "Si O2"
_cell_formula_units_Z 32
_cell_length_a 25.403323
_cell_length_b 8.318968
_cell_length_c 14.595881
_cell_angle_alpha 90.000000
_cell_angle_beta 150.402655
_cell_angle_gamma 90.000000
_cell_volume 1523.458783
_symmetry_space_group_name_H-M "P 2/M"
_symmetry_group_IT_number 10
_symmetry_cell_setting 'monoclinic'
loop_
_space_group_symop_operation_xyz
x,y,z
-x,y,-z
-x,-y,-z
x,-y,z
loop_
_atom_site_type_symbol
_atom_site_label
_atom_site_fract_x
_atom_site_fract_y
_atom_site_fract_z
Si Si1 0.466842 0.312287 0.045278
Si Si2 0.516807 0.806272 0.419360
Si Si3 0.890117 0.193683 0.378702
Si Si4 0.332494 0.307489 0.005302
Si Si5 0.977528 0.689601 0.071418
Si Si6 0.249803 0.185844 0.288232
Si Si7 0.705721 0.681327 0.457585
Si Si8 0.151450 0.809873 0.476348
O O1 0.437670 0.500000 0.982275
O O2 0.578416 0.313092 0.268235
O O3 0.500000 0.232961 0.000000
O O4 0.377679 0.241944 0.976143
O O5 0.500000 0.767065 0.500000
O O6 0.634672 0.749650 0.567597
O O7 0.516471 0.000000 0.408007
O O8 0.419258 0.740698 0.211982
O O9 0.786574 0.243840 0.164128
O O10 0.873900 0.249434 0.459448
O O11 0.000000 0.252482 0.500000
O O12 0.894746 0.000000 0.388342
O O13 0.330158 0.500000 0.996707
O O14 0.999833 0.500000 0.110171
O O15 0.053043 0.776188 0.258812
O O16 0.853652 0.722810 0.904015
O O17 0.000000 0.741747 0.000000
O O18 0.248957 0.201754 0.397157
O O19 0.241681 0.000000 0.248545
O O20 0.740413 0.500000 0.532981
O O21 0.749176 0.724168 0.423093
O O22 0.172151 0.000000 0.511502
#
# Coordination Sequence:
#
# PCOD9154017 Si02
#       8
#     4   4   4   4   4   4   4   4
#     4   9  18  32  53  84 121 159 193 232 295 365
#     4  10  23  43  65  90 125 168 208 249 304 365
#     4  10  24  46  67  88 121 165 208 253 307 364
#     4  11  22  39  65  95 125 159 203 255 306 357
#     4  11  23  38  59  87 123 166 203 248 313 372
#     4  11  22  37  60  87 118 158 205 252 297 356
#     4  11  20  34  57  85 124 161 193 242 307 368
#     4  11  23  39  62  91 121 159 209 258 302 360
#
# _framework density 21.004833999999999
#
# number of rings (size 3 to 8) (size 9 to 14) (size 15 to 20)
#    0.000    1.500    2.500    2.625    0.000    4.500 
#    0.000    5.000    0.000    3.000    0.000    0.000 
#    0.000    0.000    0.000    0.000    0.000    0.000 
#
# Total GULP energy -178782.907526 kJ/mol
# GULP energy per Si atom -5586.965860 kJ/mol
# Density = 2.095703 g / cm^3
# Si number density = 21.004834 Si / 1000 Ang^3
#
#
#
# Elastic Constant Matrix: (Units=GPa)
#
#
# Indices 1 2 3 4 5 6 
#
# 1 97.3443 4.5945 45.8344 0.0000 23.7678 0.0000
# 2 4.5945 18.5033 4.1375 0.0000 5.9576 0.0000
# 3 45.8344 4.1375 114.4766 0.0000 28.7060 0.0000
# 4 0.0000 0.0000 0.0000 348.6318 0.0000 -29.6382
# 5 23.7678 5.9576 28.7060 0.0000 36.4885 0.0000
# 6 0.0000 0.0000 0.0000 -29.6382 0.0000 15.9485
#
#
#
# Elastic Compliance Matrix: (Units=1/GPa)
#
#
# Indices 1 2 3 4 5 6 
#
# 1 0.013549 -0.000677 -0.004005 0.000000 -0.005564 0.000000
# 2 -0.000677 0.057088 0.000541 0.000000 -0.009306 0.000000
# 3 -0.004005 0.000541 0.012068 0.000000 -0.006974 0.000000
# 4 0.000000 0.000000 0.000000 0.003407 0.000000 0.006331
# 5 -0.005564 -0.009306 -0.006974 0.000000 0.038036 0.000000
# 6 0.000000 0.000000 0.000000 0.006331 0.000000 0.074466
#
#
# Mechanical properties :
#
#
# Convention : Reuss Voigt Hill
#
# Bulk Modulus (GPa) = 13.43673 37.71746 25.57710
# Shear Modulus (GPa) = 21.57931 91.93096 56.75513
#
# Velocity S-wave (km/s) = 3.20871 6.62281 5.20372
# Velocity P-wave (km/s) = 4.48760 8.74515 6.95040
#
# Compressibility (1/GPa) = 0.07442286
#
# Stress axis : x y z
#
# Youngs Moduli (GPa) = 73.80551 17.51691 82.86290
#
# Poissons Ratio (x) = 0.01186 0.33187
# Poissons Ratio (y) = 0.04999 -0.04485
# Poissons Ratio (z) = 0.29560 -0.00948
#
# Static dielectric constant tensor:
#      x y z
#    x 1.776700 0.000000 0.007930 
#    y 0.000000 1.722060 0.000000 
#    z 0.007930 0.000000 1.756780 
# 
# From -- ./inp_files/71599.got.cif
#   From: 2010.05.17/outbox.cif.g08.bks.cpg/sg10_36_cif.got.tgz:71599.got - 2010.06.03 11:33:40.
