data_PCOD9154697
_publ_section_title
;
Structure prediction by ZEFSAII (Michael W. Deem and Ramdas Pophale) SiO2 
 PCOD9154697
Probable space group: P 2/M
;
_chemical_formula_sum "Si O2"
_cell_formula_units_Z 30
_cell_length_a 11.196496
_cell_length_b 18.317788
_cell_length_c 14.170048
_cell_angle_alpha 90.000000
_cell_angle_beta 30.476714
_cell_angle_gamma 90.000000
_cell_volume 1473.993501
_symmetry_space_group_name_H-M "P 2/M"
_symmetry_group_IT_number 10
_symmetry_cell_setting 'monoclinic'
loop_
_space_group_symop_operation_xyz
x,y,z
-x,y,-z
-x,-y,-z
x,-y,z
loop_
_atom_site_type_symbol
_atom_site_label
_atom_site_fract_x
_atom_site_fract_y
_atom_site_fract_z
Si Si1 0.790716 0.687484 0.574277
Si Si2 0.428900 0.175618 0.353919
Si Si3 0.500000 0.198985 0.000000
Si Si4 0.842796 0.191367 0.201092
Si Si5 0.914693 0.702856 0.811058
Si Si6 0.074083 0.081920 0.700905
Si Si7 0.467168 0.918240 0.883101
Si Si8 0.546936 0.585549 0.081181
O O1 0.608918 0.753044 0.682748
O O2 0.662230 0.620850 0.714299
O O3 0.000000 0.711881 0.500000
O O4 0.908394 0.676456 0.391720
O O5 0.579341 0.199633 0.341506
O O6 0.184965 0.138898 0.552110
O O7 0.554496 0.113187 0.207180
O O8 0.707243 0.247838 0.904116
O O9 0.598761 0.143725 0.852985
O O10 0.854163 0.113888 0.246370
O O11 0.948870 0.249937 0.202956
O O12 0.000000 0.193608 0.000000
O O13 0.778676 0.633001 0.944604
O O14 0.162140 0.000000 0.624094
O O15 0.792789 0.079937 0.895243
O O16 0.566881 0.000000 0.818823
O O17 0.571549 0.500000 0.083675
O O18 0.500000 0.593833 0.000000
#
# Coordination Sequence:
#
# PCOD9154697 Si02
#       8
#     4   4   2   4   4   4   4   4
#     4  12  23  40  69  98 130 171 211 259 322 383
#     4  12  24  41  64  90 126 170 222 272 320 381
#     4  12  19  42  65  88 128 168 220 270 325 388
#     4  12  23  42  64  93 125 172 224 273 323 382
#     4  12  23  42  67  97 132 170 212 270 320 384
#     4  11  24  40  59  89 124 164 218 276 329 372
#     4  11  23  39  61  88 124 171 220 276 335 385
#     4  11  24  42  67 103 138 166 204 257 321 391
#
# _framework density 20.352872000000001
#
# number of rings (size 3 to 8) (size 9 to 14) (size 15 to 20)
#    0.000    0.400    6.000    3.400    0.000    2.667 
#    0.000    0.000    0.000    7.600    0.000    4.667 
#    0.000    0.000    0.000    0.000    0.000    0.000 
#
# Total GULP energy -167642.746069 kJ/mol
# GULP energy per Si atom -5588.091536 kJ/mol
# Density = 2.030655 g / cm^3
# Si number density = 20.352872 Si / 1000 Ang^3
#
#
#
# Elastic Constant Matrix: (Units=GPa)
#
#
# Indices 1 2 3 4 5 6 
#
# 1 87.3870 48.9736 18.9430 0.0000 5.6140 0.0000
# 2 48.9736 150.8264 37.0290 0.0000 1.0805 0.0000
# 3 18.9430 37.0290 84.0836 0.0000 13.9279 0.0000
# 4 0.0000 0.0000 0.0000 29.2688 0.0000 6.9455
# 5 5.6140 1.0805 13.9279 0.0000 28.9402 0.0000
# 6 0.0000 0.0000 0.0000 6.9455 0.0000 17.2754
#
#
#
# Elastic Compliance Matrix: (Units=1/GPa)
#
#
# Indices 1 2 3 4 5 6 
#
# 1 0.014237 -0.004381 -0.000921 0.000000 -0.002155 0.000000
# 2 -0.004381 0.008835 -0.003249 0.000000 0.002084 0.000000
# 3 -0.000921 -0.003249 0.014649 0.000000 -0.006750 0.000000
# 4 0.000000 0.000000 0.000000 0.037769 0.000000 -0.015185
# 5 -0.002155 0.002084 -0.006750 0.000000 0.038143 0.000000
# 6 0.000000 0.000000 0.000000 -0.015185 0.000000 0.063991
#
#
# Mechanical properties :
#
#
# Convention : Reuss Voigt Hill
#
# Bulk Modulus (GPa) = 48.49890 59.13201 53.81546
# Shear Modulus (GPa) = 24.80157 29.58699 27.19428
#
# Velocity S-wave (km/s) = 3.49460 3.81688 3.65929
# Velocity P-wave (km/s) = 6.33749 6.96715 6.65977
#
# Compressibility (1/GPa) = 0.02061903
#
# Stress axis : x y z
#
# Youngs Moduli (GPa) = 70.24094 113.18043 68.26205
#
# Poissons Ratio (x) = 0.49586 0.06287
# Poissons Ratio (y) = 0.30773 0.22179
# Poissons Ratio (z) = 0.06469 0.36774
#
# Static dielectric constant tensor:
#      x y z
#    x 1.753450 0.000000 0.013970 
#    y 0.000000 1.713660 0.000000 
#    z 0.013970 0.000000 1.811590 
# 
# From -- ./inp_files/65324.got.cif
#   From: 2010.05.17/outbox.cif.g08.bks.cpg/sg10_33_cif.got.tgz:65324.got - 2010.06.03 11:33:40.
