data_PCOD9154011
_publ_section_title
;
Structure prediction by ZEFSAII (Michael W. Deem and Ramdas Pophale) SiO2 
 PCOD9154011
Probable space group: P 2/M
;
_chemical_formula_sum "Si O2"
_cell_formula_units_Z 20
_cell_length_a 14.169883
_cell_length_b 12.045542
_cell_length_c 10.950028
_cell_angle_alpha 90.000000
_cell_angle_beta 147.872709
_cell_angle_gamma 90.000000
_cell_volume 993.934629
_symmetry_space_group_name_H-M "P 2/M"
_symmetry_group_IT_number 10
_symmetry_cell_setting 'monoclinic'
loop_
_space_group_symop_operation_xyz
x,y,z
-x,y,-z
-x,-y,-z
x,-y,z
loop_
_atom_site_type_symbol
_atom_site_label
_atom_site_fract_x
_atom_site_fract_y
_atom_site_fract_z
Si Si1 0.752347 0.240123 0.485374
Si Si2 0.262167 0.000000 0.845117
Si Si3 0.196394 0.751907 0.738483
Si Si4 0.931859 0.371239 0.062998
Si Si5 0.340892 0.000000 0.641329
Si Si6 0.414801 0.368565 0.187367
O O1 0.714944 0.245302 0.298572
O O2 0.735900 0.111240 0.500080
O O3 0.602816 0.307972 0.393691
O O4 0.943560 0.291534 0.721577
O O5 0.176602 0.878380 0.770264
O O6 0.293872 0.000000 0.733956
O O7 0.445486 0.000000 0.121026
O O8 0.000000 0.706729 0.500000
O O9 0.309799 0.678692 0.954698
O O10 0.957329 0.500000 0.129734
O O11 0.723855 0.346888 0.854675
O O12 0.000000 0.361415 0.000000
O O13 0.443657 0.500000 0.210261
#
# Coordination Sequence:
#
# PCOD9154011 Si02
#       6
#     4   2   4   4   2   4
#     4  11  21  38  60  87 119 153 187 234 285 340
#     4   9  17  32  52  83 119 155 194 227 263 341
#     4  11  20  34  56  88 122 154 188 230 283 345
#     4  10  23  43  63  83 109 147 200 248 283 334
#     4   9  18  32  57  84 118 152 191 226 275 340
#     4  11  23  37  58  87 116 152 189 231 294 347
#
# _framework density 20.122047999999999
#
# number of rings (size 3 to 8) (size 9 to 14) (size 15 to 20)
#    0.000    1.600    4.000    1.500    0.000    3.600 
#    0.000    4.500    0.000    1.200    0.000    0.000 
#    0.000    0.000    0.000    0.000    0.000    0.000 
#
# Total GULP energy -111642.454819 kJ/mol
# GULP energy per Si atom -5582.122741 kJ/mol
# Density = 2.007625 g / cm^3
# Si number density = 20.122048 Si / 1000 Ang^3
#
#
#
# Elastic Constant Matrix: (Units=GPa)
#
#
# Indices 1 2 3 4 5 6 
#
# 1 78.0278 39.0900 1.3298 0.0000 17.2367 0.0000
# 2 39.0900 96.3963 13.9082 0.0000 9.6261 0.0000
# 3 1.3298 13.9082 24.3354 0.0000 17.1969 0.0000
# 4 0.0000 0.0000 0.0000 19.9971 0.0000 14.1405
# 5 17.2367 9.6261 17.1969 0.0000 28.2399 0.0000
# 6 0.0000 0.0000 0.0000 14.1405 0.0000 13.7353
#
#
#
# Elastic Compliance Matrix: (Units=1/GPa)
#
#
# Indices 1 2 3 4 5 6 
#
# 1 0.022393 -0.009757 0.020469 0.000000 -0.022807 0.000000
# 2 -0.009757 0.015557 -0.015481 0.000000 0.010079 0.000000
# 3 0.020469 -0.015481 0.094654 0.000000 -0.064857 0.000000
# 4 0.000000 0.000000 0.000000 0.183842 0.000000 -0.189266
# 5 -0.022807 0.010079 -0.064857 0.000000 0.085391 0.000000
# 6 0.000000 0.000000 0.000000 -0.189266 0.000000 0.267655
#
#
# Mechanical properties :
#
#
# Convention : Reuss Voigt Hill
#
# Bulk Modulus (GPa) = 8.12557 34.15727 21.14142
# Shear Modulus (GPa) = 6.94396 22.02324 14.48360
#
# Velocity S-wave (km/s) = 1.85968 3.31189 2.68580
# Velocity P-wave (km/s) = 2.94247 5.62465 4.48859
#
# Compressibility (1/GPa) = 0.12306829
#
# Stress axis : x y z
#
# Youngs Moduli (GPa) = 44.65664 64.27840 10.56485
#
# Poissons Ratio (x) = 0.62713 -0.21626
# Poissons Ratio (y) = 0.43569 0.16355
# Poissons Ratio (z) = -0.91410 0.99508
#
# Static dielectric constant tensor:
#      x y z
#    x 1.759350 0.000000 0.024620 
#    y 0.000000 1.707900 0.000000 
#    z 0.024620 0.000000 1.692870 
# 
# From -- ./inp_files/46875.got.cif
#   From: 2010.05.17/outbox.cif.g08.bks.cpg/sg10_24_cif.got.tgz:46875.got - 2010.06.03 11:33:40.
