data_PCOD9154362
_publ_section_title
;
Structure prediction by ZEFSAII (Michael W. Deem and Ramdas Pophale) SiO2 
 PCOD9154362
Probable space group: P 2/M
;
_chemical_formula_sum "Si O2"
_cell_formula_units_Z 28
_cell_length_a 26.570651
_cell_length_b 9.073587
_cell_length_c 20.875386
_cell_angle_alpha 90.000000
_cell_angle_beta 160.886952
_cell_angle_gamma 90.000000
_cell_volume 1647.928165
_symmetry_space_group_name_H-M "P 2/M"
_symmetry_group_IT_number 10
_symmetry_cell_setting 'monoclinic'
loop_
_space_group_symop_operation_xyz
x,y,z
-x,y,-z
-x,-y,-z
x,-y,z
loop_
_atom_site_type_symbol
_atom_site_label
_atom_site_fract_x
_atom_site_fract_y
_atom_site_fract_z
Si Si1 0.083540 0.178558 0.500706
Si Si2 0.013392 0.169314 0.865237
Si Si3 0.552564 0.179241 0.258405
Si Si4 0.836519 0.331038 0.841742
Si Si5 0.854701 0.676142 0.561120
Si Si6 0.311886 0.831071 0.448563
Si Si7 0.234019 0.178147 0.811790
O O1 0.114578 0.259017 0.471943
O O2 0.201935 0.222020 0.699780
O O3 0.914978 0.217290 0.325455
O O4 0.090853 0.000000 0.501241
O O5 0.982078 0.264955 0.764603
O O6 0.851250 0.170847 0.709345
O O7 0.046495 0.000000 0.888536
O O8 0.137130 0.235731 0.062955
O O9 0.693763 0.256334 0.392496
O O10 0.566765 0.215234 0.351129
O O11 0.569522 0.000000 0.274008
O O12 0.392882 0.226027 0.034437
O O13 0.805422 0.500000 0.820480
O O14 0.712243 0.267039 0.642876
O O15 0.000000 0.326634 0.000000
O O16 0.849997 0.500000 0.555857
O O17 0.341165 0.000000 0.464854
O O18 0.237112 0.000000 0.814720
#
# Coordination Sequence:
#
# PCOD9154362 Si02
#       7
#     4   4   4   4   4   4   4
#     4   9  17  33  54  73  92 119 157 198 237 279
#     4   9  16  27  42  60  85 119 157 194 230 269
#     4   9  17  31  49  70  95 124 158 197 237 275
#     4   9  15  22  35  57  87 120 151 184 225 273
#     4  11  21  31  44  68 100 129 156 190 235 284
#     4   8  14  23  37  58  86 118 151 186 225 270
#     4   8  16  32  55  75  90 116 159 202 235 275
#
# _framework density 16.991032000000001
#
# number of rings (size 3 to 8) (size 9 to 14) (size 15 to 20)
#    0.000    3.000    0.000    3.857    0.000    5.714 
#    0.000    5.714    0.000    0.000    0.000    1.000 
#    0.000    8.000    0.000    0.000    0.000    0.000 
#
# Total GULP energy -155949.399563 kJ/mol
# GULP energy per Si atom -5569.621413 kJ/mol
# Density = 1.695236 g / cm^3
# Si number density = 16.991032 Si / 1000 Ang^3
#
#
#
# Elastic Constant Matrix: (Units=GPa)
#
#
# Indices 1 2 3 4 5 6 
#
# 1 59.0557 41.7512 86.6844 0.0000 -34.4623 0.0000
# 2 41.7512 78.7334 56.3779 0.0000 -22.5531 0.0000
# 3 86.6844 56.3779 82.4619 0.0000 -43.6817 0.0000
# 4 0.0000 0.0000 0.0000 3.2587 0.0000 -0.3228
# 5 -34.4623 -22.5531 -43.6817 0.0000 24.7337 0.0000
# 6 0.0000 0.0000 0.0000 -0.3228 0.0000 5.2466
#
#
#
# Elastic Compliance Matrix: (Units=1/GPa)
#
#
# Indices 1 2 3 4 5 6 
#
# 1 -0.001176 -0.012357 0.044173 0.000000 0.065106 0.000000
# 2 -0.012357 0.020178 -0.002788 0.000000 -0.003742 0.000000
# 3 0.044173 -0.002788 -0.017768 0.000000 0.027625 0.000000
# 4 0.000000 0.000000 0.000000 0.308754 0.000000 0.018997
# 5 0.065106 -0.003742 0.027625 0.000000 0.176522 0.000000
# 6 0.000000 0.000000 0.000000 0.018997 0.000000 0.191767
#
#
# Mechanical properties :
#
#
# Convention : Reuss Voigt Hill
#
# Bulk Modulus (GPa) = 16.86635 65.54200 41.20418
# Shear Modulus (GPa) = 7.81269 9.01030 8.41149
#
# Velocity S-wave (km/s) = 2.14665 2.30532 2.22740
# Velocity P-wave (km/s) = 4.01152 6.76344 5.56042
#
# Compressibility (1/GPa) = 0.05928965
#
# Stress axis : x y z
#
# Youngs Moduli (GPa) = -850.17597 49.55813 -56.28064
#
# Poissons Ratio (x) = 0.61239 2.48607
# Poissons Ratio (y) = -10.50566 -0.15690
# Poissons Ratio (z) = 37.55463 0.13816
#
# Static dielectric constant tensor:
#      x y z
#    x 1.556690 0.000000 -0.018590 
#    y 0.000000 1.564400 0.000000 
#    z -0.018590 0.000000 1.591370 
# 
# From -- ./inp_files/68693.got.cif
#   From: 2010.05.17/outbox.cif.g08.bks.cpg/sg10_35_cif.got.tgz:68693.got - 2010.06.03 11:33:40.
