data_PCOD9154554
_publ_section_title
;
Structure prediction by ZEFSAII (Michael W. Deem and Ramdas Pophale) SiO2 
 PCOD9154554
Probable space group: P 2/M
;
_chemical_formula_sum "Si O2"
_cell_formula_units_Z 20
_cell_length_a 13.757481
_cell_length_b 18.171132
_cell_length_c 15.684860
_cell_angle_alpha 90.000000
_cell_angle_beta 19.461880
_cell_angle_gamma 90.000000
_cell_volume 1306.411486
_symmetry_space_group_name_H-M "P 2/M"
_symmetry_group_IT_number 10
_symmetry_cell_setting 'monoclinic'
loop_
_space_group_symop_operation_xyz
x,y,z
-x,y,-z
-x,-y,-z
x,-y,z
loop_
_atom_site_type_symbol
_atom_site_label
_atom_site_fract_x
_atom_site_fract_y
_atom_site_fract_z
Si Si1 0.317792 0.588519 0.394078
Si Si2 0.181258 0.085175 0.439580
Si Si3 0.335176 0.589521 0.721608
Si Si4 0.678810 0.657912 0.940405
Si Si5 0.680654 0.170487 0.939782
O O1 0.307565 0.500000 0.397480
O O2 0.491879 0.609697 0.336042
O O3 0.991371 0.619818 0.669553
O O4 0.491344 0.619823 0.169571
O O5 0.000000 0.085337 0.500000
O O6 0.979708 0.128019 0.673281
O O7 0.227595 0.000000 0.424137
O O8 0.479264 0.128017 0.173725
O O9 0.500000 0.614354 0.500000
O O10 0.330851 0.500000 0.723049
O O11 0.000000 0.614354 0.000000
O O12 0.722636 0.744006 0.925791
O O13 0.500000 0.653336 0.000000
O O14 0.500000 0.168943 0.000000
#
# Coordination Sequence:
#
# PCOD9154554 Si02
#       5
#     4   4   4   4   4
#     4  11  22  34  49  68  87 115 160 201 233 271
#     4   9  15  24  40  60  79 102 141 189 223 252
#     4   9  17  31  50  69  87 105 133 184 244 293
#     4  11  22  34  46  62  91 129 163 193 223 259
#     4   9  17  28  40  56  81 114 149 181 217 260
#
# _framework density 15.309111
#
# number of rings (size 3 to 8) (size 9 to 14) (size 15 to 20)
#    0.000    2.200    0.000    4.200    0.000   11.200 
#    0.000    0.000    0.000    0.000    0.000    0.000 
#    0.000    0.000    0.000    0.000    0.000  252.000 
#
# Total GULP energy -111549.447802 kJ/mol
# GULP energy per Si atom -5577.472390 kJ/mol
# Density = 1.527427 g / cm^3
# Si number density = 15.309111 Si / 1000 Ang^3
#
#
#
# Elastic Constant Matrix: (Units=GPa)
#
#
# Indices 1 2 3 4 5 6 
#
# 1 82.9599 42.7987 66.6793 0.0000 8.4453 0.0000
# 2 42.7987 119.6496 79.1828 0.0000 13.4236 0.0000
# 3 66.6793 79.1828 175.7062 0.0000 25.7654 0.0000
# 4 0.0000 0.0000 0.0000 23.4074 0.0000 8.5107
# 5 8.4453 13.4236 25.7654 0.0000 25.9716 0.0000
# 6 0.0000 0.0000 0.0000 8.5107 0.0000 0.3181
#
#
#
# Elastic Compliance Matrix: (Units=1/GPa)
#
#
# Indices 1 2 3 4 5 6 
#
# 1 0.017985 -0.002759 -0.005773 0.000000 0.001305 0.000000
# 2 -0.002759 0.012354 -0.004348 0.000000 -0.001174 0.000000
# 3 -0.005773 -0.004348 0.010809 0.000000 -0.006599 0.000000
# 4 0.000000 0.000000 0.000000 -0.004894 0.000000 0.130959
# 5 0.001305 -0.001174 -0.006599 0.000000 0.045233 0.000000
# 6 0.000000 0.000000 0.000000 0.130959 0.000000 -0.360182
#
#
# Mechanical properties :
#
#
# Convention : Reuss Voigt Hill
#
# Bulk Modulus (GPa) = 64.98767 83.95971 74.47369
# Shear Modulus (GPa) = -20.17708 22.58309 1.20300
#
# Velocity S-wave (km/s) = -3.63434 3.84492 0.88742
# Velocity P-wave (km/s) = 4.99312 8.64137 7.05707
#
# Compressibility (1/GPa) = 0.01538753
#
# Stress axis : x y z
#
# Youngs Moduli (GPa) = 55.60307 80.94589 92.51283
#
# Poissons Ratio (x) = 0.22333 0.53408
# Poissons Ratio (y) = 0.15341 0.40226
# Poissons Ratio (z) = 0.32100 0.35196
#
# Static dielectric constant tensor:
#      x y z
#    x 1.481770 0.000000 0.008340 
#    y 0.000000 1.496450 0.000000 
#    z 0.008340 0.000000 1.504380 
# 
# From -- ./inp_files/6647.got.cif
#   From: 2010.05.17/outbox.cif.g08.bks.cpg/sg10_4_cif.got.tgz:6647.got - 2010.06.03 11:33:40.
