data_PCOD9154253
_publ_section_title
;
Structure prediction by ZEFSAII (Michael W. Deem and Ramdas Pophale) SiO2 
 PCOD9154253
Probable space group: P 2/M
;
_chemical_formula_sum "Si O2"
_cell_formula_units_Z 32
_cell_length_a 20.392965
_cell_length_b 8.862823
_cell_length_c 13.938605
_cell_angle_alpha 90.000000
_cell_angle_beta 58.437154
_cell_angle_gamma 90.000000
_cell_volume 2146.571068
_symmetry_space_group_name_H-M "P 2/M"
_symmetry_group_IT_number 10
_symmetry_cell_setting 'monoclinic'
loop_
_space_group_symop_operation_xyz
x,y,z
-x,y,-z
-x,-y,-z
x,-y,z
loop_
_atom_site_type_symbol
_atom_site_label
_atom_site_fract_x
_atom_site_fract_y
_atom_site_fract_z
Si Si1 0.557576 0.821277 0.167581
Si Si2 0.320622 0.680437 0.054951
Si Si3 0.167411 0.181971 0.483226
Si Si4 0.169395 0.183385 0.257175
Si Si5 0.418484 0.324228 0.168765
Si Si6 0.318110 0.675980 0.438047
Si Si7 0.526813 0.682345 0.586304
Si Si8 0.000302 0.825081 0.383243
O O1 0.491398 0.774747 0.141704
O O2 0.527373 0.754079 0.291142
O O3 0.564152 0.000000 0.168189
O O4 0.636415 0.748366 0.069738
O O5 0.315830 0.500000 0.051900
O O6 0.237674 0.749540 0.142097
O O7 0.374684 0.717156 0.105537
O O8 0.180009 0.226369 0.361620
O O9 0.238249 0.237163 0.492259
O O10 0.082965 0.240277 0.580069
O O11 0.164546 0.000000 0.485980
O O12 0.083865 0.237594 0.291807
O O13 0.170815 0.000000 0.252412
O O14 0.443389 0.500000 0.143718
O O15 0.358842 0.312724 0.302585
O O16 0.302604 0.500000 0.468739
O O17 0.384957 0.729421 0.459219
O O18 0.500000 0.719747 0.500000
O O19 0.524445 0.500000 0.600198
O O20 0.000000 0.826199 0.500000
O O21 0.000419 0.000000 0.351880
#
# Coordination Sequence:
#
# PCOD9154253 Si02
#       8
#     4   4   4   4   4   4   4   4
#     4  11  22  32  45  66  87 108 142 184 222 257
#     4  11  20  30  43  59  86 120 152 182 214 256
#     4   9  15  24  40  60  84 115 149 181 215 255
#     4   9  16  26  40  58  83 116 154 187 214 245
#     4   9  18  31  43  57  84 120 151 179 214 254
#     4   9  16  27  43  65  87 110 143 181 217 252
#     4   9  19  37  55  66  83 114 145 174 218 271
#     4   7  12  23  37  54  79 114 150 181 212 249
#
# _framework density 14.907495000000001
#
# number of rings (size 3 to 8) (size 9 to 14) (size 15 to 20)
#    0.000    2.750    1.250    4.125    0.000    4.750 
#    0.000    0.625    0.000    2.250    0.000    0.000 
#    0.000    1.000    0.000   11.500    0.000    3.500 
#
# Total GULP energy -178211.523153 kJ/mol
# GULP energy per Si atom -5569.110099 kJ/mol
# Density = 1.487357 g / cm^3
# Si number density = 14.907495 Si / 1000 Ang^3
#
#
#
# Elastic Constant Matrix: (Units=GPa)
#
#
# Indices 1 2 3 4 5 6 
#
# 1 116.1048 34.5722 65.9527 0.0000 -21.6153 0.0000
# 2 34.5722 25.1064 28.8595 0.0000 -11.8562 0.0000
# 3 65.9527 28.8595 68.3735 0.0000 -21.5439 0.0000
# 4 0.0000 0.0000 0.0000 138.2738 0.0000 -74.8942
# 5 -21.6153 -11.8562 -21.5439 0.0000 25.0640 0.0000
# 6 0.0000 0.0000 0.0000 -74.8942 0.0000 59.4838
#
#
#
# Elastic Compliance Matrix: (Units=1/GPa)
#
#
# Indices 1 2 3 4 5 6 
#
# 1 0.020426 -0.010792 -0.015368 0.000000 -0.000699 0.000000
# 2 -0.010792 0.085654 -0.021819 0.000000 0.012456 0.000000
# 3 -0.015368 -0.021819 0.042831 0.000000 0.013241 0.000000
# 4 0.000000 0.000000 0.000000 0.022739 0.000000 0.028630
# 5 -0.000699 0.012456 0.013241 0.000000 0.056569 0.000000
# 6 0.000000 0.000000 0.000000 0.028630 0.000000 0.052859
#
#
# Mechanical properties :
#
#
# Convention : Reuss Voigt Hill
#
# Bulk Modulus (GPa) = 18.88448 52.03928 35.46188
# Shear Modulus (GPa) = 12.66836 49.91102 31.28969
#
# Velocity S-wave (km/s) = 2.91829 5.79251 4.58637
# Velocity P-wave (km/s) = 4.90413 8.92869 7.20319
#
# Compressibility (1/GPa) = 0.05295355
#
# Stress axis : x y z
#
# Youngs Moduli (GPa) = 48.95760 11.67493 23.34775
#
# Poissons Ratio (x) = 0.12600 0.35880
# Poissons Ratio (y) = 0.52835 0.50941
# Poissons Ratio (z) = 0.75237 0.25473
#
# Static dielectric constant tensor:
#      x y z
#    x 1.513730 0.000000 -0.024460 
#    y 0.000000 1.502430 0.000000 
#    z -0.024460 0.000000 1.482310 
# 
# From -- ./inp_files/56435.got.cif
#   From: 2010.05.17/outbox.cif.g08.bks.cpg/sg10_29_cif.got.tgz:56435.got - 2010.06.03 11:33:40.
