data_PCOD9154570
_publ_section_title
;
Structure prediction by ZEFSAII (Michael W. Deem and Ramdas Pophale) SiO2 
 PCOD9154570
Probable space group: P 2/M
;
_chemical_formula_sum "Si O2"
_cell_formula_units_Z 28
_cell_length_a 17.027658
_cell_length_b 7.948943
_cell_length_c 19.530636
_cell_angle_alpha 90.000000
_cell_angle_beta 35.599600
_cell_angle_gamma 90.000000
_cell_volume 1538.831930
_symmetry_space_group_name_H-M "P 2/M"
_symmetry_group_IT_number 10
_symmetry_cell_setting 'monoclinic'
loop_
_space_group_symop_operation_xyz
x,y,z
-x,y,-z
-x,-y,-z
x,-y,z
loop_
_atom_site_type_symbol
_atom_site_label
_atom_site_fract_x
_atom_site_fract_y
_atom_site_fract_z
Si Si1 0.225751 0.000000 0.835033
Si Si2 0.935961 0.803784 0.474420
Si Si3 0.367742 0.304879 0.305481
Si Si4 0.411552 0.193724 0.124943
Si Si5 0.862647 0.697087 0.915083
Si Si6 0.365422 0.698243 0.806372
Si Si7 0.837703 0.305832 0.775809
Si Si8 0.995788 0.000000 0.116440
O O1 0.310741 0.831033 0.789867
O O2 0.148985 0.000000 0.817272
O O3 0.107695 0.000000 0.976424
O O4 0.775381 0.785922 0.588161
O O5 0.000000 0.735590 0.500000
O O6 0.010440 0.715723 0.358559
O O7 0.970295 0.000000 0.446164
O O8 0.340931 0.500000 0.337538
O O9 0.421443 0.284875 0.189973
O O10 0.486220 0.251136 0.272605
O O11 0.259044 0.202349 0.205537
O O12 0.452193 0.000000 0.107002
O O13 0.500000 0.265085 0.000000
O O14 0.906295 0.500000 0.884673
O O15 0.823312 0.741707 0.865232
O O16 0.735708 0.709835 0.056551
O O17 0.972466 0.831313 0.863265
O O18 0.365336 0.500000 0.785773
O O19 0.797304 0.500000 0.797313
#
# Coordination Sequence:
#
# PCOD9154570 Si02
#       8
#     2   4   4   4   4   4   4   2
#     4   9  18  32  54  82 111 144 174 206 259 327
#     4  11  23  37  53  73 100 137 182 229 271 311
#     4  11  22  36  54  74 102 140 181 223 267 311
#     4  11  23  34  49  74 103 139 179 219 264 313
#     4   9  19  34  53  80 112 142 175 219 265 315
#     4   9  19  34  53  80 112 142 175 219 265 315
#     4  11  22  36  54  74 102 140 181 223 267 311
#     4   9  18  32  54  82 111 144 174 206 259 327
#
# _framework density 18.195620000000002
#
# number of rings (size 3 to 8) (size 9 to 14) (size 15 to 20)
#    0.000    1.857    1.429    2.571    4.000    3.429 
#    0.000    2.857    0.000    0.000    0.000    2.000 
#    0.000    4.571    0.000    0.000    0.000    0.000 
#
# Total GULP energy -156250.297556 kJ/mol
# GULP energy per Si atom -5580.367770 kJ/mol
# Density = 1.815421 g / cm^3
# Si number density = 18.195620 Si / 1000 Ang^3
#
#
#
# Elastic Constant Matrix: (Units=GPa)
#
#
# Indices 1 2 3 4 5 6 
#
# 1 85.6299 40.7614 -1.3730 0.0000 -27.2240 0.0000
# 2 40.7614 59.7051 1.4139 0.0000 -10.9874 0.0000
# 3 -1.3730 1.4139 38.2525 0.0000 -16.7600 0.0000
# 4 0.0000 0.0000 0.0000 4.9845 0.0000 -10.0407
# 5 -27.2240 -10.9874 -16.7600 0.0000 20.4692 0.0000
# 6 0.0000 0.0000 0.0000 -10.0407 0.0000 12.5815
#
#
#
# Elastic Compliance Matrix: (Units=1/GPa)
#
#
# Indices 1 2 3 4 5 6 
#
# 1 0.050758 -0.018575 0.043225 0.000000 0.092929 0.000000
# 2 -0.018575 0.026229 -0.009812 0.000000 -0.018660 0.000000
# 3 0.043225 -0.009812 0.079433 0.000000 0.117261 0.000000
# 4 0.000000 0.000000 0.000000 -0.330191 0.000000 -0.263510
# 5 0.092929 -0.018660 0.117261 0.000000 0.258446 0.000000
# 6 0.000000 0.000000 0.000000 -0.263510 0.000000 -0.130813
#
#
# Mechanical properties :
#
#
# Convention : Reuss Voigt Hill
#
# Bulk Modulus (GPa) = 5.37360 29.46581 17.41970
# Shear Modulus (GPa) = -362.82037 17.12604 -172.84717
#
# Velocity S-wave (km/s) = -14.13622 3.07126 -9.75705
# Velocity P-wave (km/s) = 16.23219 5.36711 10.83232
#
# Compressibility (1/GPa) = 0.18609494
#
# Stress axis : x y z
#
# Youngs Moduli (GPa) = 19.70132 38.12576 12.58922
#
# Poissons Ratio (x) = 0.70820 -0.54416
# Poissons Ratio (y) = 0.36596 0.12352
# Poissons Ratio (z) = -0.85158 0.37408
#
# Static dielectric constant tensor:
#      x y z
#    x 1.609290 0.000000 -0.020610 
#    y 0.000000 1.628200 0.000000 
#    z -0.020610 0.000000 1.637740 
# 
# From -- ./inp_files/68725.got.cif
#   From: 2010.05.17/outbox.cif.g08.bks.cpg/sg10_35_cif.got.tgz:68725.got - 2010.06.03 11:33:40.
