data_PCOD9154461
_publ_section_title
;
Structure prediction by ZEFSAII (Michael W. Deem and Ramdas Pophale) SiO2 
 PCOD9154461
Probable space group: P 2/M
;
_chemical_formula_sum "Si O2"
_cell_formula_units_Z 28
_cell_length_a 18.760008
_cell_length_b 8.057742
_cell_length_c 8.546775
_cell_angle_alpha 90.000000
_cell_angle_beta 76.756183
_cell_angle_gamma 90.000000
_cell_volume 1257.597799
_symmetry_space_group_name_H-M "P 2/M"
_symmetry_group_IT_number 10
_symmetry_cell_setting 'monoclinic'
loop_
_space_group_symop_operation_xyz
x,y,z
-x,y,-z
-x,-y,-z
x,-y,z
loop_
_atom_site_type_symbol
_atom_site_label
_atom_site_fract_x
_atom_site_fract_y
_atom_site_fract_z
Si Si1 0.909870 0.807031 0.826430
Si Si2 0.170215 0.305778 0.392217
Si Si3 0.331920 0.296750 0.399008
Si Si4 0.336263 0.297182 0.753650
Si Si5 0.169372 0.691712 0.858018
Si Si6 0.068008 0.805973 0.666076
Si Si7 0.585035 0.297701 0.962762
O O1 0.837969 0.720570 0.789843
O O2 0.990145 0.733521 0.752133
O O3 0.910723 0.000000 0.787902
O O4 0.892149 0.789814 0.017634
O O5 0.165600 0.500000 0.422907
O O6 0.247898 0.240892 0.413274
O O7 0.093698 0.214618 0.474819
O O8 0.331682 0.500000 0.399006
O O9 0.357179 0.247111 0.563128
O O10 0.376455 0.244791 0.220493
O O11 0.338137 0.500000 0.751093
O O12 0.251847 0.245010 0.820346
O O13 0.380452 0.243436 0.887035
O O14 0.169175 0.500000 0.903351
O O15 0.137267 0.708963 0.700956
O O16 0.069620 0.000000 0.703174
O O17 0.589461 0.500000 0.961154
O O18 0.500000 0.250405 0.000000
#
# Coordination Sequence:
#
# PCOD9154461 Si02
#       7
#     4   4   4   4   4   4   4
#     4  11  24  38  52  76 111 148 183 235 302 343
#     4  11  21  36  57  79 105 145 194 236 280 339
#     4   9  17  31  50  75 109 145 184 233 281 325
#     4   9  17  31  50  75 109 145 184 233 281 325
#     4  11  21  36  57  79 105 145 194 236 280 339
#     4  11  23  38  54  76 111 146 181 237 297 343
#     4   9  17  28  46  76 113 151 183 213 270 349
#
# _framework density 22.264669999999999
#
# number of rings (size 3 to 8) (size 9 to 14) (size 15 to 20)
#    0.000    1.857    1.429    3.429    0.000    8.571 
#    0.000    2.857    0.000    0.000    0.000    0.000 
#    0.000   21.714    0.000    0.000    0.000    0.000 
#
# Total GULP energy -155986.455984 kJ/mol
# GULP energy per Si atom -5570.944857 kJ/mol
# Density = 2.221399 g / cm^3
# Si number density = 22.264670 Si / 1000 Ang^3
#
#
#
# Elastic Constant Matrix: (Units=GPa)
#
#
# Indices 1 2 3 4 5 6 
#
# 1 145.1709 11.3446 87.3810 0.0000 8.7449 0.0000
# 2 11.3446 25.0528 11.0469 0.0000 -0.7283 0.0000
# 3 87.3810 11.0469 122.9722 0.0000 -16.0970 0.0000
# 4 0.0000 0.0000 0.0000 38.4379 0.0000 -22.1142
# 5 8.7449 -0.7283 -16.0970 0.0000 35.0981 0.0000
# 6 0.0000 0.0000 0.0000 -22.1142 0.0000 78.3204
#
#
#
# Elastic Compliance Matrix: (Units=1/GPa)
#
#
# Indices 1 2 3 4 5 6 
#
# 1 0.014216 -0.001807 -0.011072 0.000000 -0.008658 0.000000
# 2 -0.001807 0.041819 -0.002447 0.000000 0.000196 0.000000
# 3 -0.011072 -0.002447 0.017633 0.000000 0.010795 0.000000
# 4 0.000000 0.000000 0.000000 0.031062 0.000000 0.008770
# 5 -0.008658 0.000196 0.010795 0.000000 0.035604 0.000000
# 6 0.000000 0.000000 0.000000 0.008770 0.000000 0.015244
#
#
# Mechanical properties :
#
#
# Convention : Reuss Voigt Hill
#
# Bulk Modulus (GPa) = 23.24807 56.97119 40.10963
# Shear Modulus (GPa) = 24.92926 42.59951 33.76438
#
# Velocity S-wave (km/s) = 3.34979 4.37890 3.89845
# Velocity P-wave (km/s) = 5.04240 7.15612 6.19015
#
# Compressibility (1/GPa) = 0.04301432
#
# Stress axis : x y z
#
# Youngs Moduli (GPa) = 70.34435 23.91277 56.71337
#
# Poissons Ratio (x) = 0.04320 0.62795
# Poissons Ratio (y) = 0.12709 0.13879
# Poissons Ratio (z) = 0.77888 0.05852
#
# Static dielectric constant tensor:
#      x y z
#    x 1.781330 0.000000 0.003910 
#    y 0.000000 1.753440 0.000000 
#    z 0.003910 0.000000 1.859950 
# 
# From -- ./inp_files/31512.got.cif
#   From: 2010.05.17/outbox.cif.g08.bks.cpg/sg10_16_cif.got.tgz:31512.got - 2010.06.03 11:33:40.
