data_PCOD9154939
_publ_section_title
;
Structure prediction by ZEFSAII (Michael W. Deem and Ramdas Pophale) SiO2 
 PCOD9154939
Probable space group: P 2/M
;
_chemical_formula_sum "Si O2"
_cell_formula_units_Z 32
_cell_length_a 25.742210
_cell_length_b 10.399933
_cell_length_c 22.188679
_cell_angle_alpha 90.000000
_cell_angle_beta 15.977792
_cell_angle_gamma 90.000000
_cell_volume 1635.153068
_symmetry_space_group_name_H-M "P 2/M"
_symmetry_group_IT_number 10
_symmetry_cell_setting 'monoclinic'
loop_
_space_group_symop_operation_xyz
x,y,z
-x,y,-z
-x,-y,-z
x,-y,z
loop_
_atom_site_type_symbol
_atom_site_label
_atom_site_fract_x
_atom_site_fract_y
_atom_site_fract_z
Si Si1 0.033852 0.643951 0.144437
Si Si2 0.356433 0.146714 0.070527
Si Si3 0.215326 0.855515 0.856633
Si Si4 0.210335 0.853290 0.362740
Si Si5 0.893799 0.352605 0.429103
Si Si6 0.539699 0.352606 0.137370
Si Si7 0.390565 0.643952 0.431117
Si Si8 0.640692 0.855511 0.431287
O O1 0.116480 0.500000 0.045396
O O2 0.024979 0.677608 0.225156
O O3 0.816918 0.635295 0.366113
O O4 0.123080 0.749728 0.001888
O O5 0.573637 0.148080 0.852715
O O6 0.346599 0.250071 0.028566
O O7 0.317408 0.000000 0.094738
O O8 0.229292 0.176567 0.270729
O O9 0.431479 0.862426 0.637023
O O10 0.222861 0.822711 0.777130
O O11 0.134674 0.000000 0.953333
O O12 0.096928 0.749924 0.527946
O O13 0.141678 0.000000 0.446218
O O14 0.930997 0.500000 0.406204
O O15 0.676315 0.349651 0.647339
O O16 0.605501 0.500000 0.057265
O O17 0.525365 0.322374 0.224462
O O18 0.440386 0.500000 0.397696
O O19 0.373145 0.749733 0.501859
O O20 0.689223 0.000000 0.398808
#
# Coordination Sequence:
#
# PCOD9154939 Si02
#       8
#     4   4   4   4   4   4   4   4
#     4   9  18  31  46  67  94 120 148 184 223 264
#     4   8  13  20  30  47  73 105 141 178 212 248
#     4   9  19  35  51  67  89 116 147 184 223 264
#     4   8  13  20  30  47  73 105 141 178 212 248
#     4   8  14  24  36  52  78 110 141 174 212 253
#     4   8  14  24  36  52  78 110 141 174 212 253
#     4   9  18  31  46  67  94 120 148 184 223 264
#     4   9  19  35  51  67  89 116 147 184 223 264
#
# _framework density 19.570032999999999
#
# number of rings (size 3 to 8) (size 9 to 14) (size 15 to 20)
#    0.000    3.500    0.000    3.000    0.000    3.500 
#    0.000    8.750    0.000    0.000    0.000    0.000 
#    0.000    1.000    0.000   11.000    0.000   18.000 
#
# Total GULP energy -178337.750106 kJ/mol
# GULP energy per Si atom -5573.054691 kJ/mol
# Density = 1.952549 g / cm^3
# Si number density = 19.570033 Si / 1000 Ang^3
#
#
#
# Elastic Constant Matrix: (Units=GPa)
#
#
# Indices 1 2 3 4 5 6 
#
# 1 110.1797 85.0600 13.4408 0.0000 37.6777 0.0000
# 2 85.0600 188.4462 95.9103 0.0000 84.5073 0.0000
# 3 13.4408 95.9103 119.9716 0.0000 38.5056 0.0000
# 4 0.0000 0.0000 0.0000 33.4013 0.0000 15.3069
# 5 37.6777 84.5073 38.5056 0.0000 57.2029 0.0000
# 6 0.0000 0.0000 0.0000 15.3069 0.0000 31.4448
#
#
#
# Elastic Compliance Matrix: (Units=1/GPa)
#
#
# Indices 1 2 3 4 5 6 
#
# 1 0.016957 -0.012284 0.007247 0.000000 0.002101 0.000000
# 2 -0.012284 0.029992 -0.014002 0.000000 -0.026792 0.000000
# 3 0.007247 -0.014002 0.017361 0.000000 0.004226 0.000000
# 4 0.000000 0.000000 0.000000 0.038536 0.000000 -0.018759
# 5 0.002101 -0.026792 0.004226 0.000000 0.052834 0.000000
# 6 0.000000 0.000000 0.000000 -0.018759 0.000000 0.040933
#
#
# Mechanical properties :
#
#
# Convention : Reuss Voigt Hill
#
# Bulk Modulus (GPa) = 38.12257 89.71329 63.91793
# Shear Modulus (GPa) = 20.53924 39.35556 29.94740
#
# Velocity S-wave (km/s) = 3.24315 4.48930 3.91611
# Velocity P-wave (km/s) = 5.79193 8.53308 7.29246
#
# Compressibility (1/GPa) = 0.02623118
#
# Stress axis : x y z
#
# Youngs Moduli (GPa) = 58.97132 33.34168 57.60113
#
# Poissons Ratio (x) = 0.40959 -0.41741
# Poissons Ratio (y) = 0.72443 0.80652
# Poissons Ratio (z) = -0.42734 0.46685
#
# Static dielectric constant tensor:
#      x y z
#    x 1.712480 0.000000 -0.039250 
#    y 0.000000 1.673790 0.000000 
#    z -0.039250 0.000000 1.707530 
# 
# From -- ./inp_files/32192.got.cif
#   From: 2010.05.17/outbox.cif.g08.bks.cpg/sg10_17_cif.got.tgz:32192.got - 2010.06.03 11:33:40.
