data_PCOD9154601
_publ_section_title
;
Structure prediction by ZEFSAII (Michael W. Deem and Ramdas Pophale) SiO2 
 PCOD9154601
Probable space group: P 2/M
;
_chemical_formula_sum "Si O2"
_cell_formula_units_Z 20
_cell_length_a 24.303199
_cell_length_b 7.824093
_cell_length_c 5.291179
_cell_angle_alpha 90.000000
_cell_angle_beta 109.045609
_cell_angle_gamma 90.000000
_cell_volume 951.044361
_symmetry_space_group_name_H-M "P 2/M"
_symmetry_group_IT_number 10
_symmetry_cell_setting 'monoclinic'
loop_
_space_group_symop_operation_xyz
x,y,z
-x,y,-z
-x,-y,-z
x,-y,z
loop_
_atom_site_type_symbol
_atom_site_label
_atom_site_fract_x
_atom_site_fract_y
_atom_site_fract_z
Si Si1 0.034312 0.709117 0.801846
Si Si2 0.367306 0.702402 0.852836
Si Si3 0.168121 0.708900 0.971279
Si Si4 0.236332 0.290414 0.572745
Si Si5 0.564492 0.797231 0.544787
O O1 0.034770 0.500000 0.804033
O O2 0.000000 0.762746 0.500000
O O3 0.101367 0.764660 0.897795
O O4 0.000000 0.764394 0.000000
O O5 0.362211 0.500000 0.834116
O O6 0.302425 0.771781 0.706060
O O7 0.410544 0.753498 0.692425
O O8 0.392399 0.745811 0.164965
O O9 0.167677 0.500000 0.971481
O O10 0.207044 0.763827 0.267013
O O11 0.197268 0.762199 0.752391
O O12 0.237061 0.500000 0.572324
O O13 0.500000 0.723664 0.500000
O O14 0.559991 0.000000 0.548835
#
# Coordination Sequence:
#
# PCOD9154601 Si02
#       5
#     4   4   4   4   4
#     4   9  15  21  30  47  73 111 162 208 240 285
#     4  11  22  37  59  85 110 139 184 233 268 313
#     4   9  15  24  37  54  83 121 160 206 256 301
#     4   9  17  28  43  65  91 121 161 210 260 305
#     4  11  24  41  59  81 112 147 179 215 270 335
#
# _framework density 21.029512
#
# number of rings (size 3 to 8) (size 9 to 14) (size 15 to 20)
#    0.000    2.200    0.000    4.200    0.000   12.000 
#    0.000    0.000    0.000    0.000    0.000    0.000 
#    0.000    0.000    0.000    0.000    0.000  252.000 
#
# Total GULP energy -111762.136263 kJ/mol
# GULP energy per Si atom -5588.106813 kJ/mol
# Density = 2.098165 g / cm^3
# Si number density = 21.029512 Si / 1000 Ang^3
#
#
#
# Elastic Constant Matrix: (Units=GPa)
#
#
# Indices 1 2 3 4 5 6 
#
# 1 63.8083 -1.4678 -27.4269 0.0000 1.5466 0.0000
# 2 -1.4678 30.3056 -2.4664 0.0000 0.6724 0.0000
# 3 -27.4269 -2.4664 68.4390 0.0000 -2.4001 0.0000
# 4 0.0000 0.0000 0.0000 2.4850 0.0000 -34.6825
# 5 1.5466 0.6724 -2.4001 0.0000 46.8752 0.0000
# 6 0.0000 0.0000 0.0000 -34.6825 0.0000 -57.7094
#
#
#
# Elastic Compliance Matrix: (Units=1/GPa)
#
#
# Indices 1 2 3 4 5 6 
#
# 1 0.019008 0.001550 0.007664 0.000000 -0.000257 0.000000
# 2 0.001550 0.033229 0.001803 0.000000 -0.000435 0.000000
# 3 0.007664 0.001803 0.017770 0.000000 0.000631 0.000000
# 4 0.000000 0.000000 0.000000 0.042866 0.000000 -0.025762
# 5 -0.000257 -0.000435 0.000631 0.000000 0.021380 0.000000
# 6 0.000000 0.000000 0.000000 -0.025762 0.000000 -0.001846
#
#
# Mechanical properties :
#
#
# Convention : Reuss Voigt Hill
#
# Bulk Modulus (GPa) = 10.86450 11.09230 10.97840
# Shear Modulus (GPa) = 35.44779 11.25775 23.35277
#
# Velocity S-wave (km/s) = 4.11009 2.31623 3.33600
# Velocity P-wave (km/s) = 5.26320 3.52694 4.47999
#
# Compressibility (1/GPa) = 0.09204292
#
# Stress axis : x y z
#
# Youngs Moduli (GPa) = 52.60876 30.09451 56.27404
#
# Poissons Ratio (x) = -0.04665 -0.43131
# Poissons Ratio (y) = -0.08155 -0.10149
# Poissons Ratio (z) = -0.40321 -0.05427
#
# Static dielectric constant tensor:
#      x y z
#    x 1.741730 0.000000 0.026480 
#    y 0.000000 1.862610 0.000000 
#    z 0.026480 0.000000 1.687130 
# 
# From -- ./inp_files/11987.got.cif
#   From: 2010.05.17/outbox.cif.g08.bks.cpg/sg10_6_cif.got.tgz:11987.got - 2010.06.03 11:33:40.
