data_PCOD9154418
_publ_section_title
;
Structure prediction by ZEFSAII (Michael W. Deem and Ramdas Pophale) SiO2 
 PCOD9154418
Probable space group: P 2/M
;
_chemical_formula_sum "Si O2"
_cell_formula_units_Z 28
_cell_length_a 15.804224
_cell_length_b 7.939295
_cell_length_c 20.379277
_cell_angle_alpha 90.000000
_cell_angle_beta 144.116092
_cell_angle_gamma 90.000000
_cell_volume 1498.817739
_symmetry_space_group_name_H-M "P 2/M"
_symmetry_group_IT_number 10
_symmetry_cell_setting 'monoclinic'
loop_
_space_group_symop_operation_xyz
x,y,z
-x,y,-z
-x,-y,-z
x,-y,z
loop_
_atom_site_type_symbol
_atom_site_label
_atom_site_fract_x
_atom_site_fract_y
_atom_site_fract_z
Si Si1 0.466611 0.303446 0.783722
Si Si2 0.801634 0.794727 0.600430
Si Si3 0.115041 0.300573 0.746793
Si Si4 0.509086 0.200661 0.347097
Si Si5 0.848635 0.195717 0.377612
Si Si6 0.398357 0.705481 0.996566
Si Si7 0.654056 0.805438 0.635061
O O1 0.500280 0.500000 0.801999
O O2 0.512107 0.229560 0.742653
O O3 0.295058 0.281571 0.685927
O O4 0.543586 0.231435 0.897157
O O5 0.667576 0.738978 0.470244
O O6 0.764861 0.733531 0.651294
O O7 0.954099 0.734326 0.669811
O O8 0.802736 0.000000 0.601350
O O9 0.133902 0.500000 0.746736
O O10 0.145880 0.211061 0.697295
O O11 0.235269 0.248423 0.875416
O O12 0.387118 0.270633 0.320256
O O13 0.510470 0.000000 0.359521
O O14 0.000000 0.265572 0.500000
O O15 0.839970 0.000000 0.392332
O O16 0.407219 0.500000 0.004050
O O17 0.500000 0.759797 0.000000
O O18 0.500000 0.807569 0.500000
O O19 0.699036 0.000000 0.673364
#
# Coordination Sequence:
#
# PCOD9154418 Si02
#       7
#     4   4   4   4   4   4   4
#     4  11  21  34  53  73  96 128 167 207 247 291
#     4   9  17  31  51  76 105 133 162 198 243 294
#     4  11  21  34  53  73  96 128 167 207 247 291
#     4   9  17  31  51  76 105 133 162 198 243 294
#     4  11  23  36  49  70 102 133 158 193 244 297
#     4   9  18  36  54  67  90 129 171 208 246 286
#     4   7  12  26  49  72  97 134 168 191 230 293
#
# _framework density 18.68139
#
# number of rings (size 3 to 8) (size 9 to 14) (size 15 to 20)
#    0.000    2.429    1.429    3.857    0.000    5.143 
#    0.000    4.286    0.000    3.429    0.000    6.000 
#    0.000    0.000    0.000    0.000    0.000    0.000 
#
# Total GULP energy -156120.160901 kJ/mol
# GULP energy per Si atom -5575.720032 kJ/mol
# Density = 1.863887 g / cm^3
# Si number density = 18.681390 Si / 1000 Ang^3
#
#
#
# Elastic Constant Matrix: (Units=GPa)
#
#
# Indices 1 2 3 4 5 6 
#
# 1 84.6233 -5.4639 11.6053 0.0000 -33.3755 0.0000
# 2 -5.4639 15.7681 1.4771 0.0000 0.3087 0.0000
# 3 11.6053 1.4771 73.5450 0.0000 -29.4300 0.0000
# 4 0.0000 0.0000 0.0000 29.4242 0.0000 40.9607
# 5 -33.3755 0.3087 -29.4300 0.0000 26.2722 0.0000
# 6 0.0000 0.0000 0.0000 40.9607 0.0000 242.9149
#
#
#
# Elastic Compliance Matrix: (Units=1/GPa)
#
#
# Indices 1 2 3 4 5 6 
#
# 1 0.040215 0.010036 0.025100 0.000000 0.079087 0.000000
# 2 0.010036 0.066269 0.003399 0.000000 0.015778 0.000000
# 3 0.025100 0.003399 0.040439 0.000000 0.077147 0.000000
# 4 0.000000 0.000000 0.000000 0.044410 0.000000 -0.007489
# 5 0.079087 0.015778 0.077147 0.000000 0.224768 0.000000
# 6 0.000000 0.000000 0.000000 -0.007489 0.000000 0.005379
#
#
# Mechanical properties :
#
#
# Convention : Reuss Voigt Hill
#
# Bulk Modulus (GPa) = 4.46441 21.01927 12.74184
# Shear Modulus (GPa) = 11.93101 70.81011 41.37056
#
# Velocity S-wave (km/s) = 2.52991 6.16331 4.71099
# Velocity P-wave (km/s) = 3.30588 7.86920 6.03545
#
# Compressibility (1/GPa) = 0.22399386
#
# Stress axis : x y z
#
# Youngs Moduli (GPa) = 24.86647 15.08991 24.72833
#
# Poissons Ratio (x) = -0.15143 -0.62069
# Poissons Ratio (y) = -0.24955 -0.08406
# Poissons Ratio (z) = -0.62416 -0.05129
#
# Static dielectric constant tensor:
#      x y z
#    x 1.651360 0.000000 -0.022360 
#    y 0.000000 1.680310 0.000000 
#    z -0.022360 0.000000 1.644360 
# 
# From -- ./inp_files/54963.got.cif
#   From: 2010.05.17/outbox.cif.g08.bks.cpg/sg10_28_cif.got.tgz:54963.got - 2010.06.03 11:33:40.
