data_PCOD9154343
_publ_section_title
;
Structure prediction by ZEFSAII (Michael W. Deem and Ramdas Pophale) SiO2 
 PCOD9154343
Probable space group: P 2/M
;
_chemical_formula_sum "Si O2"
_cell_formula_units_Z 32
_cell_length_a 17.863399
_cell_length_b 14.898309
_cell_length_c 11.708957
_cell_angle_alpha 90.000000
_cell_angle_beta 29.770832
_cell_angle_gamma 90.000000
_cell_volume 1547.271940
_symmetry_space_group_name_H-M "P 2/M"
_symmetry_group_IT_number 10
_symmetry_cell_setting 'monoclinic'
loop_
_space_group_symop_operation_xyz
x,y,z
-x,y,-z
-x,-y,-z
x,-y,z
loop_
_atom_site_type_symbol
_atom_site_label
_atom_site_fract_x
_atom_site_fract_y
_atom_site_fract_z
Si Si1 0.665986 0.401182 0.333967
Si Si2 0.925693 0.666121 0.832255
Si Si3 0.256053 0.603004 0.367892
Si Si4 0.027491 0.858022 0.134521
Si Si5 0.869744 0.902216 0.579774
Si Si6 0.743753 0.279412 0.852149
Si Si7 0.748052 0.900570 0.344832
Si Si8 0.402829 0.724557 0.369862
O O1 0.500000 0.397398 0.500000
O O2 0.690596 0.500000 0.351028
O O3 0.669334 0.330045 0.430076
O O4 0.787697 0.383363 0.075161
O O5 0.965636 0.751425 0.858182
O O6 0.871165 0.701274 0.779615
O O7 0.076748 0.608524 0.627366
O O8 0.308996 0.500000 0.311187
O O9 0.269566 0.640484 0.221545
O O10 0.339811 0.674388 0.340184
O O11 0.964072 0.892280 0.338413
O O12 0.899536 0.891434 0.218509
O O13 0.189602 0.884961 0.867040
O O14 0.775524 0.813022 0.739194
O O15 0.000000 0.906001 0.500000
O O16 0.788866 0.000000 0.685396
O O17 0.583272 0.276542 0.127462
O O18 0.644278 0.826046 0.539985
O O19 0.683838 0.000000 0.437875
#
# Coordination Sequence:
#
# PCOD9154343 Si02
#       8
#     4   4   4   4   4   4   4   4
#     4  11  24  43  68  97 131 175 218 266 336 402
#     4  12  22  43  70  95 132 172 216 278 328 387
#     4  12  27  45  67  98 131 172 226 277 326 388
#     4  11  20  39  66  92 129 164 215 271 326 379
#     4  11  21  37  63  94 127 166 214 268 322 384
#     4  12  25  43  66  94 135 178 218 266 337 393
#     4  11  23  40  67  97 129 173 218 266 332 396
#     4  12  25  44  67  95 138 175 215 278 332 390
#
# _framework density 20.681563000000001
#
# number of rings (size 3 to 8) (size 9 to 14) (size 15 to 20)
#    0.000    0.500    6.250    3.000    0.000    4.000 
#    0.000    1.250    0.000    4.125    0.000    0.000 
#    0.000    0.000    0.000    0.000    0.000    0.000 
#
# Total GULP energy -178634.114673 kJ/mol
# GULP energy per Si atom -5582.316084 kJ/mol
# Density = 2.063449 g / cm^3
# Si number density = 20.681563 Si / 1000 Ang^3
#
#
#
# Elastic Constant Matrix: (Units=GPa)
#
#
# Indices 1 2 3 4 5 6 
#
# 1 44.9204 4.2229 3.3878 0.0000 14.0181 0.0000
# 2 4.2229 140.8863 12.3820 0.0000 6.5396 0.0000
# 3 3.3878 12.3820 69.1150 0.0000 4.4269 0.0000
# 4 0.0000 0.0000 0.0000 2.1188 0.0000 -2.6179
# 5 14.0181 6.5396 4.4269 0.0000 29.5257 0.0000
# 6 0.0000 0.0000 0.0000 -2.6179 0.0000 17.9489
#
#
#
# Elastic Compliance Matrix: (Units=1/GPa)
#
#
# Indices 1 2 3 4 5 6 
#
# 1 0.026154 -0.000172 -0.000463 0.000000 -0.012310 0.000000
# 2 -0.000172 0.007272 -0.001208 0.000000 -0.001348 0.000000
# 3 -0.000463 -0.001208 0.014819 0.000000 -0.001735 0.000000
# 4 0.000000 0.000000 0.000000 0.575710 0.000000 0.083968
# 5 -0.012310 -0.001348 -0.001735 0.000000 0.040272 0.000000
# 6 0.000000 0.000000 0.000000 0.083968 0.000000 0.067961
#
#
# Mechanical properties :
#
#
# Convention : Reuss Voigt Hill
#
# Bulk Modulus (GPa) = 22.44188 32.76746 27.60467
# Shear Modulus (GPa) = 6.66022 25.58060 16.12041
#
# Velocity S-wave (km/s) = 1.79648 3.52075 2.79491
# Velocity P-wave (km/s) = 3.89588 5.69260 4.87768
#
# Compressibility (1/GPa) = 0.04455954
#
# Stress axis : x y z
#
# Youngs Moduli (GPa) = 38.23488 137.51743 67.48170
#
# Poissons Ratio (x) = 0.02363 0.03123
# Poissons Ratio (y) = 0.00657 0.08152
# Poissons Ratio (z) = 0.01769 0.16612
#
# Static dielectric constant tensor:
#      x y z
#    x 1.544420 0.000000 -0.217740 
#    y 0.000000 1.809600 0.000000 
#    z -0.217740 0.000000 1.447360 
# 
# From -- ./inp_files/54013.got.cif
#   From: 2010.05.17/outbox.cif.g08.bks.cpg/sg10_28_cif.got.tgz:54013.got - 2010.06.03 11:33:40.
