data_PCOD9154992
_publ_section_title
;
Structure prediction by ZEFSAII (Michael W. Deem and Ramdas Pophale) SiO2 
 PCOD9154992
Probable space group: P 2/M
;
_chemical_formula_sum "Si O2"
_cell_formula_units_Z 32
_cell_length_a 11.573791
_cell_length_b 20.383538
_cell_length_c 16.068330
_cell_angle_alpha 90.000000
_cell_angle_beta 156.153074
_cell_angle_gamma 90.000000
_cell_volume 1532.582300
_symmetry_space_group_name_H-M "P 2/M"
_symmetry_group_IT_number 10
_symmetry_cell_setting 'monoclinic'
loop_
_space_group_symop_operation_xyz
x,y,z
-x,y,-z
-x,-y,-z
x,-y,z
loop_
_atom_site_type_symbol
_atom_site_label
_atom_site_fract_x
_atom_site_fract_y
_atom_site_fract_z
Si Si1 0.175421 0.576092 0.203775
Si Si2 0.436125 0.071035 0.089661
Si Si3 0.833837 0.574770 0.301293
Si Si4 0.671754 0.654044 0.452413
Si Si5 0.988092 0.929843 0.346441
Si Si6 0.540846 0.215370 0.162857
Si Si7 0.895967 0.786735 0.563230
Si Si8 0.670971 0.350843 0.950574
O O1 0.219986 0.500000 0.255709
O O2 0.467786 0.615300 0.380782
O O3 0.000000 0.575376 0.000000
O O4 0.970199 0.614308 0.131940
O O5 0.768293 0.072667 0.279359
O O6 0.394250 0.146087 0.089117
O O7 0.392836 0.000000 0.104803
O O8 0.227786 0.068079 0.873245
O O9 0.806046 0.500000 0.255219
O O10 0.532664 0.608138 0.122523
O O11 0.000000 0.574217 0.500000
O O12 0.034142 0.616513 0.373081
O O13 0.762093 0.729176 0.530694
O O14 0.490265 0.650992 0.245844
O O15 0.162740 0.862915 0.454832
O O16 0.142971 0.000000 0.451187
O O17 0.746496 0.227188 0.376739
O O18 0.326900 0.276013 0.017041
O O19 0.761482 0.214743 0.229768
#
# Coordination Sequence:
#
# PCOD9154992 Si02
#       8
#     4   4   4   4   4   4   4   4
#     4   9  16  24  34  50  76 109 140 168 201 243
#     4   8  14  24  37  55  81 109 134 163 200 240
#     4   9  14  20  32  48  70 101 132 162 201 245
#     4   9  15  23  33  50  76 105 135 167 202 239
#     4   8  14  24  37  55  81 109 134 163 200 240
#     4   9  15  23  36  55  81 109 134 164 202 243
#     4   9  15  23  36  55  81 109 134 164 202 243
#     4   9  15  23  33  50  76 105 135 167 202 239
#
# _framework density 20.879791999999998
#
# number of rings (size 3 to 8) (size 9 to 14) (size 15 to 20)
#    0.000    3.250    1.250    1.500    0.000    3.500 
#    0.000    2.500    0.000    0.000    0.000    1.750 
#    0.000   13.000    0.000    0.000    0.000    0.000 
#
# Total GULP energy -178332.244056 kJ/mol
# GULP energy per Si atom -5572.882627 kJ/mol
# Density = 2.083227 g / cm^3
# Si number density = 20.879792 Si / 1000 Ang^3
#
#
#
# Elastic Constant Matrix: (Units=GPa)
#
#
# Indices 1 2 3 4 5 6 
#
# 1 36.8198 31.9604 27.4152 0.0000 15.3916 0.0000
# 2 31.9604 246.2747 49.4925 0.0000 48.5991 0.0000
# 3 27.4152 49.4925 80.1193 0.0000 16.1102 0.0000
# 4 0.0000 0.0000 0.0000 37.4809 0.0000 -4.9003
# 5 15.3916 48.5991 16.1102 0.0000 38.6376 0.0000
# 6 0.0000 0.0000 0.0000 -4.9003 0.0000 13.0434
#
#
#
# Elastic Compliance Matrix: (Units=1/GPa)
#
#
# Indices 1 2 3 4 5 6 
#
# 1 0.040686 -0.000994 -0.011243 0.000000 -0.010270 0.000000
# 2 -0.000994 0.005788 -0.002020 0.000000 -0.006042 0.000000
# 3 -0.011243 -0.002020 0.017644 0.000000 -0.000337 0.000000
# 4 0.000000 0.000000 0.000000 0.028058 0.000000 0.010541
# 5 -0.010270 -0.006042 -0.000337 0.000000 0.037712 0.000000
# 6 0.000000 0.000000 0.000000 0.010541 0.000000 0.080627
#
#
# Mechanical properties :
#
#
# Convention : Reuss Voigt Hill
#
# Bulk Modulus (GPa) = 28.08703 64.55002 46.31852
# Shear Modulus (GPa) = 19.92831 34.78877 27.35854
#
# Velocity S-wave (km/s) = 3.09274 4.08627 3.62372
# Velocity P-wave (km/s) = 5.12195 7.29696 6.30397
#
# Compressibility (1/GPa) = 0.03560362
#
# Stress axis : x y z
#
# Youngs Moduli (GPa) = 24.57820 172.77871 56.67549
#
# Poissons Ratio (x) = 0.17176 0.63720
# Poissons Ratio (y) = 0.02443 0.11450
# Poissons Ratio (z) = 0.27633 0.34907
#
# Static dielectric constant tensor:
#      x y z
#    x 1.770350 0.000000 -0.073330 
#    y 0.000000 1.807970 0.000000 
#    z -0.073330 0.000000 1.762390 
# 
# From -- ./inp_files/71935.got.cif
#   From: 2010.05.17/outbox.cif.g08.bks.cpg/sg10_36_cif.got.tgz:71935.got - 2010.06.03 11:33:40.
