data_PCOD9154734
_publ_section_title
;
Structure prediction by ZEFSAII (Michael W. Deem and Ramdas Pophale) SiO2 
 PCOD9154734
Probable space group: P 2/M
;
_chemical_formula_sum "Si O2"
_cell_formula_units_Z 18
_cell_length_a 9.081075
_cell_length_b 10.122997
_cell_length_c 20.831805
_cell_angle_alpha 90.000000
_cell_angle_beta 29.303094
_cell_angle_gamma 90.000000
_cell_volume 937.267274
_symmetry_space_group_name_H-M "P 2/M"
_symmetry_group_IT_number 10
_symmetry_cell_setting 'monoclinic'
loop_
_space_group_symop_operation_xyz
x,y,z
-x,y,-z
-x,-y,-z
x,-y,z
loop_
_atom_site_type_symbol
_atom_site_label
_atom_site_fract_x
_atom_site_fract_y
_atom_site_fract_z
Si Si1 0.159090 0.500000 0.871833
Si Si2 0.157286 0.000000 0.604296
Si Si3 0.777510 0.500000 0.844151
Si Si4 0.132955 0.280075 0.778627
Si Si5 0.144465 0.000000 0.143857
Si Si6 0.799008 0.500000 0.688066
Si Si7 0.154079 0.757016 0.510105
O O1 0.078464 0.369584 0.862102
O O2 0.515386 0.500000 0.748597
O O3 0.000000 0.500000 0.000000
O O4 0.500000 0.000000 0.500000
O O5 0.109486 0.126129 0.577624
O O6 0.947068 0.000000 0.746447
O O7 0.688293 0.500000 0.803774
O O8 0.977188 0.369691 0.782818
O O9 0.500000 0.500000 0.000000
O O10 0.489576 0.266418 0.633270
O O11 0.992737 0.134471 0.833343
O O12 0.500000 0.000000 0.000000
O O13 0.998396 0.627049 0.597173
O O14 0.000000 0.787301 0.500000
#
# Coordination Sequence:
#
# PCOD9154734 Si02
#       7
#     2   2   2   4   2   2   4
#     4  11  24  43  66  96 140 181 222 270 344 403
#     4  12  25  44  71  97 133 181 221 276 339 401
#     4  11  24  40  64  95 133 175 225 269 338 397
#     4  11  23  44  68  94 136 177 216 286 329 393
#     4  12  26  46  71 101 138 172 231 281 332 400
#     4  12  23  38  68 101 127 174 227 281 325 397
#     4  12  24  43  68  99 135 170 226 278 340 392
#
# _framework density 19.204767
#
# number of rings (size 3 to 8) (size 9 to 14) (size 15 to 20)
#    0.000    0.444    4.444    5.333    0.000    2.667 
#    0.000    0.556    0.000    0.000    0.000    0.000 
#    0.000    0.000    0.000    0.000    0.000    0.000 
#
# Total GULP energy -100705.751659 kJ/mol
# GULP energy per Si atom -5594.763981 kJ/mol
# Density = 1.916106 g / cm^3
# Si number density = 19.204767 Si / 1000 Ang^3
#
#
#
# Elastic Constant Matrix: (Units=GPa)
#
#
# Indices 1 2 3 4 5 6 
#
# 1 129.1769 78.2636 51.0119 0.0000 11.7522 0.0000
# 2 78.2636 204.7971 59.5736 0.0000 6.1221 0.0000
# 3 51.0119 59.5736 134.7966 0.0000 5.4416 0.0000
# 4 0.0000 0.0000 0.0000 13.3904 0.0000 -1.9055
# 5 11.7522 6.1221 5.4416 0.0000 44.3369 0.0000
# 6 0.0000 0.0000 0.0000 -1.9055 0.0000 36.4916
#
#
#
# Elastic Compliance Matrix: (Units=1/GPa)
#
#
# Indices 1 2 3 4 5 6 
#
# 1 0.011010 -0.003393 -0.002581 0.000000 -0.002133 0.000000
# 2 -0.003393 0.006659 -0.001666 0.000000 0.000184 0.000000
# 3 -0.002581 -0.001666 0.009140 0.000000 -0.000208 0.000000
# 4 0.000000 0.000000 0.000000 0.075239 0.000000 0.003929
# 5 -0.002133 0.000184 -0.000208 0.000000 0.023120 0.000000
# 6 0.000000 0.000000 0.000000 0.003929 0.000000 0.027609
#
#
# Mechanical properties :
#
#
# Convention : Reuss Voigt Hill
#
# Bulk Modulus (GPa) = 86.74110 94.05209 90.39660
# Shear Modulus (GPa) = 29.08652 37.50522 33.29587
#
# Velocity S-wave (km/s) = 3.89594 4.42397 4.16832
# Velocity P-wave (km/s) = 8.09335 8.67035 8.38681
#
# Compressibility (1/GPa) = 0.01152856
#
# Stress axis : x y z
#
# Youngs Moduli (GPa) = 90.82335 150.17897 109.40786
#
# Poissons Ratio (x) = 0.50957 0.28239
# Poissons Ratio (y) = 0.30817 0.18230
# Poissons Ratio (z) = 0.23442 0.25023
#
# Static dielectric constant tensor:
#      x y z
#    x 1.669310 0.000000 -0.008390 
#    y 0.000000 1.639490 0.000000 
#    z -0.008390 0.000000 1.650110 
# 
# From -- ./inp_files/33644.got.cif
#   From: 2010.05.17/outbox.cif.g08.bks.cpg/sg10_17_cif.got.tgz:33644.got - 2010.06.03 11:33:40.
