data_PCOD9154700
_publ_section_title
;
Structure prediction by ZEFSAII (Michael W. Deem and Ramdas Pophale) SiO2 
 PCOD9154700
Probable space group: P 2/M
;
_chemical_formula_sum "Si O2"
_cell_formula_units_Z 32
_cell_length_a 8.487085
_cell_length_b 23.720765
_cell_length_c 14.602555
_cell_angle_alpha 90.000000
_cell_angle_beta 148.539880
_cell_angle_gamma 90.000000
_cell_volume 1534.290249
_symmetry_space_group_name_H-M "P 2/M"
_symmetry_group_IT_number 10
_symmetry_cell_setting 'monoclinic'
loop_
_space_group_symop_operation_xyz
x,y,z
-x,y,-z
-x,-y,-z
x,-y,z
loop_
_atom_site_type_symbol
_atom_site_label
_atom_site_fract_x
_atom_site_fract_y
_atom_site_fract_z
Si Si1 0.146626 0.871111 0.972944
Si Si2 0.860334 0.854443 0.336454
Si Si3 0.134072 0.435685 0.170337
Si Si4 0.119396 0.754481 0.217772
Si Si5 0.138385 0.064033 0.324832
Si Si6 0.678964 0.655268 0.993490
Si Si7 0.301689 0.374190 0.625103
Si Si8 0.203984 0.741081 0.473698
O O1 0.505427 0.865246 0.156947
O O2 0.000000 0.872666 0.000000
O O3 0.032229 0.814783 0.865813
O O4 0.022139 0.922630 0.851112
O O5 0.000000 0.875864 0.500000
O O6 0.012973 0.889664 0.331757
O O7 0.961221 0.788764 0.379935
O O8 0.154820 0.500000 0.212327
O O9 0.457457 0.406084 0.318731
O O10 0.906701 0.397590 0.116618
O O11 0.000000 0.436097 0.000000
O O12 0.169066 0.736494 0.347368
O O13 0.449171 0.759672 0.335666
O O14 0.891475 0.707359 0.068085
O O15 0.500000 0.070439 0.500000
O O16 0.071437 0.000000 0.320543
O O17 0.500000 0.666376 0.000000
O O18 0.463267 0.642234 0.800645
O O19 0.187819 0.318753 0.514711
O O20 0.000000 0.408440 0.500000
#
# Coordination Sequence:
#
# PCOD9154700 Si02
#       8
#     4   4   4   4   4   4   4   4
#     4  12  27  43  69 102 139 181 227 277 341 407
#     4  12  26  43  67 103 138 180 229 278 340 405
#     4   9  20  42  66  90 127 175 225 276 329 394
#     4  11  24  39  63  92 134 173 218 271 337 402
#     4  11  25  49  75 101 138 181 231 286 337 395
#     4  11  24  39  63  97 131 172 221 270 338 401
#     4  11  23  39  63  96 130 171 222 273 334 400
#     4  11  23  41  63  91 135 175 214 279 334 398
#
# _framework density 20.856549000000001
#
# number of rings (size 3 to 8) (size 9 to 14) (size 15 to 20)
#    0.000    1.000    2.500    3.750    7.000    2.000 
#    0.000    0.000    0.000    5.250    0.000    0.000 
#    0.000    0.000    0.000    0.000    0.000    0.000 
#
# Total GULP energy -178901.421393 kJ/mol
# GULP energy per Si atom -5590.669419 kJ/mol
# Density = 2.080908 g / cm^3
# Si number density = 20.856549 Si / 1000 Ang^3
#
#
#
# Elastic Constant Matrix: (Units=GPa)
#
#
# Indices 1 2 3 4 5 6 
#
# 1 56.5766 6.5236 17.6014 0.0000 4.6950 0.0000
# 2 6.5236 74.9821 5.2694 0.0000 11.7797 0.0000
# 3 17.6014 5.2694 87.6949 0.0000 27.9854 0.0000
# 4 0.0000 0.0000 0.0000 -1.8044 0.0000 -23.1239
# 5 4.6950 11.7797 27.9854 0.0000 39.5740 0.0000
# 6 0.0000 0.0000 0.0000 -23.1239 0.0000 -1.4305
#
#
#
# Elastic Compliance Matrix: (Units=1/GPa)
#
#
# Indices 1 2 3 4 5 6 
#
# 1 0.019030 -0.001539 -0.004072 0.000000 0.001080 0.000000
# 2 -0.001539 0.014142 0.000961 0.000000 -0.004707 0.000000
# 3 -0.004072 0.000961 0.015626 0.000000 -0.010853 0.000000
# 4 0.000000 0.000000 0.000000 0.002688 0.000000 -0.043455
# 5 0.001080 -0.004707 -0.010853 0.000000 0.034217 0.000000
# 6 0.000000 0.000000 0.000000 -0.043455 0.000000 0.003391
#
#
# Mechanical properties :
#
#
# Convention : Reuss Voigt Hill
#
# Bulk Modulus (GPa) = 25.31703 30.89359 28.10531
# Shear Modulus (GPa) = 44.81896 19.92509 32.37202
#
# Velocity S-wave (km/s) = 4.64067 3.09421 3.94398
# Velocity P-wave (km/s) = 6.39370 5.25453 5.85190
#
# Compressibility (1/GPa) = 0.03949910
#
# Stress axis : x y z
#
# Youngs Moduli (GPa) = 52.54944 70.70980 63.99521
#
# Poissons Ratio (x) = 0.10883 0.26056
# Poissons Ratio (y) = 0.08088 -0.06151
# Poissons Ratio (z) = 0.21396 -0.06796
#
# Static dielectric constant tensor:
#      x y z
#    x 1.749000 0.000000 0.046710 
#    y 0.000000 1.722310 0.000000 
#    z 0.046710 0.000000 1.739770 
# 
# From -- ./inp_files/62716.got.cif
#   From: 2010.05.17/outbox.cif.g08.bks.cpg/sg10_32_cif.got.tgz:62716.got - 2010.06.03 11:33:40.
