data_PCOD9154753
_publ_section_title
;
Structure prediction by ZEFSAII (Michael W. Deem and Ramdas Pophale) SiO2 
 PCOD9154753
Probable space group: P 2/M
;
_chemical_formula_sum "Si O2"
_cell_formula_units_Z 28
_cell_length_a 9.101366
_cell_length_b 14.916816
_cell_length_c 8.869418
_cell_angle_alpha 90.000000
_cell_angle_beta 92.843328
_cell_angle_gamma 90.000000
_cell_volume 1202.659954
_symmetry_space_group_name_H-M "P 2/M"
_symmetry_group_IT_number 10
_symmetry_cell_setting 'monoclinic'
loop_
_space_group_symop_operation_xyz
x,y,z
-x,y,-z
-x,-y,-z
x,-y,z
loop_
_atom_site_type_symbol
_atom_site_label
_atom_site_fract_x
_atom_site_fract_y
_atom_site_fract_z
Si Si1 0.004811 0.400581 0.681672
Si Si2 0.691704 0.396542 0.121505
Si Si3 0.717281 0.893621 0.128216
Si Si4 0.923063 0.788699 0.349630
Si Si5 0.375386 0.393230 0.205450
Si Si6 0.668962 0.743266 0.555925
Si Si7 0.385242 0.893071 0.212929
O O1 0.942837 0.500000 0.731060
O O2 0.165091 0.399087 0.770132
O O3 0.974863 0.293169 0.702717
O O4 0.000000 0.406711 0.500000
O O5 0.651168 0.500000 0.093856
O O6 0.542917 0.358590 0.187096
O O7 0.710689 0.363830 0.950801
O O8 0.856072 0.846597 0.212237
O O9 0.560592 0.874520 0.202663
O O10 0.737783 0.000000 0.139422
O O11 0.689338 0.871925 0.951743
O O12 0.777454 0.748481 0.422073
O O13 0.000000 0.834124 0.500000
O O14 0.377879 0.500000 0.226635
O O15 0.310591 0.347849 0.348924
O O16 0.500000 0.742920 0.500000
O O17 0.682743 0.830463 0.663228
O O18 0.369432 0.000000 0.241089
#
# Coordination Sequence:
#
# PCOD9154753 Si02
#       7
#     4   4   4   4   4   4   4
#     4   9  18  33  54  76 105 153 201 231 266 328
#     4   8  15  30  52  80 110 147 188 235 292 339
#     4   9  19  39  65  89 115 152 190 231 290 352
#     4  11  24  39  56  85 122 156 193 237 290 348
#     4   9  19  32  51  84 120 147 185 238 294 347
#     4  12  23  35  57  91 115 151 195 238 296 331
#     4   9  20  38  63  92 116 144 190 242 286 341
#
# _framework density 23.281725000000002
#
# number of rings (size 3 to 8) (size 9 to 14) (size 15 to 20)
#    0.000    2.429    1.429    2.571    2.000    3.143 
#    0.000    0.714    0.000    1.714    0.000    7.000 
#    0.000    0.000    0.000    0.000    0.000    0.000 
#
# Total GULP energy -156146.754997 kJ/mol
# GULP energy per Si atom -5576.669821 kJ/mol
# Density = 2.322874 g / cm^3
# Si number density = 23.281725 Si / 1000 Ang^3
#
#
#
# Elastic Constant Matrix: (Units=GPa)
#
#
# Indices 1 2 3 4 5 6 
#
# 1 47.8003 6.4856 24.4081 0.0000 10.5442 0.0000
# 2 6.4856 109.6253 41.3356 0.0000 3.1118 0.0000
# 3 24.4081 41.3356 77.5023 0.0000 28.9831 0.0000
# 4 0.0000 0.0000 0.0000 41.5491 0.0000 1.3646
# 5 10.5442 3.1118 28.9831 0.0000 47.0936 0.0000
# 6 0.0000 0.0000 0.0000 1.3646 0.0000 24.7644
#
#
#
# Elastic Compliance Matrix: (Units=1/GPa)
#
#
# Indices 1 2 3 4 5 6 
#
# 1 0.025240 0.001832 -0.008790 0.000000 -0.000362 0.000000
# 2 0.001832 0.012127 -0.008562 0.000000 0.004058 0.000000
# 3 -0.008790 -0.008562 0.025057 0.000000 -0.012887 0.000000
# 4 0.000000 0.000000 0.000000 0.024112 0.000000 -0.001329
# 5 -0.000362 0.004058 -0.012887 0.000000 0.028979 0.000000
# 6 0.000000 0.000000 0.000000 -0.001329 0.000000 0.040454
#
#
# Mechanical properties :
#
#
# Convention : Reuss Voigt Hill
#
# Bulk Modulus (GPa) = 31.86503 42.15405 37.00954
# Shear Modulus (GPa) = 25.32013 33.52800 29.42406
#
# Velocity S-wave (km/s) = 3.30139 3.79898 3.55889
# Velocity P-wave (km/s) = 5.31494 6.11460 5.72874
#
# Compressibility (1/GPa) = 0.03138237
#
# Stress axis : x y z
#
# Youngs Moduli (GPa) = 39.61907 82.46106 39.90865
#
# Poissons Ratio (x) = -0.15103 0.35081
# Poissons Ratio (y) = -0.07256 0.34171
# Poissons Ratio (z) = 0.34827 0.70605
#
# Static dielectric constant tensor:
#      x y z
#    x 1.963940 0.000000 0.007780 
#    y 0.000000 1.915230 0.000000 
#    z 0.007780 0.000000 1.875810 
# 
# From -- ./inp_files/25044.got.cif
#   From: 2010.05.17/outbox.cif.g08.bks.cpg/sg10_13_cif.got.tgz:25044.got - 2010.06.03 11:33:40.
