data_PCOD9154278
_publ_section_title
;
Structure prediction by ZEFSAII (Michael W. Deem and Ramdas Pophale) SiO2 
 PCOD9154278
Probable space group: P 2/M
;
_chemical_formula_sum "Si O2"
_cell_formula_units_Z 28
_cell_length_a 22.591370
_cell_length_b 14.192391
_cell_length_c 9.892401
_cell_angle_alpha 90.000000
_cell_angle_beta 28.169958
_cell_angle_gamma 90.000000
_cell_volume 1497.350135
_symmetry_space_group_name_H-M "P 2/M"
_symmetry_group_IT_number 10
_symmetry_cell_setting 'monoclinic'
loop_
_space_group_symop_operation_xyz
x,y,z
-x,y,-z
-x,-y,-z
x,-y,z
loop_
_atom_site_type_symbol
_atom_site_label
_atom_site_fract_x
_atom_site_fract_y
_atom_site_fract_z
Si Si1 0.223051 0.890400 0.249735
Si Si2 0.371051 0.114432 0.694636
Si Si3 0.893652 0.397056 0.096756
Si Si4 0.360261 0.397360 0.217417
Si Si5 0.742722 0.891034 0.349803
Si Si6 0.987789 0.199054 0.861173
Si Si7 0.375323 0.190333 0.160766
O O1 0.117594 0.824935 0.527727
O O2 0.347605 0.877713 0.092086
O O3 0.185712 0.000000 0.330502
O O4 0.260400 0.863902 0.022697
O O5 0.500000 0.149078 0.500000
O O6 0.342240 0.146763 0.601282
O O7 0.376948 0.000000 0.676214
O O8 0.898579 0.500000 0.017520
O O9 0.755255 0.389475 0.443304
O O10 0.000000 0.400203 0.000000
O O11 0.930909 0.302380 0.943101
O O12 0.341989 0.500000 0.185985
O O13 0.360826 0.297772 0.140005
O O14 0.500000 0.399785 0.000000
O O15 0.726139 0.833316 0.519967
O O16 0.712622 0.000000 0.437189
O O17 0.886405 0.878020 0.019501
O O18 0.000000 0.193089 0.000000
O O19 0.500000 0.177439 0.000000
#
# Coordination Sequence:
#
# PCOD9154278 Si02
#       7
#     4   4   4   4   4   4   4
#     4  11  22  35  52  74 107 146 177 218 267 312
#     4   9  20  38  54  71 100 140 185 225 262 308
#     4   9  16  29  49  72 104 141 173 214 269 320
#     4   9  17  30  48  74 106 135 169 220 274 320
#     4  11  21  33  51  74 105 143 176 215 261 310
#     4  11  20  33  50  78 111 136 174 219 265 317
#     4  11  20  31  51  80 105 134 179 220 263 319
#
# _framework density 18.699701000000001
#
# number of rings (size 3 to 8) (size 9 to 14) (size 15 to 20)
#    0.000    1.857    2.857    2.571    0.000    3.429 
#    0.000    2.143    0.000    0.000    0.000    5.000 
#    0.000    9.143    0.000    0.000    0.000    0.000 
#
# Total GULP energy -155908.528570 kJ/mol
# GULP energy per Si atom -5568.161735 kJ/mol
# Density = 1.865714 g / cm^3
# Si number density = 18.699701 Si / 1000 Ang^3
#
#
#
# Elastic Constant Matrix: (Units=GPa)
#
#
# Indices 1 2 3 4 5 6 
#
# 1 45.0614 -2.7456 7.5977 0.0000 -1.1045 0.0000
# 2 -2.7456 68.5521 13.3905 0.0000 -0.4199 0.0000
# 3 7.5977 13.3905 73.2597 0.0000 -16.1541 0.0000
# 4 0.0000 0.0000 0.0000 22.2599 0.0000 -10.8844
# 5 -1.1045 -0.4199 -16.1541 0.0000 27.6945 0.0000
# 6 0.0000 0.0000 0.0000 -10.8844 0.0000 8.0360
#
#
#
# Elastic Compliance Matrix: (Units=1/GPa)
#
#
# Indices 1 2 3 4 5 6 
#
# 1 0.022731 0.001448 -0.002774 0.000000 -0.000690 0.000000
# 2 0.001448 0.015281 -0.003304 0.000000 -0.001638 0.000000
# 3 -0.002774 -0.003304 0.016648 0.000000 0.009550 0.000000
# 4 0.000000 0.000000 0.000000 0.133023 0.000000 0.180174
# 5 -0.000690 -0.001638 0.009550 0.000000 0.041626 0.000000
# 6 0.000000 0.000000 0.000000 0.180174 0.000000 0.368478
#
#
# Mechanical properties :
#
#
# Convention : Reuss Voigt Hill
#
# Bulk Modulus (GPa) = 22.02724 24.81761 23.42243
# Shear Modulus (GPa) = 8.03625 22.84013 15.43819
#
# Velocity S-wave (km/s) = 2.07530 3.49867 2.87642
# Velocity P-wave (km/s) = 4.18897 5.44255 4.85638
#
# Compressibility (1/GPa) = 0.04539833
#
# Stress axis : x y z
#
# Youngs Moduli (GPa) = 43.99276 65.44128 60.06906
#
# Poissons Ratio (x) = -0.09476 0.16664
# Poissons Ratio (y) = -0.06371 0.19849
# Poissons Ratio (z) = 0.12204 0.21625
#
# Static dielectric constant tensor:
#      x y z
#    x 1.655670 0.000000 -0.064830 
#    y 0.000000 1.685580 0.000000 
#    z -0.064830 0.000000 1.723030 
# 
# From -- ./inp_files/35257.got.cif
#   From: 2010.05.17/outbox.cif.g08.bks.cpg/sg10_18_cif.got.tgz:35257.got - 2010.06.03 11:33:40.
