data_PCOD9154096
_publ_section_title
;
Structure prediction by ZEFSAII (Michael W. Deem and Ramdas Pophale) SiO2 
 PCOD9154096
Probable space group: P 2/M
;
_chemical_formula_sum "Si O2"
_cell_formula_units_Z 28
_cell_length_a 9.646903
_cell_length_b 8.168467
_cell_length_c 21.859773
_cell_angle_alpha 90.000000
_cell_angle_beta 45.213005
_cell_angle_gamma 90.000000
_cell_volume 1222.552964
_symmetry_space_group_name_H-M "P 2/M"
_symmetry_group_IT_number 10
_symmetry_cell_setting 'monoclinic'
loop_
_space_group_symop_operation_xyz
x,y,z
-x,y,-z
-x,-y,-z
x,-y,z
loop_
_atom_site_type_symbol
_atom_site_label
_atom_site_fract_x
_atom_site_fract_y
_atom_site_fract_z
Si Si1 0.066542 0.813566 0.071209
Si Si2 0.350963 0.310539 0.770297
Si Si3 0.240812 0.690895 0.137944
Si Si4 0.915082 0.690112 0.462298
Si Si5 0.919717 0.192253 0.328853
Si Si6 0.515585 0.810613 0.399237
Si Si7 0.406879 0.697827 0.885232
O O1 0.201527 0.790576 0.089032
O O2 0.878465 0.702676 0.142596
O O3 0.999676 0.000000 0.086774
O O4 0.200755 0.765293 0.972518
O O5 0.401677 0.500000 0.742101
O O6 0.401037 0.206893 0.695333
O O7 0.452746 0.253690 0.801376
O O8 0.268435 0.500000 0.112793
O O9 0.425624 0.748246 0.119760
O O10 0.055001 0.709742 0.240140
O O11 0.972736 0.500000 0.439796
O O12 0.979802 0.777536 0.379967
O O13 0.681308 0.708062 0.536551
O O14 0.000000 0.755792 0.500000
O O15 0.693416 0.240040 0.388065
O O16 0.934417 0.000000 0.309066
O O17 0.465864 0.000000 0.428164
O O18 0.396623 0.500000 0.888860
#
# Coordination Sequence:
#
# PCOD9154096 Si02
#       7
#     4   4   4   4   4   4   4
#     4  12  24  40  62  93 128 167 216 266 318 380
#     4  11  23  41  66  93 126 169 215 264 317 379
#     4  11  23  41  66  93 126 169 215 264 317 379
#     4  11  26  45  68  98 132 169 212 257 307 375
#     4  11  24  43  67  97 131 166 210 263 318 378
#     4  11  24  43  67  97 131 166 210 263 318 378
#     4  10  24  42  62  91 126 167 216 268 321 378
#
# _framework density 22.902892999999999
#
# number of rings (size 3 to 8) (size 9 to 14) (size 15 to 20)
#    0.000    1.000    1.429    4.714    2.000   10.286 
#    0.000    0.000    0.000    0.000    0.000    0.000 
#    0.000    0.000    0.000    0.000    0.000    0.000 
#
# Total GULP energy -156792.331448 kJ/mol
# GULP energy per Si atom -5599.726123 kJ/mol
# Density = 2.285077 g / cm^3
# Si number density = 22.902893 Si / 1000 Ang^3
#
#
#
# Elastic Constant Matrix: (Units=GPa)
#
#
# Indices 1 2 3 4 5 6 
#
# 1 79.6131 1.3631 15.7659 0.0000 18.6427 0.0000
# 2 1.3631 28.1963 1.8055 0.0000 5.3367 0.0000
# 3 15.7659 1.8055 53.6035 0.0000 17.3400 0.0000
# 4 0.0000 0.0000 0.0000 -9.1307 0.0000 -9.7704
# 5 18.6427 5.3367 17.3400 0.0000 41.6021 0.0000
# 6 0.0000 0.0000 0.0000 -9.7704 0.0000 48.2795
#
#
#
# Elastic Compliance Matrix: (Units=1/GPa)
#
#
# Indices 1 2 3 4 5 6 
#
# 1 0.014317 0.000498 -0.002464 0.000000 -0.005453 0.000000
# 2 0.000498 0.036370 0.000243 0.000000 -0.004990 0.000000
# 3 -0.002464 0.000243 0.021990 0.000000 -0.008093 0.000000
# 4 0.000000 0.000000 0.000000 -0.090026 0.000000 -0.018219
# 5 -0.005453 -0.004990 -0.008093 0.000000 0.030494 0.000000
# 6 0.000000 0.000000 0.000000 -0.018219 0.000000 0.017026
#
#
# Mechanical properties :
#
#
# Convention : Reuss Voigt Hill
#
# Bulk Modulus (GPa) = 14.44457 22.14244 18.29350
# Shear Modulus (GPa) = 88.19125 25.64872 56.91999
#
# Velocity S-wave (km/s) = 6.21210 3.35011 4.99066
# Velocity P-wave (km/s) = 7.60093 4.96520 6.41979
#
# Compressibility (1/GPa) = 0.06923018
#
# Stress axis : x y z
#
# Youngs Moduli (GPa) = 69.84715 27.49486 45.47560
#
# Poissons Ratio (x) = -0.01368 0.11204
# Poissons Ratio (y) = -0.03476 -0.01104
# Poissons Ratio (z) = 0.17209 -0.00667
#
# Static dielectric constant tensor:
#      x y z
#    x 1.872990 0.000000 0.004280 
#    y 0.000000 1.768270 0.000000 
#    z 0.004280 0.000000 1.822670 
# 
# From -- ./inp_files/82175.got.cif
#   From: 2010.05.17/outbox.cif.g08.bks.cpg/sg10_42_cif.got.tgz:82175.got - 2010.06.03 11:33:40.
